data_PCOD9353507
_publ_section_title
;
Structure prediction by ZEFSAII (Michael W. Deem and Ramdas Pophale) SiO2 
 PCOD9353507
Probable space group: C C C 2
;
_chemical_formula_sum "Si O2"
_cell_formula_units_Z 64
_cell_length_a 8.992592
_cell_length_b 14.257128
_cell_length_c 22.435076
_cell_angle_alpha 90.000000
_cell_angle_beta 90.000000
_cell_angle_gamma 90.000000
_cell_volume 2876.368231
_symmetry_space_group_name_H-M "C C C 2"
_symmetry_group_IT_number 37
_symmetry_cell_setting 'orthorhombic'
loop_
_space_group_symop_operation_xyz
x,y,z
-x,-y,z
-x,y,1/2+z
x,-y,1/2+z
1/2+x,1/2+y,z
1/2-x,1/2-y,z
1/2-x,1/2+y,1/2+z
1/2+x,1/2-y,1/2+z
loop_
_atom_site_type_symbol
_atom_site_label
_atom_site_fract_x
_atom_site_fract_y
_atom_site_fract_z
Si Si1 0.625831 0.688894 0.333560
Si Si2 0.638017 0.837113 0.169125
Si Si3 0.581331 0.095078 0.541250
Si Si4 0.378309 0.582446 0.471997
Si Si5 0.323285 0.522979 0.212168
Si Si6 0.177504 0.010362 0.848204
Si Si7 0.101102 0.784303 0.234057
Si Si8 0.425238 0.761313 0.959715
O O1 0.750000 0.750000 0.302080
O O2 0.711299 0.598974 0.360699
O O3 0.504896 0.669582 0.283695
O O4 0.562653 0.747787 0.388412
O O5 0.750000 0.750000 0.173215
O O6 0.588139 0.844621 0.100796
O O7 0.722553 0.936591 0.186058
O O8 0.494153 0.801035 0.206366
O O9 0.747321 0.074565 0.518919
O O10 0.490773 0.145882 0.488665
O O11 0.500000 0.000000 0.557107
O O12 0.500000 0.500000 0.475160
O O13 0.302122 0.575175 0.405751
O O14 0.470048 0.676994 0.482098
O O15 0.500000 0.500000 0.207715
O O16 0.268833 0.530314 0.281539
O O17 0.334731 0.632551 0.190980
O O18 0.000000 0.000000 0.844449
O O19 0.250000 0.750000 0.265620
O O20 0.250000 0.750000 0.974150
#
# Coordination Sequence:
#
# PCOD9353507 Si02
#       8
#     8   8   8   8   8   8   8   8
#     4  11  21  39  70 104 143 183 226 285 354 439
#     4  12  26  50  73 100 136 194 248 297 354 430
#     4  12  30  48  68  98 144 184 244 303 351 415
#     4  11  21  43  72 101 140 184 230 286 356 428
#     4  11  21  42  75 103 138 183 236 292 355 433
#     4  10  17  36  67 102 137 174 223 282 349 430
#     4  12  26  42  70 110 144 183 232 295 367 431
#     4  11  23  43  72 103 139 184 235 288 355 425
#
# _framework density 22.250281000000001
#
# number of rings (size 3 to 8) (size 9 to 14) (size 15 to 20)
#    0.000    0.750    6.250    3.000    3.500    3.000 
#    2.250    0.000    0.000    0.000    0.000    0.000 
#    0.000    0.000    0.000    0.000    0.000    0.000 
#
# Total GULP energy -178326.065484 kJ/mol
# GULP energy per Si atom -5572.689546 kJ/mol
# Density = 2.219964 g / cm^3
# Si number density = 22.250281 Si / 1000 Ang^3
#
#
#
# Elastic Constant Matrix: (Units=GPa)
#
#
# Indices 1 2 3 4 5 6 
#
# 1 107.1614 29.6147 19.5041 0.0000 0.0000 0.0000
# 2 29.6147 70.6753 3.0657 0.0000 0.0000 0.0000
# 3 19.5041 3.0657 75.0799 0.0000 0.0000 0.0000
# 4 0.0000 0.0000 0.0000 84.0594 0.0000 0.0000
# 5 0.0000 0.0000 0.0000 0.0000 -0.9260 0.0000
# 6 0.0000 0.0000 0.0000 0.0000 0.0000 38.8522
#
#
#
# Elastic Compliance Matrix: (Units=1/GPa)
#
#
# Indices 1 2 3 4 5 6 
#
# 1 0.011071 -0.004522 -0.002691 0.000000 0.000000 0.000000
# 2 -0.004522 0.016022 0.000521 0.000000 0.000000 0.000000
# 3 -0.002691 0.000521 0.013997 0.000000 0.000000 0.000000
# 4 0.000000 0.000000 0.000000 0.011896 0.000000 0.000000
# 5 0.000000 0.000000 0.000000 0.000000 -1.079889 0.000000
# 6 0.000000 0.000000 0.000000 0.000000 0.000000 0.025739
#
#
# Mechanical properties :
#
#
# Convention : Reuss Voigt Hill
#
# Bulk Modulus (GPa) = 36.09640 39.69840 37.89740
# Shear Modulus (GPa) = -5.10964 37.77926 16.33481
#
# Velocity S-wave (km/s) = -1.51704 4.12506 2.71244
# Velocity P-wave (km/s) = 3.63174 6.36935 5.18450
#
# Compressibility (1/GPa) = 0.02770360
#
# Stress axis : x y z
#
# Youngs Moduli (GPa) = 90.32294 62.41556 71.44354
#
# Poissons Ratio (x) = 0.28227 0.19229
# Poissons Ratio (y) = 0.40848 -0.03720
# Poissons Ratio (z) = 0.24310 -0.03250
#
# Static dielectric constant tensor:
#      x y z
#    x 1.824330 0.000000 0.000000 
#    y 0.000000 1.967970 0.000000 
#    z 0.000000 0.000000 1.804820 
# 
# From -- ./inp_files/18498.got.cif
#   From: 2010.05.17/outbox.cif.g08.bks.cpg/sg37_10_cif.got.tgz:18498.got - 2010.06.03 17:53:42.
