data_PCOD9353151
_publ_section_title
;
Structure prediction by ZEFSAII (Michael W. Deem and Ramdas Pophale) SiO2 
 PCOD9353151
Probable space group: C M C 21
;
_chemical_formula_sum "Si O2"
_cell_formula_units_Z 48
_cell_length_a 16.716904
_cell_length_b 11.832891
_cell_length_c 10.421101
_cell_angle_alpha 90.000000
_cell_angle_beta 90.000000
_cell_angle_gamma 90.000000
_cell_volume 2061.390724
_symmetry_space_group_name_H-M "C M C 21"
_symmetry_group_IT_number 36
_symmetry_cell_setting 'orthorhombic'
loop_
_space_group_symop_operation_xyz
x,y,z
-x,-y,1/2+z
x,-y,1/2+z
-x,y,z
1/2+x,1/2+y,z
1/2-x,1/2-y,1/2+z
1/2+x,1/2-y,1/2+z
1/2-x,1/2+y,z
loop_
_atom_site_type_symbol
_atom_site_label
_atom_site_fract_x
_atom_site_fract_y
_atom_site_fract_z
Si Si1 0.828357 0.011347 0.489280
Si Si2 0.409565 0.302909 0.133168
Si Si3 0.794285 0.802974 0.805751
Si Si4 0.820497 0.409294 0.591819
Si Si5 0.408868 0.127621 0.669845
Si Si6 0.131027 0.232392 0.924263
O O1 0.853320 0.088704 0.609681
O O2 0.842314 0.095555 0.371269
O O3 0.734548 0.978076 0.492434
O O4 0.875728 0.895025 0.477305
O O5 0.500000 0.330103 0.096755
O O6 0.375498 0.196280 0.053507
O O7 0.405430 0.266613 0.281979
O O8 0.745024 0.855543 0.687295
O O9 0.849802 0.704181 0.753721
O O10 0.725187 0.759717 0.902367
O O11 0.875397 0.501118 0.661922
O O12 0.500000 0.130571 0.715293
O O13 0.404222 0.181194 0.526494
#
# Coordination Sequence:
#
# PCOD9353151 Si02
#       6
#     8   8   8   8   8   8
#     4  12  22  43  70 100 130 183 238 275 337 423
#     4  11  26  44  67 101 141 179 225 291 356 404
#     4  11  23  43  72  99 136 180 240 275 342 423
#     4  11  22  45  69  98 129 185 229 277 338 422
#     4  12  25  44  71 108 140 173 231 301 352 399
#     4  11  24  43  71  98 138 188 231 275 347 427
#
# _framework density 23.285250000000001
#
# number of rings (size 3 to 8) (size 9 to 14) (size 15 to 20)
#    0.000    0.667    3.333    6.000    0.000    2.000 
#    0.000    0.000    0.000    0.000    0.000    0.000 
#    0.000    0.000    0.000    0.000    0.000    0.000 
#
# Total GULP energy -134362.224933 kJ/mol
# GULP energy per Si atom -5598.426039 kJ/mol
# Density = 2.323225 g / cm^3
# Si number density = 23.285250 Si / 1000 Ang^3
#
#
#
# Elastic Constant Matrix: (Units=GPa)
#
#
# Indices 1 2 3 4 5 6 
#
# 1 106.8483 39.9273 -2.2292 0.0000 0.0000 0.0000
# 2 39.9273 151.2022 10.6305 0.0000 0.0000 0.0000
# 3 -2.2292 10.6305 58.9922 0.0000 0.0000 0.0000
# 4 0.0000 0.0000 0.0000 28.1383 0.0000 0.0000
# 5 0.0000 0.0000 0.0000 0.0000 20.3968 0.0000
# 6 0.0000 0.0000 0.0000 0.0000 0.0000 12.0895
#
#
#
# Elastic Compliance Matrix: (Units=1/GPa)
#
#
# Indices 1 2 3 4 5 6 
#
# 1 0.010431 -0.002818 0.000902 0.000000 0.000000 0.000000
# 2 -0.002818 0.007460 -0.001451 0.000000 0.000000 0.000000
# 3 0.000902 -0.001451 0.017247 0.000000 0.000000 0.000000
# 4 0.000000 0.000000 0.000000 0.035539 0.000000 0.000000
# 5 0.000000 0.000000 0.000000 0.000000 0.049027 0.000000
# 6 0.000000 0.000000 0.000000 0.000000 0.000000 0.082717
#
#
# Mechanical properties :
#
#
# Convention : Reuss Voigt Hill
#
# Bulk Modulus (GPa) = 35.20601 45.96664 40.58632
# Shear Modulus (GPa) = 22.87056 30.03918 26.45487
#
# Velocity S-wave (km/s) = 3.13739 3.59563 3.37430
# Velocity P-wave (km/s) = 5.31757 6.08453 5.71394
#
# Compressibility (1/GPa) = 0.02840424
#
# Stress axis : x y z
#
# Youngs Moduli (GPa) = 95.86939 134.05274 57.98142
#
# Poissons Ratio (x) = 0.37774 -0.05230
# Poissons Ratio (y) = 0.27014 0.08412
# Poissons Ratio (z) = -0.08647 0.19448
#
# Static dielectric constant tensor:
#      x y z
#    x 1.870960 0.000000 0.000000 
#    y 0.000000 1.857100 0.000000 
#    z 0.000000 0.000000 1.947900 
# 
# From -- ./inp_files/8873.got.cif
#   From: 2010.05.17/outbox.cif.g08.bks.cpg/sg36_5_cif.got.tgz:8873.got - 2010.06.03 17:41:39.
