data_PCOD9353656
_publ_section_title
;
Structure prediction by ZEFSAII (Michael W. Deem and Ramdas Pophale) SiO2 
 PCOD9353656
Probable space group: C C C 2
;
_chemical_formula_sum "Si O2"
_cell_formula_units_Z 64
_cell_length_a 24.741104
_cell_length_b 11.762696
_cell_length_c 11.229558
_cell_angle_alpha 90.000000
_cell_angle_beta 90.000000
_cell_angle_gamma 90.000000
_cell_volume 3268.049383
_symmetry_space_group_name_H-M "C C C 2"
_symmetry_group_IT_number 37
_symmetry_cell_setting 'orthorhombic'
loop_
_space_group_symop_operation_xyz
x,y,z
-x,-y,z
-x,y,1/2+z
x,-y,1/2+z
1/2+x,1/2+y,z
1/2-x,1/2-y,z
1/2-x,1/2+y,1/2+z
1/2+x,1/2-y,1/2+z
loop_
_atom_site_type_symbol
_atom_site_label
_atom_site_fract_x
_atom_site_fract_y
_atom_site_fract_z
Si Si1 0.404300 0.694961 0.316110
Si Si2 0.111265 0.242446 0.540534
Si Si3 0.196018 0.703412 0.448534
Si Si4 0.526654 0.249572 0.845694
Si Si5 0.189955 0.223906 0.214475
Si Si6 0.100190 0.419188 0.240051
Si Si7 0.114544 0.069239 0.344057
Si Si8 0.860175 0.516271 0.491183
O O1 0.399154 0.715857 0.175905
O O2 0.357306 0.765077 0.378036
O O3 0.463824 0.731754 0.355558
O O4 0.395357 0.562990 0.346385
O O5 0.055634 0.276680 0.471939
O O6 0.128534 0.129139 0.469986
O O7 0.149906 0.350464 0.518039
O O8 0.250000 0.750000 0.386650
O O9 0.193396 0.771668 0.572416
O O10 0.190657 0.569344 0.478463
O O11 0.544445 0.149081 0.756981
O O12 0.559368 0.363753 0.806017
O O13 0.250000 0.250000 0.261223
O O14 0.147529 0.323192 0.247776
O O15 0.163133 0.108178 0.259035
O O16 0.109604 0.489719 0.362318
O O17 0.107659 0.476148 0.110922
#
# Coordination Sequence:
#
# PCOD9353656 Si02
#       8
#     8   8   8   8   8   8   8   8
#     4  12  22  40  66  92 131 165 209 281 317 372
#     4   9  22  40  60  94 129 164 224 248 326 394
#     4  10  24  39  61  96 124 165 216 262 323 380
#     4   8  20  40  56  94 127 167 209 251 325 389
#     4   9  18  37  61  87 122 167 213 252 317 394
#     4   9  18  35  63  90 125 168 218 258 321 387
#     4   9  21  40  59  91 125 163 213 259 316 391
#     4  10  18  40  65  84 129 170 205 272 311 380
#
# _framework density 19.583546999999999
#
# number of rings (size 3 to 8) (size 9 to 14) (size 15 to 20)
#    0.750    1.750    1.250    1.125    1.750    4.000 
#    2.250   10.000    0.000    0.000    0.000    0.000 
#    0.000    0.000    0.000    0.000    0.000    0.000 
#
# Total GULP energy -178146.639106 kJ/mol
# GULP energy per Si atom -5567.082472 kJ/mol
# Density = 1.953897 g / cm^3
# Si number density = 19.583547 Si / 1000 Ang^3
#
#
#
# Elastic Constant Matrix: (Units=GPa)
#
#
# Indices 1 2 3 4 5 6 
#
# 1 106.6535 44.5978 11.5437 0.0000 0.0000 0.0000
# 2 44.5978 88.5896 22.8429 0.0000 0.0000 0.0000
# 3 11.5437 22.8429 78.0342 0.0000 0.0000 0.0000
# 4 0.0000 0.0000 0.0000 17.5238 0.0000 0.0000
# 5 0.0000 0.0000 0.0000 0.0000 18.0618 0.0000
# 6 0.0000 0.0000 0.0000 0.0000 0.0000 13.3754
#
#
#
# Elastic Compliance Matrix: (Units=1/GPa)
#
#
# Indices 1 2 3 4 5 6 
#
# 1 0.011876 -0.005977 -0.000007 0.000000 0.000000 0.000000
# 2 -0.005977 0.015218 -0.003570 0.000000 0.000000 0.000000
# 3 -0.000007 -0.003570 0.013861 0.000000 0.000000 0.000000
# 4 0.000000 0.000000 0.000000 0.057065 0.000000 0.000000
# 5 0.000000 0.000000 0.000000 0.000000 0.055365 0.000000
# 6 0.000000 0.000000 0.000000 0.000000 0.000000 0.074764
#
#
# Mechanical properties :
#
#
# Convention : Reuss Voigt Hill
#
# Bulk Modulus (GPa) = 45.77551 47.91623 46.84587
# Shear Modulus (GPa) = 19.64323 22.74507 21.19415
#
# Velocity S-wave (km/s) = 3.17053 3.41168 3.29331
# Velocity P-wave (km/s) = 6.06863 6.32773 6.19953
#
# Compressibility (1/GPa) = 0.02184574
#
# Stress axis : x y z
#
# Youngs Moduli (GPa) = 84.20208 65.71374 72.14412
#
# Poissons Ratio (x) = 0.39276 0.00052
# Poissons Ratio (y) = 0.50326 0.25759
# Poissons Ratio (z) = 0.00061 0.23463
#
# Static dielectric constant tensor:
#      x y z
#    x 1.711100 0.000000 0.000000 
#    y 0.000000 2.026740 0.000000 
#    z 0.000000 0.000000 1.706640 
# 
# From -- ./inp_files/8923.got.cif
#   From: 2010.05.17/outbox.cif.g08.bks.cpg/sg37_5_cif.got.tgz:8923.got - 2010.06.03 17:53:42.
