data_PCOD9353493
_publ_section_title
;
Structure prediction by ZEFSAII (Michael W. Deem and Ramdas Pophale) SiO2 
 PCOD9353493
Probable space group: C C C 2
;
_chemical_formula_sum "Si O2"
_cell_formula_units_Z 64
_cell_length_a 14.484404
_cell_length_b 13.642913
_cell_length_c 17.582821
_cell_angle_alpha 90.000000
_cell_angle_beta 90.000000
_cell_angle_gamma 90.000000
_cell_volume 3474.531827
_symmetry_space_group_name_H-M "C C C 2"
_symmetry_group_IT_number 37
_symmetry_cell_setting 'orthorhombic'
loop_
_space_group_symop_operation_xyz
x,y,z
-x,-y,z
-x,y,1/2+z
x,-y,1/2+z
1/2+x,1/2+y,z
1/2-x,1/2-y,z
1/2-x,1/2+y,1/2+z
1/2+x,1/2-y,1/2+z
loop_
_atom_site_type_symbol
_atom_site_label
_atom_site_fract_x
_atom_site_fract_y
_atom_site_fract_z
Si Si1 0.254297 0.527912 0.059120
Si Si2 0.930602 0.913274 0.065903
Si Si3 0.678491 0.839878 0.428355
Si Si4 0.976996 0.711818 0.538655
Si Si5 0.647738 0.216289 0.764031
Si Si6 0.156462 0.801368 0.161483
Si Si7 0.485525 0.609745 0.741887
Si Si8 0.081348 0.568837 0.636801
O O1 0.327188 0.441686 0.045567
O O2 0.310799 0.610897 0.105768
O O3 0.170702 0.491530 0.111603
O O4 0.217406 0.572832 0.980337
O O5 0.940644 0.905744 0.157707
O O6 0.965038 0.810940 0.033402
O O7 0.000000 0.000000 0.041548
O O8 0.750000 0.750000 0.437687
O O9 0.581889 0.809413 0.464948
O O10 0.663337 0.850104 0.338739
O O11 0.902998 0.729259 0.607324
O O12 0.040809 0.622302 0.562502
O O13 0.750000 0.250000 0.740189
O O14 0.582470 0.311032 0.780845
O O15 0.604118 0.153204 0.696906
O O16 0.250000 0.750000 0.189563
O O17 0.085683 0.842607 0.224078
O O18 0.500000 0.500000 0.775032
O O19 0.000000 0.500000 0.667186
#
# Coordination Sequence:
#
# PCOD9353493 Si02
#       8
#     8   8   8   8   8   8   8   8
#     4  12  20  34  62  90 114 154 208 252 290 355
#     4  10  17  31  59  90 114 143 198 262 290 329
#     4  11  21  40  62  86 121 159 201 245 306 369
#     4  11  19  37  60  87 118 150 203 248 295 352
#     4  11  25  41  59  88 131 165 190 249 315 372
#     4  11  17  31  60  84 114 147 201 253 283 333
#     4  10  19  36  58  91 121 155 199 254 301 346
#     4  12  24  38  59  93 120 158 205 244 301 359
#
# _framework density 18.419747999999998
#
# number of rings (size 3 to 8) (size 9 to 14) (size 15 to 20)
#    0.000    1.000   10.000    0.750    0.000    0.000 
#    2.250    3.125    0.000    0.000    0.000    0.000 
#    0.000    0.000    0.000    0.000    0.000    0.000 
#
# Total GULP energy -178608.189478 kJ/mol
# GULP energy per Si atom -5581.505921 kJ/mol
# Density = 1.837782 g / cm^3
# Si number density = 18.419748 Si / 1000 Ang^3
#
#
#
# Elastic Constant Matrix: (Units=GPa)
#
#
# Indices 1 2 3 4 5 6 
#
# 1 111.8690 35.9053 18.4007 0.0000 0.0000 0.0000
# 2 35.9053 57.5378 7.3834 0.0000 0.0000 0.0000
# 3 18.4007 7.3834 33.9194 0.0000 0.0000 0.0000
# 4 0.0000 0.0000 0.0000 6.4618 0.0000 0.0000
# 5 0.0000 0.0000 0.0000 0.0000 8.0119 0.0000
# 6 0.0000 0.0000 0.0000 0.0000 0.0000 39.0419
#
#
#
# Elastic Compliance Matrix: (Units=1/GPa)
#
#
# Indices 1 2 3 4 5 6 
#
# 1 0.011948 -0.006815 -0.004998 0.000000 0.000000 0.000000
# 2 -0.006815 0.021766 -0.001041 0.000000 0.000000 0.000000
# 3 -0.004998 -0.001041 0.032420 0.000000 0.000000 0.000000
# 4 0.000000 0.000000 0.000000 0.154755 0.000000 0.000000
# 5 0.000000 0.000000 0.000000 0.000000 0.124815 0.000000
# 6 0.000000 0.000000 0.000000 0.000000 0.000000 0.025614
#
#
# Mechanical properties :
#
#
# Convention : Reuss Voigt Hill
#
# Bulk Modulus (GPa) = 24.73661 36.30055 30.51858
# Shear Modulus (GPa) = 12.18023 20.14557 16.16290
#
# Velocity S-wave (km/s) = 2.57429 3.31069 2.96544
# Velocity P-wave (km/s) = 4.72170 5.86212 5.32254
#
# Compressibility (1/GPa) = 0.04042591
#
# Stress axis : x y z
#
# Youngs Moduli (GPa) = 83.69279 45.94298 30.84536
#
# Poissons Ratio (x) = 0.31309 0.15418
# Poissons Ratio (y) = 0.57035 0.03211
# Poissons Ratio (z) = 0.41833 0.04783
#
# Static dielectric constant tensor:
#      x y z
#    x 1.641290 0.000000 0.000000 
#    y 0.000000 1.668370 0.000000 
#    z 0.000000 0.000000 1.599940 
# 
# From -- ./inp_files/15299.got.cif
#   From: 2010.05.17/outbox.cif.g08.bks.cpg/sg37_8_cif.got.tgz:15299.got - 2010.06.03 17:53:42.
