data_PCOD9353208
_publ_section_title
;
Structure prediction by ZEFSAII (Michael W. Deem and Ramdas Pophale) SiO2 
 PCOD9353208
Probable space group: C M C 21
;
_chemical_formula_sum "Si O2"
_cell_formula_units_Z 48
_cell_length_a 17.496257
_cell_length_b 9.092416
_cell_length_c 16.579266
_cell_angle_alpha 90.000000
_cell_angle_beta 90.000000
_cell_angle_gamma 90.000000
_cell_volume 2637.483470
_symmetry_space_group_name_H-M "C M C 21"
_symmetry_group_IT_number 36
_symmetry_cell_setting 'orthorhombic'
loop_
_space_group_symop_operation_xyz
x,y,z
-x,-y,1/2+z
x,-y,1/2+z
-x,y,z
1/2+x,1/2+y,z
1/2-x,1/2-y,1/2+z
1/2+x,1/2-y,1/2+z
1/2-x,1/2+y,z
loop_
_atom_site_type_symbol
_atom_site_label
_atom_site_fract_x
_atom_site_fract_y
_atom_site_fract_z
Si Si1 0.306072 0.716973 0.291700
Si Si2 0.312249 0.987294 0.889377
Si Si3 0.411038 0.438709 0.279848
Si Si4 0.272209 0.393044 0.544214
Si Si5 0.296651 0.668590 0.653103
Si Si6 0.411343 0.263627 0.447084
O O1 0.237935 0.620954 0.332633
O O2 0.372879 0.599433 0.279506
O O3 0.274669 0.787324 0.209386
O O4 0.326423 0.856659 0.346910
O O5 0.386699 0.897737 0.916502
O O6 0.261806 0.022173 0.967788
O O7 0.500000 0.445779 0.261675
O O8 0.367788 0.338597 0.213856
O O9 0.401239 0.369407 0.369017
O O10 0.289499 0.509227 0.613897
O O11 0.208618 0.282415 0.579584
O O12 0.349074 0.311765 0.513824
O O13 0.500000 0.270543 0.472508
#
# Coordination Sequence:
#
# PCOD9353208 Si02
#       6
#     8   8   8   8   8   8
#     4  12  20  39  67  91 123 166 220 256 298 381
#     4  12  20  39  67  93 119 166 218 257 297 381
#     4  11  24  42  63  92 127 166 210 262 320 375
#     4  12  22  37  64  93 120 165 213 257 313 375
#     4  12  22  37  64  94 120 165 210 260 309 379
#     4  11  24  42  63  91 129 166 207 266 321 371
#
# _framework density 18.199166999999999
#
# number of rings (size 3 to 8) (size 9 to 14) (size 15 to 20)
#    0.000    0.333   10.000    0.000    0.000    1.333 
#    0.000    0.833    0.000    0.000    0.000    0.000 
#    0.000    0.000    0.000    0.000    0.000    0.000 
#
# Total GULP energy -133986.028237 kJ/mol
# GULP energy per Si atom -5582.751177 kJ/mol
# Density = 1.815774 g / cm^3
# Si number density = 18.199167 Si / 1000 Ang^3
#
#
#
# Elastic Constant Matrix: (Units=GPa)
#
#
# Indices 1 2 3 4 5 6 
#
# 1 99.4927 43.1878 31.5300 0.0000 0.0000 0.0000
# 2 43.1878 88.7124 32.0180 0.0000 0.0000 0.0000
# 3 31.5300 32.0180 72.1524 0.0000 0.0000 0.0000
# 4 0.0000 0.0000 0.0000 40.3586 0.0000 0.0000
# 5 0.0000 0.0000 0.0000 0.0000 22.8294 0.0000
# 6 0.0000 0.0000 0.0000 0.0000 0.0000 27.3495
#
#
#
# Elastic Compliance Matrix: (Units=1/GPa)
#
#
# Indices 1 2 3 4 5 6 
#
# 1 0.013464 -0.005276 -0.003542 0.000000 0.000000 0.000000
# 2 -0.005276 0.015490 -0.004568 0.000000 0.000000 0.000000
# 3 -0.003542 -0.004568 0.017435 0.000000 0.000000 0.000000
# 4 0.000000 0.000000 0.000000 0.024778 0.000000 0.000000
# 5 0.000000 0.000000 0.000000 0.000000 0.043803 0.000000
# 6 0.000000 0.000000 0.000000 0.000000 0.000000 0.036564
#
#
# Mechanical properties :
#
#
# Convention : Reuss Voigt Hill
#
# Bulk Modulus (GPa) = 50.98072 52.64770 51.81421
# Shear Modulus (GPa) = 27.04985 28.34894 27.69940
#
# Velocity S-wave (km/s) = 3.85947 3.95106 3.90553
# Velocity P-wave (km/s) = 6.92345 7.05733 6.99071
#
# Compressibility (1/GPa) = 0.01961526
#
# Stress axis : x y z
#
# Youngs Moduli (GPa) = 74.27312 64.55933 57.35733
#
# Poissons Ratio (x) = 0.34062 0.20318
# Poissons Ratio (y) = 0.39187 0.26201
# Poissons Ratio (z) = 0.26310 0.29491
#
# Static dielectric constant tensor:
#      x y z
#    x 1.598060 0.000000 0.000000 
#    y 0.000000 1.643470 0.000000 
#    z 0.000000 0.000000 1.668520 
# 
# From -- ./inp_files/12481.got.cif
#   From: 2010.05.17/outbox.cif.g08.bks.cpg/sg36_7_cif.got.tgz:12481.got - 2010.06.03 17:41:39.
