data_PCOD9353111
_publ_section_title
;
Structure prediction by ZEFSAII (Michael W. Deem and Ramdas Pophale) SiO2 
 PCOD9353111
Probable space group: C M C 21
;
_chemical_formula_sum "Si O2"
_cell_formula_units_Z 32
_cell_length_a 17.770438
_cell_length_b 12.542456
_cell_length_c 5.909384
_cell_angle_alpha 90.000000
_cell_angle_beta 90.000000
_cell_angle_gamma 90.000000
_cell_volume 1317.112679
_symmetry_space_group_name_H-M "C M C 21"
_symmetry_group_IT_number 36
_symmetry_cell_setting 'orthorhombic'
loop_
_space_group_symop_operation_xyz
x,y,z
-x,-y,1/2+z
x,-y,1/2+z
-x,y,z
1/2+x,1/2+y,z
1/2-x,1/2-y,1/2+z
1/2+x,1/2-y,1/2+z
1/2-x,1/2+y,z
loop_
_atom_site_type_symbol
_atom_site_label
_atom_site_fract_x
_atom_site_fract_y
_atom_site_fract_z
Si Si1 0.415022 0.578568 0.392490
Si Si2 0.157735 0.557354 0.959635
Si Si3 0.080035 0.730165 0.213961
Si Si4 0.325902 0.639951 0.005257
O O1 0.500000 0.567975 0.289921
O O2 0.425972 0.653251 0.607152
O O3 0.351740 0.646635 0.261924
O O4 0.376097 0.466615 0.449551
O O5 0.151073 0.509296 0.703077
O O6 0.096516 0.647325 0.016151
O O7 0.240676 0.609243 0.965362
O O8 0.148424 0.751054 0.384889
O O9 0.000000 0.703738 0.327451
#
# Coordination Sequence:
#
# PCOD9353111 Si02
#       4
#     8   8   8   8
#     4  11  21  39  67 103 142 178 229 302 384 453
#     4  12  29  51  74 104 148 204 256 306 359 438
#     4  11  27  45  73 107 145 199 252 310 380 451
#     4  12  23  41  70 106 145 187 237 310 383 458
#
# _framework density 24.295569
#
# number of rings (size 3 to 8) (size 9 to 14) (size 15 to 20)
#    0.000    0.500    5.000    2.250    7.000    1.000 
#    0.000    0.000    0.000    0.000    0.000    0.000 
#    0.000    0.000    0.000    0.000    0.000    0.000 
#
# Total GULP energy -89084.846093 kJ/mol
# GULP energy per Si atom -5567.802881 kJ/mol
# Density = 2.424027 g / cm^3
# Si number density = 24.295569 Si / 1000 Ang^3
#
#
#
# Elastic Constant Matrix: (Units=GPa)
#
#
# Indices 1 2 3 4 5 6 
#
# 1 62.4688 36.8354 -7.3016 0.0000 0.0000 0.0000
# 2 36.8354 53.7286 24.4246 0.0000 0.0000 0.0000
# 3 -7.3016 24.4246 63.7429 0.0000 0.0000 0.0000
# 4 0.0000 0.0000 0.0000 52.2588 0.0000 0.0000
# 5 0.0000 0.0000 0.0000 0.0000 22.5087 0.0000
# 6 0.0000 0.0000 0.0000 0.0000 0.0000 11.4488
#
#
#
# Elastic Compliance Matrix: (Units=1/GPa)
#
#
# Indices 1 2 3 4 5 6 
#
# 1 0.038124 -0.034054 0.017416 0.000000 0.000000 0.000000
# 2 -0.034054 0.052957 -0.024193 0.000000 0.000000 0.000000
# 3 0.017416 -0.024193 0.026953 0.000000 0.000000 0.000000
# 4 0.000000 0.000000 0.000000 0.019136 0.000000 0.000000
# 5 0.000000 0.000000 0.000000 0.000000 0.044427 0.000000
# 6 0.000000 0.000000 0.000000 0.000000 0.000000 0.087345
#
#
# Mechanical properties :
#
#
# Convention : Reuss Voigt Hill
#
# Bulk Modulus (GPa) = 27.49389 31.98411 29.73900
# Shear Modulus (GPa) = 13.78444 25.64207 19.71325
#
# Velocity S-wave (km/s) = 2.38453 3.25225 2.85159
# Velocity P-wave (km/s) = 4.34997 5.22456 4.80720
#
# Compressibility (1/GPa) = 0.03637172
#
# Stress axis : x y z
#
# Youngs Moduli (GPa) = 26.23016 18.88332 37.10174
#
# Poissons Ratio (x) = 0.64306 -0.64615
# Poissons Ratio (y) = 0.89325 0.89758
# Poissons Ratio (z) = -0.45682 0.45683
#
# Static dielectric constant tensor:
#      x y z
#    x 2.076560 0.000000 0.000000 
#    y 0.000000 1.983190 0.000000 
#    z 0.000000 0.000000 2.203260 
# 
# From -- ./inp_files/1263.got.cif
#   From: 2010.05.17/outbox.cif.g08.bks.cpg/sg36_1_cif.got.tgz:1263.got - 2010.06.03 17:41:39.
