data_PCOD9353336
_publ_section_title
;
Structure prediction by ZEFSAII (Michael W. Deem and Ramdas Pophale) SiO2 
 PCOD9353336
Probable space group: C M C 21
;
_chemical_formula_sum "Si O2"
_cell_formula_units_Z 32
_cell_length_a 9.000000
_cell_length_b 21.000000
_cell_length_c 18.000000
_cell_angle_alpha 90.000000
_cell_angle_beta 90.000000
_cell_angle_gamma 90.000000
_cell_volume 3402.000000
_symmetry_space_group_name_H-M "C M C 21"
_symmetry_group_IT_number 36
_symmetry_cell_setting 'orthorhombic'
loop_
_space_group_symop_operation_xyz
x,y,z
-x,-y,1/2+z
x,-y,1/2+z
-x,y,z
1/2+x,1/2+y,z
1/2-x,1/2-y,1/2+z
1/2+x,1/2-y,1/2+z
1/2-x,1/2+y,z
loop_
_atom_site_type_symbol
_atom_site_label
_atom_site_fract_x
_atom_site_fract_y
_atom_site_fract_z
Si Si1 0.169502 0.892655 0.485540
Si Si2 0.822363 0.671149 0.730323
Si Si3 0.178515 0.812422 0.698925
Si Si4 0.178042 0.724607 0.039603
Si Si5 0.323907 0.947059 0.740653
Si Si6 0.677753 0.364138 0.072461
Si Si7 0.325078 0.997741 0.077291
Si Si8 0.330047 0.440956 0.320086
O O1 0.252665 0.825050 0.481975
O O2 0.166079 0.927561 0.407080
O O3 0.000000 0.882474 0.511066
O O4 0.255203 0.940315 0.539582
O O5 0.792483 0.746472 0.744432
O O6 0.746148 0.653445 0.652339
O O7 0.757189 0.619180 0.786025
O O8 0.000000 0.663633 0.724227
O O9 0.249794 0.797527 0.618102
O O10 0.248940 0.877689 0.730131
O O11 0.000000 0.819552 0.692842
O O12 0.210413 0.799483 0.025873
O O13 0.000000 0.717497 0.044186
O O14 0.500000 0.939007 0.753330
O O15 0.305735 0.988699 0.665054
O O16 0.248081 0.992224 0.801549
O O17 0.500000 0.370701 0.076667
O O18 0.747580 0.432173 0.051969
O O19 0.500000 0.993892 0.061741
O O20 0.500000 0.442025 0.291116
#
# Coordination Sequence:
#
# PCOD9353336 Si02
#       8
#     8   8   8   8   8   8   8   8
#     4  11  24  40  59  84 115 154 196 237 289 350
#     4  10  20  35  56  85 115 147 188 233 284 340
#     4  10  20  34  57  86 116 148 186 236 286 333
#     4  10  20  35  56  85 115 147 188 233 284 340
#     4  11  22  36  58  88 117 150 194 240 288 342
#     4  10  20  34  57  86 116 148 186 236 286 333
#     4  11  22  36  58  88 117 150 194 240 288 342
#     4  11  24  40  59  84 115 154 196 237 289 350
#
# _framework density 9.4062319999999993
#
# number of rings (size 3 to 8) (size 9 to 14) (size 15 to 20)
#    0.000    1.500    2.500    3.000    0.000    6.000 
#    0.000    1.250    0.000    1.500    0.000    0.000 
#    0.000    0.000    0.000    0.000    0.000    0.000 
#
# Total GULP energy -178605.556298 kJ/mol
# GULP energy per Si atom -5581.423634 kJ/mol
# Density = 0.938482 g / cm^3
# Si number density = 9.406232 Si / 1000 Ang^3
#
#
#
# Elastic Constant Matrix: (Units=GPa)
#
#
# Indices 1 2 3 4 5 6 
#
# 1 95.9620 37.2674 -5.6095 0.0000 0.0000 0.0000
# 2 37.2674 103.6918 -19.6208 0.0000 0.0000 0.0000
# 3 -5.6095 -19.6208 2.7214 0.0000 0.0000 0.0000
# 4 0.0000 0.0000 0.0000 18.9598 0.0000 0.0000
# 5 0.0000 0.0000 0.0000 0.0000 17.2942 0.0000
# 6 0.0000 0.0000 0.0000 0.0000 0.0000 41.5025
#
#
#
# Elastic Compliance Matrix: (Units=1/GPa)
#
#
# Indices 1 2 3 4 5 6 
#
# 1 0.011811 -0.000993 0.017184 0.000000 0.000000 0.000000
# 2 -0.000993 -0.026391 -0.192324 0.000000 0.000000 0.000000
# 3 0.017184 -0.192324 -0.983752 0.000000 0.000000 0.000000
# 4 0.000000 0.000000 0.000000 0.052743 0.000000 0.000000
# 5 0.000000 0.000000 0.000000 0.000000 0.057823 0.000000
# 6 0.000000 0.000000 0.000000 0.000000 0.000000 0.024095
#
#
# Mechanical properties :
#
#
# Convention : Reuss Voigt Hill
#
# Bulk Modulus (GPa) = -0.74041 25.16103 12.21031
# Shear Modulus (GPa) = -5.19964 28.24051 11.52043
#
# Velocity S-wave (km/s) = -1.66431 3.87868 2.47732
# Velocity P-wave (km/s) = 2.02180 5.78469 3.83242
#
# Compressibility (1/GPa) = -1.35059833
#
# Stress axis : x y z
#
# Youngs Moduli (GPa) = 84.66635 -37.89167 -1.01652
#
# Poissons Ratio (x) = -0.03764 0.01747
# Poissons Ratio (y) = 0.08410 -0.19550
# Poissons Ratio (z) = -1.45492 -7.28748
#
# Static dielectric constant tensor:
#      x y z
#    x 1.637130 0.000000 0.000000 
#    y 0.000000 1.657520 0.000000 
#    z 0.000000 0.000000 1.658850 
# 
# From -- ./inp_files/13859.got.cif
#   From: 2010.05.17/outbox.ucp.g08.bks.cvg/sg36_7_cif.got.tgz:13859.got - 2010.06.11 10:37:26.
