data_PCOD9353832
_publ_section_title
;
Structure prediction by ZEFSAII (Michael W. Deem and Ramdas Pophale) SiO2 
 PCOD9353832
Probable space group: C C C 2
;
_chemical_formula_sum "Si O2"
_cell_formula_units_Z 40
_cell_length_a 13.007509
_cell_length_b 13.647416
_cell_length_c 8.771330
_cell_angle_alpha 90.000000
_cell_angle_beta 90.000000
_cell_angle_gamma 90.000000
_cell_volume 1557.076734
_symmetry_space_group_name_H-M "C C C 2"
_symmetry_group_IT_number 37
_symmetry_cell_setting 'orthorhombic'
loop_
_space_group_symop_operation_xyz
x,y,z
-x,-y,z
-x,y,1/2+z
x,-y,1/2+z
1/2+x,1/2+y,z
1/2-x,1/2-y,z
1/2-x,1/2+y,1/2+z
1/2+x,1/2-y,1/2+z
loop_
_atom_site_type_symbol
_atom_site_label
_atom_site_fract_x
_atom_site_fract_y
_atom_site_fract_z
Si Si1 0.750000 0.250000 0.645820
Si Si2 0.100923 0.621906 0.433483
Si Si3 0.617095 0.412278 0.653528
Si Si4 0.436286 0.320774 0.829216
Si Si5 0.811243 0.449982 0.113326
Si Si6 0.250000 0.750000 0.110871
O O1 0.820483 0.314431 0.534656
O O2 0.680296 0.324760 0.734009
O O3 0.023317 0.711819 0.386165
O O4 0.142644 0.581171 0.274780
O O5 0.107487 0.521898 0.532636
O O6 0.509178 0.395289 0.737104
O O7 0.596788 0.380347 0.478918
O O8 0.699968 0.499121 0.642274
O O9 0.341335 0.291051 0.720369
O O10 0.792769 0.346676 0.029281
#
# Coordination Sequence:
#
# PCOD9353832 Si02
#       6
#     4   8   8   8   8   4
#     4   8  17  40  65  88 125 164 209 274 327 378
#     4   9  18  36  63  90 125 169 211 260 326 388
#     4  10  20  37  66  95 126 167 213 265 328 389
#     4  10  21  41  64  95 132 165 210 278 332 383
#     4  10  19  37  64  92 124 171 215 260 323 390
#     4  10  21  40  63  90 135 174 211 268 329 390
#
# _framework density 25.689162
#
# number of rings (size 3 to 8) (size 9 to 14) (size 15 to 20)
#    0.000    2.400    0.000    7.800    0.000    2.400 
#    0.000   23.000    0.000   86.400    0.000    0.000 
#    0.000    0.000    0.000    0.000    0.000    0.000 
#
# Total GULP energy -111426.826137 kJ/mol
# GULP energy per Si atom -5571.341307 kJ/mol
# Density = 2.563069 g / cm^3
# Si number density = 25.689162 Si / 1000 Ang^3
#
#
#
# Elastic Constant Matrix: (Units=GPa)
#
#
# Indices 1 2 3 4 5 6 
#
# 1 113.0913 57.3650 33.1649 0.0000 0.0000 0.0000
# 2 57.3650 215.4602 34.7155 0.0000 0.0000 0.0000
# 3 33.1649 34.7155 73.4576 0.0000 0.0000 0.0000
# 4 0.0000 0.0000 0.0000 30.4345 0.0000 0.0000
# 5 0.0000 0.0000 0.0000 0.0000 2602.0744 0.0000
# 6 0.0000 0.0000 0.0000 0.0000 0.0000 23.7639
#
#
#
# Elastic Compliance Matrix: (Units=1/GPa)
#
#
# Indices 1 2 3 4 5 6 
#
# 1 0.011187 -0.002343 -0.003944 0.000000 0.000000 0.000000
# 2 -0.002343 0.005515 -0.001548 0.000000 0.000000 0.000000
# 3 -0.003944 -0.001548 0.016125 0.000000 0.000000 0.000000
# 4 0.000000 0.000000 0.000000 0.032857 0.000000 0.000000
# 5 0.000000 0.000000 0.000000 0.000000 0.000384 0.000000
# 6 0.000000 0.000000 0.000000 0.000000 0.000000 0.042081
#
#
# Mechanical properties :
#
#
# Convention : Reuss Voigt Hill
#
# Bulk Modulus (GPa) = 58.28373 72.50001 65.39187
# Shear Modulus (GPa) = 38.59841 549.70546 294.15193
#
# Velocity S-wave (km/s) = 3.88044 14.64404 10.71228
# Velocity P-wave (km/s) = 6.54327 17.72608 13.36092
#
# Compressibility (1/GPa) = 0.01715745
#
# Stress axis : x y z
#
# Youngs Moduli (GPa) = 89.38563 181.33862 62.01386
#
# Poissons Ratio (x) = 0.42491 0.24456
# Poissons Ratio (y) = 0.20945 0.09601
# Poissons Ratio (z) = 0.35250 0.28075
#
# Static dielectric constant tensor:
#      x y z
#    x 2.063180 0.000000 0.000000 
#    y 0.000000 2.167080 0.000000 
#    z 0.000000 0.000000 1.999800 
# 
# From -- ./inp_files/3363.got.cif
#   From: 2010.05.17/outbox.cif.g08.bks.cpg/sg37_2_cif.got.tgz:3363.got - 2010.06.03 17:53:42.
