data_PCOD9353472
_publ_section_title
;
Structure prediction by ZEFSAII (Michael W. Deem and Ramdas Pophale) SiO2 
 PCOD9353472
Probable space group: C C C 2
;
_chemical_formula_sum "Si O2"
_cell_formula_units_Z 48
_cell_length_a 22.322748
_cell_length_b 7.319702
_cell_length_c 11.560019
_cell_angle_alpha 90.000000
_cell_angle_beta 90.000000
_cell_angle_gamma 90.000000
_cell_volume 1888.859283
_symmetry_space_group_name_H-M "C C C 2"
_symmetry_group_IT_number 37
_symmetry_cell_setting 'orthorhombic'
loop_
_space_group_symop_operation_xyz
x,y,z
-x,-y,z
-x,y,1/2+z
x,-y,1/2+z
1/2+x,1/2+y,z
1/2-x,1/2-y,z
1/2-x,1/2+y,1/2+z
1/2+x,1/2-y,1/2+z
loop_
_atom_site_type_symbol
_atom_site_label
_atom_site_fract_x
_atom_site_fract_y
_atom_site_fract_z
Si Si1 0.401398 0.635070 0.344580
Si Si2 0.124670 0.262134 0.451417
Si Si3 0.389769 0.752735 0.599030
Si Si4 0.701872 0.083817 0.753464
Si Si5 0.686321 0.382982 0.162185
Si Si6 0.481447 0.296112 0.627598
O O1 0.392167 0.422198 0.379336
O O2 0.403217 0.739634 0.464251
O O3 0.345213 0.706961 0.271865
O O4 0.453872 0.670563 0.254043
O O5 0.154667 0.400816 0.359827
O O6 0.066155 0.289870 0.536082
O O7 0.177733 0.214090 0.540843
O O8 0.340325 0.890435 0.641707
O O9 0.358404 0.560771 0.638195
O O10 0.454878 0.797777 0.648997
O O11 0.750000 0.250000 0.774856
O O12 0.749394 0.937975 0.707465
O O13 0.500000 0.500000 0.581220
#
# Coordination Sequence:
#
# PCOD9353472 Si02
#       6
#     8   8   8   8   8   8
#     4  10  17  27  40  64 100 135 163 194 247 314
#     4  10  18  28  45  69  99 133 167 206 247 304
#     4  10  19  25  43  68 100 139 160 199 248 316
#     4  10  18  32  47  68 100 139 173 208 244 308
#     4   9  18  30  47  66  94 140 171 197 251 305
#     4  11  18  24  40  68 102 134 163 186 256 330
#
# _framework density 25.412161999999999
#
# number of rings (size 3 to 8) (size 9 to 14) (size 15 to 20)
#    0.000    2.000    8.333    0.000    4.667    0.000 
#    0.000    0.000    0.000   24.000    0.000    0.000 
#    0.000    6.667    0.000    0.000    0.000    0.000 
#
# Total GULP energy -134024.903531 kJ/mol
# GULP energy per Si atom -5584.370980 kJ/mol
# Density = 2.535432 g / cm^3
# Si number density = 25.412162 Si / 1000 Ang^3
#
#
#
# Elastic Constant Matrix: (Units=GPa)
#
#
# Indices 1 2 3 4 5 6 
#
# 1 220.2132 45.4611 94.0669 0.0000 0.0000 0.0000
# 2 45.4611 72.5815 49.7573 0.0000 0.0000 0.0000
# 3 94.0669 49.7573 189.6594 0.0000 0.0000 0.0000
# 4 0.0000 0.0000 0.0000 22.7095 0.0000 0.0000
# 5 0.0000 0.0000 0.0000 0.0000 29.7867 0.0000
# 6 0.0000 0.0000 0.0000 0.0000 0.0000 33.7392
#
#
#
# Elastic Compliance Matrix: (Units=1/GPa)
#
#
# Indices 1 2 3 4 5 6 
#
# 1 0.006013 -0.002099 -0.002432 0.000000 0.000000 0.000000
# 2 -0.002099 0.017532 -0.003558 0.000000 0.000000 0.000000
# 3 -0.002432 -0.003558 0.007412 0.000000 0.000000 0.000000
# 4 0.000000 0.000000 0.000000 0.044034 0.000000 0.000000
# 5 0.000000 0.000000 0.000000 0.000000 0.033572 0.000000
# 6 0.000000 0.000000 0.000000 0.000000 0.000000 0.029639
#
#
# Mechanical properties :
#
#
# Convention : Reuss Voigt Hill
#
# Bulk Modulus (GPa) = 67.66503 95.66942 81.66723
# Shear Modulus (GPa) = 31.38586 36.79166 34.08876
#
# Velocity S-wave (km/s) = 3.51817 3.80912 3.66653
# Velocity P-wave (km/s) = 6.57177 7.55478 7.08036
#
# Compressibility (1/GPa) = 0.01477868
#
# Stress axis : x y z
#
# Youngs Moduli (GPa) = 166.30238 57.03909 134.91354
#
# Poissons Ratio (x) = 0.11974 0.32806
# Poissons Ratio (y) = 0.34912 0.48006
# Poissons Ratio (z) = 0.40438 0.20296
#
# Static dielectric constant tensor:
#      x y z
#    x 2.062220 0.000000 0.000000 
#    y 0.000000 2.230390 0.000000 
#    z 0.000000 0.000000 1.957060 
# 
# From -- ./inp_files/7185.got.cif
#   From: 2010.05.17/outbox.cif.g08.bks.cpg/sg37_4_cif.got.tgz:7185.got - 2010.06.03 17:53:42.
