data_PCOD9353118
_publ_section_title
;
Structure prediction by ZEFSAII (Michael W. Deem and Ramdas Pophale) SiO2 
 PCOD9353118
Probable space group: C M C 21
;
_chemical_formula_sum "Si O2"
_cell_formula_units_Z 40
_cell_length_a 16.127479
_cell_length_b 7.735557
_cell_length_c 14.292340
_cell_angle_alpha 90.000000
_cell_angle_beta 90.000000
_cell_angle_gamma 90.000000
_cell_volume 1783.041349
_symmetry_space_group_name_H-M "C M C 21"
_symmetry_group_IT_number 36
_symmetry_cell_setting 'orthorhombic'
loop_
_space_group_symop_operation_xyz
x,y,z
-x,-y,1/2+z
x,-y,1/2+z
-x,y,z
1/2+x,1/2+y,z
1/2-x,1/2-y,1/2+z
1/2+x,1/2-y,1/2+z
1/2-x,1/2+y,z
loop_
_atom_site_type_symbol
_atom_site_label
_atom_site_fract_x
_atom_site_fract_y
_atom_site_fract_z
Si Si1 0.500000 0.793121 0.985370
Si Si2 0.329733 0.766805 0.493968
Si Si3 0.674239 0.115874 0.398000
Si Si4 0.000000 0.996717 0.240672
Si Si5 0.000000 0.930812 0.960690
Si Si6 0.000000 0.592627 0.687234
Si Si7 0.633628 0.802977 0.705010
O O1 0.415892 0.813595 0.927682
O O2 0.500000 0.599929 0.024404
O O3 0.500000 0.918502 0.073924
O O4 0.246621 0.666043 0.469286
O O5 0.416098 0.668307 0.481746
O O6 0.326714 0.819751 0.602820
O O7 0.333381 0.914001 0.415532
O O8 0.693118 0.186404 0.294759
O O9 0.078306 0.873794 0.210389
O O10 0.000000 0.006890 0.353576
O O11 0.000000 0.204178 0.215445
O O12 0.077050 0.474885 0.719333
#
# Coordination Sequence:
#
# PCOD9353118 Si02
#       7
#     4   8   8   4   4   4   8
#     4  12  21  45  73 101 145 187 244 304 369 436
#     4  12  27  47  75 108 149 199 250 311 374 449
#     4  12  26  47  73 107 146 196 247 310 368 444
#     4  11  23  41  77 111 142 194 250 305 376 456
#     4  12  23  46  74 109 146 192 249 307 378 446
#     4  11  21  42  74 113 135 199 249 302 375 448
#     4  11  24  48  73 105 154 195 248 310 377 444
#
# _framework density 22.433579000000002
#
# number of rings (size 3 to 8) (size 9 to 14) (size 15 to 20)
#    0.000    0.400    4.000    6.000    0.000    1.600 
#    3.600    0.000    0.000    0.000    0.000    0.000 
#    0.000    0.000    0.000    0.000    0.000    0.000 
#
# Total GULP energy -111707.196023 kJ/mol
# GULP energy per Si atom -5585.359801 kJ/mol
# Density = 2.238252 g / cm^3
# Si number density = 22.433579 Si / 1000 Ang^3
#
#
#
# Elastic Constant Matrix: (Units=GPa)
#
#
# Indices 1 2 3 4 5 6 
#
# 1 100.7934 23.0767 33.9193 0.0000 0.0000 0.0000
# 2 23.0767 114.1903 10.4815 0.0000 0.0000 0.0000
# 3 33.9193 10.4815 130.0775 0.0000 0.0000 0.0000
# 4 0.0000 0.0000 0.0000 41.2514 0.0000 0.0000
# 5 0.0000 0.0000 0.0000 0.0000 30.7241 0.0000
# 6 0.0000 0.0000 0.0000 0.0000 0.0000 14.5429
#
#
#
# Elastic Compliance Matrix: (Units=1/GPa)
#
#
# Indices 1 2 3 4 5 6 
#
# 1 0.011325 -0.002033 -0.002789 0.000000 0.000000 0.000000
# 2 -0.002033 0.009187 -0.000210 0.000000 0.000000 0.000000
# 3 -0.002789 -0.000210 0.008432 0.000000 0.000000 0.000000
# 4 0.000000 0.000000 0.000000 0.024242 0.000000 0.000000
# 5 0.000000 0.000000 0.000000 0.000000 0.032548 0.000000
# 6 0.000000 0.000000 0.000000 0.000000 0.000000 0.068762
#
#
# Mechanical properties :
#
#
# Convention : Reuss Voigt Hill
#
# Bulk Modulus (GPa) = 52.96604 53.33515 53.15059
# Shear Modulus (GPa) = 29.26471 35.80926 32.53698
#
# Velocity S-wave (km/s) = 3.61571 3.99963 3.81250
# Velocity P-wave (km/s) = 6.41035 6.71979 6.56689
#
# Compressibility (1/GPa) = 0.01888002
#
# Stress axis : x y z
#
# Youngs Moduli (GPa) = 88.29722 108.84470 118.59515
#
# Poissons Ratio (x) = 0.22125 0.33081
# Poissons Ratio (y) = 0.17948 0.02494
# Poissons Ratio (z) = 0.24630 0.02289
#
# Static dielectric constant tensor:
#      x y z
#    x 1.756110 0.000000 0.000000 
#    y 0.000000 1.881680 0.000000 
#    z 0.000000 0.000000 1.841620 
# 
# From -- ./inp_files/11974.got.cif
#   From: 2010.05.17/outbox.cif.g08.bks.cpg/sg36_6_cif.got.tgz:11974.got - 2010.06.03 17:41:39.
