data_PCOD9353668
_publ_section_title
;
Structure prediction by ZEFSAII (Michael W. Deem and Ramdas Pophale) SiO2 
 PCOD9353668
Probable space group: C C C 2
;
_chemical_formula_sum "Si O2"
_cell_formula_units_Z 36
_cell_length_a 9.658978
_cell_length_b 10.762537
_cell_length_c 14.609009
_cell_angle_alpha 90.000000
_cell_angle_beta 90.000000
_cell_angle_gamma 90.000000
_cell_volume 1518.681110
_symmetry_space_group_name_H-M "C C C 2"
_symmetry_group_IT_number 37
_symmetry_cell_setting 'orthorhombic'
loop_
_space_group_symop_operation_xyz
x,y,z
-x,-y,z
-x,y,1/2+z
x,-y,1/2+z
1/2+x,1/2+y,z
1/2-x,1/2-y,z
1/2-x,1/2+y,1/2+z
1/2+x,1/2-y,1/2+z
loop_
_atom_site_type_symbol
_atom_site_label
_atom_site_fract_x
_atom_site_fract_y
_atom_site_fract_z
Si Si1 0.370809 0.563579 0.901740
Si Si2 0.294592 0.940792 0.545537
Si Si3 0.554068 0.790711 0.524359
Si Si4 0.250000 0.750000 0.186344
Si Si5 0.666594 0.008659 0.750901
O O1 0.500000 0.500000 0.850575
O O2 0.338543 0.465020 0.983964
O O3 0.239131 0.572191 0.835983
O O4 0.404733 0.696252 0.945388
O O5 0.393827 0.827476 0.519184
O O6 0.372518 0.073630 0.526978
O O7 0.283514 0.933234 0.654806
O O8 0.617296 0.733424 0.618451
O O9 0.278768 0.868392 0.247142
O O10 0.500000 0.000000 0.753960
#
# Coordination Sequence:
#
# PCOD9353668 Si02
#       5
#     8   8   8   4   8
#     4  12  27  42  69 109 158 190 248 320 379 451
#     4  10  21  46  79 100 141 201 251 298 388 454
#     4  10  19  42  77 101 133 197 245 299 368 452
#     4  10  18  42  74 104 142 188 248 310 372 450
#     4  11  23  42  74 114 145 201 257 312 384 458
#
# _framework density 23.704781000000001
#
# number of rings (size 3 to 8) (size 9 to 14) (size 15 to 20)
#    0.000    1.333    8.889    0.000    3.111    3.556 
#    4.000    0.000    0.000    0.000    0.000    0.000 
#    0.000    0.000    0.000    0.000    0.000    0.000 
#
# Total GULP energy -100616.450886 kJ/mol
# GULP energy per Si atom -5589.802827 kJ/mol
# Density = 2.365083 g / cm^3
# Si number density = 23.704781 Si / 1000 Ang^3
#
#
#
# Elastic Constant Matrix: (Units=GPa)
#
#
# Indices 1 2 3 4 5 6 
#
# 1 90.8371 30.9307 32.1136 0.0000 0.0000 0.0000
# 2 30.9307 119.6731 45.4352 0.0000 0.0000 0.0000
# 3 32.1136 45.4352 122.9415 0.0000 0.0000 0.0000
# 4 0.0000 0.0000 0.0000 33.8507 0.0000 0.0000
# 5 0.0000 0.0000 0.0000 0.0000 18.8785 0.0000
# 6 0.0000 0.0000 0.0000 0.0000 0.0000 44.7844
#
#
#
# Elastic Compliance Matrix: (Units=1/GPa)
#
#
# Indices 1 2 3 4 5 6 
#
# 1 0.012672 -0.002348 -0.002442 0.000000 0.000000 0.000000
# 2 -0.002348 0.010155 -0.003140 0.000000 0.000000 0.000000
# 3 -0.002442 -0.003140 0.009932 0.000000 0.000000 0.000000
# 4 0.000000 0.000000 0.000000 0.029541 0.000000 0.000000
# 5 0.000000 0.000000 0.000000 0.000000 0.052970 0.000000
# 6 0.000000 0.000000 0.000000 0.000000 0.000000 0.022329
#
#
# Mechanical properties :
#
#
# Convention : Reuss Voigt Hill
#
# Bulk Modulus (GPa) = 59.17446 61.15675 60.16560
# Shear Modulus (GPa) = 31.42828 34.50086 32.96457
#
# Velocity S-wave (km/s) = 3.64513 3.81916 3.73316
# Velocity P-wave (km/s) = 6.53707 6.73077 6.63463
#
# Compressibility (1/GPa) = 0.01689918
#
# Stress axis : x y z
#
# Youngs Moduli (GPa) = 78.91661 98.47440 100.68259
#
# Poissons Ratio (x) = 0.23121 0.24589
# Poissons Ratio (y) = 0.18529 0.31611
# Poissons Ratio (z) = 0.19273 0.30917
#
# Static dielectric constant tensor:
#      x y z
#    x 2.363310 0.000000 0.000000 
#    y 0.000000 1.905260 0.000000 
#    z 0.000000 0.000000 1.901180 
# 
# From -- ./inp_files/10258.got.cif
#   From: 2010.05.17/outbox.cif.g08.bks.cpg/sg37_6_cif.got.tgz:10258.got - 2010.06.03 17:53:42.
