data_PCOD9353563
_publ_section_title
;
Structure prediction by ZEFSAII (Michael W. Deem and Ramdas Pophale) SiO2 
 PCOD9353563
Probable space group: C C C 2
;
_chemical_formula_sum "Si O2"
_cell_formula_units_Z 60
_cell_length_a 30.524485
_cell_length_b 19.020700
_cell_length_c 5.614961
_cell_angle_alpha 90.000000
_cell_angle_beta 90.000000
_cell_angle_gamma 90.000000
_cell_volume 3260.029915
_symmetry_space_group_name_H-M "C C C 2"
_symmetry_group_IT_number 37
_symmetry_cell_setting 'orthorhombic'
loop_
_space_group_symop_operation_xyz
x,y,z
-x,-y,z
-x,y,1/2+z
x,-y,1/2+z
1/2+x,1/2+y,z
1/2-x,1/2-y,z
1/2-x,1/2+y,1/2+z
1/2+x,1/2-y,1/2+z
loop_
_atom_site_type_symbol
_atom_site_label
_atom_site_fract_x
_atom_site_fract_y
_atom_site_fract_z
Si Si1 0.931898 0.460188 0.962220
Si Si2 0.687229 0.663939 0.387696
Si Si3 0.525071 0.806184 0.467568
Si Si4 0.615436 0.741494 0.594561
Si Si5 0.251826 0.957786 0.866271
Si Si6 0.844502 0.382627 0.874382
Si Si7 0.250000 0.250000 0.731485
Si Si8 0.168502 0.280103 0.998691
O O1 0.941399 0.499156 0.710248
O O2 0.880238 0.439636 0.949100
O O3 0.957742 0.386672 0.970680
O O4 0.638442 0.672513 0.491265
O O5 0.707919 0.588900 0.345295
O O6 0.719629 0.699318 0.578471
O O7 0.686113 0.717627 0.168327
O O8 0.504139 0.795497 0.205942
O O9 0.567299 0.756802 0.507136
O O10 0.644161 0.810728 0.515616
O O11 0.626687 0.745037 0.871197
O O12 0.295243 0.909228 0.885969
O O13 0.253226 0.999990 0.616297
O O14 0.849605 0.352312 0.607936
O O15 0.285615 0.203449 0.869796
#
# Coordination Sequence:
#
# PCOD9353563 Si02
#       8
#     8   8   8   8   8   8   4   8
#     4  11  24  39  58  79 114 164 208 237 282 342
#     4  10  21  37  53  83 110 152 198 237 287 356
#     4  11  25  41  63  89 119 142 187 252 309 362
#     4   9  22  37  65  84 109 150 192 246 310 352
#     4  12  27  38  54  81 122 164 198 239 279 324
#     4  10  22  36  55  83 112 155 210 252 285 320
#     4  10  18  32  56  84 102 150 196 258 284 344
#     4  10  19  33  62  75 112 144 204 250 303 332
#
# _framework density 18.404738999999999
#
# number of rings (size 3 to 8) (size 9 to 14) (size 15 to 20)
#    0.000    1.600    0.000    5.200   16.800    1.600 
#    0.000    0.000    0.000    0.000    0.000    0.000 
#    0.000    3.200    0.000    0.000    0.000    0.000 
#
# Total GULP energy -167102.464897 kJ/mol
# GULP energy per Si atom -5570.082163 kJ/mol
# Density = 1.836285 g / cm^3
# Si number density = 18.404739 Si / 1000 Ang^3
#
#
#
# Elastic Constant Matrix: (Units=GPa)
#
#
# Indices 1 2 3 4 5 6 
#
# 1 90.5999 22.3383 33.5294 0.0000 0.0000 0.0000
# 2 22.3383 25.4809 14.8468 0.0000 0.0000 0.0000
# 3 33.5294 14.8468 86.6663 0.0000 0.0000 0.0000
# 4 0.0000 0.0000 0.0000 34.0728 0.0000 0.0000
# 5 0.0000 0.0000 0.0000 0.0000 726.7983 0.0000
# 6 0.0000 0.0000 0.0000 0.0000 0.0000 28.6359
#
#
#
# Elastic Compliance Matrix: (Units=1/GPa)
#
#
# Indices 1 2 3 4 5 6 
#
# 1 0.015239 -0.011025 -0.004007 0.000000 0.000000 0.000000
# 2 -0.011025 0.051573 -0.004570 0.000000 0.000000 0.000000
# 3 -0.004007 -0.004570 0.013872 0.000000 0.000000 0.000000
# 4 0.000000 0.000000 0.000000 0.029349 0.000000 0.000000
# 5 0.000000 0.000000 0.000000 0.000000 0.001376 0.000000
# 6 0.000000 0.000000 0.000000 0.000000 0.000000 0.034921
#
#
# Mechanical properties :
#
#
# Convention : Reuss Voigt Hill
#
# Bulk Modulus (GPa) = 24.10775 38.24179 31.17477
# Shear Modulus (GPa) = 25.08051 166.70359 95.89205
#
# Velocity S-wave (km/s) = 3.69551 9.52749 7.22599
# Velocity P-wave (km/s) = 5.59787 11.91025 9.30565
#
# Compressibility (1/GPa) = 0.04148043
#
# Stress axis : x y z
#
# Youngs Moduli (GPa) = 65.62269 19.39012 72.09010
#
# Poissons Ratio (x) = 0.21377 0.28886
# Poissons Ratio (y) = 0.72346 0.32943
# Poissons Ratio (z) = 0.26294 0.08861
#
# Static dielectric constant tensor:
#      x y z
#    x 1.655920 0.000000 0.000000 
#    y 0.000000 1.610820 0.000000 
#    z 0.000000 0.000000 1.881510 
# 
# From -- ./inp_files/1498.got.cif
#   From: 2010.05.17/outbox.cif.g08.bks.cpg/sg37_1_cif.got.tgz:1498.got - 2010.06.03 17:53:42.
