data_PCOD9353211
_publ_section_title
;
Structure prediction by ZEFSAII (Michael W. Deem and Ramdas Pophale) SiO2 
 PCOD9353211
Probable space group: C M C 21
;
_chemical_formula_sum "Si O2"
_cell_formula_units_Z 24
_cell_length_a 17.608789
_cell_length_b 5.508592
_cell_length_c 9.436572
_cell_angle_alpha 90.000000
_cell_angle_beta 90.000000
_cell_angle_gamma 90.000000
_cell_volume 915.344032
_symmetry_space_group_name_H-M "C M C 21"
_symmetry_group_IT_number 36
_symmetry_cell_setting 'orthorhombic'
loop_
_space_group_symop_operation_xyz
x,y,z
-x,-y,1/2+z
x,-y,1/2+z
-x,y,z
1/2+x,1/2+y,z
1/2-x,1/2-y,1/2+z
1/2+x,1/2-y,1/2+z
1/2-x,1/2+y,z
loop_
_atom_site_type_symbol
_atom_site_label
_atom_site_fract_x
_atom_site_fract_y
_atom_site_fract_z
Si Si1 0.733248 0.994214 0.430420
Si Si2 0.500000 0.932803 0.261411
Si Si3 0.373175 0.689851 0.077016
Si Si4 0.500000 0.315889 0.035350
O O1 0.763417 0.236722 0.353362
O O2 0.651822 0.073844 0.486644
O O3 0.791516 0.947785 0.562202
O O4 0.500000 0.907863 0.428349
O O5 0.424610 0.793564 0.203581
O O6 0.500000 0.199323 0.192293
O O7 0.428619 0.490046 0.010656
#
# Coordination Sequence:
#
# PCOD9353211 Si02
#       4
#     8   4   8   4
#     4   8  16  34  66  96 128 168 230 292 354 420
#     4  11  24  42  67 103 146 192 244 297 360 435
#     4   9  20  40  68  93 134 182 236 293 356 418
#     4  11  24  42  67 103 146 192 244 297 360 435
#
# _framework density 26.219646999999998
#
# number of rings (size 3 to 8) (size 9 to 14) (size 15 to 20)
#    2.000    0.667    0.000    2.000    0.000    5.333 
#    0.000    3.333    0.000    0.000    0.000    0.000 
#    0.000    0.000    0.000    0.000    0.000    0.000 
#
# Total GULP energy -66822.357264 kJ/mol
# GULP energy per Si atom -5568.529772 kJ/mol
# Density = 2.615997 g / cm^3
# Si number density = 26.219647 Si / 1000 Ang^3
#
#
#
# Elastic Constant Matrix: (Units=GPa)
#
#
# Indices 1 2 3 4 5 6 
#
# 1 160.5392 50.2016 31.6210 0.0000 0.0000 0.0000
# 2 50.2016 180.4223 41.3707 0.0000 0.0000 0.0000
# 3 31.6210 41.3707 59.6637 0.0000 0.0000 0.0000
# 4 0.0000 0.0000 0.0000 21.8144 0.0000 0.0000
# 5 0.0000 0.0000 0.0000 0.0000 -7.3694 0.0000
# 6 0.0000 0.0000 0.0000 0.0000 0.0000 34.9939
#
#
#
# Elastic Compliance Matrix: (Units=1/GPa)
#
#
# Indices 1 2 3 4 5 6 
#
# 1 0.007220 -0.001345 -0.002893 0.000000 0.000000 0.000000
# 2 -0.001345 0.006841 -0.004031 0.000000 0.000000 0.000000
# 3 -0.002893 -0.004031 0.021089 0.000000 0.000000 0.000000
# 4 0.000000 0.000000 0.000000 0.045841 0.000000 0.000000
# 5 0.000000 0.000000 0.000000 0.000000 -0.135697 0.000000
# 6 0.000000 0.000000 0.000000 0.000000 0.000000 0.028576
#
#
# Mechanical properties :
#
#
# Convention : Reuss Voigt Hill
#
# Bulk Modulus (GPa) = 53.73208 71.89020 62.81114
# Shear Modulus (GPa) = -1476.10785 28.38323 -723.86231
#
# Velocity S-wave (km/s) = -23.75289 3.29373 -16.63357
# Velocity P-wave (km/s) = 27.05049 6.47633 18.57130
#
# Compressibility (1/GPa) = 0.01861085
#
# Stress axis : x y z
#
# Youngs Moduli (GPa) = 138.51133 146.17526 47.41828
#
# Poissons Ratio (x) = 0.19666 0.13720
# Poissons Ratio (y) = 0.18635 0.19112
# Poissons Ratio (z) = 0.40078 0.58917
#
# Static dielectric constant tensor:
#      x y z
#    x 2.123550 0.000000 0.000000 
#    y 0.000000 2.106140 0.000000 
#    z 0.000000 0.000000 2.060400 
# 
# From -- ./inp_files/5431.got.cif
#   From: 2010.05.17/outbox.cif.g08.bks.cpg/sg36_3_cif.got.tgz:5431.got - 2010.06.03 17:41:39.
