data_PCOD9353821
_publ_section_title
;
Structure prediction by ZEFSAII (Michael W. Deem and Ramdas Pophale) SiO2 
 PCOD9353821
Probable space group: C C C 2
;
_chemical_formula_sum "Si O2"
_cell_formula_units_Z 64
_cell_length_a 19.831806
_cell_length_b 11.121052
_cell_length_c 16.402938
_cell_angle_alpha 90.000000
_cell_angle_beta 90.000000
_cell_angle_gamma 90.000000
_cell_volume 3617.676928
_symmetry_space_group_name_H-M "C C C 2"
_symmetry_group_IT_number 37
_symmetry_cell_setting 'orthorhombic'
loop_
_space_group_symop_operation_xyz
x,y,z
-x,-y,z
-x,y,1/2+z
x,-y,1/2+z
1/2+x,1/2+y,z
1/2-x,1/2-y,z
1/2-x,1/2+y,1/2+z
1/2+x,1/2-y,1/2+z
loop_
_atom_site_type_symbol
_atom_site_label
_atom_site_fract_x
_atom_site_fract_y
_atom_site_fract_z
Si Si1 0.408175 0.429092 0.653480
Si Si2 0.222458 0.550542 0.460399
Si Si3 0.543617 0.120060 0.738917
Si Si4 0.575907 0.251012 0.303905
Si Si5 0.641589 0.294598 0.469326
Si Si6 0.326523 0.022610 0.778413
Si Si7 0.253888 0.395657 0.616619
Si Si8 0.959616 0.170916 0.614424
O O1 0.414750 0.346584 0.732631
O O2 0.333073 0.426567 0.619960
O O3 0.431600 0.564347 0.671968
O O4 0.464385 0.370372 0.593677
O O5 0.293973 0.619057 0.464566
O O6 0.168150 0.656942 0.476706
O O7 0.209880 0.507383 0.366613
O O8 0.222350 0.452646 0.533603
O O9 0.499199 0.195865 0.803577
O O10 0.541846 0.202464 0.659298
O O11 0.500000 0.000000 0.724527
O O12 0.619049 0.083138 0.763228
O O13 0.598615 0.306075 0.387918
O O14 0.627911 0.142512 0.286398
O O15 0.592247 0.326413 0.541670
O O16 0.280163 0.046912 0.698578
O O17 0.250000 0.250000 0.618992
#
# Coordination Sequence:
#
# PCOD9353821 Si02
#       8
#     8   8   8   8   8   8   8   8
#     4  10  20  37  57  84 112 149 203 236 288 357
#     4  10  22  36  59  89 117 148 207 246 284 362
#     4   9  19  37  58  85 120 150 196 241 296 356
#     4   9  18  36  60  84 108 157 198 239 284 365
#     4  10  19  37  60  82 113 151 195 241 298 344
#     4  10  20  37  61  88 118 155 195 243 301 351
#     4  12  22  38  63  87 120 163 199 245 303 357
#     4  10  20  37  58  83 116 150 190 251 288 351
#
# _framework density 17.690909999999999
#
# number of rings (size 3 to 8) (size 9 to 14) (size 15 to 20)
#    0.000    2.000    2.500    1.500    1.750    0.000 
#    2.250    9.375    0.000    0.000    0.000    0.000 
#    0.000    0.000    0.000    0.000    0.000    0.000 
#
# Total GULP energy -178263.199530 kJ/mol
# GULP energy per Si atom -5570.724985 kJ/mol
# Density = 1.765065 g / cm^3
# Si number density = 17.690910 Si / 1000 Ang^3
#
#
#
# Elastic Constant Matrix: (Units=GPa)
#
#
# Indices 1 2 3 4 5 6 
#
# 1 110.7676 17.3962 55.3311 0.0000 0.0000 0.0000
# 2 17.3962 39.6670 34.0521 0.0000 0.0000 0.0000
# 3 55.3311 34.0521 105.7538 0.0000 0.0000 0.0000
# 4 0.0000 0.0000 0.0000 19.5159 0.0000 0.0000
# 5 0.0000 0.0000 0.0000 0.0000 29.7718 0.0000
# 6 0.0000 0.0000 0.0000 0.0000 0.0000 15.1526
#
#
#
# Elastic Compliance Matrix: (Units=1/GPa)
#
#
# Indices 1 2 3 4 5 6 
#
# 1 0.012223 0.000179 -0.006453 0.000000 0.000000 0.000000
# 2 0.000179 0.034843 -0.011313 0.000000 0.000000 0.000000
# 3 -0.006453 -0.011313 0.016475 0.000000 0.000000 0.000000
# 4 0.000000 0.000000 0.000000 0.051240 0.000000 0.000000
# 5 0.000000 0.000000 0.000000 0.000000 0.033589 0.000000
# 6 0.000000 0.000000 0.000000 0.000000 0.000000 0.065995
#
#
# Mechanical properties :
#
#
# Convention : Reuss Voigt Hill
#
# Bulk Modulus (GPa) = 35.25183 52.19413 43.72298
# Shear Modulus (GPa) = 19.30543 22.84867 21.07705
#
# Velocity S-wave (km/s) = 3.30701 3.59771 3.45542
# Velocity P-wave (km/s) = 5.87806 6.84291 6.37875
#
# Compressibility (1/GPa) = 0.02836732
#
# Stress axis : x y z
#
# Youngs Moduli (GPa) = 81.81191 28.70020 60.69893
#
# Poissons Ratio (x) = -0.00513 0.39168
# Poissons Ratio (y) = -0.01464 0.68668
# Poissons Ratio (z) = 0.52792 0.32468
#
# Static dielectric constant tensor:
#      x y z
#    x 1.620180 0.000000 0.000000 
#    y 0.000000 1.609760 0.000000 
#    z 0.000000 0.000000 1.595890 
# 
# From -- ./inp_files/12710.got.cif
#   From: 2010.05.17/outbox.cif.g08.bks.cpg/sg37_7_cif.got.tgz:12710.got - 2010.06.03 17:53:42.
