data_PCOD9353767
_publ_section_title
;
Structure prediction by ZEFSAII (Michael W. Deem and Ramdas Pophale) SiO2 
 PCOD9353767
Probable space group: C C C 2
;
_chemical_formula_sum "Si O2"
_cell_formula_units_Z 56
_cell_length_a 13.317932
_cell_length_b 14.135014
_cell_length_c 12.709568
_cell_angle_alpha 90.000000
_cell_angle_beta 90.000000
_cell_angle_gamma 90.000000
_cell_volume 2392.565440
_symmetry_space_group_name_H-M "C C C 2"
_symmetry_group_IT_number 37
_symmetry_cell_setting 'orthorhombic'
loop_
_space_group_symop_operation_xyz
x,y,z
-x,-y,z
-x,y,1/2+z
x,-y,1/2+z
1/2+x,1/2+y,z
1/2-x,1/2-y,z
1/2-x,1/2+y,1/2+z
1/2+x,1/2-y,1/2+z
loop_
_atom_site_type_symbol
_atom_site_label
_atom_site_fract_x
_atom_site_fract_y
_atom_site_fract_z
Si Si1 0.107402 0.525071 0.845060
Si Si2 0.796461 0.965634 0.968898
Si Si3 0.799011 0.448083 0.149581
Si Si4 0.555837 0.212412 0.118078
Si Si5 0.165242 0.177842 0.803863
Si Si6 0.360842 0.220070 0.234403
Si Si7 0.148540 0.183172 0.433352
O O1 0.117114 0.483528 0.728926
O O2 0.133607 0.633101 0.818466
O O3 0.000000 0.500000 0.890286
O O4 0.189937 0.469776 0.910143
O O5 0.760587 0.968281 0.090356
O O6 0.860814 0.888099 0.904921
O O7 0.834842 0.072713 0.954068
O O8 0.868068 0.373124 0.086819
O O9 0.716729 0.390370 0.216309
O O10 0.594277 0.257264 0.229737
O O11 0.439338 0.196101 0.143161
O O12 0.571428 0.282500 0.021488
O O13 0.250000 0.250000 0.844335
O O14 0.250000 0.250000 0.196944
O O15 0.388671 0.305478 0.313786
O O16 0.250000 0.250000 0.444408
#
# Coordination Sequence:
#
# PCOD9353767 Si02
#       7
#     8   8   8   8   8   8   8
#     4  11  21  36  58  96 134 172 222 282 351 412
#     4  11  20  38  68  97 135 172 226 283 350 410
#     4  10  19  35  63  97 130 174 225 277 342 420
#     4  11  19  39  68  96 128 182 234 271 337 428
#     4   9  20  37  65 101 135 171 224 292 339 404
#     4  11  23  41  64  97 143 173 226 301 346 400
#     4  11  19  39  70  97 128 181 229 270 346 427
#
# _framework density 23.405837999999999
#
# number of rings (size 3 to 8) (size 9 to 14) (size 15 to 20)
#    0.000    1.429    7.143    0.429    0.000    0.571 
#    2.571    2.857    0.000    2.571    0.000    0.000 
#    0.000    0.000    0.000    0.000    0.000    0.000 
#
# Total GULP energy -155950.055247 kJ/mol
# GULP energy per Si atom -5569.644830 kJ/mol
# Density = 2.335257 g / cm^3
# Si number density = 23.405838 Si / 1000 Ang^3
#
#
#
# Elastic Constant Matrix: (Units=GPa)
#
#
# Indices 1 2 3 4 5 6 
#
# 1 50.2357 3.6911 2.3338 0.0000 0.0000 0.0000
# 2 3.6911 57.4698 6.6131 0.0000 0.0000 0.0000
# 3 2.3338 6.6131 42.3353 0.0000 0.0000 0.0000
# 4 0.0000 0.0000 0.0000 46.6736 0.0000 0.0000
# 5 0.0000 0.0000 0.0000 0.0000 35.3552 0.0000
# 6 0.0000 0.0000 0.0000 0.0000 0.0000 41.7053
#
#
#
# Elastic Compliance Matrix: (Units=1/GPa)
#
#
# Indices 1 2 3 4 5 6 
#
# 1 0.020036 -0.001181 -0.000920 0.000000 0.000000 0.000000
# 2 -0.001181 0.017789 -0.002714 0.000000 0.000000 0.000000
# 3 -0.000920 -0.002714 0.024096 0.000000 0.000000 0.000000
# 4 0.000000 0.000000 0.000000 0.021425 0.000000 0.000000
# 5 0.000000 0.000000 0.000000 0.000000 0.028284 0.000000
# 6 0.000000 0.000000 0.000000 0.000000 0.000000 0.023978
#
#
# Mechanical properties :
#
#
# Convention : Reuss Voigt Hill
#
# Bulk Modulus (GPa) = 19.12387 19.47962 19.30175
# Shear Modulus (GPa) = 30.73769 33.90700 32.32235
#
# Velocity S-wave (km/s) = 3.62781 3.81025 3.72015
# Velocity P-wave (km/s) = 5.07309 5.26289 5.16886
#
# Compressibility (1/GPa) = 0.05229067
#
# Stress axis : x y z
#
# Youngs Moduli (GPa) = 49.91092 56.21590 41.50141
#
# Poissons Ratio (x) = 0.06639 0.03818
# Poissons Ratio (y) = 0.05894 0.11262
# Poissons Ratio (z) = 0.04592 0.15255
#
# Static dielectric constant tensor:
#      x y z
#    x 1.992240 0.000000 0.000000 
#    y 0.000000 2.004620 0.000000 
#    z 0.000000 0.000000 1.999050 
# 
# From -- ./inp_files/11572.got.cif
#   From: 2010.05.17/outbox.cif.g08.bks.cpg/sg37_6_cif.got.tgz:11572.got - 2010.06.03 17:53:42.
