data_PCOD9353445
_publ_section_title
;
Structure prediction by ZEFSAII (Michael W. Deem and Ramdas Pophale) SiO2 
 PCOD9353445
Probable space group: C C C 2
;
_chemical_formula_sum "Si O2"
_cell_formula_units_Z 44
_cell_length_a 11.687082
_cell_length_b 14.212958
_cell_length_c 13.488941
_cell_angle_alpha 90.000000
_cell_angle_beta 90.000000
_cell_angle_gamma 90.000000
_cell_volume 2240.621087
_symmetry_space_group_name_H-M "C C C 2"
_symmetry_group_IT_number 37
_symmetry_cell_setting 'orthorhombic'
loop_
_space_group_symop_operation_xyz
x,y,z
-x,-y,z
-x,y,1/2+z
x,-y,1/2+z
1/2+x,1/2+y,z
1/2-x,1/2-y,z
1/2-x,1/2+y,1/2+z
1/2+x,1/2-y,1/2+z
loop_
_atom_site_type_symbol
_atom_site_label
_atom_site_fract_x
_atom_site_fract_y
_atom_site_fract_z
Si Si1 0.064106 0.206991 0.364490
Si Si2 0.359080 0.189647 0.958025
Si Si3 0.716522 0.467316 0.539881
Si Si4 0.832074 0.829983 0.580321
Si Si5 0.000000 0.000000 0.397223
Si Si6 0.911609 0.808941 0.151194
O O1 0.137232 0.196450 0.465284
O O2 0.115385 0.231898 0.258696
O O3 0.964922 0.281729 0.389811
O O4 0.020538 0.099336 0.344371
O O5 0.250000 0.250000 0.921511
O O6 0.317618 0.083908 0.979435
O O7 0.388977 0.233365 0.065231
O O8 0.734654 0.571285 0.580881
O O9 0.609327 0.479664 0.465800
O O10 0.669076 0.396832 0.623632
O O11 0.750000 0.750000 0.622156
O O12 0.954383 0.836308 0.635338
#
# Coordination Sequence:
#
# PCOD9353445 Si02
#       6
#     8   8   8   8   4   8
#     4  10  20  32  54  78 110 139 177 225 270 318
#     4   9  17  34  55  78 108 138 180 215 271 328
#     4  10  17  36  58  77 105 143 179 220 270 327
#     4  10  21  37  51  79 111 138 180 228 273 318
#     4  10  16  30  54  80 102 138 176 220 268 310
#     4  10  19  34  55  79 109 138 178 227 265 321
#
# _framework density 19.637412000000001
#
# number of rings (size 3 to 8) (size 9 to 14) (size 15 to 20)
#    0.000    2.182    7.273    0.000    2.545    2.909 
#    0.000    3.636    0.000    2.182    0.000    0.000 
#    0.000    0.000    0.000    0.000    0.000    0.000 
#
# Total GULP energy -122570.805377 kJ/mol
# GULP energy per Si atom -5571.400244 kJ/mol
# Density = 1.959272 g / cm^3
# Si number density = 19.637412 Si / 1000 Ang^3
#
#
#
# Elastic Constant Matrix: (Units=GPa)
#
#
# Indices 1 2 3 4 5 6 
#
# 1 58.3490 50.6957 17.9191 0.0000 0.0000 0.0000
# 2 50.6957 101.2699 -3.1637 0.0000 0.0000 0.0000
# 3 17.9191 -3.1637 84.4950 0.0000 0.0000 0.0000
# 4 0.0000 0.0000 0.0000 5.3332 0.0000 0.0000
# 5 0.0000 0.0000 0.0000 0.0000 -2.3686 0.0000
# 6 0.0000 0.0000 0.0000 0.0000 0.0000 23.9077
#
#
#
# Elastic Compliance Matrix: (Units=1/GPa)
#
#
# Indices 1 2 3 4 5 6 
#
# 1 0.035132 -0.017841 -0.008119 0.000000 0.000000 0.000000
# 2 -0.017841 0.018946 0.004493 0.000000 0.000000 0.000000
# 3 -0.008119 0.004493 0.013725 0.000000 0.000000 0.000000
# 4 0.000000 0.000000 0.000000 0.187504 0.000000 0.000000
# 5 0.000000 0.000000 0.000000 0.000000 -0.422189 0.000000
# 6 0.000000 0.000000 0.000000 0.000000 0.000000 0.041828
#
#
# Mechanical properties :
#
#
# Convention : Reuss Voigt Hill
#
# Bulk Modulus (GPa) = 40.20851 41.66843 40.93847
# Shear Modulus (GPa) = -67.72214 17.28531 -25.21841
#
# Velocity S-wave (km/s) = -5.87887 2.97007 -3.58746
# Velocity P-wave (km/s) = 5.05585 5.74689 1.93199
#
# Compressibility (1/GPa) = 0.02487036
#
# Stress axis : x y z
#
# Youngs Moduli (GPa) = 28.46385 52.78130 72.85980
#
# Poissons Ratio (x) = 0.94166 0.59152
# Poissons Ratio (y) = 0.50782 -0.32736
# Poissons Ratio (z) = 0.23109 -0.23714
#
# Static dielectric constant tensor:
#      x y z
#    x 1.731920 0.000000 0.000000 
#    y 0.000000 1.733650 0.000000 
#    z 0.000000 0.000000 1.700200 
# 
# From -- ./inp_files/11435.got.cif
#   From: 2010.05.17/outbox.cif.g08.bks.cpg/sg37_6_cif.got.tgz:11435.got - 2010.06.03 17:53:42.
