data_PCOD9353311
_publ_section_title
;
Structure prediction by ZEFSAII (Michael W. Deem and Ramdas Pophale) SiO2 
 PCOD9353311
Probable space group: C M C 21
;
_chemical_formula_sum "Si O2"
_cell_formula_units_Z 32
_cell_length_a 9.000000
_cell_length_b 15.000000
_cell_length_c 24.000000
_cell_angle_alpha 90.000000
_cell_angle_beta 90.000000
_cell_angle_gamma 90.000000
_cell_volume 3240.000000
_symmetry_space_group_name_H-M "C M C 21"
_symmetry_group_IT_number 36
_symmetry_cell_setting 'orthorhombic'
loop_
_space_group_symop_operation_xyz
x,y,z
-x,-y,1/2+z
x,-y,1/2+z
-x,y,z
1/2+x,1/2+y,z
1/2-x,1/2-y,1/2+z
1/2+x,1/2-y,1/2+z
1/2-x,1/2+y,z
loop_
_atom_site_type_symbol
_atom_site_label
_atom_site_fract_x
_atom_site_fract_y
_atom_site_fract_z
Si Si1 0.833050 0.011193 0.815400
Si Si2 0.171376 0.527780 0.423565
Si Si3 0.670545 0.273690 0.315863
Si Si4 0.822186 0.628185 0.003006
Si Si5 0.818676 0.644898 0.124732
Si Si6 0.174872 0.508076 0.706370
Si Si7 0.820119 0.197287 0.696485
Si Si8 0.671636 0.224905 0.435389
O O1 0.781415 0.969680 0.872349
O O2 0.000000 0.987324 0.798843
O O3 0.828742 0.118824 0.821735
O O4 0.714967 0.984919 0.769290
O O5 0.226022 0.451605 0.464036
O O6 0.168788 0.622843 0.452204
O O7 0.000000 0.508437 0.405372
O O8 0.500000 0.240997 0.314064
O O9 0.734881 0.258464 0.254611
O O10 0.734010 0.234907 0.372515
O O11 0.761891 0.621037 0.064575
O O12 0.000000 0.624545 0.005222
O O13 0.769526 0.718636 0.976114
O O14 0.771180 0.571104 0.168019
O O15 0.774534 0.741854 0.145467
O O16 0.000000 0.644410 0.124490
O O17 0.257713 0.599137 0.692800
O O18 0.000000 0.520346 0.699555
O O19 0.000000 0.193157 0.700220
O O20 0.500000 0.258151 0.434477
#
# Coordination Sequence:
#
# PCOD9353311 Si02
#       8
#     8   8   8   8   8   8   8   8
#     4  10  19  34  56  81 114 148 182 226 275 333
#     4  10  21  34  55  83 112 144 185 232 279 326
#     4   8  15  29  52  76 103 135 176 219 262 322
#     4  10  21  39  56  80 113 145 185 233 272 318
#     4   9  20  37  59  79 108 152 188 218 271 338
#     4  10  20  35  57  85 113 143 181 229 280 326
#     4   9  18  35  56  79 107 147 184 220 268 329
#     4  10  20  35  55  81 108 146 187 223 277 338
#
# _framework density 9.8765429999999999
#
# number of rings (size 3 to 8) (size 9 to 14) (size 15 to 20)
#    0.000    2.500    1.250    1.500    1.750    1.500 
#    0.000    4.375    0.000    0.000    0.000    0.000 
#    0.000    0.000    0.000    0.000    0.000    0.000 
#
# Total GULP energy -178209.667562 kJ/mol
# GULP energy per Si atom -5569.052111 kJ/mol
# Density = 0.985406 g / cm^3
# Si number density = 9.876543 Si / 1000 Ang^3
#
#
#
# Elastic Constant Matrix: (Units=GPa)
#
#
# Indices 1 2 3 4 5 6 
#
# 1 -13.2230 7.7267 5.6340 0.0000 0.0000 0.0000
# 2 7.7267 47.8922 39.2612 0.0000 0.0000 0.0000
# 3 5.6340 39.2612 49.1105 0.0000 0.0000 0.0000
# 4 0.0000 0.0000 0.0000 -9.2569 0.0000 0.0000
# 5 0.0000 0.0000 0.0000 0.0000 10.1922 0.0000
# 6 0.0000 0.0000 0.0000 0.0000 0.0000 11.9775
#
#
#
# Elastic Compliance Matrix: (Units=1/GPa)
#
#
# Indices 1 2 3 4 5 6 
#
# 1 -0.068973 0.013467 -0.002854 0.000000 0.000000 0.000000
# 2 0.013467 0.057958 -0.047880 0.000000 0.000000 0.000000
# 3 -0.002854 -0.047880 0.058967 0.000000 0.000000 0.000000
# 4 0.000000 0.000000 0.000000 -0.108028 0.000000 0.000000
# 5 0.000000 0.000000 0.000000 0.000000 0.098114 0.000000
# 6 0.000000 0.000000 0.000000 0.000000 0.000000 0.083490
#
#
# Mechanical properties :
#
#
# Convention : Reuss Voigt Hill
#
# Bulk Modulus (GPa) = -37.62292 21.00263 -8.31014
# Shear Modulus (GPa) = 26.70928 4.65975 15.68452
#
# Velocity S-wave (km/s) = 3.68116 1.53757 2.82091
# Velocity P-wave (km/s) = 1.00998 3.71589 2.52861
#
# Compressibility (1/GPa) = -0.02657954
#
# Stress axis : x y z
#
# Youngs Moduli (GPa) = -14.49853 17.25377 16.95873
#
# Poissons Ratio (x) = -0.23236 0.04839
# Poissons Ratio (y) = 0.19525 0.81198
# Poissons Ratio (z) = -0.04137 0.82610
#
# Static dielectric constant tensor:
#      x y z
#    x 1.717950 0.000000 0.000000 
#    y 0.000000 1.713870 0.000000 
#    z 0.000000 0.000000 1.724500 
# 
# From -- ./inp_files/16616.got.cif
#   From: 2010.05.17/outbox.ucp.g08.bks.cvg/sg36_9_cif.got.tgz:16616.got - 2010.06.11 10:37:26.
