data_PCOD9353214
_publ_section_title
;
Structure prediction by ZEFSAII (Michael W. Deem and Ramdas Pophale) SiO2 
 PCOD9353214
Probable space group: C M C 21
;
_chemical_formula_sum "Si O2"
_cell_formula_units_Z 64
_cell_length_a 17.616580
_cell_length_b 11.281471
_cell_length_c 14.314273
_cell_angle_alpha 90.000000
_cell_angle_beta 90.000000
_cell_angle_gamma 90.000000
_cell_volume 2844.832020
_symmetry_space_group_name_H-M "C M C 21"
_symmetry_group_IT_number 36
_symmetry_cell_setting 'orthorhombic'
loop_
_space_group_symop_operation_xyz
x,y,z
-x,-y,1/2+z
x,-y,1/2+z
-x,y,z
1/2+x,1/2+y,z
1/2-x,1/2-y,1/2+z
1/2+x,1/2-y,1/2+z
1/2-x,1/2+y,z
loop_
_atom_site_type_symbol
_atom_site_label
_atom_site_fract_x
_atom_site_fract_y
_atom_site_fract_z
Si Si1 0.417402 0.091804 0.573080
Si Si2 0.688842 0.736059 0.160467
Si Si3 0.411972 0.468903 0.375125
Si Si4 0.088610 0.760778 0.836298
Si Si5 0.342280 0.652717 0.694106
Si Si6 0.805975 0.024409 0.032940
Si Si7 0.086673 0.601185 0.237029
Si Si8 0.342465 0.021126 0.907281
O O1 0.500000 0.149984 0.576371
O O2 0.348112 0.181245 0.582250
O O3 0.411270 0.000709 0.659052
O O4 0.406754 0.018234 0.479779
O O5 0.621295 0.715790 0.233061
O O6 0.756433 0.804399 0.211038
O O7 0.719573 0.618787 0.111215
O O8 0.500000 0.435979 0.369264
O O9 0.405898 0.611514 0.384675
O O10 0.371379 0.426324 0.280262
O O11 0.371820 0.421333 0.467869
O O12 0.138882 0.656613 0.880417
O O13 0.000000 0.724595 0.833102
O O14 0.337728 0.583942 0.595403
O O15 0.392279 0.771810 0.694130
O O16 0.737128 0.003627 0.960733
O O17 0.145619 0.561329 0.316827
O O18 0.000000 0.605558 0.273710
#
# Coordination Sequence:
#
# PCOD9353214 Si02
#       8
#     8   8   8   8   8   8   8   8
#     4  11  24  43  70 109 149 192 246 301 365 430
#     4  12  25  46  73 103 142 194 246 298 361 432
#     4  11  28  48  72 106 144 195 244 296 368 436
#     4  11  24  45  75 104 144 194 242 302 361 427
#     4  12  27  49  72 103 147 187 244 302 362 437
#     4  12  29  47  73 108 145 196 243 298 366 438
#     4  11  26  46  75 107 145 193 241 305 373 435
#     4  12  25  46  74 110 146 189 244 304 368 431
#
# _framework density 22.496934
#
# number of rings (size 3 to 8) (size 9 to 14) (size 15 to 20)
#    0.000    0.500    3.750    3.375    7.000    2.000 
#    0.000    0.000    0.000    0.000    0.000    0.000 
#    0.000    0.000    0.000    0.000    0.000    0.000 
#
# Total GULP energy -179009.317108 kJ/mol
# GULP energy per Si atom -5594.041160 kJ/mol
# Density = 2.244573 g / cm^3
# Si number density = 22.496934 Si / 1000 Ang^3
#
#
#
# Elastic Constant Matrix: (Units=GPa)
#
#
# Indices 1 2 3 4 5 6 
#
# 1 101.3863 35.6253 39.1905 0.0000 0.0000 0.0000
# 2 35.6253 74.3570 17.4702 0.0000 0.0000 0.0000
# 3 39.1905 17.4702 95.9382 0.0000 0.0000 0.0000
# 4 0.0000 0.0000 0.0000 34.7918 0.0000 0.0000
# 5 0.0000 0.0000 0.0000 0.0000 88.1393 0.0000
# 6 0.0000 0.0000 0.0000 0.0000 0.0000 28.6810
#
#
#
# Elastic Compliance Matrix: (Units=1/GPa)
#
#
# Indices 1 2 3 4 5 6 
#
# 1 0.013518 -0.005411 -0.004537 0.000000 0.000000 0.000000
# 2 -0.005411 0.016215 -0.000743 0.000000 0.000000 0.000000
# 3 -0.004537 -0.000743 0.012412 0.000000 0.000000 0.000000
# 4 0.000000 0.000000 0.000000 0.028742 0.000000 0.000000
# 5 0.000000 0.000000 0.000000 0.000000 0.011346 0.000000
# 6 0.000000 0.000000 0.000000 0.000000 0.000000 0.034866
#
#
# Mechanical properties :
#
#
# Convention : Reuss Voigt Hill
#
# Bulk Modulus (GPa) = 48.15744 50.69482 49.42613
# Shear Modulus (GPa) = 34.38743 42.28214 38.33479
#
# Velocity S-wave (km/s) = 3.91389 4.33998 4.13243
# Velocity P-wave (km/s) = 6.47128 6.90630 6.69232
#
# Compressibility (1/GPa) = 0.02076522
#
# Stress axis : x y z
#
# Youngs Moduli (GPa) = 73.97416 61.66951 80.56801
#
# Poissons Ratio (x) = 0.33368 0.36553
# Poissons Ratio (y) = 0.40026 0.05982
# Poissons Ratio (z) = 0.33561 0.04579
#
# Static dielectric constant tensor:
#      x y z
#    x 1.733040 0.000000 0.000000 
#    y 0.000000 1.863420 0.000000 
#    z 0.000000 0.000000 1.820260 
# 
# From -- ./inp_files/12655.got.cif
#   From: 2010.05.17/outbox.cif.g08.bks.cpg/sg36_7_cif.got.tgz:12655.got - 2010.06.03 17:41:39.
