data_PCOD9353947
_publ_section_title
;
Structure prediction by ZEFSAII (Michael W. Deem and Ramdas Pophale) SiO2 
 PCOD9353947
Probable space group: C C C 2
;
_chemical_formula_sum "Si O2"
_cell_formula_units_Z 48
_cell_length_a 15.848939
_cell_length_b 8.855204
_cell_length_c 19.201383
_cell_angle_alpha 90.000000
_cell_angle_beta 90.000000
_cell_angle_gamma 90.000000
_cell_volume 2694.829388
_symmetry_space_group_name_H-M "C C C 2"
_symmetry_group_IT_number 37
_symmetry_cell_setting 'orthorhombic'
loop_
_space_group_symop_operation_xyz
x,y,z
-x,-y,z
-x,y,1/2+z
x,-y,1/2+z
1/2+x,1/2+y,z
1/2-x,1/2-y,z
1/2-x,1/2+y,1/2+z
1/2+x,1/2-y,1/2+z
loop_
_atom_site_type_symbol
_atom_site_label
_atom_site_fract_x
_atom_site_fract_y
_atom_site_fract_z
Si Si1 0.658291 0.685945 0.092350
Si Si2 0.003009 0.816467 0.185539
Si Si3 0.993096 0.320479 0.339056
Si Si4 0.342207 0.693608 0.429375
Si Si5 0.157755 0.175742 0.588501
Si Si6 0.582327 0.610675 0.443967
O O1 0.750000 0.750000 0.111981
O O2 0.579333 0.729933 0.140555
O O3 0.666330 0.504958 0.095549
O O4 0.640203 0.727485 0.011374
O O5 0.002726 0.742883 0.261174
O O6 0.089350 0.773616 0.145609
O O7 0.000000 0.000000 0.191096
O O8 0.907663 0.271121 0.378034
O O9 0.000000 0.500000 0.340233
O O10 0.062064 0.231024 0.384969
O O11 0.250000 0.750000 0.413694
O O12 0.349123 0.513013 0.421747
O O13 0.250000 0.250000 0.592374
O O14 0.112947 0.193300 0.513403
O O15 0.500000 0.500000 0.457205
#
# Coordination Sequence:
#
# PCOD9353947 Si02
#       6
#     8   8   8   8   8   8
#     4   9  19  37  60  83 106 139 182 224 272 324
#     4  10  20  38  57  75 110 152 181 215 270 333
#     4  11  23  36  53  80 110 145 185 226 271 317
#     4   9  18  36  60  82 106 139 179 223 271 330
#     4  10  20  34  58  86 109 138 179 223 271 327
#     4   9  18  37  58  78 107 145 182 219 272 333
#
# _framework density 17.811886999999999
#
# number of rings (size 3 to 8) (size 9 to 14) (size 15 to 20)
#    0.000    2.333    0.000    5.000    0.000    6.000 
#    0.000    5.833    0.000    0.000    0.000    0.000 
#    0.000    0.000    0.000    0.000    0.000    0.000 
#
# Total GULP energy -133833.313307 kJ/mol
# GULP energy per Si atom -5576.388054 kJ/mol
# Density = 1.777135 g / cm^3
# Si number density = 17.811887 Si / 1000 Ang^3
#
#
#
# Elastic Constant Matrix: (Units=GPa)
#
#
# Indices 1 2 3 4 5 6 
#
# 1 118.0849 45.7016 90.5902 0.0000 0.0000 0.0000
# 2 45.7016 56.2289 64.8696 0.0000 0.0000 0.0000
# 3 90.5902 64.8696 151.0196 0.0000 0.0000 0.0000
# 4 0.0000 0.0000 0.0000 16.4063 0.0000 0.0000
# 5 0.0000 0.0000 0.0000 0.0000 2.2972 0.0000
# 6 0.0000 0.0000 0.0000 0.0000 0.0000 37.0121
#
#
#
# Elastic Compliance Matrix: (Units=1/GPa)
#
#
# Indices 1 2 3 4 5 6 
#
# 1 0.016098 -0.003853 -0.008002 0.000000 0.000000 0.000000
# 2 -0.003853 0.036178 -0.013229 0.000000 0.000000 0.000000
# 3 -0.008002 -0.013229 0.017104 0.000000 0.000000 0.000000
# 4 0.000000 0.000000 0.000000 0.060952 0.000000 0.000000
# 5 0.000000 0.000000 0.000000 0.000000 0.435308 0.000000
# 6 0.000000 0.000000 0.000000 0.000000 0.000000 0.027018
#
#
# Mechanical properties :
#
#
# Convention : Reuss Voigt Hill
#
# Bulk Modulus (GPa) = 52.04801 80.85069 66.44935
# Shear Modulus (GPa) = 7.70145 19.42125 13.56135
#
# Velocity S-wave (km/s) = 2.08162 3.30563 2.76228
# Velocity P-wave (km/s) = 5.92131 7.74981 6.89643
#
# Compressibility (1/GPa) = 0.01921303
#
# Stress axis : x y z
#
# Youngs Moduli (GPa) = 62.11871 27.64146 58.46702
#
# Poissons Ratio (x) = 0.10651 0.46783
# Poissons Ratio (y) = 0.23935 0.77343
# Poissons Ratio (z) = 0.49704 0.36566
#
# Static dielectric constant tensor:
#      x y z
#    x 1.623600 0.000000 0.000000 
#    y 0.000000 1.603860 0.000000 
#    z 0.000000 0.000000 1.604770 
# 
# From -- ./inp_files/12536.got.cif
#   From: 2010.05.17/outbox.cif.g08.bks.cpg/sg37_7_cif.got.tgz:12536.got - 2010.06.03 17:53:42.
