data_PCOD9353868
_publ_section_title
;
Structure prediction by ZEFSAII (Michael W. Deem and Ramdas Pophale) SiO2 
 PCOD9353868
Probable space group: C C C 2
;
_chemical_formula_sum "Si O2"
_cell_formula_units_Z 52
_cell_length_a 16.502923
_cell_length_b 15.487945
_cell_length_c 8.763678
_cell_angle_alpha 90.000000
_cell_angle_beta 90.000000
_cell_angle_gamma 90.000000
_cell_volume 2239.964230
_symmetry_space_group_name_H-M "C C C 2"
_symmetry_group_IT_number 37
_symmetry_cell_setting 'orthorhombic'
loop_
_space_group_symop_operation_xyz
x,y,z
-x,-y,z
-x,y,1/2+z
x,-y,1/2+z
1/2+x,1/2+y,z
1/2-x,1/2-y,z
1/2-x,1/2+y,1/2+z
1/2+x,1/2-y,1/2+z
loop_
_atom_site_type_symbol
_atom_site_label
_atom_site_fract_x
_atom_site_fract_y
_atom_site_fract_z
Si Si1 0.448101 0.243336 0.037420
Si Si2 0.012085 0.870365 0.274602
Si Si3 0.784072 0.554991 0.369411
Si Si4 0.631509 0.208141 0.052410
Si Si5 0.617294 0.592346 0.501595
Si Si6 0.699009 0.111331 0.525877
Si Si7 0.750000 0.250000 0.324707
O O1 0.451754 0.320895 0.158827
O O2 0.534793 0.195459 0.061311
O O3 0.374862 0.177890 0.052428
O O4 0.450808 0.293640 0.877159
O O5 0.080351 0.915566 0.171212
O O6 0.955772 0.923679 0.386665
O O7 0.828853 0.635697 0.447516
O O8 0.696955 0.543799 0.451204
O O9 0.827797 0.466121 0.414236
O O10 0.776660 0.573578 0.190292
O O11 0.638998 0.305480 0.986992
O O12 0.681227 0.214348 0.210083
O O13 0.765736 0.169109 0.437186
#
# Coordination Sequence:
#
# PCOD9353868 Si02
#       7
#     8   8   8   8   8   8   4
#     4  10  20  39  65 106 135 177 240 281 348 429
#     4   8  18  35  68 104 128 175 227 291 333 420
#     4  12  26  44  65 102 147 184 232 302 356 434
#     4  10  21  41  73 101 142 185 226 296 358 415
#     4  10  19  39  68  99 137 175 232 278 359 416
#     4  12  28  43  67 101 142 190 241 291 367 423
#     4  12  24  42  74 102 138 194 240 296 354 432
#
# _framework density 23.214658
#
# number of rings (size 3 to 8) (size 9 to 14) (size 15 to 20)
#    0.000    1.846    1.538    4.615    4.308    0.615 
#    0.000    1.538    0.000    4.615    0.000    0.000 
#    0.000    0.000    0.000    0.000    0.000    0.000 
#
# Total GULP energy -145330.848142 kJ/mol
# GULP energy per Si atom -5589.648005 kJ/mol
# Density = 2.316182 g / cm^3
# Si number density = 23.214658 Si / 1000 Ang^3
#
#
#
# Elastic Constant Matrix: (Units=GPa)
#
#
# Indices 1 2 3 4 5 6 
#
# 1 102.3690 8.8933 37.5874 0.0000 0.0000 0.0000
# 2 8.8933 89.7478 41.0843 0.0000 0.0000 0.0000
# 3 37.5874 41.0843 171.8971 0.0000 0.0000 0.0000
# 4 0.0000 0.0000 0.0000 27.8801 0.0000 0.0000
# 5 0.0000 0.0000 0.0000 0.0000 37.7171 0.0000
# 6 0.0000 0.0000 0.0000 0.0000 0.0000 24.6293
#
#
#
# Elastic Compliance Matrix: (Units=1/GPa)
#
#
# Indices 1 2 3 4 5 6 
#
# 1 0.010621 0.000012 -0.002325 0.000000 0.000000 0.000000
# 2 0.000012 0.012511 -0.002993 0.000000 0.000000 0.000000
# 3 -0.002325 -0.002993 0.007041 0.000000 0.000000 0.000000
# 4 0.000000 0.000000 0.000000 0.035868 0.000000 0.000000
# 5 0.000000 0.000000 0.000000 0.000000 0.026513 0.000000
# 6 0.000000 0.000000 0.000000 0.000000 0.000000 0.040602
#
#
# Mechanical properties :
#
#
# Convention : Reuss Voigt Hill
#
# Bulk Modulus (GPa) = 51.12131 59.90490 55.51310
# Shear Modulus (GPa) = 33.26908 36.47524 34.87216
#
# Velocity S-wave (km/s) = 3.78975 3.96816 3.87998
# Velocity P-wave (km/s) = 6.42016 6.84513 6.63605
#
# Compressibility (1/GPa) = 0.01956131
#
# Stress axis : x y z
#
# Youngs Moduli (GPa) = 94.14995 79.92840 142.02102
#
# Poissons Ratio (x) = -0.00096 0.33025
# Poissons Ratio (y) = -0.00113 0.42505
# Poissons Ratio (z) = 0.21893 0.23921
#
# Static dielectric constant tensor:
#      x y z
#    x 1.931000 0.000000 0.000000 
#    y 0.000000 1.895600 0.000000 
#    z 0.000000 0.000000 1.906230 
# 
# From -- ./inp_files/4052.got.cif
#   From: 2010.05.17/outbox.cif.g08.bks.cpg/sg37_3_cif.got.tgz:4052.got - 2010.06.03 17:53:42.
