data_PCOD9353960
_publ_section_title
;
Structure prediction by ZEFSAII (Michael W. Deem and Ramdas Pophale) SiO2 
 PCOD9353960
Probable space group: C C C 2
;
_chemical_formula_sum "Si O2"
_cell_formula_units_Z 56
_cell_length_a 14.294480
_cell_length_b 5.116582
_cell_length_c 34.052566
_cell_angle_alpha 90.000000
_cell_angle_beta 90.000000
_cell_angle_gamma 90.000000
_cell_volume 2490.566507
_symmetry_space_group_name_H-M "C C C 2"
_symmetry_group_IT_number 37
_symmetry_cell_setting 'orthorhombic'
loop_
_space_group_symop_operation_xyz
x,y,z
-x,-y,z
-x,y,1/2+z
x,-y,1/2+z
1/2+x,1/2+y,z
1/2-x,1/2-y,z
1/2-x,1/2+y,1/2+z
1/2+x,1/2-y,1/2+z
loop_
_atom_site_type_symbol
_atom_site_label
_atom_site_fract_x
_atom_site_fract_y
_atom_site_fract_z
Si Si1 0.681650 0.995130 0.647210
Si Si2 0.635283 0.239366 0.433720
Si Si3 0.317748 0.004410 0.233313
Si Si4 0.639212 0.268979 0.885749
Si Si5 0.441436 0.761996 0.802784
Si Si6 0.635589 0.250509 0.523137
Si Si7 0.363783 0.241346 0.569443
O O1 0.750000 0.750000 0.652711
O O2 0.616811 0.898462 0.611340
O O3 0.750000 0.250000 0.638982
O O4 0.634712 0.006257 0.690110
O O5 0.750000 0.250000 0.435291
O O6 0.603814 0.474912 0.406877
O O7 0.604211 0.283893 0.478490
O O8 0.605882 0.978194 0.411105
O O9 0.250000 0.250000 0.230759
O O10 0.389027 0.089125 0.267255
O O11 0.250000 0.750000 0.240635
O O12 0.750000 0.250000 0.890240
O O13 0.623242 0.306886 0.839398
O O14 0.500000 0.500000 0.791299
O O15 0.500000 0.000000 0.820728
O O16 0.750000 0.250000 0.523240
O O17 0.606969 0.471856 0.554880
O O18 0.606238 0.965499 0.537147
O O19 0.250000 0.250000 0.569468
#
# Coordination Sequence:
#
# PCOD9353960 Si02
#       7
#     8   8   8   8   8   8   8
#     4   9  16  27  44  69  99 136 179 216 256 319
#     4   9  17  29  46  71 100 137 181 219 258 318
#     4  10  21  38  60  82 109 148 190 228 275 341
#     4  10  20  35  55  75 103 143 184 222 268 331
#     4  12  25  40  58  84 114 142 183 240 296 343
#     4   9  15  22  36  61  98 136 166 202 258 314
#     4   9  14  21  35  60  97 136 165 201 257 314
#
# _framework density 22.484843999999999
#
# number of rings (size 3 to 8) (size 9 to 14) (size 15 to 20)
#    0.000    2.286    0.000    5.143    0.000    5.143 
#    0.000    0.000    0.000    0.000    0.000    0.000 
#    0.000   17.143    0.000    4.286    0.000    0.857 
#
# Total GULP energy -156021.260087 kJ/mol
# GULP energy per Si atom -5572.187860 kJ/mol
# Density = 2.243367 g / cm^3
# Si number density = 22.484844 Si / 1000 Ang^3
#
#
#
# Elastic Constant Matrix: (Units=GPa)
#
#
# Indices 1 2 3 4 5 6 
#
# 1 51.6839 -3.0013 5.9531 0.0000 0.0000 0.0000
# 2 -3.0013 157.1794 35.0150 0.0000 0.0000 0.0000
# 3 5.9531 35.0150 145.5186 0.0000 0.0000 0.0000
# 4 0.0000 0.0000 0.0000 39.8630 0.0000 0.0000
# 5 0.0000 0.0000 0.0000 0.0000 -6.2699 0.0000
# 6 0.0000 0.0000 0.0000 0.0000 0.0000 -15.7448
#
#
#
# Elastic Compliance Matrix: (Units=1/GPa)
#
#
# Indices 1 2 3 4 5 6 
#
# 1 0.019490 0.000581 -0.000937 0.000000 0.000000 0.000000
# 2 0.000581 0.006740 -0.001646 0.000000 0.000000 0.000000
# 3 -0.000937 -0.001646 0.007306 0.000000 0.000000 0.000000
# 4 0.000000 0.000000 0.000000 0.025086 0.000000 0.000000
# 5 0.000000 0.000000 0.000000 0.000000 -0.159493 0.000000
# 6 0.000000 0.000000 0.000000 0.000000 0.000000 -0.063513
#
#
# Mechanical properties :
#
#
# Convention : Reuss Voigt Hill
#
# Bulk Modulus (GPa) = 33.86075 47.81283 40.83679
# Shear Modulus (GPa) = -33.21451 24.66400 -4.27526
#
# Velocity S-wave (km/s) = -3.84760 3.31557 -1.38041
# Velocity P-wave (km/s) = 2.15561 5.99733 3.95735
#
# Compressibility (1/GPa) = 0.02953272
#
# Stress axis : x y z
#
# Youngs Moduli (GPa) = 51.30822 148.37182 136.86892
#
# Poissons Ratio (x) = -0.08619 0.12826
# Poissons Ratio (y) = -0.02981 0.22522
# Poissons Ratio (z) = 0.04808 0.24415
#
# Static dielectric constant tensor:
#      x y z
#    x 1.856160 0.000000 0.000000 
#    y 0.000000 1.766780 0.000000 
#    z 0.000000 0.000000 1.955530 
# 
# From -- ./inp_files/20539.got.cif
#   From: 2010.05.17/outbox.cif.g08.bks.cpg/sg37_11_cif.got.tgz:20539.got - 2010.06.03 17:53:42.
