data_PCOD9353338
_publ_section_title
;
Structure prediction by ZEFSAII (Michael W. Deem and Ramdas Pophale) SiO2 
 PCOD9353338
Probable space group: C M C 21
;
_chemical_formula_sum "Si O2"
_cell_formula_units_Z 32
_cell_length_a 9.000000
_cell_length_b 30.000000
_cell_length_c 12.000000
_cell_angle_alpha 90.000000
_cell_angle_beta 90.000000
_cell_angle_gamma 90.000000
_cell_volume 3240.000000
_symmetry_space_group_name_H-M "C M C 21"
_symmetry_group_IT_number 36
_symmetry_cell_setting 'orthorhombic'
loop_
_space_group_symop_operation_xyz
x,y,z
-x,-y,1/2+z
x,-y,1/2+z
-x,y,z
1/2+x,1/2+y,z
1/2-x,1/2-y,1/2+z
1/2+x,1/2-y,1/2+z
1/2-x,1/2+y,z
loop_
_atom_site_type_symbol
_atom_site_label
_atom_site_fract_x
_atom_site_fract_y
_atom_site_fract_z
Si Si1 0.670851 0.683035 0.064730
Si Si2 0.179964 0.645629 0.490948
Si Si3 0.678732 0.912666 0.581557
Si Si4 0.179702 0.428093 0.830260
Si Si5 0.324837 0.090638 0.706492
Si Si6 0.182162 0.476563 0.381910
Si Si7 0.834961 0.833348 0.313853
Si Si8 0.670508 0.272462 0.097673
O O1 0.500000 0.680677 0.100475
O O2 0.749981 0.635970 0.080846
O O3 0.752444 0.725300 0.114752
O O4 0.676043 0.690223 0.931479
O O5 0.227886 0.619078 0.380920
O O6 0.230069 0.612150 0.591343
O O7 0.248342 0.693958 0.512226
O O8 0.000000 0.649743 0.495113
O O9 0.500000 0.908350 0.573168
O O10 0.715153 0.933246 0.701267
O O11 0.730308 0.944685 0.482208
O O12 0.231307 0.472489 0.893248
O O13 0.000000 0.427376 0.840213
O O14 0.500000 0.084957 0.690678
O O15 0.269641 0.045555 0.764411
O O16 0.288849 0.129206 0.796201
O O17 0.000000 0.476456 0.382500
O O18 0.824263 0.798708 0.214157
O O19 0.000000 0.854851 0.307958
O O20 0.500000 0.266189 0.063923
#
# Coordination Sequence:
#
# PCOD9353338 Si02
#       8
#     8   8   8   8   8   8   8   8
#     4  11  22  37  57  80 109 142 179 226 278 327
#     4   9  18  33  52  77 110 144 180 223 273 321
#     4  10  20  35  55  80 112 146 184 225 270 324
#     4   9  19  32  51  81 116 151 181 221 275 325
#     4   9  16  28  51  77 101 131 175 228 264 303
#     4   9  17  29  50  81 108 137 181 227 265 309
#     4   9  19  35  53  74 102 136 173 218 271 324
#     4  10  21  37  57  80 106 141 185 226 272 329
#
# _framework density 9.8765429999999999
#
# number of rings (size 3 to 8) (size 9 to 14) (size 15 to 20)
#    0.000    2.500    1.250    0.750    1.750    2.000 
#    0.000    5.625    0.000    3.000    0.000    0.000 
#    0.000    0.000    0.000    0.000    0.000    0.000 
#
# Total GULP energy -178258.086711 kJ/mol
# GULP energy per Si atom -5570.565210 kJ/mol
# Density = 0.985406 g / cm^3
# Si number density = 9.876543 Si / 1000 Ang^3
#
#
#
# Elastic Constant Matrix: (Units=GPa)
#
#
# Indices 1 2 3 4 5 6 
#
# 1 9.7773 24.9388 19.8895 0.0000 0.0000 0.0000
# 2 24.9388 109.0804 19.1033 0.0000 0.0000 0.0000
# 3 19.8895 19.1033 33.6180 0.0000 0.0000 0.0000
# 4 0.0000 0.0000 0.0000 7.6473 0.0000 0.0000
# 5 0.0000 0.0000 0.0000 0.0000 12.3003 0.0000
# 6 0.0000 0.0000 0.0000 0.0000 0.0000 17.7877
#
#
#
# Elastic Compliance Matrix: (Units=1/GPa)
#
#
# Indices 1 2 3 4 5 6 
#
# 1 -0.257520 0.035752 0.132041 0.000000 0.000000 0.000000
# 2 0.035752 0.005217 -0.024117 0.000000 0.000000 0.000000
# 3 0.132041 -0.024117 -0.034670 0.000000 0.000000 0.000000
# 4 0.000000 0.000000 0.000000 0.130765 0.000000 0.000000
# 5 0.000000 0.000000 0.000000 0.000000 0.081299 0.000000
# 6 0.000000 0.000000 0.000000 0.000000 0.000000 0.056219
#
#
# Mechanical properties :
#
#
# Convention : Reuss Voigt Hill
#
# Bulk Modulus (GPa) = 2627.79616 31.14875 1329.47246
# Shear Modulus (GPa) = -16.34438 13.45000 -1.44719
#
# Velocity S-wave (km/s) = -2.87964 2.61225 -0.85687
# Velocity P-wave (km/s) = 36.36143 4.99016 25.95241
#
# Compressibility (1/GPa) = 0.00038055
#
# Stress axis : x y z
#
# Youngs Moduli (GPa) = -3.88320 191.67113 -28.84353
#
# Poissons Ratio (x) = -6.85256 3.80854
# Poissons Ratio (y) = 0.13883 -0.69561
# Poissons Ratio (z) = 0.51274 4.62244
#
# Static dielectric constant tensor:
#      x y z
#    x 1.695760 0.000000 0.000000 
#    y 0.000000 1.683060 0.000000 
#    z 0.000000 0.000000 1.744370 
# 
# From -- ./inp_files/7080.got.cif
#   From: 2010.05.17/outbox.ucp.g08.bks.cvg/sg36_4_cif.got.tgz:7080.got - 2010.06.11 10:37:26.
