data_PCOD9353862
_publ_section_title
;
Structure prediction by ZEFSAII (Michael W. Deem and Ramdas Pophale) SiO2 
 PCOD9353862
Probable space group: C C C 2
;
_chemical_formula_sum "Si O2"
_cell_formula_units_Z 48
_cell_length_a 28.655600
_cell_length_b 6.220092
_cell_length_c 13.760163
_cell_angle_alpha 90.000000
_cell_angle_beta 90.000000
_cell_angle_gamma 90.000000
_cell_volume 2452.617897
_symmetry_space_group_name_H-M "C C C 2"
_symmetry_group_IT_number 37
_symmetry_cell_setting 'orthorhombic'
loop_
_space_group_symop_operation_xyz
x,y,z
-x,-y,z
-x,y,1/2+z
x,-y,1/2+z
1/2+x,1/2+y,z
1/2-x,1/2-y,z
1/2-x,1/2+y,1/2+z
1/2+x,1/2-y,1/2+z
loop_
_atom_site_type_symbol
_atom_site_label
_atom_site_fract_x
_atom_site_fract_y
_atom_site_fract_z
Si Si1 0.791951 0.873764 0.000000
Si Si2 0.550498 0.602933 0.613960
Si Si3 0.336960 0.003397 0.624660
Si Si4 0.750000 0.750000 0.633108
Si Si5 0.087191 0.255705 0.252339
Si Si6 0.000000 0.500000 0.697614
Si Si7 0.626125 0.336206 0.961088
O O1 0.750000 0.750000 0.945467
O O2 0.833720 0.986984 0.943539
O O3 0.813929 0.703130 0.074056
O O4 0.769318 0.062220 0.063994
O O5 0.500000 0.500000 0.600782
O O6 0.578674 0.475168 0.698901
O O7 0.581930 0.572549 0.519401
O O8 0.535230 0.847191 0.637234
O O9 0.378501 0.908423 0.689521
O O10 0.296163 0.140212 0.680186
O O11 0.354965 0.155506 0.536591
O O12 0.109490 0.244133 0.357730
O O13 0.035155 0.352970 0.258084
#
# Coordination Sequence:
#
# PCOD9353862 Si02
#       7
#     8   8   8   4   8   4   8
#     4   9  18  37  65  87 122 162 200 258 316 367
#     4  10  22  40  61  89 129 164 211 267 313 374
#     4  10  19  39  64  90 124 160 205 263 313 377
#     4   8  18  34  68  84 118 166 200 254 324 362
#     4  11  23  39  64  92 125 165 219 258 317 387
#     4  10  22  42  58  90 134 162 208 274 308 384
#     4  11  22  38  66  92 123 170 207 257 321 376
#
# _framework density 19.570923000000001
#
# number of rings (size 3 to 8) (size 9 to 14) (size 15 to 20)
#    0.000    2.000    3.333    0.000    0.000    4.000 
#    0.000    0.000   44.000    0.000    0.000    0.000 
#    0.000    0.000    0.000    0.000    0.000    0.000 
#
# Total GULP energy -133628.344562 kJ/mol
# GULP energy per Si atom -5567.847690 kJ/mol
# Density = 1.952638 g / cm^3
# Si number density = 19.570923 Si / 1000 Ang^3
#
#
#
# Elastic Constant Matrix: (Units=GPa)
#
#
# Indices 1 2 3 4 5 6 
#
# 1 116.9695 19.9451 50.1182 0.0000 0.0000 0.0000
# 2 19.9451 52.6331 25.7728 0.0000 0.0000 0.0000
# 3 50.1182 25.7728 83.2994 0.0000 0.0000 0.0000
# 4 0.0000 0.0000 0.0000 10.8604 0.0000 0.0000
# 5 0.0000 0.0000 0.0000 0.0000 -27.1405 0.0000
# 6 0.0000 0.0000 0.0000 0.0000 0.0000 26.1187
#
#
#
# Elastic Compliance Matrix: (Units=1/GPa)
#
#
# Indices 1 2 3 4 5 6 
#
# 1 0.011578 -0.001151 -0.006610 0.000000 0.000000 0.000000
# 2 -0.001151 0.022506 -0.006271 0.000000 0.000000 0.000000
# 3 -0.006610 -0.006271 0.017922 0.000000 0.000000 0.000000
# 4 0.000000 0.000000 0.000000 0.092078 0.000000 0.000000
# 5 0.000000 0.000000 0.000000 0.000000 -0.036845 0.000000
# 6 0.000000 0.000000 0.000000 0.000000 0.000000 0.038287
#
#
# Mechanical properties :
#
#
# Convention : Reuss Voigt Hill
#
# Bulk Modulus (GPa) = 41.76634 49.39713 45.58174
# Shear Modulus (GPa) = 27.53776 12.43878 19.98827
#
# Velocity S-wave (km/s) = 3.75517 2.52380 3.19928
# Velocity P-wave (km/s) = 6.33949 5.81271 6.08180
#
# Compressibility (1/GPa) = 0.02394273
#
# Stress axis : x y z
#
# Youngs Moduli (GPa) = 86.37402 44.43213 55.79726
#
# Poissons Ratio (x) = 0.05113 0.36881
# Poissons Ratio (y) = 0.09939 0.34991
# Poissons Ratio (z) = 0.57091 0.27864
#
# Static dielectric constant tensor:
#      x y z
#    x 1.755570 0.000000 0.000000 
#    y 0.000000 1.751330 0.000000 
#    z 0.000000 0.000000 1.617210 
# 
# From -- ./inp_files/9875.got.cif
#   From: 2010.05.17/outbox.cif.g08.bks.cpg/sg37_5_cif.got.tgz:9875.got - 2010.06.03 17:53:42.
