data_PCOD9353910
_publ_section_title
;
Structure prediction by ZEFSAII (Michael W. Deem and Ramdas Pophale) SiO2 
 PCOD9353910
Probable space group: C C C 2
;
_chemical_formula_sum "Si O2"
_cell_formula_units_Z 44
_cell_length_a 19.089640
_cell_length_b 5.039943
_cell_length_c 21.413373
_cell_angle_alpha 90.000000
_cell_angle_beta 90.000000
_cell_angle_gamma 90.000000
_cell_volume 2060.195552
_symmetry_space_group_name_H-M "C C C 2"
_symmetry_group_IT_number 37
_symmetry_cell_setting 'orthorhombic'
loop_
_space_group_symop_operation_xyz
x,y,z
-x,-y,z
-x,y,1/2+z
x,-y,1/2+z
1/2+x,1/2+y,z
1/2-x,1/2-y,z
1/2-x,1/2+y,1/2+z
1/2+x,1/2-y,1/2+z
loop_
_atom_site_type_symbol
_atom_site_label
_atom_site_fract_x
_atom_site_fract_y
_atom_site_fract_z
Si Si1 0.834190 0.745330 0.226650
Si Si2 0.880486 0.126266 0.436616
Si Si3 0.571111 0.144211 0.011588
Si Si4 0.179464 0.403656 0.609053
Si Si5 0.164437 0.753908 0.300311
Si Si6 0.250000 0.750000 0.503296
O O1 0.750000 0.750000 0.228318
O O2 0.849443 0.606966 0.160691
O O3 0.857174 0.540498 0.280153
O O4 0.854715 0.043034 0.244181
O O5 0.898825 0.410434 0.466660
O O6 0.873718 0.150296 0.362637
O O7 0.801430 0.076367 0.461351
O O8 0.928299 0.898691 0.466237
O O9 0.500000 0.000000 0.033510
O O10 0.615544 0.237791 0.072971
O O11 0.250000 0.250000 0.633033
O O12 0.209394 0.565285 0.550911
O O13 0.250000 0.750000 0.308715
#
# Coordination Sequence:
#
# PCOD9353910 Si02
#       6
#     8   8   8   8   8   4
#     4  10  20  32  53  86 123 154 191 243 308 354
#     4  11  21  39  61  85 123 156 205 246 308 368
#     4  11  25  40  61  89 122 162 201 256 312 366
#     4  11  20  36  60  87 125 154 202 249 303 367
#     4  10  20  34  55  88 122 153 191 249 304 361
#     4  10  20  32  56  94 114 156 194 254 296 362
#
# _framework density 21.357196999999999
#
# number of rings (size 3 to 8) (size 9 to 14) (size 15 to 20)
#    0.000    1.455    3.636    3.273    0.000    0.000 
#    0.000    0.000    0.000    6.545    0.000    0.000 
#    0.000    0.000    0.000    0.000    0.000    0.000 
#
# Total GULP energy -122555.381906 kJ/mol
# GULP energy per Si atom -5570.699178 kJ/mol
# Density = 2.130859 g / cm^3
# Si number density = 21.357197 Si / 1000 Ang^3
#
#
#
# Elastic Constant Matrix: (Units=GPa)
#
#
# Indices 1 2 3 4 5 6 
#
# 1 47.9868 11.7419 24.6165 0.0000 0.0000 0.0000
# 2 11.7419 103.4550 24.0657 0.0000 0.0000 0.0000
# 3 24.6165 24.0657 97.0845 0.0000 0.0000 0.0000
# 4 0.0000 0.0000 0.0000 30.8250 0.0000 0.0000
# 5 0.0000 0.0000 0.0000 0.0000 7.0209 0.0000
# 6 0.0000 0.0000 0.0000 0.0000 0.0000 23.0682
#
#
#
# Elastic Compliance Matrix: (Units=1/GPa)
#
#
# Indices 1 2 3 4 5 6 
#
# 1 0.024144 -0.001397 -0.005776 0.000000 0.000000 0.000000
# 2 -0.001397 0.010338 -0.002209 0.000000 0.000000 0.000000
# 3 -0.005776 -0.002209 0.012312 0.000000 0.000000 0.000000
# 4 0.000000 0.000000 0.000000 0.032441 0.000000 0.000000
# 5 0.000000 0.000000 0.000000 0.000000 0.142433 0.000000
# 6 0.000000 0.000000 0.000000 0.000000 0.000000 0.043350
#
#
# Mechanical properties :
#
#
# Convention : Reuss Voigt Hill
#
# Bulk Modulus (GPa) = 35.67296 41.04160 38.35728
# Shear Modulus (GPa) = 17.05767 24.72298 20.89032
#
# Velocity S-wave (km/s) = 2.82917 3.40604 3.13092
# Velocity P-wave (km/s) = 5.23560 5.89293 5.57396
#
# Compressibility (1/GPa) = 0.02803244
#
# Stress axis : x y z
#
# Youngs Moduli (GPa) = 41.41888 96.72754 81.22027
#
# Poissons Ratio (x) = 0.13510 0.46909
# Poissons Ratio (y) = 0.05785 0.17938
# Poissons Ratio (z) = 0.23922 0.21363
#
# Static dielectric constant tensor:
#      x y z
#    x 1.895730 0.000000 0.000000 
#    y 0.000000 1.800790 0.000000 
#    z 0.000000 0.000000 1.768560 
# 
# From -- ./inp_files/17407.got.cif
#   From: 2010.05.17/outbox.cif.g08.bks.cpg/sg37_9_cif.got.tgz:17407.got - 2010.06.03 17:53:42.
