data_PCOD9353716
_publ_section_title
;
Structure prediction by ZEFSAII (Michael W. Deem and Ramdas Pophale) SiO2 
 PCOD9353716
Probable space group: C C C 2
;
_chemical_formula_sum "Si O2"
_cell_formula_units_Z 56
_cell_length_a 5.268250
_cell_length_b 19.583288
_cell_length_c 23.828657
_cell_angle_alpha 90.000000
_cell_angle_beta 90.000000
_cell_angle_gamma 90.000000
_cell_volume 2458.394370
_symmetry_space_group_name_H-M "C C C 2"
_symmetry_group_IT_number 37
_symmetry_cell_setting 'orthorhombic'
loop_
_space_group_symop_operation_xyz
x,y,z
-x,-y,z
-x,y,1/2+z
x,-y,1/2+z
1/2+x,1/2+y,z
1/2-x,1/2-y,z
1/2-x,1/2+y,1/2+z
1/2+x,1/2-y,1/2+z
loop_
_atom_site_type_symbol
_atom_site_label
_atom_site_fract_x
_atom_site_fract_y
_atom_site_fract_z
Si Si1 0.622294 0.177449 0.229340
Si Si2 0.728907 0.830534 0.076365
Si Si3 0.973632 0.425459 0.917814
Si Si4 0.136170 0.883515 0.690340
Si Si5 0.275182 0.671277 0.004029
Si Si6 0.670476 0.566563 0.306986
Si Si7 0.278391 0.329331 0.851200
O O1 0.750000 0.250000 0.220898
O O2 0.342592 0.174913 0.205134
O O3 0.599827 0.165709 0.295886
O O4 0.836544 0.128254 0.201618
O O5 0.750000 0.750000 0.094376
O O6 0.804609 0.885425 0.124406
O O7 0.447250 0.839340 0.050942
O O8 0.947218 0.837919 0.029699
O O9 0.875133 0.438729 0.855193
O O10 0.000000 0.500000 0.944650
O O11 0.212370 0.377231 0.903651
O O12 0.785773 0.379955 0.954161
O O13 0.223730 0.935100 0.740069
O O14 0.250000 0.750000 0.984790
O O15 0.500000 0.500000 0.317119
O O16 0.528646 0.638004 0.322761
O O17 0.250000 0.250000 0.867768
#
# Coordination Sequence:
#
# PCOD9353716 Si02
#       7
#     8   8   8   8   8   8   8
#     4  10  19  33  55  95 131 167 208 261 323 402
#     4  10  21  42  66  98 132 174 225 291 347 398
#     4  12  25  44  68  94 135 189 229 281 348 422
#     4  11  21  37  65  93 133 176 220 269 340 414
#     4  10  25  43  68  97 133 174 234 292 343 396
#     4  11  24  42  64  99 141 185 225 278 349 421
#     4  10  23  38  62  97 136 173 221 279 338 411
#
# _framework density 22.779095000000002
#
# number of rings (size 3 to 8) (size 9 to 14) (size 15 to 20)
#    0.000    1.429    2.857    2.143    4.000    1.714 
#    0.000    1.429    0.000    0.000    0.000    0.000 
#    0.000    0.000    0.000    0.000    0.000    0.000 
#
# Total GULP energy -156004.964231 kJ/mol
# GULP energy per Si atom -5571.605865 kJ/mol
# Density = 2.272725 g / cm^3
# Si number density = 22.779095 Si / 1000 Ang^3
#
#
#
# Elastic Constant Matrix: (Units=GPa)
#
#
# Indices 1 2 3 4 5 6 
#
# 1 75.4147 23.0464 13.5314 0.0000 0.0000 0.0000
# 2 23.0464 93.4926 46.0536 0.0000 0.0000 0.0000
# 3 13.5314 46.0536 54.1802 0.0000 0.0000 0.0000
# 4 0.0000 0.0000 0.0000 -26.0252 0.0000 0.0000
# 5 0.0000 0.0000 0.0000 0.0000 43.3463 0.0000
# 6 0.0000 0.0000 0.0000 0.0000 0.0000 27.9754
#
#
#
# Elastic Compliance Matrix: (Units=1/GPa)
#
#
# Indices 1 2 3 4 5 6 
#
# 1 0.014371 -0.003053 -0.000994 0.000000 0.000000 0.000000
# 2 -0.003053 0.019049 -0.015429 0.000000 0.000000 0.000000
# 3 -0.000994 -0.015429 0.031820 0.000000 0.000000 0.000000
# 4 0.000000 0.000000 0.000000 -0.038424 0.000000 0.000000
# 5 0.000000 0.000000 0.000000 0.000000 0.023070 0.000000
# 6 0.000000 0.000000 0.000000 0.000000 0.000000 0.035746
#
#
# Mechanical properties :
#
#
# Convention : Reuss Voigt Hill
#
# Bulk Modulus (GPa) = 38.04058 43.15003 40.59530
# Shear Modulus (GPa) = 37.49611 18.42304 27.95958
#
# Velocity S-wave (km/s) = 4.06159 2.84697 3.50726
# Velocity P-wave (km/s) = 6.22345 5.45811 5.85330
#
# Compressibility (1/GPa) = 0.02628772
#
# Stress axis : x y z
#
# Youngs Moduli (GPa) = 69.58287 52.49656 31.42657
#
# Poissons Ratio (x) = 0.16026 0.03125
# Poissons Ratio (y) = 0.21242 0.48489
# Poissons Ratio (z) = 0.06918 0.80998
#
# Static dielectric constant tensor:
#      x y z
#    x 1.816420 0.000000 0.000000 
#    y 0.000000 2.087630 0.000000 
#    z 0.000000 0.000000 1.911690 
# 
# From -- ./inp_files/18061.got.cif
#   From: 2010.05.17/outbox.cif.g08.bks.cpg/sg37_10_cif.got.tgz:18061.got - 2010.06.03 17:53:42.
