data_PCOD9353793
_publ_section_title
;
Structure prediction by ZEFSAII (Michael W. Deem and Ramdas Pophale) SiO2 
 PCOD9353793
Probable space group: C C C 2
;
_chemical_formula_sum "Si O2"
_cell_formula_units_Z 64
_cell_length_a 10.946099
_cell_length_b 11.313764
_cell_length_c 26.185451
_cell_angle_alpha 90.000000
_cell_angle_beta 90.000000
_cell_angle_gamma 90.000000
_cell_volume 3242.847646
_symmetry_space_group_name_H-M "C C C 2"
_symmetry_group_IT_number 37
_symmetry_cell_setting 'orthorhombic'
loop_
_space_group_symop_operation_xyz
x,y,z
-x,-y,z
-x,y,1/2+z
x,-y,1/2+z
1/2+x,1/2+y,z
1/2-x,1/2-y,z
1/2-x,1/2+y,1/2+z
1/2+x,1/2-y,1/2+z
loop_
_atom_site_type_symbol
_atom_site_label
_atom_site_fract_x
_atom_site_fract_y
_atom_site_fract_z
Si Si1 0.045069 0.249385 0.424770
Si Si2 0.620793 0.744419 0.205010
Si Si3 0.874559 0.931594 0.113507
Si Si4 0.372437 0.986279 0.644816
Si Si5 0.604995 0.096889 0.347648
Si Si6 0.364977 0.173583 0.735706
Si Si7 0.103694 0.897552 0.503211
Si Si8 0.747994 0.947387 0.428531
O O1 0.136806 0.138215 0.414593
O O2 0.134721 0.358523 0.439609
O O3 0.962058 0.296592 0.378016
O O4 0.953543 0.205935 0.468960
O O5 0.750000 0.750000 0.234958
O O6 0.618413 0.633064 0.167830
O O7 0.495242 0.758944 0.235077
O O8 0.628630 0.852962 0.165292
O O9 0.751812 0.009629 0.114983
O O10 0.866697 0.858383 0.060868
O O11 0.000000 0.000000 0.110447
O O12 0.376838 0.067814 0.695178
O O13 0.500000 0.000000 0.615594
O O14 0.657702 0.132588 0.293198
O O15 0.500000 0.000000 0.337394
O O16 0.704772 0.032708 0.382947
O O17 0.250000 0.250000 0.718383
O O18 0.213148 0.965912 0.474510
O O19 0.000000 0.000000 0.505798
#
# Coordination Sequence:
#
# PCOD9353793 Si02
#       8
#     8   8   8   8   8   8   8   8
#     4   9  19  38  58  83 118 159 200 252 309 372
#     4   9  19  38  58  79 117 155 195 242 302 369
#     4  10  19  36  60  88 116 157 204 250 310 362
#     4   9  19  38  56  78 120 154 189 253 295 368
#     4  10  21  38  59  87 117 158 202 249 310 368
#     4  11  22  37  60  89 117 154 204 255 310 359
#     4   9  19  36  60  85 120 157 198 255 308 364
#     4   9  19  38  58  82 120 157 200 254 307 373
#
# _framework density 19.735741999999998
#
# number of rings (size 3 to 8) (size 9 to 14) (size 15 to 20)
#    0.000    2.500    0.000    1.875    1.750    0.000 
#   20.250    0.625    0.000    0.000    0.000    0.000 
#    0.000    0.000    0.000    0.000    0.000    0.000 
#
# Total GULP energy -178247.118051 kJ/mol
# GULP energy per Si atom -5570.222439 kJ/mol
# Density = 1.969082 g / cm^3
# Si number density = 19.735742 Si / 1000 Ang^3
#
#
#
# Elastic Constant Matrix: (Units=GPa)
#
#
# Indices 1 2 3 4 5 6 
#
# 1 122.3282 25.6617 23.6200 0.0000 0.0000 0.0000
# 2 25.6617 35.3173 15.2709 0.0000 0.0000 0.0000
# 3 23.6200 15.2709 62.6295 0.0000 0.0000 0.0000
# 4 0.0000 0.0000 0.0000 18.9596 0.0000 0.0000
# 5 0.0000 0.0000 0.0000 0.0000 60.3188 0.0000
# 6 0.0000 0.0000 0.0000 0.0000 0.0000 21.1595
#
#
#
# Elastic Compliance Matrix: (Units=1/GPa)
#
#
# Indices 1 2 3 4 5 6 
#
# 1 0.009913 -0.006244 -0.002216 0.000000 0.000000 0.000000
# 2 -0.006244 0.035585 -0.006322 0.000000 0.000000 0.000000
# 3 -0.002216 -0.006322 0.018344 0.000000 0.000000 0.000000
# 4 0.000000 0.000000 0.000000 0.052744 0.000000 0.000000
# 5 0.000000 0.000000 0.000000 0.000000 0.016579 0.000000
# 6 0.000000 0.000000 0.000000 0.000000 0.000000 0.047260
#
#
# Mechanical properties :
#
#
# Convention : Reuss Voigt Hill
#
# Bulk Modulus (GPa) = 29.17324 38.82002 33.99663
# Shear Modulus (GPa) = 22.58213 30.46910 26.52561
#
# Velocity S-wave (km/s) = 3.38631 3.93345 3.67009
# Velocity P-wave (km/s) = 5.48666 6.35154 5.93488
#
# Compressibility (1/GPa) = 0.03427799
#
# Stress axis : x y z
#
# Youngs Moduli (GPa) = 100.88269 28.10145 54.51373
#
# Poissons Ratio (x) = 0.17548 0.12079
# Poissons Ratio (y) = 0.62995 0.34462
# Poissons Ratio (z) = 0.22354 0.17765
#
# Static dielectric constant tensor:
#      x y z
#    x 1.792480 0.000000 0.000000 
#    y 0.000000 1.691300 0.000000 
#    z 0.000000 0.000000 1.661500 
# 
# From -- ./inp_files/18753.got.cif
#   From: 2010.05.17/outbox.cif.g08.bks.cpg/sg37_10_cif.got.tgz:18753.got - 2010.06.03 17:53:42.
