data_PCOD9353732
_publ_section_title
;
Structure prediction by ZEFSAII (Michael W. Deem and Ramdas Pophale) SiO2 
 PCOD9353732
Probable space group: C C C 2
;
_chemical_formula_sum "Si O2"
_cell_formula_units_Z 48
_cell_length_a 9.594253
_cell_length_b 22.669151
_cell_length_c 9.162536
_cell_angle_alpha 90.000000
_cell_angle_beta 90.000000
_cell_angle_gamma 90.000000
_cell_volume 1992.792665
_symmetry_space_group_name_H-M "C C C 2"
_symmetry_group_IT_number 37
_symmetry_cell_setting 'orthorhombic'
loop_
_space_group_symop_operation_xyz
x,y,z
-x,-y,z
-x,y,1/2+z
x,-y,1/2+z
1/2+x,1/2+y,z
1/2-x,1/2-y,z
1/2-x,1/2+y,1/2+z
1/2+x,1/2-y,1/2+z
loop_
_atom_site_type_symbol
_atom_site_label
_atom_site_fract_x
_atom_site_fract_y
_atom_site_fract_z
Si Si1 0.795305 0.145413 0.390480
Si Si2 0.711297 0.433285 0.123785
Si Si3 0.075255 0.697979 0.616964
Si Si4 0.715534 0.871341 0.351801
Si Si5 0.426788 0.724951 0.895468
Si Si6 0.873753 0.058779 0.622737
O O1 0.757236 0.121134 0.231478
O O2 0.684741 0.179859 0.490931
O O3 0.932394 0.185867 0.392214
O O4 0.821712 0.083361 0.470318
O O5 0.719967 0.502019 0.166855
O O6 0.541480 0.438220 0.103527
O O7 0.800111 0.418845 0.979239
O O8 0.090821 0.645427 0.739423
O O9 0.953248 0.723995 0.515563
O O10 0.096488 0.750987 0.731650
O O11 0.837271 0.894820 0.246336
O O12 0.795906 0.816355 0.425325
#
# Coordination Sequence:
#
# PCOD9353732 Si02
#       6
#     8   8   8   8   8   8
#     4  11  21  37  58  91 122 161 204 248 304 371
#     4  11  19  32  58  89 125 161 191 242 321 378
#     4  11  27  40  60  86 123 164 218 249 299 365
#     4  11  21  37  58  91 122 161 204 248 304 371
#     4  12  20  40  59  82 123 168 198 262 294 346
#     4  10  19  34  55  90 127 161 188 242 319 386
#
# _framework density 24.086801999999999
#
# number of rings (size 3 to 8) (size 9 to 14) (size 15 to 20)
#    0.000    1.000    3.333    6.000    0.000    4.000 
#    0.000    3.333    0.000    0.000    0.000   56.000 
#    0.000    0.000    0.000    0.000    0.000    0.000 
#
# Total GULP energy -133626.157034 kJ/mol
# GULP energy per Si atom -5567.756543 kJ/mol
# Density = 2.403198 g / cm^3
# Si number density = 24.086802 Si / 1000 Ang^3
#
#
#
# Elastic Constant Matrix: (Units=GPa)
#
#
# Indices 1 2 3 4 5 6 
#
# 1 56.2931 40.9924 34.4670 0.0000 0.0000 0.0000
# 2 40.9924 94.2131 42.5787 0.0000 0.0000 0.0000
# 3 34.4670 42.5787 136.9615 0.0000 0.0000 0.0000
# 4 0.0000 0.0000 0.0000 46.2100 0.0000 0.0000
# 5 0.0000 0.0000 0.0000 0.0000 20.4092 0.0000
# 6 0.0000 0.0000 0.0000 0.0000 0.0000 11.5097
#
#
#
# Elastic Compliance Matrix: (Units=1/GPa)
#
#
# Indices 1 2 3 4 5 6 
#
# 1 0.027549 -0.010301 -0.003731 0.000000 0.000000 0.000000
# 2 -0.010301 0.016201 -0.002444 0.000000 0.000000 0.000000
# 3 -0.003731 -0.002444 0.009000 0.000000 0.000000 0.000000
# 4 0.000000 0.000000 0.000000 0.021640 0.000000 0.000000
# 5 0.000000 0.000000 0.000000 0.000000 0.048998 0.000000
# 6 0.000000 0.000000 0.000000 0.000000 0.000000 0.086884
#
#
# Mechanical properties :
#
#
# Convention : Reuss Voigt Hill
#
# Bulk Modulus (GPa) = 50.50804 58.17153 54.33978
# Shear Modulus (GPa) = 20.01421 26.92107 23.46764
#
# Velocity S-wave (km/s) = 2.88570 3.34678 3.12476
# Velocity P-wave (km/s) = 5.66725 6.25602 5.96890
#
# Compressibility (1/GPa) = 0.01979883
#
# Stress axis : x y z
#
# Youngs Moduli (GPa) = 36.29859 61.72539 111.11088
#
# Poissons Ratio (x) = 0.63582 0.41451
# Poissons Ratio (y) = 0.37390 0.27159
# Poissons Ratio (z) = 0.13542 0.15087
#
# Static dielectric constant tensor:
#      x y z
#    x 1.955590 0.000000 0.000000 
#    y 0.000000 2.074250 0.000000 
#    z 0.000000 0.000000 1.960550 
# 
# From -- ./inp_files/2929.got.cif
#   From: 2010.05.17/outbox.cif.g08.bks.cpg/sg37_2_cif.got.tgz:2929.got - 2010.06.03 17:53:42.
