data_PCOD9353891
_publ_section_title
;
Structure prediction by ZEFSAII (Michael W. Deem and Ramdas Pophale) SiO2 
 PCOD9353891
Probable space group: C C C 2
;
_chemical_formula_sum "Si O2"
_cell_formula_units_Z 48
_cell_length_a 9.307299
_cell_length_b 17.299838
_cell_length_c 14.364818
_cell_angle_alpha 90.000000
_cell_angle_beta 90.000000
_cell_angle_gamma 90.000000
_cell_volume 2312.947793
_symmetry_space_group_name_H-M "C C C 2"
_symmetry_group_IT_number 37
_symmetry_cell_setting 'orthorhombic'
loop_
_space_group_symop_operation_xyz
x,y,z
-x,-y,z
-x,y,1/2+z
x,-y,1/2+z
1/2+x,1/2+y,z
1/2-x,1/2-y,z
1/2-x,1/2+y,1/2+z
1/2+x,1/2-y,1/2+z
loop_
_atom_site_type_symbol
_atom_site_label
_atom_site_fract_x
_atom_site_fract_y
_atom_site_fract_z
Si Si1 0.289939 0.947470 0.411210
Si Si2 0.834595 0.505122 0.619070
Si Si3 0.990850 0.844349 0.902747
Si Si4 0.775081 0.908659 0.277165
Si Si5 0.754530 0.162988 0.052800
Si Si6 0.962467 0.330207 0.879603
O O1 0.419508 0.896020 0.373602
O O2 0.149864 0.894003 0.419656
O O3 0.329850 0.980511 0.511749
O O4 0.261232 0.019213 0.344264
O O5 0.739905 0.443978 0.675757
O O6 0.773791 0.592441 0.622535
O O7 0.000000 0.500000 0.652166
O O8 0.073621 0.877605 0.812629
O O9 0.967717 0.754032 0.882982
O O10 0.101474 0.849499 0.990657
O O11 0.655927 0.843308 0.299408
O O12 0.750000 0.250000 0.093145
O O13 0.626987 0.161584 0.975817
#
# Coordination Sequence:
#
# PCOD9353891 Si02
#       6
#     8   8   8   8   8   8
#     4  12  21  40  64  97 126 163 219 272 315 380
#     4  12  22  39  68  99 125 169 227 271 312 388
#     4  10  22  40  62  93 129 166 206 261 333 378
#     4  11  23  40  64  92 126 173 216 262 319 386
#     4   9  19  38  64  89 123 167 203 256 327 382
#     4  10  19  41  67  87 124 171 212 259 317 385
#
# _framework density 20.752738999999998
#
# number of rings (size 3 to 8) (size 9 to 14) (size 15 to 20)
#    0.000    1.333    5.000    4.000    0.000    0.000 
#    6.000    6.667    0.000    0.000    0.000    0.000 
#    0.000    0.000    0.000    0.000    0.000    0.000 
#
# Total GULP energy -134179.710370 kJ/mol
# GULP energy per Si atom -5590.821265 kJ/mol
# Density = 2.070550 g / cm^3
# Si number density = 20.752739 Si / 1000 Ang^3
#
#
#
# Elastic Constant Matrix: (Units=GPa)
#
#
# Indices 1 2 3 4 5 6 
#
# 1 44.6677 15.0761 -15.4153 0.0000 0.0000 0.0000
# 2 15.0761 95.4741 -2.8881 0.0000 0.0000 0.0000
# 3 -15.4153 -2.8881 34.8291 0.0000 0.0000 0.0000
# 4 0.0000 0.0000 0.0000 15.0160 0.0000 0.0000
# 5 0.0000 0.0000 0.0000 0.0000 7.3038 0.0000
# 6 0.0000 0.0000 0.0000 0.0000 0.0000 10.7946
#
#
#
# Elastic Compliance Matrix: (Units=1/GPa)
#
#
# Indices 1 2 3 4 5 6 
#
# 1 0.027897 -0.004042 0.012012 0.000000 0.000000 0.000000
# 2 -0.004042 0.011086 -0.000870 0.000000 0.000000 0.000000
# 3 0.012012 -0.000870 0.033956 0.000000 0.000000 0.000000
# 4 0.000000 0.000000 0.000000 0.066595 0.000000 0.000000
# 5 0.000000 0.000000 0.000000 0.000000 0.136914 0.000000
# 6 0.000000 0.000000 0.000000 0.000000 0.000000 0.092639
#
#
# Mechanical properties :
#
#
# Convention : Reuss Voigt Hill
#
# Bulk Modulus (GPa) = 11.47572 18.72404 15.09988
# Shear Modulus (GPa) = 13.02310 18.50278 15.76294
#
# Velocity S-wave (km/s) = 2.50779 2.98918 2.75900
# Velocity P-wave (km/s) = 3.73190 4.57773 4.17628
#
# Compressibility (1/GPa) = 0.08714054
#
# Stress axis : x y z
#
# Youngs Moduli (GPa) = 35.84587 90.20404 29.44982
#
# Poissons Ratio (x) = 0.36459 -0.35375
# Poissons Ratio (y) = 0.14488 0.02561
# Poissons Ratio (z) = -0.43058 0.07844
#
# Static dielectric constant tensor:
#      x y z
#    x 1.729660 0.000000 0.000000 
#    y 0.000000 1.743470 0.000000 
#    z 0.000000 0.000000 1.731160 
# 
# From -- ./inp_files/10579.got.cif
#   From: 2010.05.17/outbox.cif.g08.bks.cpg/sg37_6_cif.got.tgz:10579.got - 2010.06.03 17:53:42.
