data_PCOD9353414
_publ_section_title
;
Structure prediction by ZEFSAII (Michael W. Deem and Ramdas Pophale) SiO2 
 PCOD9353414
Probable space group: C C C 2
;
_chemical_formula_sum "Si O2"
_cell_formula_units_Z 36
_cell_length_a 9.360951
_cell_length_b 11.456089
_cell_length_c 15.538031
_cell_angle_alpha 90.000000
_cell_angle_beta 90.000000
_cell_angle_gamma 90.000000
_cell_volume 1666.296701
_symmetry_space_group_name_H-M "C C C 2"
_symmetry_group_IT_number 37
_symmetry_cell_setting 'orthorhombic'
loop_
_space_group_symop_operation_xyz
x,y,z
-x,-y,z
-x,y,1/2+z
x,-y,1/2+z
1/2+x,1/2+y,z
1/2-x,1/2-y,z
1/2-x,1/2+y,1/2+z
1/2+x,1/2-y,1/2+z
loop_
_atom_site_type_symbol
_atom_site_label
_atom_site_fract_x
_atom_site_fract_y
_atom_site_fract_z
Si Si1 0.919032 0.742360 0.182820
Si Si2 0.697884 0.003700 0.435184
Si Si3 0.000000 0.500000 0.774093
Si Si4 0.895661 0.833800 0.358208
Si Si5 0.524387 0.809314 0.999918
O O1 0.750000 0.750000 0.167845
O O2 0.948254 0.833344 0.260130
O O3 0.992859 0.753638 0.090602
O O4 0.960168 0.613659 0.219238
O O5 0.625828 0.027395 0.341876
O O6 0.670732 0.116731 0.492806
O O7 0.846131 0.949131 0.407293
O O8 0.603460 0.903441 0.483384
O O9 0.750000 0.750000 0.355689
O O10 0.010608 0.773279 0.418418
#
# Coordination Sequence:
#
# PCOD9353414 Si02
#       5
#     8   8   4   8   8
#     4  11  18  28  49  82 112 144 189 238 279 338
#     4   9  15  29  48  75 110 145 178 230 281 328
#     4  10  14  26  48  76 110 140 184 230 274 338
#     4   9  15  29  48  73 110 146 177 230 284 328
#     4   9  17  27  46  78 106 139 186 222 275 335
#
# _framework density 21.604794999999999
#
# number of rings (size 3 to 8) (size 9 to 14) (size 15 to 20)
#    0.000    2.667    8.889    1.333    0.000    0.000 
#    0.000    0.000    0.000    5.333    0.000    9.333 
#    0.000    0.000    0.000    0.000    0.000    0.000 
#
# Total GULP energy -100283.814575 kJ/mol
# GULP energy per Si atom -5571.323032 kJ/mol
# Density = 2.155562 g / cm^3
# Si number density = 21.604795 Si / 1000 Ang^3
#
#
#
# Elastic Constant Matrix: (Units=GPa)
#
#
# Indices 1 2 3 4 5 6 
#
# 1 42.2131 26.1173 21.1914 0.0000 0.0000 0.0000
# 2 26.1173 49.2847 16.7184 0.0000 0.0000 0.0000
# 3 21.1914 16.7184 158.5841 0.0000 0.0000 0.0000
# 4 0.0000 0.0000 0.0000 -0.4798 0.0000 0.0000
# 5 0.0000 0.0000 0.0000 0.0000 -1.7643 0.0000
# 6 0.0000 0.0000 0.0000 0.0000 0.0000 19.2786
#
#
#
# Elastic Compliance Matrix: (Units=1/GPa)
#
#
# Indices 1 2 3 4 5 6 
#
# 1 0.036525 -0.018356 -0.002946 0.000000 0.000000 0.000000
# 2 -0.018356 0.030268 -0.000738 0.000000 0.000000 0.000000
# 3 -0.002946 -0.000738 0.006777 0.000000 0.000000 0.000000
# 4 0.000000 0.000000 0.000000 -2.084215 0.000000 0.000000
# 5 0.000000 0.000000 0.000000 0.000000 -0.566809 0.000000
# 6 0.000000 0.000000 0.000000 0.000000 0.000000 0.051871
#
#
# Mechanical properties :
#
#
# Convention : Reuss Voigt Hill
#
# Bulk Modulus (GPa) = 33.90931 42.01513 37.96222
# Shear Modulus (GPa) = -2.02292 15.81055 6.89382
#
# Velocity S-wave (km/s) = -0.96869 2.70813 1.78824
# Velocity P-wave (km/s) = 3.80502 5.40999 4.67687
#
# Compressibility (1/GPa) = 0.02949042
#
# Stress axis : x y z
#
# Youngs Moduli (GPa) = 27.37836 33.03792 147.55301
#
# Poissons Ratio (x) = 0.60646 0.43464
# Poissons Ratio (y) = 0.50257 0.10890
# Poissons Ratio (z) = 0.08065 0.02438
#
# Static dielectric constant tensor:
#      x y z
#    x 1.850910 0.000000 0.000000 
#    y 0.000000 1.942200 0.000000 
#    z 0.000000 0.000000 1.753520 
# 
# From -- ./inp_files/11282.got.cif
#   From: 2010.05.17/outbox.cif.g08.bks.cpg/sg37_6_cif.got.tgz:11282.got - 2010.06.03 17:53:42.
