data_PCOD9353226
_publ_section_title
;
Structure prediction by ZEFSAII (Michael W. Deem and Ramdas Pophale) SiO2 
 PCOD9353226
Probable space group: C M C 21
;
_chemical_formula_sum "Si O2"
_cell_formula_units_Z 64
_cell_length_a 27.190071
_cell_length_b 9.314910
_cell_length_c 12.052227
_cell_angle_alpha 90.000000
_cell_angle_beta 90.000000
_cell_angle_gamma 90.000000
_cell_volume 3052.504463
_symmetry_space_group_name_H-M "C M C 21"
_symmetry_group_IT_number 36
_symmetry_cell_setting 'orthorhombic'
loop_
_space_group_symop_operation_xyz
x,y,z
-x,-y,1/2+z
x,-y,1/2+z
-x,y,z
1/2+x,1/2+y,z
1/2-x,1/2-y,1/2+z
1/2+x,1/2-y,1/2+z
1/2-x,1/2+y,z
loop_
_atom_site_type_symbol
_atom_site_label
_atom_site_fract_x
_atom_site_fract_y
_atom_site_fract_z
Si Si1 0.557841 0.264514 0.834780
Si Si2 0.293884 0.074201 0.388342
Si Si3 0.879770 0.577070 0.002833
Si Si4 0.707426 0.716545 0.081830
Si Si5 0.907866 0.736777 0.583814
Si Si6 0.442998 0.597801 0.873315
Si Si7 0.862270 0.747887 0.225668
Si Si8 0.731191 0.443812 0.205854
O O1 0.500000 0.241774 0.857036
O O2 0.590418 0.155951 0.906409
O O3 0.568559 0.242977 0.704748
O O4 0.570061 0.429414 0.866472
O O5 0.280404 0.210456 0.464488
O O6 0.333905 0.128496 0.298283
O O7 0.324738 0.962433 0.462203
O O8 0.248020 0.013853 0.321007
O O9 0.904554 0.425815 0.037551
O O10 0.877082 0.678936 0.109518
O O11 0.648710 0.711412 0.090562
O O12 0.729895 0.563466 0.110078
O O13 0.729147 0.824282 0.173540
O O14 0.935026 0.838072 0.495821
O O15 0.500000 0.611737 0.841048
O O16 0.407969 0.688369 0.792562
O O17 0.821879 0.871973 0.210894
#
# Coordination Sequence:
#
# PCOD9353226 Si02
#       8
#     8   8   8   8   8   8   8   8
#     4  11  26  45  73 109 142 187 245 304 368 438
#     4  11  24  47  66 102 144 184 237 298 356 439
#     4  11  25  46  75 102 147 188 242 303 365 437
#     4  11  25  41  68 100 143 182 239 288 353 429
#     4  11  24  49  72 104 147 192 242 306 367 433
#     4  11  26  48  74 104 145 196 250 308 370 437
#     4  12  25  46  72 104 143 191 242 300 368 429
#     4  12  26  42  69 107 138 194 236 291 363 434
#
# _framework density 20.966390000000001
#
# number of rings (size 3 to 8) (size 9 to 14) (size 15 to 20)
#    0.000    0.750    3.750    4.125    5.250    1.500 
#    2.250    0.000    0.000    0.000    0.000    0.000 
#    0.000    0.000    0.000    0.000    0.000    0.000 
#
# Total GULP energy -179178.012310 kJ/mol
# GULP energy per Si atom -5599.312885 kJ/mol
# Density = 2.091867 g / cm^3
# Si number density = 20.966390 Si / 1000 Ang^3
#
#
#
# Elastic Constant Matrix: (Units=GPa)
#
#
# Indices 1 2 3 4 5 6 
#
# 1 46.6613 49.4502 25.2490 0.0000 0.0000 0.0000
# 2 49.4502 105.7368 51.1762 0.0000 0.0000 0.0000
# 3 25.2490 51.1762 125.9673 0.0000 0.0000 0.0000
# 4 0.0000 0.0000 0.0000 31.9954 0.0000 0.0000
# 5 0.0000 0.0000 0.0000 0.0000 -5.1612 0.0000
# 6 0.0000 0.0000 0.0000 0.0000 0.0000 33.1592
#
#
#
# Elastic Compliance Matrix: (Units=1/GPa)
#
#
# Indices 1 2 3 4 5 6 
#
# 1 0.042521 -0.019619 -0.000553 0.000000 0.000000 0.000000
# 2 -0.019619 0.020824 -0.004528 0.000000 0.000000 0.000000
# 3 -0.000553 -0.004528 0.009889 0.000000 0.000000 0.000000
# 4 0.000000 0.000000 0.000000 0.031254 0.000000 0.000000
# 5 0.000000 0.000000 0.000000 0.000000 -0.193754 0.000000
# 6 0.000000 0.000000 0.000000 0.000000 0.000000 0.030158
#
#
# Mechanical properties :
#
#
# Convention : Reuss Voigt Hill
#
# Bulk Modulus (GPa) = 41.95308 58.90180 50.42744
# Shear Modulus (GPa) = -2832.57045 22.16469 -1405.20288
#
# Velocity S-wave (km/s) = -36.79590 3.25492 -25.91663
# Velocity P-wave (km/s) = 42.25160 6.50234 29.52048
#
# Compressibility (1/GPa) = 0.02383615
#
# Stress axis : x y z
#
# Youngs Moduli (GPa) = 23.51768 48.02174 101.12472
#
# Poissons Ratio (x) = 0.94212 0.05588
# Poissons Ratio (y) = 0.46138 0.45786
# Poissons Ratio (z) = 0.01300 0.21743
#
# Static dielectric constant tensor:
#      x y z
#    x 1.726180 0.000000 0.000000 
#    y 0.000000 1.746800 0.000000 
#    z 0.000000 0.000000 1.753830 
# 
# From -- ./inp_files/9739.got.cif
#   From: 2010.05.17/outbox.cif.g08.bks.cpg/sg36_5_cif.got.tgz:9739.got - 2010.06.03 17:41:39.
