data_PCOD9353343
_publ_section_title
;
Structure prediction by ZEFSAII (Michael W. Deem and Ramdas Pophale) SiO2 
 PCOD9353343
Probable space group: C M C 21
;
_chemical_formula_sum "Si O2"
_cell_formula_units_Z 32
_cell_length_a 9.000000
_cell_length_b 30.000000
_cell_length_c 12.000000
_cell_angle_alpha 90.000000
_cell_angle_beta 90.000000
_cell_angle_gamma 90.000000
_cell_volume 3240.000000
_symmetry_space_group_name_H-M "C M C 21"
_symmetry_group_IT_number 36
_symmetry_cell_setting 'orthorhombic'
loop_
_space_group_symop_operation_xyz
x,y,z
-x,-y,1/2+z
x,-y,1/2+z
-x,y,z
1/2+x,1/2+y,z
1/2-x,1/2-y,1/2+z
1/2+x,1/2-y,1/2+z
1/2-x,1/2+y,z
loop_
_atom_site_type_symbol
_atom_site_label
_atom_site_fract_x
_atom_site_fract_y
_atom_site_fract_z
Si Si1 0.673609 0.336413 0.989930
Si Si2 0.334309 0.572585 0.618536
Si Si3 0.319900 0.729967 0.667642
Si Si4 0.178048 0.819529 0.616178
Si Si5 0.828124 0.981166 0.888987
Si Si6 0.181219 0.107237 0.280840
Si Si7 0.827840 0.430827 0.334039
Si Si8 0.678602 0.664524 0.866269
O O1 0.500000 0.327135 0.965316
O O2 0.736192 0.359361 0.878914
O O3 0.677692 0.376050 0.081149
O O4 0.734831 0.293100 0.052064
O O5 0.500000 0.566673 0.667836
O O6 0.327010 0.543943 0.506906
O O7 0.208747 0.559883 0.704520
O O8 0.500000 0.731094 0.665489
O O9 0.255655 0.779064 0.679209
O O10 0.273342 0.697915 0.768813
O O11 0.217803 0.867762 0.667106
O O12 0.219469 0.817019 0.487266
O O13 0.000000 0.815013 0.627110
O O14 0.769154 0.943336 0.802942
O O15 0.000000 0.991182 0.861075
O O16 0.738819 0.026516 0.895428
O O17 0.000000 0.104994 0.291364
O O18 0.745033 0.384598 0.356645
O O19 0.000000 0.425782 0.355910
O O20 0.500000 0.660970 0.860473
#
# Coordination Sequence:
#
# PCOD9353343 Si02
#       8
#     8   8   8   8   8   8   8   8
#     4   8  14  29  55  79 101 135 181 235 277 323
#     4   9  17  35  59  80 105 145 197 243 283 340
#     4  10  20  35  57  81 110 149 188 231 284 343
#     4  10  22  37  57  85 117 148 187 241 288 337
#     4   9  19  36  61  85 109 152 206 244 283 348
#     4   8  16  33  56  83 109 140 188 238 283 331
#     4  12  24  36  56  87 122 153 186 242 306 351
#     4  10  22  41  59  80 115 156 199 236 278 349
#
# _framework density 9.8765429999999999
#
# number of rings (size 3 to 8) (size 9 to 14) (size 15 to 20)
#    0.000    2.500    1.250    2.625    1.750    2.500 
#    0.000    3.125    0.000    0.750    0.000    0.000 
#    0.000    0.000    0.000    0.000    0.000    0.000 
#
# Total GULP energy -178373.533573 kJ/mol
# GULP energy per Si atom -5574.172924 kJ/mol
# Density = 0.985406 g / cm^3
# Si number density = 9.876543 Si / 1000 Ang^3
#
#
#
# Elastic Constant Matrix: (Units=GPa)
#
#
# Indices 1 2 3 4 5 6 
#
# 1 7.8451 20.8258 11.5028 0.0000 0.0000 0.0000
# 2 20.8258 110.7933 25.5041 0.0000 0.0000 0.0000
# 3 11.5028 25.5041 47.2259 0.0000 0.0000 0.0000
# 4 0.0000 0.0000 0.0000 15.9148 0.0000 0.0000
# 5 0.0000 0.0000 0.0000 0.0000 6.0557 0.0000
# 6 0.0000 0.0000 0.0000 0.0000 0.0000 22.8446
#
#
#
# Elastic Compliance Matrix: (Units=1/GPa)
#
#
# Indices 1 2 3 4 5 6 
#
# 1 0.351845 -0.052997 -0.057078 0.000000 0.000000 0.000000
# 2 -0.052997 0.018290 0.003031 0.000000 0.000000 0.000000
# 3 -0.057078 0.003031 0.033440 0.000000 0.000000 0.000000
# 4 0.000000 0.000000 0.000000 0.062834 0.000000 0.000000
# 5 0.000000 0.000000 0.000000 0.000000 0.165134 0.000000
# 6 0.000000 0.000000 0.000000 0.000000 0.000000 0.043774
#
#
# Mechanical properties :
#
#
# Convention : Reuss Voigt Hill
#
# Bulk Modulus (GPa) = 5.27741 31.28108 18.27924
# Shear Modulus (GPa) = 5.24897 16.16514 10.70705
#
# Velocity S-wave (km/s) = 1.63189 2.86380 2.33071
# Velocity P-wave (km/s) = 2.49564 5.17741 4.06410
#
# Compressibility (1/GPa) = 0.18948690
#
# Stress axis : x y z
#
# Youngs Moduli (GPa) = 2.84216 54.67485 29.90400
#
# Poissons Ratio (x) = 2.89761 1.70686
# Poissons Ratio (y) = 0.15063 -0.09064
# Poissons Ratio (z) = 0.16222 -0.16573
#
# Static dielectric constant tensor:
#      x y z
#    x 1.666490 0.000000 0.000000 
#    y 0.000000 1.689330 0.000000 
#    z 0.000000 0.000000 1.747320 
# 
# From -- ./inp_files/7149.got.cif
#   From: 2010.05.17/outbox.ucp.g08.bks.cvg/sg36_4_cif.got.tgz:7149.got - 2010.06.11 10:37:26.
