data_PCOD9353423
_publ_section_title
;
Structure prediction by ZEFSAII (Michael W. Deem and Ramdas Pophale) SiO2 
 PCOD9353423
Probable space group: C C C 2
;
_chemical_formula_sum "Si O2"
_cell_formula_units_Z 56
_cell_length_a 5.297869
_cell_length_b 32.272197
_cell_length_c 13.933238
_cell_angle_alpha 90.000000
_cell_angle_beta 90.000000
_cell_angle_gamma 90.000000
_cell_volume 2382.219651
_symmetry_space_group_name_H-M "C C C 2"
_symmetry_group_IT_number 37
_symmetry_cell_setting 'orthorhombic'
loop_
_space_group_symop_operation_xyz
x,y,z
-x,-y,z
-x,y,1/2+z
x,-y,1/2+z
1/2+x,1/2+y,z
1/2-x,1/2-y,z
1/2-x,1/2+y,1/2+z
1/2+x,1/2-y,1/2+z
loop_
_atom_site_type_symbol
_atom_site_label
_atom_site_fract_x
_atom_site_fract_y
_atom_site_fract_z
Si Si1 0.492422 0.725137 0.765650
Si Si2 0.248360 0.475392 0.339572
Si Si3 0.847676 0.142224 0.364926
Si Si4 0.657614 0.884062 0.355866
Si Si5 0.307880 0.381696 0.642401
Si Si6 0.697274 0.160974 0.657336
Si Si7 0.750102 0.025564 0.071409
O O1 0.250000 0.750000 0.808622
O O2 0.604385 0.690132 0.838743
O O3 0.353338 0.703724 0.673020
O O4 0.750000 0.750000 0.739527
O O5 0.500000 0.500000 0.311085
O O6 0.197866 0.428526 0.308196
O O7 0.255697 0.471606 0.455464
O O8 0.000000 0.500000 0.312764
O O9 0.594652 0.125743 0.412544
O O10 0.828363 0.120214 0.259611
O O11 0.094043 0.124946 0.415954
O O12 0.660369 0.850930 0.269875
O O13 0.589966 0.368520 0.613209
O O14 0.244407 0.428094 0.611973
O O15 0.082699 0.348713 0.618475
O O16 0.500000 0.000000 0.096950
O O17 0.000000 0.000000 0.099597
#
# Coordination Sequence:
#
# PCOD9353423 Si02
#       7
#     8   8   8   8   8   8   8
#     4  10  16  26  44  68  97 118 139 174 216 266
#     4  10  20  32  46  64  85 113 152 194 226 252
#     4   9  18  29  44  66  91 116 143 173 215 268
#     4   9  16  31  44  59  90 118 141 182 219 257
#     4   9  16  31  44  59  90 118 141 182 219 257
#     4   9  18  29  44  66  91 116 143 173 215 268
#     4  10  20  32  46  64  85 113 152 194 226 252
#
# _framework density 23.507489
#
# number of rings (size 3 to 8) (size 9 to 14) (size 15 to 20)
#    0.000    2.857    0.000    5.143    0.000    0.000 
#    0.000   17.143    0.000    0.000    0.000    0.000 
#    0.000  121.143    0.000    0.000    0.000    0.000 
#
# Total GULP energy -156039.191063 kJ/mol
# GULP energy per Si atom -5572.828252 kJ/mol
# Density = 2.345398 g / cm^3
# Si number density = 23.507489 Si / 1000 Ang^3
#
#
#
# Elastic Constant Matrix: (Units=GPa)
#
#
# Indices 1 2 3 4 5 6 
#
# 1 254.0977 64.3344 -16.0529 0.0000 0.0000 0.0000
# 2 64.3344 128.5116 -20.6423 0.0000 0.0000 0.0000
# 3 -16.0529 -20.6423 38.4834 0.0000 0.0000 0.0000
# 4 0.0000 0.0000 0.0000 106.9619 0.0000 0.0000
# 5 0.0000 0.0000 0.0000 0.0000 -4.3260 0.0000
# 6 0.0000 0.0000 0.0000 0.0000 0.0000 49.7375
#
#
#
# Elastic Compliance Matrix: (Units=1/GPa)
#
#
# Indices 1 2 3 4 5 6 
#
# 1 0.004526 -0.002147 0.000736 0.000000 0.000000 0.000000
# 2 -0.002147 0.009534 0.004218 0.000000 0.000000 0.000000
# 3 0.000736 0.004218 0.028555 0.000000 0.000000 0.000000
# 4 0.000000 0.000000 0.000000 0.009349 0.000000 0.000000
# 5 0.000000 0.000000 0.000000 0.000000 -0.231162 0.000000
# 6 0.000000 0.000000 0.000000 0.000000 0.000000 0.020106
#
#
# Mechanical properties :
#
#
# Convention : Reuss Voigt Hill
#
# Bulk Modulus (GPa) = 20.73480 52.93012 36.83246
# Shear Modulus (GPa) = -33.64050 56.70492 11.53221
#
# Velocity S-wave (km/s) = -3.78703 4.91675 2.21730
# Velocity P-wave (km/s) = 3.20663 7.40255 4.71780
#
# Compressibility (1/GPa) = 0.04822811
#
# Stress axis : x y z
#
# Youngs Moduli (GPa) = 220.96108 104.88812 35.02034
#
# Poissons Ratio (x) = 0.22524 -0.02577
# Poissons Ratio (y) = 0.47449 -0.14772
# Poissons Ratio (z) = -0.16262 -0.44244
#
# Static dielectric constant tensor:
#      x y z
#    x 2.067340 0.000000 0.000000 
#    y 0.000000 1.864530 0.000000 
#    z 0.000000 0.000000 1.935000 
# 
# From -- ./inp_files/9893.got.cif
#   From: 2010.05.17/outbox.cif.g08.bks.cpg/sg37_5_cif.got.tgz:9893.got - 2010.06.03 17:53:42.
