data_PCOD9353731
_publ_section_title
;
Structure prediction by ZEFSAII (Michael W. Deem and Ramdas Pophale) SiO2 
 PCOD9353731
Probable space group: C C C 2
;
_chemical_formula_sum "Si O2"
_cell_formula_units_Z 40
_cell_length_a 13.962675
_cell_length_b 5.039881
_cell_length_c 26.339604
_cell_angle_alpha 90.000000
_cell_angle_beta 90.000000
_cell_angle_gamma 90.000000
_cell_volume 1853.523740
_symmetry_space_group_name_H-M "C C C 2"
_symmetry_group_IT_number 37
_symmetry_cell_setting 'orthorhombic'
loop_
_space_group_symop_operation_xyz
x,y,z
-x,-y,z
-x,y,1/2+z
x,-y,1/2+z
1/2+x,1/2+y,z
1/2-x,1/2-y,z
1/2-x,1/2+y,1/2+z
1/2+x,1/2-y,1/2+z
loop_
_atom_site_type_symbol
_atom_site_label
_atom_site_fract_x
_atom_site_fract_y
_atom_site_fract_z
Si Si1 0.750000 0.750000 0.765790
Si Si2 0.750000 0.250000 0.695305
Si Si3 0.313450 0.010148 0.101640
Si Si4 0.634493 0.745102 0.946239
Si Si5 0.435944 0.739803 0.334137
Si Si6 0.366720 0.243383 0.506982
O O1 0.728203 0.497561 0.730587
O O2 0.657996 0.794747 0.801067
O O3 0.666905 0.153444 0.655463
O O4 0.250000 0.750000 0.114963
O O5 0.250000 0.250000 0.075980
O O6 0.388500 0.889448 0.061638
O O7 0.750000 0.750000 0.943018
O O8 0.595950 0.668956 0.891377
O O9 0.604630 0.534884 0.989507
O O10 0.604986 0.037711 0.963544
O O11 0.500000 0.500000 0.313248
O O12 0.500000 0.000000 0.336017
O O13 0.250000 0.250000 0.508214
#
# Coordination Sequence:
#
# PCOD9353731 Si02
#       6
#     4   4   8   8   8   8
#     4  12  24  44  65  94 129 166 224 276 324 380
#     4  10  20  34  61  90 133 158 212 282 314 382
#     4   9  15  28  48  88 129 150 198 266 303 374
#     4  10  19  34  55  88 123 165 197 251 305 370
#     4  12  26  44  65  92 131 172 218 271 326 381
#     4   9  16  26  52  84 128 152 199 246 298 378
#
# _framework density 21.580515999999999
#
# number of rings (size 3 to 8) (size 9 to 14) (size 15 to 20)
#    0.600    1.200    2.000    5.400    0.000    0.000 
#    0.000    0.000    0.000    0.000    0.000   21.000 
#    0.000    0.000    0.000    0.000    0.000    0.000 
#
# Total GULP energy -111500.482695 kJ/mol
# GULP energy per Si atom -5575.024135 kJ/mol
# Density = 2.153140 g / cm^3
# Si number density = 21.580516 Si / 1000 Ang^3
#
#
#
# Elastic Constant Matrix: (Units=GPa)
#
#
# Indices 1 2 3 4 5 6 
#
# 1 94.7780 11.3234 25.6699 0.0000 0.0000 0.0000
# 2 11.3234 138.3347 30.3002 0.0000 0.0000 0.0000
# 3 25.6699 30.3002 128.1209 0.0000 0.0000 0.0000
# 4 0.0000 0.0000 0.0000 69.5936 0.0000 0.0000
# 5 0.0000 0.0000 0.0000 0.0000 -9.5542 0.0000
# 6 0.0000 0.0000 0.0000 0.0000 0.0000 9.4382
#
#
#
# Elastic Compliance Matrix: (Units=1/GPa)
#
#
# Indices 1 2 3 4 5 6 
#
# 1 0.011183 -0.000448 -0.002135 0.000000 0.000000 0.000000
# 2 -0.000448 0.007642 -0.001718 0.000000 0.000000 0.000000
# 3 -0.002135 -0.001718 0.008639 0.000000 0.000000 0.000000
# 4 0.000000 0.000000 0.000000 0.014369 0.000000 0.000000
# 5 0.000000 0.000000 0.000000 0.000000 -0.104665 0.000000
# 6 0.000000 0.000000 0.000000 0.000000 0.000000 0.105952
#
#
# Mechanical properties :
#
#
# Convention : Reuss Voigt Hill
#
# Bulk Modulus (GPa) = 53.01255 55.09117 54.05186
# Shear Modulus (GPa) = 86.19663 33.49152 59.84407
#
# Velocity S-wave (km/s) = 6.32681 3.94373 5.27170
# Velocity P-wave (km/s) = 8.83118 6.80595 7.88387
#
# Compressibility (1/GPa) = 0.01886346
#
# Stress axis : x y z
#
# Youngs Moduli (GPa) = 89.42454 130.86099 115.75417
#
# Poissons Ratio (x) = 0.05860 0.24709
# Poissons Ratio (y) = 0.04004 0.19881
# Poissons Ratio (z) = 0.19089 0.22476
#
# Static dielectric constant tensor:
#      x y z
#    x 1.830340 0.000000 0.000000 
#    y 0.000000 1.772750 0.000000 
#    z 0.000000 0.000000 1.820030 
# 
# From -- ./inp_files/19815.got.cif
#   From: 2010.05.17/outbox.cif.g08.bks.cpg/sg37_10_cif.got.tgz:19815.got - 2010.06.03 17:53:42.
