data_PCOD9353405
_publ_section_title
;
Structure prediction by ZEFSAII (Michael W. Deem and Ramdas Pophale) SiO2 
 PCOD9353405
Probable space group: C M C 21
;
_chemical_formula_sum "Si O2"
_cell_formula_units_Z 24
_cell_length_a 18.000000
_cell_length_b 15.000000
_cell_length_c 9.000000
_cell_angle_alpha 90.000000
_cell_angle_beta 90.000000
_cell_angle_gamma 90.000000
_cell_volume 2430.000000
_symmetry_space_group_name_H-M "C M C 21"
_symmetry_group_IT_number 36
_symmetry_cell_setting 'orthorhombic'
loop_
_space_group_symop_operation_xyz
x,y,z
-x,-y,1/2+z
x,-y,1/2+z
-x,y,z
1/2+x,1/2+y,z
1/2-x,1/2-y,1/2+z
1/2+x,1/2-y,1/2+z
1/2-x,1/2+y,z
loop_
_atom_site_type_symbol
_atom_site_label
_atom_site_fract_x
_atom_site_fract_y
_atom_site_fract_z
Si Si1 0.412214 0.924941 0.038750
Si Si2 0.169815 0.087296 0.360261
Si Si3 0.831586 0.414449 0.717660
Si Si4 0.807860 0.786770 0.139259
Si Si5 0.635337 0.263955 0.653998
Si Si6 0.908193 0.891796 0.377678
O O1 0.500000 0.947383 0.026784
O O2 0.405190 0.830489 0.127228
O O3 0.366895 0.004881 0.120999
O O4 0.375993 0.910583 0.874937
O O5 0.244075 0.068711 0.259727
O O6 0.197874 0.144657 0.501276
O O7 0.118823 0.163629 0.282555
O O8 0.126176 0.993486 0.388691
O O9 0.836480 0.317221 0.635190
O O10 0.721301 0.767409 0.181201
O O11 0.865188 0.841182 0.243794
O O12 0.618284 0.327623 0.512650
O O13 0.000000 0.894132 0.367560
#
# Coordination Sequence:
#
# PCOD9353405 Si02
#       6
#     8   8   8   8   8   8
#     4  12  25  45  70 101 143 186 230 298 366 414
#     4  11  25  42  72 101 136 182 239 286 349 430
#     4  11  26  44  72 102 139 181 245 293 348 424
#     4  11  23  46  71 101 135 188 237 289 350 423
#     4  11  23  44  69 102 137 185 236 288 351 427
#     4  12  26  45  70 103 146 182 229 298 362 416
#
# _framework density 9.8765429999999999
#
# number of rings (size 3 to 8) (size 9 to 14) (size 15 to 20)
#    0.000    0.667    3.333    4.000    7.000    4.000 
#    0.000    0.000    0.000    0.000    0.000    0.000 
#    0.000    0.000    0.000    0.000    0.000    0.000 
#
# Total GULP energy -133811.535197 kJ/mol
# GULP energy per Si atom -5575.480633 kJ/mol
# Density = 0.985406 g / cm^3
# Si number density = 9.876543 Si / 1000 Ang^3
#
#
#
# Elastic Constant Matrix: (Units=GPa)
#
#
# Indices 1 2 3 4 5 6 
#
# 1 112.1772 37.3307 8.7273 0.0000 0.0000 0.0000
# 2 37.3307 190.3227 18.2376 0.0000 0.0000 0.0000
# 3 8.7273 18.2376 20.2291 0.0000 0.0000 0.0000
# 4 0.0000 0.0000 0.0000 49.0597 0.0000 0.0000
# 5 0.0000 0.0000 0.0000 0.0000 26.6264 0.0000
# 6 0.0000 0.0000 0.0000 0.0000 0.0000 38.5076
#
#
#
# Elastic Compliance Matrix: (Units=1/GPa)
#
#
# Indices 1 2 3 4 5 6 
#
# 1 0.009669 -0.001638 -0.002694 0.000000 0.000000 0.000000
# 2 -0.001638 0.006029 -0.004728 0.000000 0.000000 0.000000
# 3 -0.002694 -0.004728 0.054859 0.000000 0.000000 0.000000
# 4 0.000000 0.000000 0.000000 0.020383 0.000000 0.000000
# 5 0.000000 0.000000 0.000000 0.000000 0.037557 0.000000
# 6 0.000000 0.000000 0.000000 0.000000 0.000000 0.025969
#
#
# Mechanical properties :
#
#
# Convention : Reuss Voigt Hill
#
# Bulk Modulus (GPa) = 19.07133 50.14669 34.60901
# Shear Modulus (GPa) = 26.30654 40.06763 33.18708
#
# Velocity S-wave (km/s) = 3.65330 4.50869 4.10334
# Velocity P-wave (km/s) = 5.24131 7.24888 6.32525
#
# Compressibility (1/GPa) = 0.05243472
#
# Stress axis : x y z
#
# Youngs Moduli (GPa) = 103.41987 165.87363 18.22849
#
# Poissons Ratio (x) = 0.27176 0.04912
# Poissons Ratio (y) = 0.16944 0.08619
# Poissons Ratio (z) = 0.27866 0.78431
#
# Static dielectric constant tensor:
#      x y z
#    x 1.693550 0.000000 0.000000 
#    y 0.000000 1.674440 0.000000 
#    z 0.000000 0.000000 1.814600 
# 
# From -- ./inp_files/4668.got.cif
#   From: 2010.05.17/outbox.ucp.g08.bks.cvg/sg36_3_cif.got.tgz:4668.got - 2010.06.11 10:37:26.
