data_PCOD9353871
_publ_section_title
;
Structure prediction by ZEFSAII (Michael W. Deem and Ramdas Pophale) SiO2 
 PCOD9353871
Probable space group: C C C 2
;
_chemical_formula_sum "Si O2"
_cell_formula_units_Z 48
_cell_length_a 14.178348
_cell_length_b 18.647025
_cell_length_c 9.063285
_cell_angle_alpha 90.000000
_cell_angle_beta 90.000000
_cell_angle_gamma 90.000000
_cell_volume 2396.187629
_symmetry_space_group_name_H-M "C C C 2"
_symmetry_group_IT_number 37
_symmetry_cell_setting 'orthorhombic'
loop_
_space_group_symop_operation_xyz
x,y,z
-x,-y,z
-x,y,1/2+z
x,-y,1/2+z
1/2+x,1/2+y,z
1/2-x,1/2-y,z
1/2-x,1/2+y,1/2+z
1/2+x,1/2-y,1/2+z
loop_
_atom_site_type_symbol
_atom_site_label
_atom_site_fract_x
_atom_site_fract_y
_atom_site_fract_z
Si Si1 0.648792 0.439758 0.937810
Si Si2 0.042425 0.738976 0.164210
Si Si3 0.330365 0.187254 0.206335
Si Si4 0.293577 0.829248 0.042211
Si Si5 0.310514 0.412054 0.094358
Si Si6 0.522633 0.660746 0.936491
O O1 0.675233 0.431599 0.765893
O O2 0.541203 0.410712 0.935145
O O3 0.711799 0.388774 0.045155
O O4 0.670245 0.519115 0.994160
O O5 0.120251 0.676242 0.157950
O O6 0.055617 0.801531 0.285965
O O7 0.936048 0.710469 0.173019
O O8 0.045270 0.779882 0.008227
O O9 0.250000 0.250000 0.202424
O O10 0.331156 0.161132 0.375603
O O11 0.290505 0.126977 0.095050
O O12 0.250000 0.750000 0.055613
O O13 0.389226 0.355569 0.040864
#
# Coordination Sequence:
#
# PCOD9353871 Si02
#       6
#     8   8   8   8   8   8
#     4  11  24  42  61  90 132 171 208 258 327 384
#     4  12  21  39  65  95 120 161 211 259 323 371
#     4  10  19  40  62  85 124 163 206 261 318 374
#     4  10  20  39  63  86 123 163 206 262 318 375
#     4  11  25  41  62  91 129 173 209 259 325 388
#     4  12  22  39  65  95 125 159 206 267 320 382
#
# _framework density 20.031821000000001
#
# number of rings (size 3 to 8) (size 9 to 14) (size 15 to 20)
#    0.000    1.000    6.667    1.500    2.333    1.333 
#    6.000    0.833    0.000    4.000    0.000    0.000 
#    0.000    0.000    0.000    0.000    0.000    0.000 
#
# Total GULP energy -133754.090468 kJ/mol
# GULP energy per Si atom -5573.087103 kJ/mol
# Density = 1.998623 g / cm^3
# Si number density = 20.031821 Si / 1000 Ang^3
#
#
#
# Elastic Constant Matrix: (Units=GPa)
#
#
# Indices 1 2 3 4 5 6 
#
# 1 122.5340 38.6431 31.1128 0.0000 0.0000 0.0000
# 2 38.6431 61.4998 24.4896 0.0000 0.0000 0.0000
# 3 31.1128 24.4896 64.7493 0.0000 0.0000 0.0000
# 4 0.0000 0.0000 0.0000 3.3858 0.0000 0.0000
# 5 0.0000 0.0000 0.0000 0.0000 24.7671 0.0000
# 6 0.0000 0.0000 0.0000 0.0000 0.0000 25.1688
#
#
#
# Elastic Compliance Matrix: (Units=1/GPa)
#
#
# Indices 1 2 3 4 5 6 
#
# 1 0.010666 -0.005487 -0.003050 0.000000 0.000000 0.000000
# 2 -0.005487 0.021967 -0.005671 0.000000 0.000000 0.000000
# 3 -0.003050 -0.005671 0.019055 0.000000 0.000000 0.000000
# 4 0.000000 0.000000 0.000000 0.295348 0.000000 0.000000
# 5 0.000000 0.000000 0.000000 0.000000 0.040376 0.000000
# 6 0.000000 0.000000 0.000000 0.000000 0.000000 0.039732
#
#
# Mechanical properties :
#
#
# Convention : Reuss Voigt Hill
#
# Bulk Modulus (GPa) = 42.97367 48.58602 45.77984
# Shear Modulus (GPa) = 10.79175 20.96684 15.87929
#
# Velocity S-wave (km/s) = 2.32357 3.23875 2.81855
# Velocity P-wave (km/s) = 5.35705 6.18814 5.78753
#
# Compressibility (1/GPa) = 0.02327006
#
# Stress axis : x y z
#
# Youngs Moduli (GPa) = 93.75672 45.52352 52.48069
#
# Poissons Ratio (x) = 0.24981 0.16005
# Poissons Ratio (y) = 0.51449 0.29764
# Poissons Ratio (z) = 0.28592 0.25819
#
# Static dielectric constant tensor:
#      x y z
#    x 1.792800 0.000000 0.000000 
#    y 0.000000 1.743880 0.000000 
#    z 0.000000 0.000000 1.719680 
# 
# From -- ./inp_files/2932.got.cif
#   From: 2010.05.17/outbox.cif.g08.bks.cpg/sg37_2_cif.got.tgz:2932.got - 2010.06.03 17:53:42.
