data_PCOD9353349
_publ_section_title
;
Structure prediction by ZEFSAII (Michael W. Deem and Ramdas Pophale) SiO2 
 PCOD9353349
Probable space group: C M C 21
;
_chemical_formula_sum "Si O2"
_cell_formula_units_Z 32
_cell_length_a 9.000000
_cell_length_b 21.000000
_cell_length_c 18.000000
_cell_angle_alpha 90.000000
_cell_angle_beta 90.000000
_cell_angle_gamma 90.000000
_cell_volume 3402.000000
_symmetry_space_group_name_H-M "C M C 21"
_symmetry_group_IT_number 36
_symmetry_cell_setting 'orthorhombic'
loop_
_space_group_symop_operation_xyz
x,y,z
-x,-y,1/2+z
x,-y,1/2+z
-x,y,z
1/2+x,1/2+y,z
1/2-x,1/2-y,1/2+z
1/2+x,1/2-y,1/2+z
1/2-x,1/2+y,z
loop_
_atom_site_type_symbol
_atom_site_label
_atom_site_fract_x
_atom_site_fract_y
_atom_site_fract_z
Si Si1 0.174387 0.140863 0.279410
Si Si2 0.823394 0.696635 0.424253
Si Si3 0.821115 0.306957 0.514320
Si Si4 0.830374 0.915112 0.011910
Si Si5 0.672906 0.613621 0.688298
Si Si6 0.320376 0.980447 0.707139
Si Si7 0.325510 0.753555 0.159380
Si Si8 0.820246 0.056363 0.047546
O O1 0.261567 0.174895 0.345281
O O2 0.253206 0.073931 0.260536
O O3 0.180133 0.191794 0.212317
O O4 0.000000 0.130048 0.296351
O O5 0.741365 0.761379 0.449572
O O6 0.777407 0.636779 0.476337
O O7 0.000000 0.705903 0.425494
O O8 0.767654 0.268188 0.587529
O O9 0.747192 0.377554 0.516497
O O10 0.000000 0.311894 0.512375
O O11 0.000000 0.903818 0.985464
O O12 0.829161 0.902101 0.100137
O O13 0.795385 0.990408 0.001547
O O14 0.500000 0.617490 0.712852
O O15 0.756327 0.551688 0.722216
O O16 0.755739 0.681878 0.694429
O O17 0.500000 0.980939 0.707880
O O18 0.258724 0.957995 0.626383
O O19 0.500000 0.765235 0.140669
O O20 0.000000 0.062630 0.057611
#
# Coordination Sequence:
#
# PCOD9353349 Si02
#       8
#     8   8   8   8   8   8   8   8
#     4  11  24  42  62  85 122 162 202 249 307 366
#     4  12  25  40  61  87 121 160 205 250 302 367
#     4  12  23  37  60  89 123 159 200 249 304 360
#     4   9  19  36  58  85 118 154 194 241 298 354
#     4  10  20  35  59  88 121 155 194 244 297 351
#     4  11  21  35  58  88 121 154 197 245 295 354
#     4  11  22  37  61  90 120 156 201 253 302 356
#     4  10  20  36  59  88 120 152 195 247 299 350
#
# _framework density 9.4062319999999993
#
# number of rings (size 3 to 8) (size 9 to 14) (size 15 to 20)
#    0.000    1.250    2.500    5.625    0.000    4.000 
#    0.000    1.250    0.000    6.000    0.000    0.000 
#    0.000    0.000    0.000    0.000    0.000    0.000 
#
# Total GULP energy -178716.912860 kJ/mol
# GULP energy per Si atom -5584.903527 kJ/mol
# Density = 0.938482 g / cm^3
# Si number density = 9.406232 Si / 1000 Ang^3
#
#
#
# Elastic Constant Matrix: (Units=GPa)
#
#
# Indices 1 2 3 4 5 6 
#
# 1 158.2817 38.2887 -2.6569 0.0000 0.0000 0.0000
# 2 38.2887 107.1421 -23.5372 0.0000 0.0000 0.0000
# 3 -2.6569 -23.5372 10.4526 0.0000 0.0000 0.0000
# 4 0.0000 0.0000 0.0000 20.3398 0.0000 0.0000
# 5 0.0000 0.0000 0.0000 0.0000 24.5344 0.0000
# 6 0.0000 0.0000 0.0000 0.0000 0.0000 43.6367
#
#
#
# Elastic Compliance Matrix: (Units=1/GPa)
#
#
# Indices 1 2 3 4 5 6 
#
# 1 0.007229 -0.004314 -0.007876 0.000000 0.000000 0.000000
# 2 -0.004314 0.021044 0.046291 0.000000 0.000000 0.000000
# 3 -0.007876 0.046291 0.197906 0.000000 0.000000 0.000000
# 4 0.000000 0.000000 0.000000 0.049165 0.000000 0.000000
# 5 0.000000 0.000000 0.000000 0.000000 0.040759 0.000000
# 6 0.000000 0.000000 0.000000 0.000000 0.000000 0.022917
#
#
# Mechanical properties :
#
#
# Convention : Reuss Voigt Hill
#
# Bulk Modulus (GPa) = 3.39694 33.34062 18.36878
# Shear Modulus (GPa) = 13.55219 35.28763 24.41991
#
# Velocity S-wave (km/s) = 2.68691 4.33570 3.60678
# Velocity P-wave (km/s) = 3.38165 6.54412 5.20870
#
# Compressibility (1/GPa) = 0.29438231
#
# Stress axis : x y z
#
# Youngs Moduli (GPa) = 138.32954 47.51899 5.05291
#
# Poissons Ratio (x) = 0.20498 0.03980
# Poissons Ratio (y) = 0.59670 -0.23390
# Poissons Ratio (z) = 1.08946 -2.19970
#
# Static dielectric constant tensor:
#      x y z
#    x 1.633590 0.000000 0.000000 
#    y 0.000000 1.648470 0.000000 
#    z 0.000000 0.000000 1.688560 
# 
# From -- ./inp_files/13816.got.cif
#   From: 2010.05.17/outbox.ucp.g08.bks.cvg/sg36_7_cif.got.tgz:13816.got - 2010.06.11 10:37:26.
