data_PCOD9353008
_publ_section_title
;
Structure prediction by ZEFSAII (Michael W. Deem and Ramdas Pophale) SiO2 
 PCOD9353008
Probable space group: C M C 21
;
_chemical_formula_sum "Si O2"
_cell_formula_units_Z 64
_cell_length_a 8.776591
_cell_length_b 24.172767
_cell_length_c 15.431629
_cell_angle_alpha 90.000000
_cell_angle_beta 90.000000
_cell_angle_gamma 90.000000
_cell_volume 3273.889370
_symmetry_space_group_name_H-M "C M C 21"
_symmetry_group_IT_number 36
_symmetry_cell_setting 'orthorhombic'
loop_
_space_group_symop_operation_xyz
x,y,z
-x,-y,1/2+z
x,-y,1/2+z
-x,y,z
1/2+x,1/2+y,z
1/2-x,1/2-y,1/2+z
1/2+x,1/2-y,1/2+z
1/2-x,1/2+y,z
loop_
_atom_site_type_symbol
_atom_site_label
_atom_site_fract_x
_atom_site_fract_y
_atom_site_fract_z
Si Si1 0.820168 0.998737 0.392550
Si Si2 0.324664 0.378457 0.817777
Si Si3 0.321372 0.218841 0.407197
Si Si4 0.682206 0.501437 0.593594
Si Si5 0.681858 0.077849 0.744652
Si Si6 0.317684 0.298967 0.247677
Si Si7 0.320469 0.273735 0.592731
Si Si8 0.177742 0.615511 0.139615
O O1 0.805701 0.059234 0.350425
O O2 0.000000 0.983750 0.393235
O O3 0.769539 0.004064 0.492579
O O4 0.735109 0.955444 0.330670
O O5 0.500000 0.371257 0.789602
O O6 0.282420 0.334214 0.890347
O O7 0.211358 0.367820 0.738627
O O8 0.500000 0.204107 0.395333
O O9 0.284276 0.266085 0.336646
O O10 0.302168 0.241711 0.503069
O O11 0.500000 0.508630 0.597763
O O12 0.756585 0.544965 0.659964
O O13 0.728794 0.440245 0.623907
O O14 0.500000 0.079066 0.741337
O O15 0.747090 0.139893 0.746699
O O16 0.500000 0.303207 0.239027
O O17 0.251340 0.262076 0.169852
O O18 0.500000 0.281986 0.609452
O O19 0.240000 0.333095 0.585385
O O20 0.000000 0.605803 0.124887
#
# Coordination Sequence:
#
# PCOD9353008 Si02
#       8
#     8   8   8   8   8   8   8   8
#     4  10  24  44  67  95 127 170 216 263 320 381
#     4  11  22  40  68  96 125 165 214 264 318 378
#     4  10  24  43  65  94 129 168 211 263 321 376
#     4  11  24  44  68  95 128 169 217 266 319 379
#     4  12  26  43  65  96 132 170 212 264 322 382
#     4  11  24  44  66  91 129 174 214 260 318 380
#     4  11  24  43  66  97 129 167 214 264 319 378
#     4  12  24  41  65  96 129 167 212 264 323 378
#
# _framework density 19.548615999999999
#
# number of rings (size 3 to 8) (size 9 to 14) (size 15 to 20)
#    0.000    1.000    2.500    3.750    3.500    3.000 
#    0.000    0.000    0.000    0.000    0.000    0.000 
#    0.000    0.000    0.000    0.000    0.000    0.000 
#
# Total GULP energy -178957.323592 kJ/mol
# GULP energy per Si atom -5592.416362 kJ/mol
# Density = 1.950412 g / cm^3
# Si number density = 19.548616 Si / 1000 Ang^3
#
#
#
# Elastic Constant Matrix: (Units=GPa)
#
#
# Indices 1 2 3 4 5 6 
#
# 1 66.8095 20.6688 33.1852 0.0000 0.0000 0.0000
# 2 20.6688 77.4674 9.6960 0.0000 0.0000 0.0000
# 3 33.1852 9.6960 82.5662 0.0000 0.0000 0.0000
# 4 0.0000 0.0000 0.0000 23.2633 0.0000 0.0000
# 5 0.0000 0.0000 0.0000 0.0000 21.3219 0.0000
# 6 0.0000 0.0000 0.0000 0.0000 0.0000 24.5086
#
#
#
# Elastic Compliance Matrix: (Units=1/GPa)
#
#
# Indices 1 2 3 4 5 6 
#
# 1 0.020086 -0.004413 -0.007555 0.000000 0.000000 0.000000
# 2 -0.004413 0.014071 0.000121 0.000000 0.000000 0.000000
# 3 -0.007555 0.000121 0.015134 0.000000 0.000000 0.000000
# 4 0.000000 0.000000 0.000000 0.042986 0.000000 0.000000
# 5 0.000000 0.000000 0.000000 0.000000 0.046900 0.000000
# 6 0.000000 0.000000 0.000000 0.000000 0.000000 0.040802
#
#
# Mechanical properties :
#
#
# Convention : Reuss Voigt Hill
#
# Bulk Modulus (GPa) = 39.06690 39.32702 39.19696
# Shear Modulus (GPa) = 23.56221 24.70498 24.13360
#
# Velocity S-wave (km/s) = 3.47553 3.55881 3.51742
# Velocity P-wave (km/s) = 6.01112 6.08671 6.04904
#
# Compressibility (1/GPa) = 0.02559712
#
# Stress axis : x y z
#
# Youngs Moduli (GPa) = 49.78640 71.06822 66.07808
#
# Poissons Ratio (x) = 0.31366 0.49920
# Poissons Ratio (y) = 0.21973 -0.00803
# Poissons Ratio (z) = 0.37612 -0.00863
#
# Static dielectric constant tensor:
#      x y z
#    x 1.665570 0.000000 0.000000 
#    y 0.000000 1.654800 0.000000 
#    z 0.000000 0.000000 1.696780 
# 
# From -- ./inp_files/10950.got.cif
#   From: 2010.05.17/outbox.cif.g08.bks.cpg/sg36_6_cif.got.tgz:10950.got - 2010.06.03 17:41:39.
