data_PCOD9353197
_publ_section_title
;
Structure prediction by ZEFSAII (Michael W. Deem and Ramdas Pophale) SiO2 
 PCOD9353197
Probable space group: C M C 21
;
_chemical_formula_sum "Si O2"
_cell_formula_units_Z 40
_cell_length_a 22.194455
_cell_length_b 7.209949
_cell_length_c 9.866106
_cell_angle_alpha 90.000000
_cell_angle_beta 90.000000
_cell_angle_gamma 90.000000
_cell_volume 1578.783049
_symmetry_space_group_name_H-M "C M C 21"
_symmetry_group_IT_number 36
_symmetry_cell_setting 'orthorhombic'
loop_
_space_group_symop_operation_xyz
x,y,z
-x,-y,1/2+z
x,-y,1/2+z
-x,y,z
1/2+x,1/2+y,z
1/2-x,1/2-y,1/2+z
1/2+x,1/2-y,1/2+z
1/2-x,1/2+y,z
loop_
_atom_site_type_symbol
_atom_site_label
_atom_site_fract_x
_atom_site_fract_y
_atom_site_fract_z
Si Si1 0.500000 0.681686 0.978530
Si Si2 0.806144 0.061597 0.819469
Si Si3 0.870091 0.644109 0.487517
Si Si4 0.835222 0.632808 0.819469
Si Si5 0.000000 0.818318 0.160411
Si Si6 0.629909 0.855890 0.651421
O O1 0.500000 0.630425 0.819471
O O2 0.560243 0.796068 0.007445
O O3 0.500000 0.500003 0.069472
O O4 0.827984 0.177901 0.688034
O O5 0.734210 0.057009 0.819470
O O6 0.834052 0.857776 0.819468
O O7 0.827984 0.177900 0.950905
O O8 0.874377 0.580237 0.319469
O O9 0.853094 0.399900 0.487312
O O10 0.853093 0.600099 0.651626
O O11 0.060243 0.703936 0.131494
#
# Coordination Sequence:
#
# PCOD9353197 Si02
#       6
#     4   8   8   8   4   8
#     4  12  27  54  82 119 150 205 259 316 391 459
#     4  11  23  46  70 107 149 202 260 311 390 450
#     4  11  26  46  72 111 149 200 256 319 386 456
#     4  11  23  46  72 101 157 200 252 321 376 472
#     4  12  27  54  82 119 150 205 259 316 391 459
#     4  11  26  46  72 111 149 200 256 319 386 456
#
# _framework density 25.335968999999999
#
# number of rings (size 3 to 8) (size 9 to 14) (size 15 to 20)
#    0.000    0.800    8.000    0.600    5.600    1.600 
#    3.600    2.000    0.000    0.000    0.000    0.000 
#    0.000    0.000    0.000    0.000    0.000    0.000 
#
# Total GULP energy -111738.787690 kJ/mol
# GULP energy per Si atom -5586.939385 kJ/mol
# Density = 2.527830 g / cm^3
# Si number density = 25.335969 Si / 1000 Ang^3
#
#
#
# Elastic Constant Matrix: (Units=GPa)
#
#
# Indices 1 2 3 4 5 6 
#
# 1 232.2236 89.3376 93.4580 0.0000 0.0000 0.0000
# 2 89.3376 242.3418 142.7976 0.0000 0.0000 0.0000
# 3 93.4580 142.7976 276.7724 0.0000 0.0000 0.0000
# 4 0.0000 0.0000 0.0000 95.2367 0.0000 0.0000
# 5 0.0000 0.0000 0.0000 0.0000 40.6341 0.0000
# 6 0.0000 0.0000 0.0000 0.0000 0.0000 45.9802
#
#
#
# Elastic Compliance Matrix: (Units=1/GPa)
#
#
# Indices 1 2 3 4 5 6 
#
# 1 0.005245 -0.001279 -0.001111 0.000000 0.000000 0.000000
# 2 -0.001279 0.006241 -0.002788 0.000000 0.000000 0.000000
# 3 -0.001111 -0.002788 0.005427 0.000000 0.000000 0.000000
# 4 0.000000 0.000000 0.000000 0.010500 0.000000 0.000000
# 5 0.000000 0.000000 0.000000 0.000000 0.024610 0.000000
# 6 0.000000 0.000000 0.000000 0.000000 0.000000 0.021748
#
#
# Mechanical properties :
#
#
# Convention : Reuss Voigt Hill
#
# Bulk Modulus (GPa) = 152.52167 155.83603 154.17885
# Shear Modulus (GPa) = 57.92854 64.75318 61.34086
#
# Velocity S-wave (km/s) = 4.78683 5.06096 4.92580
# Velocity P-wave (km/s) = 9.53321 9.78736 9.66112
#
# Compressibility (1/GPa) = 0.00655645
#
# Stress axis : x y z
#
# Youngs Moduli (GPa) = 190.64128 160.24122 184.27060
#
# Poissons Ratio (x) = 0.20491 0.20481
# Poissons Ratio (y) = 0.24379 0.51374
# Poissons Ratio (z) = 0.21189 0.44675
#
# Static dielectric constant tensor:
#      x y z
#    x 1.831170 0.000000 0.000000 
#    y 0.000000 1.979630 0.000000 
#    z 0.000000 0.000000 2.518940 
# 
# From -- ./inp_files/9575.got.cif
#   From: 2010.05.17/outbox.cif.g08.bks.cpg/sg36_5_cif.got.tgz:9575.got - 2010.06.03 17:41:39.
