data_PCOD9353167
_publ_section_title
;
Structure prediction by ZEFSAII (Michael W. Deem and Ramdas Pophale) SiO2 
 PCOD9353167
Probable space group: C M C 21
;
_chemical_formula_sum "Si O2"
_cell_formula_units_Z 48
_cell_length_a 8.612869
_cell_length_b 20.197901
_cell_length_c 14.169471
_cell_angle_alpha 90.000000
_cell_angle_beta 90.000000
_cell_angle_gamma 90.000000
_cell_volume 2464.947748
_symmetry_space_group_name_H-M "C M C 21"
_symmetry_group_IT_number 36
_symmetry_cell_setting 'orthorhombic'
loop_
_space_group_symop_operation_xyz
x,y,z
-x,-y,1/2+z
x,-y,1/2+z
-x,y,z
1/2+x,1/2+y,z
1/2-x,1/2-y,1/2+z
1/2+x,1/2-y,1/2+z
1/2-x,1/2+y,z
loop_
_atom_site_type_symbol
_atom_site_label
_atom_site_fract_x
_atom_site_fract_y
_atom_site_fract_z
Si Si1 0.685561 0.555047 0.484420
Si Si2 0.313960 0.106361 0.682736
Si Si3 0.814934 0.082985 0.884367
Si Si4 0.184352 0.763212 0.680923
Si Si5 0.182394 0.675248 0.369898
Si Si6 0.318739 0.209911 0.987463
O O1 0.500000 0.563100 0.489405
O O2 0.755709 0.572893 0.586407
O O3 0.719651 0.481419 0.447283
O O4 0.753484 0.606353 0.408523
O O5 0.500000 0.101237 0.688381
O O6 0.238238 0.075139 0.776157
O O7 0.274145 0.184997 0.682717
O O8 0.000000 0.094906 0.886912
O O9 0.727047 0.145883 0.927603
O O10 0.229252 0.797241 0.778793
O O11 0.276763 0.798093 0.596688
O O12 0.000000 0.768339 0.664935
O O13 0.216527 0.728914 0.451155
O O14 0.000000 0.671244 0.351042
O O15 0.500000 0.225157 0.974610
#
# Coordination Sequence:
#
# PCOD9353167 Si02
#       6
#     8   8   8   8   8   8
#     4  11  25  44  67  95 131 173 214 264 323 385
#     4  11  23  40  67  96 126 170 216 265 321 384
#     4  11  25  44  67  95 131 173 214 264 323 385
#     4  11  23  40  65  98 130 168 216 267 319 380
#     4  12  24  40  65  96 128 167 213 265 317 376
#     4  12  24  40  65  96 128 167 213 265 317 376
#
# _framework density 19.473030000000001
#
# number of rings (size 3 to 8) (size 9 to 14) (size 15 to 20)
#    0.000    0.667    3.333    5.000    0.000    5.333 
#    0.000    1.667    0.000    0.000    0.000    0.000 
#    0.000    0.000    0.000    0.000    0.000    0.000 
#
# Total GULP energy -134298.168614 kJ/mol
# GULP energy per Si atom -5595.757026 kJ/mol
# Density = 1.942871 g / cm^3
# Si number density = 19.473030 Si / 1000 Ang^3
#
#
#
# Elastic Constant Matrix: (Units=GPa)
#
#
# Indices 1 2 3 4 5 6 
#
# 1 55.9629 18.7998 6.0627 0.0000 0.0000 0.0000
# 2 18.7998 37.3372 -6.4711 0.0000 0.0000 0.0000
# 3 6.0627 -6.4711 89.9320 0.0000 0.0000 0.0000
# 4 0.0000 0.0000 0.0000 32.8059 0.0000 0.0000
# 5 0.0000 0.0000 0.0000 0.0000 37.0048 0.0000
# 6 0.0000 0.0000 0.0000 0.0000 0.0000 24.2176
#
#
#
# Elastic Compliance Matrix: (Units=1/GPa)
#
#
# Indices 1 2 3 4 5 6 
#
# 1 0.021969 -0.011461 -0.002306 0.000000 0.000000 0.000000
# 2 -0.011461 0.033101 0.003154 0.000000 0.000000 0.000000
# 3 -0.002306 0.003154 0.011502 0.000000 0.000000 0.000000
# 4 0.000000 0.000000 0.000000 0.030482 0.000000 0.000000
# 5 0.000000 0.000000 0.000000 0.000000 0.027024 0.000000
# 6 0.000000 0.000000 0.000000 0.000000 0.000000 0.041292
#
#
# Mechanical properties :
#
#
# Convention : Reuss Voigt Hill
#
# Bulk Modulus (GPa) = 22.05254 24.44610 23.24932
# Shear Modulus (GPa) = 24.78802 29.79503 27.29153
#
# Velocity S-wave (km/s) = 3.57170 3.91585 3.74773
# Velocity P-wave (km/s) = 5.32528 5.74685 5.54008
#
# Compressibility (1/GPa) = 0.04534625
#
# Stress axis : x y z
#
# Youngs Moduli (GPa) = 45.51866 30.21097 86.94196
#
# Poissons Ratio (x) = 0.34626 0.20046
# Poissons Ratio (y) = 0.52170 -0.27425
# Poissons Ratio (z) = 0.10495 -0.09530
#
# Static dielectric constant tensor:
#      x y z
#    x 1.646790 0.000000 0.000000 
#    y 0.000000 1.657130 0.000000 
#    z 0.000000 0.000000 1.669200 
# 
# From -- ./inp_files/10383.got.cif
#   From: 2010.05.17/outbox.cif.g08.bks.cpg/sg36_6_cif.got.tgz:10383.got - 2010.06.03 17:41:39.
