data_PCOD9353685
_publ_section_title
;
Structure prediction by ZEFSAII (Michael W. Deem and Ramdas Pophale) SiO2 
 PCOD9353685
Probable space group: C C C 2
;
_chemical_formula_sum "Si O2"
_cell_formula_units_Z 56
_cell_length_a 28.028000
_cell_length_b 17.165958
_cell_length_c 5.426366
_cell_angle_alpha 90.000000
_cell_angle_beta 90.000000
_cell_angle_gamma 90.000000
_cell_volume 2610.773749
_symmetry_space_group_name_H-M "C C C 2"
_symmetry_group_IT_number 37
_symmetry_cell_setting 'orthorhombic'
loop_
_space_group_symop_operation_xyz
x,y,z
-x,-y,z
-x,y,1/2+z
x,-y,1/2+z
1/2+x,1/2+y,z
1/2-x,1/2-y,z
1/2-x,1/2+y,1/2+z
1/2+x,1/2-y,1/2+z
loop_
_atom_site_type_symbol
_atom_site_label
_atom_site_fract_x
_atom_site_fract_y
_atom_site_fract_z
Si Si1 0.943040 0.048275 0.627580
Si Si2 0.209508 0.317322 0.695193
Si Si3 0.015506 0.369154 0.641903
Si Si4 0.244852 0.343184 0.195971
Si Si5 0.830841 0.952520 0.108532
Si Si6 0.601776 0.766278 0.640565
Si Si7 0.446289 0.283730 0.141846
O O1 0.886516 0.067943 0.624788
O O2 0.969325 0.131008 0.636672
O O3 0.950972 0.001181 0.375363
O O4 0.250000 0.250000 0.713925
O O5 0.223451 0.368507 0.458087
O O6 0.157894 0.280244 0.650048
O O7 0.212168 0.359684 0.958455
O O8 0.984567 0.286941 0.645331
O O9 0.999103 0.409036 0.393394
O O10 0.070782 0.345928 0.636763
O O11 0.250000 0.250000 0.216011
O O12 0.296042 0.380424 0.148194
O O13 0.821868 0.010695 0.338950
O O14 0.585145 0.723864 0.390142
O O15 0.584295 0.725398 0.891847
#
# Coordination Sequence:
#
# PCOD9353685 Si02
#       7
#     8   8   8   8   8   8   8
#     4  10  21  33  47  70  92 125 175 225 262 301
#     4  10  21  30  46  75 102 129 158 208 268 311
#     4   8  16  30  46  67  86 118 167 200 239 322
#     4  10  21  35  50  75 108 127 175 226 261 302
#     4  10  21  36  53  71 101 146 183 214 262 319
#     4  10  19  31  49  70  94 127 160 202 261 323
#     4  10  19  31  53  66  93 124 174 211 260 308
#
# _framework density 21.449579
#
# number of rings (size 3 to 8) (size 9 to 14) (size 15 to 20)
#    0.000    2.286    0.000    2.571    8.000    0.000 
#    0.000    0.000    0.000   23.143    0.000    0.000 
#    0.000    0.000    0.000    0.000    0.000  450.000 
#
# Total GULP energy -156366.181286 kJ/mol
# GULP energy per Si atom -5584.506475 kJ/mol
# Density = 2.140076 g / cm^3
# Si number density = 21.449579 Si / 1000 Ang^3
#
#
#
# Elastic Constant Matrix: (Units=GPa)
#
#
# Indices 1 2 3 4 5 6 
#
# 1 104.7985 12.2469 1.3609 0.0000 0.0000 0.0000
# 2 12.2469 49.9297 -3.7967 0.0000 0.0000 0.0000
# 3 1.3609 -3.7967 179.0956 0.0000 0.0000 0.0000
# 4 0.0000 0.0000 0.0000 4.5515 0.0000 0.0000
# 5 0.0000 0.0000 0.0000 0.0000 37.7233 0.0000
# 6 0.0000 0.0000 0.0000 0.0000 0.0000 9.9894
#
#
#
# Elastic Compliance Matrix: (Units=1/GPa)
#
#
# Indices 1 2 3 4 5 6 
#
# 1 0.009827 -0.002420 -0.000126 0.000000 0.000000 0.000000
# 2 -0.002420 0.020656 0.000456 0.000000 0.000000 0.000000
# 3 -0.000126 0.000456 0.005594 0.000000 0.000000 0.000000
# 4 0.000000 0.000000 0.000000 0.219706 0.000000 0.000000
# 5 0.000000 0.000000 0.000000 0.000000 0.026509 0.000000
# 6 0.000000 0.000000 0.000000 0.000000 0.000000 0.100106
#
#
# Mechanical properties :
#
#
# Convention : Reuss Voigt Hill
#
# Bulk Modulus (GPa) = 31.34983 39.27179 35.31081
# Shear Modulus (GPa) = 12.58780 32.05369 22.32075
#
# Velocity S-wave (km/s) = 2.42514 3.86991 3.22936
# Velocity P-wave (km/s) = 4.74226 6.19006 5.51389
#
# Compressibility (1/GPa) = 0.03189810
#
# Stress axis : x y z
#
# Youngs Moduli (GPa) = 101.76517 48.41115 178.75525
#
# Poissons Ratio (x) = 0.11715 0.02252
# Poissons Ratio (y) = 0.24626 -0.08156
# Poissons Ratio (z) = 0.01282 -0.02209
#
# Static dielectric constant tensor:
#      x y z
#    x 1.765650 0.000000 0.000000 
#    y 0.000000 1.755670 0.000000 
#    z 0.000000 0.000000 1.875480 
# 
# From -- ./inp_files/1040.got.cif
#   From: 2010.05.17/outbox.cif.g08.bks.cpg/sg37_1_cif.got.tgz:1040.got - 2010.06.03 17:53:42.
