data_PCOD9353526
_publ_section_title
;
Structure prediction by ZEFSAII (Michael W. Deem and Ramdas Pophale) SiO2 
 PCOD9353526
Probable space group: C C C 2
;
_chemical_formula_sum "Si O2"
_cell_formula_units_Z 60
_cell_length_a 5.213232
_cell_length_b 17.801981
_cell_length_c 31.815452
_cell_angle_alpha 90.000000
_cell_angle_beta 90.000000
_cell_angle_gamma 90.000000
_cell_volume 2952.660289
_symmetry_space_group_name_H-M "C C C 2"
_symmetry_group_IT_number 37
_symmetry_cell_setting 'orthorhombic'
loop_
_space_group_symop_operation_xyz
x,y,z
-x,-y,z
-x,y,1/2+z
x,-y,1/2+z
1/2+x,1/2+y,z
1/2-x,1/2-y,z
1/2-x,1/2+y,1/2+z
1/2+x,1/2-y,1/2+z
loop_
_atom_site_type_symbol
_atom_site_label
_atom_site_fract_x
_atom_site_fract_y
_atom_site_fract_z
Si Si1 0.650623 0.922264 0.608110
Si Si2 0.500000 0.500000 0.671960
Si Si3 0.746331 0.158610 0.820967
Si Si4 0.259544 0.158864 0.968354
Si Si5 0.120164 0.326953 0.682907
Si Si6 0.756743 0.841172 0.872580
Si Si7 0.644604 0.620463 0.227578
Si Si8 0.741822 0.659139 0.521480
O O1 0.512189 0.865942 0.640253
O O2 0.736284 0.882737 0.565751
O O3 0.500000 0.000000 0.600603
O O4 0.884081 0.941411 0.639222
O O5 0.305050 0.541835 0.703160
O O6 0.750000 0.250000 0.814625
O O7 0.473442 0.137251 0.841216
O O8 0.821160 0.119875 0.777276
O O9 0.967917 0.139087 0.854036
O O10 0.250000 0.250000 0.966212
O O11 0.269034 0.131281 0.920426
O O12 0.513208 0.138036 0.993564
O O13 0.011333 0.137548 0.995503
O O14 0.250000 0.250000 0.668911
O O15 0.353610 0.360498 0.712337
O O16 0.869174 0.324683 0.711695
O O17 0.750000 0.750000 0.874250
O O18 0.750000 0.750000 0.527605
#
# Coordination Sequence:
#
# PCOD9353526 Si02
#       8
#     8   4   8   8   8   8   8   8
#     4  11  23  40  58  81 115 150 200 239 286 352
#     4  10  24  42  58  80 112 160 206 238 290 352
#     4  10  18  29  50  83 113 145 184 229 281 338
#     4   9  18  34  54  84 117 147 180 228 293 354
#     4  11  22  37  58  82 115 154 191 247 300 340
#     4   9  17  30  51  80 117 146 174 221 286 350
#     4  11  22  37  57  82 117 153 198 242 286 351
#     4  10  21  35  58  87 114 146 190 240 288 342
#
# _framework density 20.320658999999999
#
# number of rings (size 3 to 8) (size 9 to 14) (size 15 to 20)
#    0.000    1.867    1.333    3.200    1.867    4.267 
#    0.000    2.667    0.000    0.000    6.933    0.000 
#    0.000    0.000    0.000    0.000    0.000    0.000 
#
# Total GULP energy -167189.437372 kJ/mol
# GULP energy per Si atom -5572.981246 kJ/mol
# Density = 2.027441 g / cm^3
# Si number density = 20.320659 Si / 1000 Ang^3
#
#
#
# Elastic Constant Matrix: (Units=GPa)
#
#
# Indices 1 2 3 4 5 6 
#
# 1 120.5474 18.3308 54.7258 0.0000 0.0000 0.0000
# 2 18.3308 36.2665 37.6822 0.0000 0.0000 0.0000
# 3 54.7258 37.6822 186.8143 0.0000 0.0000 0.0000
# 4 0.0000 0.0000 0.0000 -87.3548 0.0000 0.0000
# 5 0.0000 0.0000 0.0000 0.0000 37.0145 0.0000
# 6 0.0000 0.0000 0.0000 0.0000 0.0000 12.7237
#
#
#
# Elastic Compliance Matrix: (Units=1/GPa)
#
#
# Indices 1 2 3 4 5 6 
#
# 1 0.009741 -0.002478 -0.002354 0.000000 0.000000 0.000000
# 2 -0.002478 0.035515 -0.006438 0.000000 0.000000 0.000000
# 3 -0.002354 -0.006438 0.007341 0.000000 0.000000 0.000000
# 4 0.000000 0.000000 0.000000 -0.011448 0.000000 0.000000
# 5 0.000000 0.000000 0.000000 0.000000 0.027016 0.000000
# 6 0.000000 0.000000 0.000000 0.000000 0.000000 0.078594
#
#
# Mechanical properties :
#
#
# Convention : Reuss Voigt Hill
#
# Bulk Modulus (GPa) = 33.26883 62.78954 48.02918
# Shear Modulus (GPa) = 27.88344 8.00265 17.94304
#
# Velocity S-wave (km/s) = 3.70830 1.98664 2.97475
# Velocity P-wave (km/s) = 5.89430 6.01903 5.95699
#
# Compressibility (1/GPa) = 0.03005817
#
# Stress axis : x y z
#
# Youngs Moduli (GPa) = 102.66093 28.15686 136.22155
#
# Poissons Ratio (x) = 0.06977 0.32062
# Poissons Ratio (y) = 0.25438 0.87698
# Poissons Ratio (z) = 0.24163 0.18127
#
# Static dielectric constant tensor:
#      x y z
#    x 1.700610 0.000000 0.000000 
#    y 0.000000 1.945050 0.000000 
#    z 0.000000 0.000000 1.674920 
# 
# From -- ./inp_files/19511.got.cif
#   From: 2010.05.17/outbox.cif.g08.bks.cpg/sg37_10_cif.got.tgz:19511.got - 2010.06.03 17:53:42.
