data_PCOD9353543
_publ_section_title
;
Structure prediction by ZEFSAII (Michael W. Deem and Ramdas Pophale) SiO2 
 PCOD9353543
Probable space group: C C C 2
;
_chemical_formula_sum "Si O2"
_cell_formula_units_Z 48
_cell_length_a 18.188857
_cell_length_b 7.089616
_cell_length_c 16.062793
_cell_angle_alpha 90.000000
_cell_angle_beta 90.000000
_cell_angle_gamma 90.000000
_cell_volume 2071.329469
_symmetry_space_group_name_H-M "C C C 2"
_symmetry_group_IT_number 37
_symmetry_cell_setting 'orthorhombic'
loop_
_space_group_symop_operation_xyz
x,y,z
-x,-y,z
-x,y,1/2+z
x,-y,1/2+z
1/2+x,1/2+y,z
1/2-x,1/2-y,z
1/2-x,1/2+y,1/2+z
1/2+x,1/2-y,1/2+z
loop_
_atom_site_type_symbol
_atom_site_label
_atom_site_fract_x
_atom_site_fract_y
_atom_site_fract_z
Si Si1 0.931427 0.774132 0.911190
Si Si2 0.573634 0.632827 0.729603
Si Si3 0.336449 0.259695 0.062836
Si Si4 0.837284 0.761279 0.246727
Si Si5 0.665640 0.705098 0.585145
Si Si6 0.404117 0.270101 0.419057
O O1 0.931098 0.740978 0.812145
O O2 0.012686 0.718763 0.939795
O O3 0.913928 0.000708 0.912189
O O4 0.877359 0.692153 0.980388
O O5 0.500000 0.500000 0.719356
O O6 0.638642 0.480434 0.743066
O O7 0.601643 0.752448 0.651178
O O8 0.250000 0.250000 0.050455
O O9 0.355398 0.178652 0.154780
O O10 0.348864 0.482629 0.072993
O O11 0.750000 0.750000 0.257049
O O12 0.877233 0.691930 0.330222
O O13 0.750000 0.750000 0.610526
O O14 0.650675 0.782320 0.493034
#
# Coordination Sequence:
#
# PCOD9353543 Si02
#       6
#     8   8   8   8   8   8
#     4   9  16  28  48  76  97 125 172 219 253 288
#     4  10  18  31  50  76 104 130 172 218 261 300
#     4   9  19  32  51  74 102 137 171 206 258 319
#     4   9  16  28  46  72  98 128 166 205 247 306
#     4  10  21  31  49  79 106 130 166 218 265 297
#     4   9  16  27  47  72 102 123 167 212 252 291
#
# _framework density 23.173521999999998
#
# number of rings (size 3 to 8) (size 9 to 14) (size 15 to 20)
#    0.000    2.667    3.333    0.500    7.000    0.667 
#    0.000    0.000    0.000    1.000    0.000    0.000 
#    0.000    0.000    0.000    0.000    0.000    0.000 
#
# Total GULP energy -133692.610690 kJ/mol
# GULP energy per Si atom -5570.525445 kJ/mol
# Density = 2.312078 g / cm^3
# Si number density = 23.173522 Si / 1000 Ang^3
#
#
#
# Elastic Constant Matrix: (Units=GPa)
#
#
# Indices 1 2 3 4 5 6 
#
# 1 107.0253 8.8591 87.9476 0.0000 0.0000 0.0000
# 2 8.8591 71.6361 -6.9902 0.0000 0.0000 0.0000
# 3 87.9476 -6.9902 204.6211 0.0000 0.0000 0.0000
# 4 0.0000 0.0000 0.0000 -15.7630 0.0000 0.0000
# 5 0.0000 0.0000 0.0000 0.0000 95.4545 0.0000
# 6 0.0000 0.0000 0.0000 0.0000 0.0000 18.0511
#
#
#
# Elastic Compliance Matrix: (Units=1/GPa)
#
#
# Indices 1 2 3 4 5 6 
#
# 1 0.014869 -0.002471 -0.006475 0.000000 0.000000 0.000000
# 2 -0.002471 0.014417 0.001554 0.000000 0.000000 0.000000
# 3 -0.006475 0.001554 0.007723 0.000000 0.000000 0.000000
# 4 0.000000 0.000000 0.000000 -0.063440 0.000000 0.000000
# 5 0.000000 0.000000 0.000000 0.000000 0.010476 0.000000
# 6 0.000000 0.000000 0.000000 0.000000 0.000000 0.055398
#
#
# Mechanical properties :
#
#
# Convention : Reuss Voigt Hill
#
# Bulk Modulus (GPa) = 44.99232 62.54618 53.76925
# Shear Modulus (GPa) = 81.12171 39.11290 60.11731
#
# Velocity S-wave (km/s) = 5.92302 4.11277 5.09888
# Velocity P-wave (km/s) = 8.13842 7.04288 7.61039
#
# Compressibility (1/GPa) = 0.02222602
#
# Stress axis : x y z
#
# Youngs Moduli (GPa) = 67.25346 69.36419 129.47836
#
# Poissons Ratio (x) = 0.17138 0.83841
# Poissons Ratio (y) = 0.16616 -0.20126
# Poissons Ratio (z) = 0.43548 -0.10782
#
# Static dielectric constant tensor:
#      x y z
#    x 1.785630 0.000000 0.000000 
#    y 0.000000 1.903410 0.000000 
#    z 0.000000 0.000000 1.985990 
# 
# From -- ./inp_files/12560.got.cif
#   From: 2010.05.17/outbox.cif.g08.bks.cpg/sg37_7_cif.got.tgz:12560.got - 2010.06.03 17:53:42.
