data_PCOD9353559
_publ_section_title
;
Structure prediction by ZEFSAII (Michael W. Deem and Ramdas Pophale) SiO2 
 PCOD9353559
Probable space group: C C C 2
;
_chemical_formula_sum "Si O2"
_cell_formula_units_Z 48
_cell_length_a 5.370152
_cell_length_b 14.259304
_cell_length_c 25.229580
_cell_angle_alpha 90.000000
_cell_angle_beta 90.000000
_cell_angle_gamma 90.000000
_cell_volume 1931.945751
_symmetry_space_group_name_H-M "C C C 2"
_symmetry_group_IT_number 37
_symmetry_cell_setting 'orthorhombic'
loop_
_space_group_symop_operation_xyz
x,y,z
-x,-y,z
-x,y,1/2+z
x,-y,1/2+z
1/2+x,1/2+y,z
1/2-x,1/2-y,z
1/2-x,1/2+y,1/2+z
1/2+x,1/2-y,1/2+z
loop_
_atom_site_type_symbol
_atom_site_label
_atom_site_fract_x
_atom_site_fract_y
_atom_site_fract_z
Si Si1 0.239789 0.863268 0.361670
Si Si2 0.567777 0.397284 0.039651
Si Si3 0.068252 0.610650 0.579299
Si Si4 0.755056 0.387627 0.697881
Si Si5 0.757660 0.362721 0.925647
Si Si6 0.249779 0.401055 0.742077
O O1 0.250000 0.750000 0.352818
O O2 0.478392 0.886591 0.398574
O O3 0.242927 0.912996 0.304943
O O4 0.976717 0.885142 0.388608
O O5 0.500000 0.500000 0.062439
O O6 0.693607 0.407645 0.982177
O O7 0.286988 0.356225 0.039155
O O8 0.789450 0.349575 0.072650
O O9 0.188175 0.627336 0.636533
O O10 0.000000 0.500000 0.573078
O O11 0.493332 0.352329 0.719002
O O12 0.752525 0.498980 0.711829
O O13 0.991776 0.351423 0.729644
O O14 0.750000 0.250000 0.934477
#
# Coordination Sequence:
#
# PCOD9353559 Si02
#       6
#     8   8   8   8   8   8
#     4  10  21  38  59  78 107 151 192 230 276 335
#     4  10  21  34  55  86 109 143 183 238 277 331
#     4  10  18  32  55  80 110 142 182 216 284 343
#     4  10  19  32  53  83 107 147 170 224 280 333
#     4  10  21  40  59  78 110 154 189 227 288 343
#     4  10  19  32  53  81 106 139 190 218 270 329
#
# _framework density 24.845416
#
# number of rings (size 3 to 8) (size 9 to 14) (size 15 to 20)
#    0.000    2.000    1.667    3.000    4.667    0.000 
#    9.000    0.000    0.000    6.000    0.000    0.000 
#    0.000    0.000    0.000    0.000    0.000    0.000 
#
# Total GULP energy -134101.779655 kJ/mol
# GULP energy per Si atom -5587.574152 kJ/mol
# Density = 2.478887 g / cm^3
# Si number density = 24.845416 Si / 1000 Ang^3
#
#
#
# Elastic Constant Matrix: (Units=GPa)
#
#
# Indices 1 2 3 4 5 6 
#
# 1 267.6383 6.0795 58.0886 0.0000 0.0000 0.0000
# 2 6.0795 93.1446 -13.1501 0.0000 0.0000 0.0000
# 3 58.0886 -13.1501 125.5434 0.0000 0.0000 0.0000
# 4 0.0000 0.0000 0.0000 18.9807 0.0000 0.0000
# 5 0.0000 0.0000 0.0000 0.0000 51.2962 0.0000
# 6 0.0000 0.0000 0.0000 0.0000 0.0000 -21.6440
#
#
#
# Elastic Compliance Matrix: (Units=1/GPa)
#
#
# Indices 1 2 3 4 5 6 
#
# 1 0.004182 -0.000554 -0.001993 0.000000 0.000000 0.000000
# 2 -0.000554 0.010971 0.001406 0.000000 0.000000 0.000000
# 3 -0.001993 0.001406 0.009035 0.000000 0.000000 0.000000
# 4 0.000000 0.000000 0.000000 0.052685 0.000000 0.000000
# 5 0.000000 0.000000 0.000000 0.000000 0.019495 0.000000
# 6 0.000000 0.000000 0.000000 0.000000 0.000000 -0.046202
#
#
# Mechanical properties :
#
#
# Convention : Reuss Voigt Hill
#
# Bulk Modulus (GPa) = 45.65428 65.37359 55.51393
# Shear Modulus (GPa) = 83.68383 38.74713 61.21548
#
# Velocity S-wave (km/s) = 5.80990 3.95337 4.96911
# Velocity P-wave (km/s) = 7.96378 6.87082 7.43740
#
# Compressibility (1/GPa) = 0.02190375
#
# Stress axis : x y z
#
# Youngs Moduli (GPa) = 239.14845 91.15263 110.68465
#
# Poissons Ratio (x) = 0.05052 0.22058
# Poissons Ratio (y) = 0.13255 -0.15558
# Poissons Ratio (z) = 0.47658 -0.12812
#
# Static dielectric constant tensor:
#      x y z
#    x 1.931270 0.000000 0.000000 
#    y 0.000000 1.993220 0.000000 
#    z 0.000000 0.000000 1.930690 
# 
# From -- ./inp_files/15784.got.cif
#   From: 2010.05.17/outbox.cif.g08.bks.cpg/sg37_8_cif.got.tgz:15784.got - 2010.06.03 17:53:42.
