data_PCOD9353223
_publ_section_title
;
Structure prediction by ZEFSAII (Michael W. Deem and Ramdas Pophale) SiO2 
 PCOD9353223
Probable space group: C M C 21
;
_chemical_formula_sum "Si O2"
_cell_formula_units_Z 48
_cell_length_a 21.483868
_cell_length_b 4.759915
_cell_length_c 16.762650
_cell_angle_alpha 90.000000
_cell_angle_beta 90.000000
_cell_angle_gamma 90.000000
_cell_volume 1714.171815
_symmetry_space_group_name_H-M "C M C 21"
_symmetry_group_IT_number 36
_symmetry_cell_setting 'orthorhombic'
loop_
_space_group_symop_operation_xyz
x,y,z
-x,-y,1/2+z
x,-y,1/2+z
-x,y,z
1/2+x,1/2+y,z
1/2-x,1/2-y,1/2+z
1/2+x,1/2-y,1/2+z
1/2-x,1/2+y,z
loop_
_atom_site_type_symbol
_atom_site_label
_atom_site_fract_x
_atom_site_fract_y
_atom_site_fract_z
Si Si1 0.350143 0.600263 0.512730
Si Si2 0.788402 0.217650 0.866733
Si Si3 0.435064 0.853850 0.394553
Si Si4 0.572835 0.246176 0.639464
Si Si5 0.090819 0.147178 0.785590
Si Si6 0.704533 0.932057 0.655963
O O1 0.384523 0.841090 0.462403
O O2 0.398841 0.411954 0.563049
O O3 0.428032 0.048429 0.317206
O O4 0.304458 0.767244 0.571034
O O5 0.775114 0.545179 0.860709
O O6 0.816184 0.101132 0.949144
O O7 0.834763 0.147572 0.794899
O O8 0.500000 0.923782 0.433645
O O9 0.433322 0.544267 0.358342
O O10 0.500000 0.145002 0.630668
O O11 0.570656 0.489022 0.707104
O O12 0.628950 0.024093 0.664111
O O13 0.737700 0.222512 0.680366
#
# Coordination Sequence:
#
# PCOD9353223 Si02
#       6
#     8   8   8   8   8   8
#     4  11  26  46  79 118 156 207 267 333 404 476
#     4  11  24  45  75 106 148 198 261 322 389 465
#     4  11  24  46  73 105 148 202 263 323 389 470
#     4  12  29  51  80 120 169 215 268 336 413 492
#     4  11  27  48  73 108 149 212 262 324 393 481
#     4  12  27  50  76 111 155 206 260 324 396 478
#
# _framework density 28.001861999999999
#
# number of rings (size 3 to 8) (size 9 to 14) (size 15 to 20)
#    0.000    0.667    1.667    5.000    9.333    2.667 
#    0.000    0.000    0.000    0.000    0.000    0.000 
#    0.000    0.000    0.000    0.000    0.000    0.000 
#
# Total GULP energy -134066.785766 kJ/mol
# GULP energy per Si atom -5586.116074 kJ/mol
# Density = 2.793813 g / cm^3
# Si number density = 28.001862 Si / 1000 Ang^3
#
#
#
# Elastic Constant Matrix: (Units=GPa)
#
#
# Indices 1 2 3 4 5 6 
#
# 1 190.6556 40.9319 31.5893 0.0000 0.0000 0.0000
# 2 40.9319 113.6765 -18.7502 0.0000 0.0000 0.0000
# 3 31.5893 -18.7502 52.5699 0.0000 0.0000 0.0000
# 4 0.0000 0.0000 0.0000 17.6539 0.0000 0.0000
# 5 0.0000 0.0000 0.0000 0.0000 11.6898 0.0000
# 6 0.0000 0.0000 0.0000 0.0000 0.0000 4.1701
#
#
#
# Elastic Compliance Matrix: (Units=1/GPa)
#
#
# Indices 1 2 3 4 5 6 
#
# 1 0.006840 -0.003337 -0.005300 0.000000 0.000000 0.000000
# 2 -0.003337 0.010975 0.005920 0.000000 0.000000 0.000000
# 3 -0.005300 0.005920 0.024319 0.000000 0.000000 0.000000
# 4 0.000000 0.000000 0.000000 0.056645 0.000000 0.000000
# 5 0.000000 0.000000 0.000000 0.000000 0.085545 0.000000
# 6 0.000000 0.000000 0.000000 0.000000 0.000000 0.239803
#
#
# Mechanical properties :
#
#
# Convention : Reuss Voigt Hill
#
# Bulk Modulus (GPa) = 27.24947 51.60489 39.42718
# Shear Modulus (GPa) = 11.31752 26.91150 19.11451
#
# Velocity S-wave (km/s) = 2.01258 3.10346 2.61553
# Velocity P-wave (km/s) = 3.89269 5.59563 4.81997
#
# Compressibility (1/GPa) = 0.03669796
#
# Stress axis : x y z
#
# Youngs Moduli (GPa) = 146.20626 91.11733 41.12090
#
# Poissons Ratio (x) = 0.30406 0.21795
# Poissons Ratio (y) = 0.48789 -0.24342
# Poissons Ratio (z) = 0.77492 -0.53938
#
# Static dielectric constant tensor:
#      x y z
#    x 2.298220 0.000000 0.000000 
#    y 0.000000 2.122190 0.000000 
#    z 0.000000 0.000000 2.250620 
# 
# From -- ./inp_files/15085.got.cif
#   From: 2010.05.17/outbox.cif.g08.bks.cpg/sg36_8_cif.got.tgz:15085.got - 2010.06.03 17:41:39.
