data_PCOD9353294
_publ_section_title
;
Structure prediction by ZEFSAII (Michael W. Deem and Ramdas Pophale) SiO2 
 PCOD9353294
Probable space group: C M C 21
;
_chemical_formula_sum "Si O2"
_cell_formula_units_Z 64
_cell_length_a 27.648577
_cell_length_b 17.660891
_cell_length_c 7.986669
_cell_angle_alpha 90.000000
_cell_angle_beta 90.000000
_cell_angle_gamma 90.000000
_cell_volume 3899.878530
_symmetry_space_group_name_H-M "C M C 21"
_symmetry_group_IT_number 36
_symmetry_cell_setting 'orthorhombic'
loop_
_space_group_symop_operation_xyz
x,y,z
-x,-y,1/2+z
x,-y,1/2+z
-x,y,z
1/2+x,1/2+y,z
1/2-x,1/2-y,1/2+z
1/2+x,1/2-y,1/2+z
1/2-x,1/2+y,z
loop_
_atom_site_type_symbol
_atom_site_label
_atom_site_fract_x
_atom_site_fract_y
_atom_site_fract_z
Si Si1 0.642986 0.291952 0.262050
Si Si2 0.146301 0.139280 0.135279
Si Si3 0.707658 0.755663 0.309893
Si Si4 0.703559 0.166253 0.172855
Si Si5 0.054973 0.887860 0.183095
Si Si6 0.761971 0.040956 0.038874
Si Si7 0.762341 0.115904 0.673686
Si Si8 0.055261 0.049833 0.063927
O O1 0.644244 0.318242 0.455310
O O2 0.654694 0.203007 0.243829
O O3 0.593811 0.321327 0.179791
O O4 0.687513 0.337876 0.176707
O O5 0.162427 0.203112 0.266612
O O6 0.188723 0.076154 0.117888
O O7 0.095446 0.097864 0.161723
O O8 0.707892 0.795573 0.488490
O O9 0.753922 0.701096 0.287453
O O10 0.718967 0.823447 0.178597
O O11 0.717075 0.079378 0.138591
O O12 0.056111 0.920896 0.373252
O O13 0.000000 0.864340 0.145996
O O14 0.067781 0.961016 0.071983
O O15 0.761151 0.950826 0.041092
O O16 0.760959 0.071442 0.850327
O O17 0.000000 0.057507 0.127857
#
# Coordination Sequence:
#
# PCOD9353294 Si02
#       8
#     8   8   8   8   8   8   8   8
#     4   9  17  28  40  56  78 105 136 164 193 230
#     4   9  17  28  40  56  78 105 136 164 193 230
#     4   9  17  28  40  56  77 101 130 162 194 230
#     4   9  17  28  40  56  77 101 130 162 194 230
#     4   9  17  28  41  58  81 107 136 170 202 232
#     4   9  17  26  37  55  77 100 128 159 189 227
#     4   9  17  26  37  55  77 100 128 159 189 227
#     4   9  17  28  41  58  81 107 136 170 202 232
#
# _framework density 16.410767
#
# number of rings (size 3 to 8) (size 9 to 14) (size 15 to 20)
#    0.000    3.000    0.000    3.000    0.000    6.000 
#    0.000    0.000    0.000    0.000    0.000    0.000 
#    0.000    1.000    0.000    2.250    0.000    3.500 
#
# Total GULP energy -178285.768973 kJ/mol
# GULP energy per Si atom -5571.430280 kJ/mol
# Density = 1.637342 g / cm^3
# Si number density = 16.410767 Si / 1000 Ang^3
#
#
#
# Elastic Constant Matrix: (Units=GPa)
#
#
# Indices 1 2 3 4 5 6 
#
# 1 59.1500 15.4647 9.2191 0.0000 0.0000 0.0000
# 2 15.4647 38.3250 11.6489 0.0000 0.0000 0.0000
# 3 9.2191 11.6489 25.1022 0.0000 0.0000 0.0000
# 4 0.0000 0.0000 0.0000 23.3084 0.0000 0.0000
# 5 0.0000 0.0000 0.0000 0.0000 12.0177 0.0000
# 6 0.0000 0.0000 0.0000 0.0000 0.0000 27.9218
#
#
#
# Elastic Compliance Matrix: (Units=1/GPa)
#
#
# Indices 1 2 3 4 5 6 
#
# 1 0.019245 -0.006540 -0.004033 0.000000 0.000000 0.000000
# 2 -0.006540 0.032600 -0.012726 0.000000 0.000000 0.000000
# 3 -0.004033 -0.012726 0.047224 0.000000 0.000000 0.000000
# 4 0.000000 0.000000 0.000000 0.042903 0.000000 0.000000
# 5 0.000000 0.000000 0.000000 0.000000 0.083211 0.000000
# 6 0.000000 0.000000 0.000000 0.000000 0.000000 0.035814
#
#
# Mechanical properties :
#
#
# Convention : Reuss Voigt Hill
#
# Bulk Modulus (GPa) = 19.05843 21.69363 20.37603
# Shear Modulus (GPa) = 15.38061 18.39920 16.88990
#
# Velocity S-wave (km/s) = 3.06474 3.35201 3.21159
# Velocity P-wave (km/s) = 4.91549 5.31311 5.11817
#
# Compressibility (1/GPa) = 0.05247022
#
# Stress axis : x y z
#
# Youngs Moduli (GPa) = 51.96275 30.67513 21.17559
#
# Poissons Ratio (x) = 0.20060 0.08540
# Poissons Ratio (y) = 0.33982 0.26949
# Poissons Ratio (z) = 0.20957 0.39039
#
# Static dielectric constant tensor:
#      x y z
#    x 1.555200 0.000000 0.000000 
#    y 0.000000 1.576270 0.000000 
#    z 0.000000 0.000000 1.627410 
# 
# From -- ./inp_files/5702.got.cif
#   From: 2010.05.17/outbox.cif.g08.bks.cpg/sg36_3_cif.got.tgz:5702.got - 2010.06.03 17:41:39.
