data_PCOD9353480
_publ_section_title
;
Structure prediction by ZEFSAII (Michael W. Deem and Ramdas Pophale) SiO2 
 PCOD9353480
Probable space group: C C C 2
;
_chemical_formula_sum "Si O2"
_cell_formula_units_Z 28
_cell_length_a 7.759934
_cell_length_b 16.226361
_cell_length_c 8.564102
_cell_angle_alpha 90.000000
_cell_angle_beta 90.000000
_cell_angle_gamma 90.000000
_cell_volume 1078.353103
_symmetry_space_group_name_H-M "C C C 2"
_symmetry_group_IT_number 37
_symmetry_cell_setting 'orthorhombic'
loop_
_space_group_symop_operation_xyz
x,y,z
-x,-y,z
-x,y,1/2+z
x,-y,1/2+z
1/2+x,1/2+y,z
1/2-x,1/2-y,z
1/2-x,1/2+y,1/2+z
1/2+x,1/2-y,1/2+z
loop_
_atom_site_type_symbol
_atom_site_label
_atom_site_fract_x
_atom_site_fract_y
_atom_site_fract_z
Si Si1 0.681533 0.883903 0.473220
Si Si2 0.590462 0.391415 0.541247
Si Si3 0.250000 0.750000 0.755570
Si Si4 0.225211 0.530816 0.253072
O O1 0.633252 0.803128 0.376925
O O2 0.610487 0.911320 0.640776
O O3 0.887499 0.879278 0.509255
O O4 0.649823 0.961614 0.364839
O O5 0.655911 0.314290 0.642146
O O6 0.670644 0.408998 0.370055
O O7 0.659474 0.470298 0.641401
#
# Coordination Sequence:
#
# PCOD9353480 Si02
#       4
#     8   8   4   8
#     4  10  17  30  49  75 103 129 164 209 253 302
#     4  10  17  30  49  75 103 129 164 209 253 302
#     4  10  22  30  44  78 110 136 162 194 264 316
#     4   9  16  28  51  74  97 126 164 216 264 291
#
# _framework density 25.965520999999999
#
# number of rings (size 3 to 8) (size 9 to 14) (size 15 to 20)
#    0.000    2.286    0.000    8.571    0.000    1.143 
#    0.000    0.000    0.000    0.000    0.000   96.000 
#    0.000    0.000    0.000    0.000    0.000    0.000 
#
# Total GULP energy -78165.699569 kJ/mol
# GULP energy per Si atom -5583.264255 kJ/mol
# Density = 2.590642 g / cm^3
# Si number density = 25.965521 Si / 1000 Ang^3
#
#
#
# Elastic Constant Matrix: (Units=GPa)
#
#
# Indices 1 2 3 4 5 6 
#
# 1 58.5110 38.0000 46.3151 0.0000 0.0000 0.0000
# 2 38.0000 179.3388 77.8990 0.0000 0.0000 0.0000
# 3 46.3151 77.8990 208.9985 0.0000 0.0000 0.0000
# 4 0.0000 0.0000 0.0000 75.1556 0.0000 0.0000
# 5 0.0000 0.0000 0.0000 0.0000 31.9758 0.0000
# 6 0.0000 0.0000 0.0000 0.0000 0.0000 22.3410
#
#
#
# Elastic Compliance Matrix: (Units=1/GPa)
#
#
# Indices 1 2 3 4 5 6 
#
# 1 0.022033 -0.003040 -0.003750 0.000000 0.000000 0.000000
# 2 -0.003040 0.007073 -0.001962 0.000000 0.000000 0.000000
# 3 -0.003750 -0.001962 0.006347 0.000000 0.000000 0.000000
# 4 0.000000 0.000000 0.000000 0.013306 0.000000 0.000000
# 5 0.000000 0.000000 0.000000 0.000000 0.031274 0.000000
# 6 0.000000 0.000000 0.000000 0.000000 0.000000 0.044761
#
#
# Mechanical properties :
#
#
# Convention : Reuss Voigt Hill
#
# Bulk Modulus (GPa) = 55.71375 85.69739 70.70557
# Shear Modulus (GPa) = 33.72002 44.87008 39.29505
#
# Velocity S-wave (km/s) = 3.60758 4.16151 3.89441
# Velocity P-wave (km/s) = 6.23348 7.49445 6.89286
#
# Compressibility (1/GPa) = 0.01794889
#
# Stress axis : x y z
#
# Youngs Moduli (GPa) = 45.38627 141.39079 157.55173
#
# Poissons Ratio (x) = 0.42981 0.59076
# Poissons Ratio (y) = 0.13797 0.30919
# Poissons Ratio (z) = 0.17018 0.27748
#
# Static dielectric constant tensor:
#      x y z
#    x 2.195220 0.000000 0.000000 
#    y 0.000000 2.050240 0.000000 
#    z 0.000000 0.000000 2.098100 
# 
# From -- ./inp_files/2004.got.cif
#   From: 2010.05.17/outbox.cif.g08.bks.cpg/sg37_2_cif.got.tgz:2004.got - 2010.06.03 17:53:42.
