data_PCOD9353236
_publ_section_title
;
Structure prediction by ZEFSAII (Michael W. Deem and Ramdas Pophale) SiO2 
 PCOD9353236
Probable space group: C M C 21
;
_chemical_formula_sum "Si O2"
_cell_formula_units_Z 40
_cell_length_a 28.011011
_cell_length_b 5.085921
_cell_length_c 11.102822
_cell_angle_alpha 90.000000
_cell_angle_beta 90.000000
_cell_angle_gamma 90.000000
_cell_volume 1581.727886
_symmetry_space_group_name_H-M "C M C 21"
_symmetry_group_IT_number 36
_symmetry_cell_setting 'orthorhombic'
loop_
_space_group_symop_operation_xyz
x,y,z
-x,-y,1/2+z
x,-y,1/2+z
-x,y,z
1/2+x,1/2+y,z
1/2-x,1/2-y,1/2+z
1/2+x,1/2-y,1/2+z
1/2-x,1/2+y,z
loop_
_atom_site_type_symbol
_atom_site_label
_atom_site_fract_x
_atom_site_fract_y
_atom_site_fract_z
Si Si1 0.053254 0.631714 0.145850
Si Si2 0.653501 0.643773 0.893370
Si Si3 0.783211 0.464054 0.469963
Si Si4 0.551292 0.787050 0.907100
Si Si5 0.839663 0.153836 0.635759
O O1 0.053275 0.533801 0.285456
O O2 0.103879 0.780599 0.136649
O O3 0.000000 0.762755 0.133973
O O4 0.054983 0.430918 0.034840
O O5 0.596896 0.606041 0.893702
O O6 0.672552 0.541302 0.766341
O O7 0.668599 0.532325 0.021985
O O8 0.668917 0.952748 0.896972
O O9 0.749672 0.713921 0.444559
O O10 0.805391 0.399964 0.602021
O O11 0.500000 0.650240 0.903365
#
# Coordination Sequence:
#
# PCOD9353236 Si02
#       5
#     8   8   8   8   8
#     4   9  18  35  62  97 138 184 235 292 358 434
#     4  11  25  45  72 107 146 191 244 303 368 441
#     4  12  26  50  73 106 141 188 244 308 370 430
#     4   9  18  35  62  97 138 184 235 292 358 434
#     4  11  25  45  72 107 146 191 244 303 368 441
#
# _framework density 25.288799999999998
#
# number of rings (size 3 to 8) (size 9 to 14) (size 15 to 20)
#    0.000    1.600    4.000    0.000    0.000    5.600 
#    0.000    0.000    0.000    0.000    0.000    0.000 
#    0.000    0.000    0.000    0.000    0.000    0.000 
#
# Total GULP energy -111344.963557 kJ/mol
# GULP energy per Si atom -5567.248178 kJ/mol
# Density = 2.523124 g / cm^3
# Si number density = 25.288800 Si / 1000 Ang^3
#
#
#
# Elastic Constant Matrix: (Units=GPa)
#
#
# Indices 1 2 3 4 5 6 
#
# 1 118.9800 34.8354 0.3303 0.0000 0.0000 0.0000
# 2 34.8354 72.1477 27.1190 0.0000 0.0000 0.0000
# 3 0.3303 27.1190 164.2168 0.0000 0.0000 0.0000
# 4 0.0000 0.0000 0.0000 35.9056 0.0000 0.0000
# 5 0.0000 0.0000 0.0000 0.0000 25.6070 0.0000
# 6 0.0000 0.0000 0.0000 0.0000 0.0000 13.9412
#
#
#
# Elastic Compliance Matrix: (Units=1/GPa)
#
#
# Indices 1 2 3 4 5 6 
#
# 1 0.009891 -0.005084 0.000820 0.000000 0.000000 0.000000
# 2 -0.005084 0.017391 -0.002862 0.000000 0.000000 0.000000
# 3 0.000820 -0.002862 0.006560 0.000000 0.000000 0.000000
# 4 0.000000 0.000000 0.000000 0.027851 0.000000 0.000000
# 5 0.000000 0.000000 0.000000 0.000000 0.039052 0.000000
# 6 0.000000 0.000000 0.000000 0.000000 0.000000 0.071730
#
#
# Mechanical properties :
#
#
# Convention : Reuss Voigt Hill
#
# Bulk Modulus (GPa) = 51.04523 53.32374 52.18448
# Shear Modulus (GPa) = 25.87234 34.62808 30.25021
#
# Velocity S-wave (km/s) = 3.20202 3.70443 3.46235
# Velocity P-wave (km/s) = 5.82231 6.27923 6.05508
#
# Compressibility (1/GPa) = 0.01959047
#
# Stress axis : x y z
#
# Youngs Moduli (GPa) = 101.10258 57.50187 152.42857
#
# Poissons Ratio (x) = 0.29233 -0.12494
# Poissons Ratio (y) = 0.51398 0.43621
# Poissons Ratio (z) = -0.08287 0.16455
#
# Static dielectric constant tensor:
#      x y z
#    x 2.072570 0.000000 0.000000 
#    y 0.000000 2.169250 0.000000 
#    z 0.000000 0.000000 2.011990 
# 
# From -- ./inp_files/9679.got.cif
#   From: 2010.05.17/outbox.cif.g08.bks.cpg/sg36_5_cif.got.tgz:9679.got - 2010.06.03 17:41:39.
