data_PCOD9353032
_publ_section_title
;
Structure prediction by ZEFSAII (Michael W. Deem and Ramdas Pophale) SiO2 
 PCOD9353032
Probable space group: C M C 21
;
_chemical_formula_sum "Si O2"
_cell_formula_units_Z 48
_cell_length_a 19.053464
_cell_length_b 13.506397
_cell_length_c 7.605469
_cell_angle_alpha 90.000000
_cell_angle_beta 90.000000
_cell_angle_gamma 90.000000
_cell_volume 1957.219145
_symmetry_space_group_name_H-M "C M C 21"
_symmetry_group_IT_number 36
_symmetry_cell_setting 'orthorhombic'
loop_
_space_group_symop_operation_xyz
x,y,z
-x,-y,1/2+z
x,-y,1/2+z
-x,y,z
1/2+x,1/2+y,z
1/2-x,1/2-y,1/2+z
1/2+x,1/2-y,1/2+z
1/2-x,1/2+y,z
loop_
_atom_site_type_symbol
_atom_site_label
_atom_site_fract_x
_atom_site_fract_y
_atom_site_fract_z
Si Si1 0.500000 0.847813 0.410410
Si Si2 0.620915 0.198950 0.412584
Si Si3 0.000000 0.439977 0.028348
Si Si4 0.208542 0.132519 0.955349
Si Si5 0.847948 0.072413 0.579035
Si Si6 0.151759 0.279957 0.500980
Si Si7 0.500000 0.441110 0.907507
Si Si8 0.500000 0.650290 0.014745
O O1 0.500000 0.894676 0.220197
O O2 0.572313 0.789748 0.432745
O O3 0.500000 0.941982 0.538666
O O4 0.574407 0.100070 0.447847
O O5 0.684922 0.255970 0.514041
O O6 0.644423 0.196849 0.209745
O O7 0.564187 0.281304 0.465485
O O8 0.168960 0.106413 0.775057
O O9 0.291847 0.142501 0.928709
O O10 0.186109 0.036274 0.066128
O O11 0.822343 0.167384 0.466721
O O12 0.929058 0.071820 0.520125
O O13 0.500000 0.558700 0.883837
O O14 0.500000 0.386310 0.718240
#
# Coordination Sequence:
#
# PCOD9353032 Si02
#       8
#     4   8   4   8   8   8   4   4
#     4  12  26  48  73 105 140 190 263 307 393 440
#     4  10  24  46  67 109 146 192 251 306 381 453
#     4  11  26  43  76  98 140 187 245 319 365 469
#     4  11  26  46  71 106 151 200 247 316 384 460
#     4  11  26  45  75 111 154 196 254 311 391 461
#     4  11  27  47  73 103 151 199 253 323 381 454
#     4  12  23  41  77 115 160 198 245 325 383 468
#     4  11  23  38  74 112 158 195 253 307 389 457
#
# _framework density 24.524591000000001
#
# number of rings (size 3 to 8) (size 9 to 14) (size 15 to 20)
#    0.000    1.000    1.667    3.500    7.000   11.333 
#    0.000    0.000    0.000    0.000    0.000    0.000 
#    0.000    0.000    0.000    0.000    0.000    0.000 
#
# Total GULP energy -133862.105266 kJ/mol
# GULP energy per Si atom -5577.587719 kJ/mol
# Density = 2.446877 g / cm^3
# Si number density = 24.524591 Si / 1000 Ang^3
#
#
#
# Elastic Constant Matrix: (Units=GPa)
#
#
# Indices 1 2 3 4 5 6 
#
# 1 140.9757 50.1972 -9.5254 0.0000 0.0000 0.0000
# 2 50.1972 89.0371 4.7556 0.0000 0.0000 0.0000
# 3 -9.5254 4.7556 51.0593 0.0000 0.0000 0.0000
# 4 0.0000 0.0000 0.0000 30.9855 0.0000 0.0000
# 5 0.0000 0.0000 0.0000 0.0000 5.8728 0.0000
# 6 0.0000 0.0000 0.0000 0.0000 0.0000 57.1897
#
#
#
# Elastic Compliance Matrix: (Units=1/GPa)
#
#
# Indices 1 2 3 4 5 6 
#
# 1 0.009112 -0.005254 0.002189 0.000000 0.000000 0.000000
# 2 -0.005254 0.014317 -0.002314 0.000000 0.000000 0.000000
# 3 0.002189 -0.002314 0.020209 0.000000 0.000000 0.000000
# 4 0.000000 0.000000 0.000000 0.032273 0.000000 0.000000
# 5 0.000000 0.000000 0.000000 0.000000 0.170277 0.000000
# 6 0.000000 0.000000 0.000000 0.000000 0.000000 0.017486
#
#
# Mechanical properties :
#
#
# Convention : Reuss Voigt Hill
#
# Bulk Modulus (GPa) = 30.41259 41.32520 35.86890
# Shear Modulus (GPa) = 17.51976 34.51924 26.01950
#
# Velocity S-wave (km/s) = 2.67568 3.75578 3.26076
# Velocity P-wave (km/s) = 4.68759 5.97453 5.36975
#
# Compressibility (1/GPa) = 0.03288112
#
# Stress axis : x y z
#
# Youngs Moduli (GPa) = 109.74284 69.84679 49.48296
#
# Poissons Ratio (x) = 0.36699 -0.10833
# Poissons Ratio (y) = 0.57661 0.11449
# Poissons Ratio (z) = -0.24026 0.16160
#
# Static dielectric constant tensor:
#      x y z
#    x 2.175480 0.000000 0.000000 
#    y 0.000000 2.127820 0.000000 
#    z 0.000000 0.000000 1.976360 
# 
# From -- ./inp_files/4699.got.cif
#   From: 2010.05.17/outbox.cif.g08.bks.cpg/sg36_3_cif.got.tgz:4699.got - 2010.06.03 17:41:39.
