data_PCOD9353634
_publ_section_title
;
Structure prediction by ZEFSAII (Michael W. Deem and Ramdas Pophale) SiO2 
 PCOD9353634
Probable space group: C C C 2
;
_chemical_formula_sum "Si O2"
_cell_formula_units_Z 64
_cell_length_a 18.179296
_cell_length_b 9.499698
_cell_length_c 21.402588
_cell_angle_alpha 90.000000
_cell_angle_beta 90.000000
_cell_angle_gamma 90.000000
_cell_volume 3696.180330
_symmetry_space_group_name_H-M "C C C 2"
_symmetry_group_IT_number 37
_symmetry_cell_setting 'orthorhombic'
loop_
_space_group_symop_operation_xyz
x,y,z
-x,-y,z
-x,y,1/2+z
x,-y,1/2+z
1/2+x,1/2+y,z
1/2-x,1/2-y,z
1/2-x,1/2+y,1/2+z
1/2+x,1/2-y,1/2+z
loop_
_atom_site_type_symbol
_atom_site_label
_atom_site_fract_x
_atom_site_fract_y
_atom_site_fract_z
Si Si1 0.787310 0.598069 0.793120
Si Si2 0.794190 0.394726 0.906373
Si Si3 0.957072 0.145915 0.171558
Si Si4 0.458669 0.149293 0.556027
Si Si5 0.967450 0.343258 0.916057
Si Si6 0.038402 0.347130 0.788535
Si Si7 0.717076 0.591412 0.667047
Si Si8 0.214330 0.594909 0.043844
O O1 0.750000 0.750000 0.801555
O O2 0.772957 0.498283 0.851291
O O3 0.874522 0.623537 0.788935
O O4 0.753895 0.531541 0.729652
O O5 0.750000 0.250000 0.901549
O O6 0.880760 0.356819 0.902816
O O7 0.780271 0.465676 0.974158
O O8 0.974395 0.240730 0.110818
O O9 0.975895 0.240124 0.232110
O O10 0.870104 0.108268 0.171593
O O11 0.000000 0.000000 0.171238
O O12 0.475621 0.213166 0.486874
O O13 0.371606 0.114761 0.558422
O O14 0.500000 0.000000 0.564018
O O15 0.000000 0.500000 0.921213
O O16 0.009342 0.285185 0.854993
O O17 0.000000 0.500000 0.779673
O O18 0.750000 0.750000 0.664968
O O19 0.744206 0.523720 0.602014
O O20 0.250000 0.750000 0.037527
#
# Coordination Sequence:
#
# PCOD9353634 Si02
#       8
#     8   8   8   8   8   8   8   8
#     4  11  20  37  62  85 114 158 196 230 294 364
#     4  10  20  33  59  93 112 146 198 249 284 340
#     4  12  24  38  59  92 124 152 198 254 303 348
#     4  10  19  35  62  90 112 154 203 243 288 356
#     4   9  18  35  60  84 120 150 198 242 294 343
#     4  11  20  39  63  85 115 159 200 241 292 358
#     4  10  18  37  61  80 111 158 200 220 284 365
#     4   9  16  34  64  81 110 154 202 227 282 359
#
# _framework density 17.315172
#
# number of rings (size 3 to 8) (size 9 to 14) (size 15 to 20)
#    0.000    1.750    7.500    0.375    0.000    1.000 
#    0.000    1.875    0.000    0.000    0.000    0.000 
#    0.000    0.000    0.000    0.000    0.000    0.000 
#
# Total GULP energy -178246.927057 kJ/mol
# GULP energy per Si atom -5570.216471 kJ/mol
# Density = 1.727576 g / cm^3
# Si number density = 17.315172 Si / 1000 Ang^3
#
#
#
# Elastic Constant Matrix: (Units=GPa)
#
#
# Indices 1 2 3 4 5 6 
#
# 1 126.8725 43.5072 42.7085 0.0000 0.0000 0.0000
# 2 43.5072 61.9670 56.5332 0.0000 0.0000 0.0000
# 3 42.7085 56.5332 209.7283 0.0000 0.0000 0.0000
# 4 0.0000 0.0000 0.0000 16.0593 0.0000 0.0000
# 5 0.0000 0.0000 0.0000 0.0000 24.1145 0.0000
# 6 0.0000 0.0000 0.0000 0.0000 0.0000 25.9862
#
#
#
# Elastic Compliance Matrix: (Units=1/GPa)
#
#
# Indices 1 2 3 4 5 6 
#
# 1 0.010388 -0.007112 -0.000198 0.000000 0.000000 0.000000
# 2 -0.007112 0.026270 -0.005633 0.000000 0.000000 0.000000
# 3 -0.000198 -0.005633 0.006327 0.000000 0.000000 0.000000
# 4 0.000000 0.000000 0.000000 0.062269 0.000000 0.000000
# 5 0.000000 0.000000 0.000000 0.000000 0.041469 0.000000
# 6 0.000000 0.000000 0.000000 0.000000 0.000000 0.038482
#
#
# Mechanical properties :
#
#
# Convention : Reuss Voigt Hill
#
# Bulk Modulus (GPa) = 58.48721 76.00728 67.24724
# Shear Modulus (GPa) = 23.06370 30.28659 26.67515
#
# Velocity S-wave (km/s) = 3.65361 4.18680 3.92926
# Velocity P-wave (km/s) = 7.18678 8.20756 7.71407
#
# Compressibility (1/GPa) = 0.01709776
#
# Stress axis : x y z
#
# Youngs Moduli (GPa) = 96.26852 38.06587 158.05790
#
# Poissons Ratio (x) = 0.27074 0.03131
# Poissons Ratio (y) = 0.68470 0.89033
# Poissons Ratio (z) = 0.01907 0.21442
#
# Static dielectric constant tensor:
#      x y z
#    x 1.575480 0.000000 0.000000 
#    y 0.000000 1.551970 0.000000 
#    z 0.000000 0.000000 1.692270 
# 
# From -- ./inp_files/17340.got.cif
#   From: 2010.05.17/outbox.cif.g08.bks.cpg/sg37_9_cif.got.tgz:17340.got - 2010.06.03 17:53:42.
