data_PCOD9353987
_publ_section_title
;
Structure prediction by ZEFSAII (Michael W. Deem and Ramdas Pophale) SiO2 
 PCOD9353987
Probable space group: C C C 2
;
_chemical_formula_sum "Si O2"
_cell_formula_units_Z 48
_cell_length_a 23.685674
_cell_length_b 10.002371
_cell_length_c 9.087771
_cell_angle_alpha 90.000000
_cell_angle_beta 90.000000
_cell_angle_gamma 90.000000
_cell_volume 2153.010171
_symmetry_space_group_name_H-M "C C C 2"
_symmetry_group_IT_number 37
_symmetry_cell_setting 'orthorhombic'
loop_
_space_group_symop_operation_xyz
x,y,z
-x,-y,z
-x,y,1/2+z
x,-y,1/2+z
1/2+x,1/2+y,z
1/2-x,1/2-y,z
1/2-x,1/2+y,1/2+z
1/2+x,1/2-y,1/2+z
loop_
_atom_site_type_symbol
_atom_site_label
_atom_site_fract_x
_atom_site_fract_y
_atom_site_fract_z
Si Si1 0.550345 0.281433 0.293920
Si Si2 0.634838 0.728468 0.546921
Si Si3 0.634838 0.728460 0.040916
Si Si4 0.296788 0.135222 0.293921
Si Si5 0.785699 0.117948 0.293919
Si Si6 0.567388 0.397792 0.793920
O O1 0.584505 0.223228 0.155040
O O2 0.584508 0.223224 0.432793
O O3 0.482566 0.285135 0.293923
O O4 0.555362 0.444531 0.293924
O O5 0.666428 0.837539 0.442817
O O6 0.676218 0.640933 0.649351
O O7 0.604637 0.631497 0.434063
O O8 0.666429 0.837525 0.145026
O O9 0.604632 0.631490 0.153764
O O10 0.676218 0.640922 0.938489
O O11 0.250000 0.250000 0.293929
O O12 0.241145 0.502258 0.793913
O O13 0.750000 0.250000 0.293928
#
# Coordination Sequence:
#
# PCOD9353987 Si02
#       6
#     8   8   8   8   8   8
#     4  10  20  35  61  94 137 177 223 274 347 420
#     4  10  23  38  61  95 132 181 216 290 339 410
#     4  10  23  38  61  95 132 181 216 290 339 410
#     4  11  26  40  63  95 133 178 226 280 334 404
#     4  11  26  46  65  93 133 184 234 276 330 408
#     4  10  20  35  61  96 133 179 223 276 347 414
#
# _framework density 22.294367999999999
#
# number of rings (size 3 to 8) (size 9 to 14) (size 15 to 20)
#    0.000    1.667    0.000    3.000   14.000    6.667 
#    0.000    3.333    0.000    0.000    0.000   81.667 
#    0.000    0.000    0.000    0.000    0.000    0.000 
#
# Total GULP energy -133898.537478 kJ/mol
# GULP energy per Si atom -5579.105728 kJ/mol
# Density = 2.224363 g / cm^3
# Si number density = 22.294368 Si / 1000 Ang^3
#
#
#
# Elastic Constant Matrix: (Units=GPa)
#
#
# Indices 1 2 3 4 5 6 
#
# 1 154.8682 52.5862 85.2615 0.0000 0.0000 0.0000
# 2 52.5862 88.9580 34.0441 0.0000 0.0000 0.0000
# 3 85.2615 34.0441 194.7126 0.0000 0.0000 0.0000
# 4 0.0000 0.0000 0.0000 8.5676 0.0000 0.0000
# 5 0.0000 0.0000 0.0000 0.0000 -1.7577 0.0000
# 6 0.0000 0.0000 0.0000 0.0000 0.0000 28.9116
#
#
#
# Elastic Compliance Matrix: (Units=1/GPa)
#
#
# Indices 1 2 3 4 5 6 
#
# 1 0.009957 -0.004520 -0.003570 0.000000 0.000000 0.000000
# 2 -0.004520 0.014099 -0.000486 0.000000 0.000000 0.000000
# 3 -0.003570 -0.000486 0.006784 0.000000 0.000000 0.000000
# 4 0.000000 0.000000 0.000000 0.116718 0.000000 0.000000
# 5 0.000000 0.000000 0.000000 0.000000 -0.568937 0.000000
# 6 0.000000 0.000000 0.000000 0.000000 0.000000 0.034588
#
#
# Mechanical properties :
#
#
# Convention : Reuss Voigt Hill
#
# Bulk Modulus (GPa) = 73.05196 86.92475 79.98835
# Shear Modulus (GPa) = -13.69578 24.92078 5.61250
#
# Velocity S-wave (km/s) = -2.48123 3.34699 1.58837
# Velocity P-wave (km/s) = 4.96281 7.34919 6.27057
#
# Compressibility (1/GPa) = 0.01368889
#
# Stress axis : x y z
#
# Youngs Moduli (GPa) = 100.42995 70.92658 147.40766
#
# Poissons Ratio (x) = 0.32058 0.52622
# Poissons Ratio (y) = 0.45393 0.07163
# Poissons Ratio (z) = 0.35852 0.03447
#
# Static dielectric constant tensor:
#      x y z
#    x 1.889880 0.000000 0.000000 
#    y 0.000000 1.791550 0.000000 
#    z 0.000000 0.000000 1.673040 
# 
# From -- ./inp_files/4458.got.cif
#   From: 2010.05.17/outbox.cif.g08.bks.cpg/sg37_3_cif.got.tgz:4458.got - 2010.06.03 17:53:42.
