data_PCOD9353872
_publ_section_title
;
Structure prediction by ZEFSAII (Michael W. Deem and Ramdas Pophale) SiO2 
 PCOD9353872
Probable space group: C C C 2
;
_chemical_formula_sum "Si O2"
_cell_formula_units_Z 40
_cell_length_a 5.623046
_cell_length_b 13.677322
_cell_length_c 23.312647
_cell_angle_alpha 90.000000
_cell_angle_beta 90.000000
_cell_angle_gamma 90.000000
_cell_volume 1792.933969
_symmetry_space_group_name_H-M "C C C 2"
_symmetry_group_IT_number 37
_symmetry_cell_setting 'orthorhombic'
loop_
_space_group_symop_operation_xyz
x,y,z
-x,-y,z
-x,y,1/2+z
x,-y,1/2+z
1/2+x,1/2+y,z
1/2-x,1/2-y,z
1/2-x,1/2+y,1/2+z
1/2+x,1/2-y,1/2+z
loop_
_atom_site_type_symbol
_atom_site_label
_atom_site_fract_x
_atom_site_fract_y
_atom_site_fract_z
Si Si1 0.250000 0.750000 0.359921
Si Si2 0.381888 0.601113 0.015457
Si Si3 0.750000 0.750000 0.429155
Si Si4 0.373677 0.854782 0.130383
Si Si5 0.745481 0.969904 0.836296
Si Si6 0.250000 0.750000 0.561797
Si Si7 0.500000 0.000000 0.229000
O O1 0.502571 0.741723 0.393982
O O2 0.263395 0.853408 0.327285
O O3 0.500000 0.500000 0.998544
O O4 0.218642 0.652151 0.968080
O O5 0.262177 0.591165 0.078198
O O6 0.573006 0.687333 0.024022
O O7 0.250000 0.750000 0.140223
O O8 0.624572 0.827746 0.102685
O O9 0.408179 0.916143 0.187126
O O10 0.500000 0.000000 0.868366
O O11 0.708433 0.023905 0.774766
O O12 0.000000 0.000000 0.860988
#
# Coordination Sequence:
#
# PCOD9353872 Si02
#       7
#     4   8   4   8   8   4   4
#     4  12  27  50  75  96 143 182 240 313 352 408
#     4  11  23  41  66  98 143 183 230 285 341 427
#     4  12  26  46  74 106 133 191 242 286 372 416
#     4  10  21  39  64 100 142 184 222 281 341 431
#     4  10  25  48  75 104 138 174 246 293 355 426
#     4  10  19  40  63  96 152 177 232 267 334 416
#     4  10  24  40  68 108 134 186 232 276 370 416
#
# _framework density 22.309799000000002
#
# number of rings (size 3 to 8) (size 9 to 14) (size 15 to 20)
#    0.600    0.800    3.000    3.000    1.400    6.400 
#    0.000    2.000    0.000    0.000    0.000    0.000 
#    0.000    0.000    0.000    0.000    0.000    0.000 
#
# Total GULP energy -111564.401997 kJ/mol
# GULP energy per Si atom -5578.220100 kJ/mol
# Density = 2.225902 g / cm^3
# Si number density = 22.309799 Si / 1000 Ang^3
#
#
#
# Elastic Constant Matrix: (Units=GPa)
#
#
# Indices 1 2 3 4 5 6 
#
# 1 121.7130 18.1086 31.1110 0.0000 0.0000 0.0000
# 2 18.1086 89.8974 30.7430 0.0000 0.0000 0.0000
# 3 31.1110 30.7430 84.6447 0.0000 0.0000 0.0000
# 4 0.0000 0.0000 0.0000 49.5639 0.0000 0.0000
# 5 0.0000 0.0000 0.0000 0.0000 17.0362 0.0000
# 6 0.0000 0.0000 0.0000 0.0000 0.0000 31.6490
#
#
#
# Elastic Compliance Matrix: (Units=1/GPa)
#
#
# Indices 1 2 3 4 5 6 
#
# 1 0.009117 -0.000788 -0.003064 0.000000 0.000000 0.000000
# 2 -0.000788 0.012770 -0.004348 0.000000 0.000000 0.000000
# 3 -0.003064 -0.004348 0.014520 0.000000 0.000000 0.000000
# 4 0.000000 0.000000 0.000000 0.020176 0.000000 0.000000
# 5 0.000000 0.000000 0.000000 0.000000 0.058699 0.000000
# 6 0.000000 0.000000 0.000000 0.000000 0.000000 0.031597
#
#
# Mechanical properties :
#
#
# Convention : Reuss Voigt Hill
#
# Bulk Modulus (GPa) = 49.99035 50.68670 50.33853
# Shear Modulus (GPa) = 29.42091 34.06931 31.74511
#
# Velocity S-wave (km/s) = 3.63539 3.91205 3.77626
# Velocity P-wave (km/s) = 6.33067 6.57072 6.45181
#
# Compressibility (1/GPa) = 0.02000386
#
# Stress axis : x y z
#
# Youngs Moduli (GPa) = 109.68933 78.31115 68.87209
#
# Poissons Ratio (x) = 0.06174 0.21105
# Poissons Ratio (y) = 0.08648 0.29946
# Poissons Ratio (z) = 0.33614 0.34051
#
# Static dielectric constant tensor:
#      x y z
#    x 1.908210 0.000000 0.000000 
#    y 0.000000 1.798800 0.000000 
#    z 0.000000 0.000000 1.827180 
# 
# From -- ./inp_files/17919.got.cif
#   From: 2010.05.17/outbox.cif.g08.bks.cpg/sg37_9_cif.got.tgz:17919.got - 2010.06.03 17:53:42.
