data_PCOD9353446
_publ_section_title
;
Structure prediction by ZEFSAII (Michael W. Deem and Ramdas Pophale) SiO2 
 PCOD9353446
Probable space group: C C C 2
;
_chemical_formula_sum "Si O2"
_cell_formula_units_Z 56
_cell_length_a 11.932953
_cell_length_b 14.635982
_cell_length_c 15.073430
_cell_angle_alpha 90.000000
_cell_angle_beta 90.000000
_cell_angle_gamma 90.000000
_cell_volume 2632.581865
_symmetry_space_group_name_H-M "C C C 2"
_symmetry_group_IT_number 37
_symmetry_cell_setting 'orthorhombic'
loop_
_space_group_symop_operation_xyz
x,y,z
-x,-y,z
-x,y,1/2+z
x,-y,1/2+z
1/2+x,1/2+y,z
1/2-x,1/2-y,z
1/2-x,1/2+y,1/2+z
1/2+x,1/2-y,1/2+z
loop_
_atom_site_type_symbol
_atom_site_label
_atom_site_fract_x
_atom_site_fract_y
_atom_site_fract_z
Si Si1 0.801685 0.600962 0.039540
Si Si2 0.506090 0.702826 0.319055
Si Si3 0.500000 0.500000 0.899625
Si Si4 0.185199 0.024488 0.201735
Si Si5 0.583222 0.726940 0.002362
Si Si6 0.738731 0.454606 0.912335
Si Si7 0.960512 0.140566 0.149873
Si Si8 0.750000 0.250000 0.878084
O O1 0.779762 0.556800 0.134577
O O2 0.691741 0.661919 0.012102
O O3 0.895972 0.676912 0.047928
O O4 0.818038 0.524620 0.963779
O O5 0.488994 0.594055 0.343998
O O6 0.442892 0.747658 0.400762
O O7 0.455332 0.719675 0.223314
O O8 0.636001 0.731714 0.323328
O O9 0.615254 0.482487 0.950336
O O10 0.222353 0.029691 0.305239
O O11 0.077344 0.089201 0.178593
O O12 0.141299 0.926356 0.169345
O O13 0.481395 0.676226 0.051593
O O14 0.764318 0.347675 0.926988
#
# Coordination Sequence:
#
# PCOD9353446 Si02
#       8
#     8   8   4   8   8   8   8   4
#     4  10  22  34  56  87 123 154 192 244 302 354
#     4  11  19  36  54  85 122 154 195 243 296 349
#     4  10  16  30  56  82 118 152 188 242 284 334
#     4  10  18  29  55  89 121 150 189 243 298 348
#     4  10  22  34  56  87 123 154 192 244 302 354
#     4  11  19  36  54  85 122 154 195 243 296 349
#     4  10  18  29  55  89 121 150 189 243 298 348
#     4  10  24  30  62  86 114 156 204 250 294 350
#
# _framework density 21.271892999999999
#
# number of rings (size 3 to 8) (size 9 to 14) (size 15 to 20)
#    0.000    1.714    5.714    0.000    6.000    0.000 
#    0.000    0.714    3.143    0.000    0.000    0.000 
#    0.000    0.000    0.000    0.000    0.000    0.000 
#
# Total GULP energy -156032.435746 kJ/mol
# GULP energy per Si atom -5572.586991 kJ/mol
# Density = 2.122348 g / cm^3
# Si number density = 21.271893 Si / 1000 Ang^3
#
#
#
# Elastic Constant Matrix: (Units=GPa)
#
#
# Indices 1 2 3 4 5 6 
#
# 1 21.9527 23.5475 5.7156 0.0000 0.0000 0.0000
# 2 23.5475 124.4741 27.9576 0.0000 0.0000 0.0000
# 3 5.7156 27.9576 86.3763 0.0000 0.0000 0.0000
# 4 0.0000 0.0000 0.0000 14.9961 0.0000 0.0000
# 5 0.0000 0.0000 0.0000 0.0000 11.8917 0.0000
# 6 0.0000 0.0000 0.0000 0.0000 0.0000 30.1321
#
#
#
# Elastic Compliance Matrix: (Units=1/GPa)
#
#
# Indices 1 2 3 4 5 6 
#
# 1 0.057157 -0.010744 -0.000304 0.000000 0.000000 0.000000
# 2 -0.010744 0.010683 -0.002747 0.000000 0.000000 0.000000
# 3 -0.000304 -0.002747 0.012487 0.000000 0.000000 0.000000
# 4 0.000000 0.000000 0.000000 0.066684 0.000000 0.000000
# 5 0.000000 0.000000 0.000000 0.000000 0.084093 0.000000
# 6 0.000000 0.000000 0.000000 0.000000 0.000000 0.033187
#
#
# Mechanical properties :
#
#
# Convention : Reuss Voigt Hill
#
# Bulk Modulus (GPa) = 18.96271 38.58274 28.77272
# Shear Modulus (GPa) = 16.15718 23.10946 19.63332
#
# Velocity S-wave (km/s) = 2.75899 3.29961 3.04134
# Velocity P-wave (km/s) = 4.36843 5.71785 5.08808
#
# Compressibility (1/GPa) = 0.05273508
#
# Stress axis : x y z
#
# Youngs Moduli (GPa) = 17.49578 93.60369 80.08642
#
# Poissons Ratio (x) = 1.00570 0.02439
# Poissons Ratio (y) = 0.18798 0.21999
# Poissons Ratio (z) = 0.00533 0.25712
#
# Static dielectric constant tensor:
#      x y z
#    x 1.787840 0.000000 0.000000 
#    y 0.000000 1.811410 0.000000 
#    z 0.000000 0.000000 1.850390 
# 
# From -- ./inp_files/12247.got.cif
#   From: 2010.05.17/outbox.cif.g08.bks.cpg/sg37_7_cif.got.tgz:12247.got - 2010.06.03 17:53:42.
