data_PCOD9353245
_publ_section_title
;
Structure prediction by ZEFSAII (Michael W. Deem and Ramdas Pophale) SiO2 
 PCOD9353245
Probable space group: C M C 21
;
_chemical_formula_sum "Si O2"
_cell_formula_units_Z 48
_cell_length_a 17.640797
_cell_length_b 13.477911
_cell_length_c 8.991295
_cell_angle_alpha 90.000000
_cell_angle_beta 90.000000
_cell_angle_gamma 90.000000
_cell_volume 2137.780117
_symmetry_space_group_name_H-M "C M C 21"
_symmetry_group_IT_number 36
_symmetry_cell_setting 'orthorhombic'
loop_
_space_group_symop_operation_xyz
x,y,z
-x,-y,1/2+z
x,-y,1/2+z
-x,y,z
1/2+x,1/2+y,z
1/2-x,1/2-y,1/2+z
1/2+x,1/2-y,1/2+z
1/2-x,1/2+y,z
loop_
_atom_site_type_symbol
_atom_site_label
_atom_site_fract_x
_atom_site_fract_y
_atom_site_fract_z
Si Si1 0.588656 0.311589 0.051960
Si Si2 0.817635 0.912149 0.807019
Si Si3 0.173140 0.244341 0.073141
Si Si4 0.913127 0.587362 0.034034
Si Si5 0.292959 0.644414 0.778187
Si Si6 0.143165 0.596068 0.367116
O O1 0.500000 0.333229 0.063392
O O2 0.597687 0.201113 0.984696
O O3 0.630159 0.309297 0.210218
O O4 0.633696 0.390715 0.953348
O O5 0.855038 0.842405 0.681605
O O6 0.730575 0.878213 0.829625
O O7 0.807561 0.027296 0.772011
O O8 0.226458 0.316491 0.171339
O O9 0.217416 0.182057 0.945969
O O10 0.118106 0.319083 0.984132
O O11 0.899566 0.586149 0.211338
O O12 0.000000 0.558733 0.002769
O O13 0.860555 0.509133 0.950899
#
# Coordination Sequence:
#
# PCOD9353245 Si02
#       6
#     8   8   8   8   8   8
#     4  11  25  49  71  99 151 193 234 299 363 436
#     4  12  27  43  71 108 139 189 247 291 354 431
#     4  12  24  42  70 106 146 178 238 303 357 423
#     4  11  26  48  72 108 146 187 236 298 379 442
#     4  12  24  44  69 103 141 186 241 297 356 425
#     4  12  25  42  75 102 144 183 232 302 358 429
#
# _framework density 22.453196999999999
#
# number of rings (size 3 to 8) (size 9 to 14) (size 15 to 20)
#    0.000    0.333    5.000    2.500    9.333    0.667 
#    0.000    1.667    0.000    0.000    0.000    0.000 
#    0.000    0.000    0.000    0.000    0.000    0.000 
#
# Total GULP energy -134212.886117 kJ/mol
# GULP energy per Si atom -5592.203588 kJ/mol
# Density = 2.240209 g / cm^3
# Si number density = 22.453197 Si / 1000 Ang^3
#
#
#
# Elastic Constant Matrix: (Units=GPa)
#
#
# Indices 1 2 3 4 5 6 
#
# 1 48.9934 -19.2377 -4.3225 0.0000 0.0000 0.0000
# 2 -19.2377 123.5097 21.7339 0.0000 0.0000 0.0000
# 3 -4.3225 21.7339 97.1188 0.0000 0.0000 0.0000
# 4 0.0000 0.0000 0.0000 47.2028 0.0000 0.0000
# 5 0.0000 0.0000 0.0000 0.0000 21.8858 0.0000
# 6 0.0000 0.0000 0.0000 0.0000 0.0000 14.9923
#
#
#
# Elastic Compliance Matrix: (Units=1/GPa)
#
#
# Indices 1 2 3 4 5 6 
#
# 1 0.021745 0.003349 0.000218 0.000000 0.000000 0.000000
# 2 0.003349 0.008944 -0.001853 0.000000 0.000000 0.000000
# 3 0.000218 -0.001853 0.010721 0.000000 0.000000 0.000000
# 4 0.000000 0.000000 0.000000 0.021185 0.000000 0.000000
# 5 0.000000 0.000000 0.000000 0.000000 0.045692 0.000000
# 6 0.000000 0.000000 0.000000 0.000000 0.000000 0.066701
#
#
# Mechanical properties :
#
#
# Convention : Reuss Voigt Hill
#
# Bulk Modulus (GPa) = 22.30201 29.55214 25.92708
# Shear Modulus (GPa) = 26.80888 34.91273 30.86081
#
# Velocity S-wave (km/s) = 3.45916 3.94751 3.71138
# Velocity P-wave (km/s) = 5.09005 5.82816 5.47156
#
# Compressibility (1/GPa) = 0.04483900
#
# Stress axis : x y z
#
# Youngs Moduli (GPa) = 45.98750 111.80577 93.27524
#
# Poissons Ratio (x) = -0.37439 -0.02038
# Poissons Ratio (y) = -0.15399 0.17280
# Poissons Ratio (z) = -0.01005 0.20712
#
# Static dielectric constant tensor:
#      x y z
#    x 1.786670 0.000000 0.000000 
#    y 0.000000 1.882110 0.000000 
#    z 0.000000 0.000000 1.844290 
# 
# From -- ./inp_files/4664.got.cif
#   From: 2010.05.17/outbox.cif.g08.bks.cpg/sg36_3_cif.got.tgz:4664.got - 2010.06.03 17:41:39.
