data_PCOD9353677
_publ_section_title
;
Structure prediction by ZEFSAII (Michael W. Deem and Ramdas Pophale) SiO2 
 PCOD9353677
Probable space group: C C C 2
;
_chemical_formula_sum "Si O2"
_cell_formula_units_Z 52
_cell_length_a 23.809960
_cell_length_b 12.124971
_cell_length_c 9.597282
_cell_angle_alpha 90.000000
_cell_angle_beta 90.000000
_cell_angle_gamma 90.000000
_cell_volume 2770.688042
_symmetry_space_group_name_H-M "C C C 2"
_symmetry_group_IT_number 37
_symmetry_cell_setting 'orthorhombic'
loop_
_space_group_symop_operation_xyz
x,y,z
-x,-y,z
-x,y,1/2+z
x,-y,1/2+z
1/2+x,1/2+y,z
1/2-x,1/2-y,z
1/2-x,1/2+y,1/2+z
1/2+x,1/2-y,1/2+z
loop_
_atom_site_type_symbol
_atom_site_label
_atom_site_fract_x
_atom_site_fract_y
_atom_site_fract_z
Si Si1 0.817033 0.235134 0.048000
Si Si2 0.347951 0.279458 0.865129
Si Si3 0.568969 0.106208 0.404916
Si Si4 0.292105 0.498920 0.445579
Si Si5 0.717967 0.846498 0.106440
Si Si6 0.000000 0.500000 0.656237
Si Si7 0.168087 0.564678 0.850732
O O1 0.750000 0.250000 0.055987
O O2 0.839058 0.248532 0.203937
O O3 0.840868 0.331443 0.951199
O O4 0.823789 0.112719 0.985364
O O5 0.408471 0.231473 0.907352
O O6 0.332055 0.408128 0.880116
O O7 0.305200 0.213747 0.968050
O O8 0.538050 0.069341 0.546780
O O9 0.532677 0.079307 0.265846
O O10 0.623944 0.028844 0.384939
O O11 0.264179 0.560949 0.577341
O O12 0.233281 0.472636 0.367019
O O13 0.750000 0.750000 0.190811
O O14 0.666528 0.895318 0.191899
#
# Coordination Sequence:
#
# PCOD9353677 Si02
#       7
#     8   8   8   8   8   4   8
#     4  10  21  32  49  79 121 160 189 217 257 331
#     4  11  21  35  56  81 111 158 187 229 282 344
#     4  11  22  38  62  82 110 143 192 248 309 328
#     4  10  20  32  51  83 124 153 191 217 261 352
#     4  10  19  30  46  75 114 156 191 215 258 330
#     4  10  24  42  56  86 110 138 200 266 292 350
#     4  11  21  33  54  82 117 158 187 224 281 344
#
# _framework density 18.767900999999998
#
# number of rings (size 3 to 8) (size 9 to 14) (size 15 to 20)
#    0.000    1.538    1.538    5.538    4.308    1.231 
#    0.000    0.000    0.000    0.000    0.000   18.308 
#    0.000    0.000    0.000    0.000    0.000    0.000 
#
# Total GULP energy -144974.241557 kJ/mol
# GULP energy per Si atom -5575.932368 kJ/mol
# Density = 1.872518 g / cm^3
# Si number density = 18.767901 Si / 1000 Ang^3
#
#
#
# Elastic Constant Matrix: (Units=GPa)
#
#
# Indices 1 2 3 4 5 6 
#
# 1 58.7732 30.7210 34.0111 0.0000 0.0000 0.0000
# 2 30.7210 109.7239 34.4415 0.0000 0.0000 0.0000
# 3 34.0111 34.4415 89.7400 0.0000 0.0000 0.0000
# 4 0.0000 0.0000 0.0000 14.9326 0.0000 0.0000
# 5 0.0000 0.0000 0.0000 0.0000 20.8649 0.0000
# 6 0.0000 0.0000 0.0000 0.0000 0.0000 27.8693
#
#
#
# Elastic Compliance Matrix: (Units=1/GPa)
#
#
# Indices 1 2 3 4 5 6 
#
# 1 0.023447 -0.004293 -0.007239 0.000000 0.000000 0.000000
# 2 -0.004293 0.011148 -0.002652 0.000000 0.000000 0.000000
# 3 -0.007239 -0.002652 0.014905 0.000000 0.000000 0.000000
# 4 0.000000 0.000000 0.000000 0.066968 0.000000 0.000000
# 5 0.000000 0.000000 0.000000 0.000000 0.047927 0.000000
# 6 0.000000 0.000000 0.000000 0.000000 0.000000 0.035882
#
#
# Mechanical properties :
#
#
# Convention : Reuss Voigt Hill
#
# Bulk Modulus (GPa) = 47.31843 50.73160 49.02502
# Shear Modulus (GPa) = 21.21449 23.33757 22.27603
#
# Velocity S-wave (km/s) = 3.36573 3.53013 3.44891
# Velocity P-wave (km/s) = 6.35385 6.61101 6.48370
#
# Compressibility (1/GPa) = 0.02113341
#
# Stress axis : x y z
#
# Youngs Moduli (GPa) = 42.64852 89.70232 67.09370
#
# Poissons Ratio (x) = 0.38506 0.48569
# Poissons Ratio (y) = 0.18308 0.17791
# Poissons Ratio (z) = 0.30873 0.23785
#
# Static dielectric constant tensor:
#      x y z
#    x 1.667130 0.000000 0.000000 
#    y 0.000000 1.722860 0.000000 
#    z 0.000000 0.000000 1.737640 
# 
# From -- ./inp_files/4775.got.cif
#   From: 2010.05.17/outbox.cif.g08.bks.cpg/sg37_3_cif.got.tgz:4775.got - 2010.06.03 17:53:42.
