data_PCOD9353951
_publ_section_title
;
Structure prediction by ZEFSAII (Michael W. Deem and Ramdas Pophale) SiO2 
 PCOD9353951
Probable space group: C C C 2
;
_chemical_formula_sum "Si O2"
_cell_formula_units_Z 64
_cell_length_a 8.788196
_cell_length_b 17.540546
_cell_length_c 21.760831
_cell_angle_alpha 90.000000
_cell_angle_beta 90.000000
_cell_angle_gamma 90.000000
_cell_volume 3354.426793
_symmetry_space_group_name_H-M "C C C 2"
_symmetry_group_IT_number 37
_symmetry_cell_setting 'orthorhombic'
loop_
_space_group_symop_operation_xyz
x,y,z
-x,-y,z
-x,y,1/2+z
x,-y,1/2+z
1/2+x,1/2+y,z
1/2-x,1/2-y,z
1/2-x,1/2+y,1/2+z
1/2+x,1/2-y,1/2+z
loop_
_atom_site_type_symbol
_atom_site_label
_atom_site_fract_x
_atom_site_fract_y
_atom_site_fract_z
Si Si1 0.077836 0.583879 0.089410
Si Si2 0.223568 0.428029 0.906907
Si Si3 0.880836 0.595111 0.442833
Si Si4 0.569999 0.245700 0.588977
Si Si5 0.598160 0.702413 0.955777
Si Si6 0.063186 0.082410 0.788023
Si Si7 0.332711 0.332504 0.666745
Si Si8 0.154337 0.186423 0.361078
O O1 0.228852 0.607591 0.127943
O O2 0.000000 0.500000 0.101235
O O3 0.972583 0.657909 0.102271
O O4 0.109486 0.590331 0.016355
O O5 0.194390 0.515532 0.922272
O O6 0.340080 0.384663 0.952958
O O7 0.305869 0.421779 0.840840
O O8 0.051889 0.395660 0.915717
O O9 0.768077 0.655916 0.413474
O O10 0.750000 0.250000 0.593065
O O11 0.525883 0.269781 0.519224
O O12 0.484609 0.306462 0.631331
O O13 0.750000 0.750000 0.946900
O O14 0.489745 0.716006 0.898744
O O15 0.127677 0.129788 0.731334
O O16 0.916322 0.123598 0.817314
O O17 0.000000 0.000000 0.769535
O O18 0.250000 0.250000 0.673846
O O19 0.250000 0.250000 0.325807
#
# Coordination Sequence:
#
# PCOD9353951 Si02
#       8
#     8   8   8   8   8   8   8   8
#     4  11  22  39  65  96 127 161 202 260 320 379
#     4  10  21  37  61  90 127 162 193 254 315 370
#     4  11  20  37  64  95 130 153 202 253 323 377
#     4  10  21  39  64  90 125 162 212 258 315 373
#     4  10  20  34  58  91 129 159 201 251 321 376
#     4  11  24  45  61  87 126 166 210 261 303 367
#     4  10  25  46  63  86 123 173 216 259 306 367
#     4  11  22  36  63  92 121 161 210 255 315 376
#
# _framework density 19.079266000000001
#
# number of rings (size 3 to 8) (size 9 to 14) (size 15 to 20)
#    0.000    1.500    2.500    3.750    0.000    5.500 
#    2.250    2.500    0.000    0.000    0.000    0.000 
#    0.000    0.000    0.000    0.000    0.000    0.000 
#
# Total GULP energy -178392.364272 kJ/mol
# GULP energy per Si atom -5574.761384 kJ/mol
# Density = 1.903584 g / cm^3
# Si number density = 19.079266 Si / 1000 Ang^3
#
#
#
# Elastic Constant Matrix: (Units=GPa)
#
#
# Indices 1 2 3 4 5 6 
#
# 1 41.6920 23.8254 29.5904 0.0000 0.0000 0.0000
# 2 23.8254 97.2996 34.3179 0.0000 0.0000 0.0000
# 3 29.5904 34.3179 64.3203 0.0000 0.0000 0.0000
# 4 0.0000 0.0000 0.0000 24.2727 0.0000 0.0000
# 5 0.0000 0.0000 0.0000 0.0000 -33.8338 0.0000
# 6 0.0000 0.0000 0.0000 0.0000 0.0000 30.7676
#
#
#
# Elastic Compliance Matrix: (Units=1/GPa)
#
#
# Indices 1 2 3 4 5 6 
#
# 1 0.036682 -0.003733 -0.014884 0.000000 0.000000 0.000000
# 2 -0.003733 0.013040 -0.005240 0.000000 0.000000 0.000000
# 3 -0.014884 -0.005240 0.025190 0.000000 0.000000 0.000000
# 4 0.000000 0.000000 0.000000 0.041199 0.000000 0.000000
# 5 0.000000 0.000000 0.000000 0.000000 -0.029556 0.000000
# 6 0.000000 0.000000 0.000000 0.000000 0.000000 0.032502
#
#
# Mechanical properties :
#
#
# Convention : Reuss Voigt Hill
#
# Bulk Modulus (GPa) = 36.76629 42.08658 39.42643
# Shear Modulus (GPa) = 28.43556 11.94651 20.19104
#
# Velocity S-wave (km/s) = 3.86475 2.50502 3.25664
# Velocity P-wave (km/s) = 6.26316 5.52028 5.90342
#
# Compressibility (1/GPa) = 0.02719883
#
# Stress axis : x y z
#
# Youngs Moduli (GPa) = 27.26119 76.68870 39.69763
#
# Poissons Ratio (x) = 0.28625 0.59086
# Poissons Ratio (y) = 0.10175 0.20802
# Poissons Ratio (z) = 0.40576 0.40186
#
# Static dielectric constant tensor:
#      x y z
#    x 1.730950 0.000000 0.000000 
#    y 0.000000 1.734580 0.000000 
#    z 0.000000 0.000000 1.645460 
# 
# From -- ./inp_files/16540.got.cif
#   From: 2010.05.17/outbox.cif.g08.bks.cpg/sg37_9_cif.got.tgz:16540.got - 2010.06.03 17:53:42.
