data_PCOD9353588
_publ_section_title
;
Structure prediction by ZEFSAII (Michael W. Deem and Ramdas Pophale) SiO2 
 PCOD9353588
Probable space group: C C C 2
;
_chemical_formula_sum "Si O2"
_cell_formula_units_Z 56
_cell_length_a 10.704776
_cell_length_b 13.942190
_cell_length_c 18.517346
_cell_angle_alpha 90.000000
_cell_angle_beta 90.000000
_cell_angle_gamma 90.000000
_cell_volume 2763.677243
_symmetry_space_group_name_H-M "C C C 2"
_symmetry_group_IT_number 37
_symmetry_cell_setting 'orthorhombic'
loop_
_space_group_symop_operation_xyz
x,y,z
-x,-y,z
-x,y,1/2+z
x,-y,1/2+z
1/2+x,1/2+y,z
1/2-x,1/2-y,z
1/2-x,1/2+y,1/2+z
1/2+x,1/2-y,1/2+z
loop_
_atom_site_type_symbol
_atom_site_label
_atom_site_fract_x
_atom_site_fract_y
_atom_site_fract_z
Si Si1 0.728465 0.980550 0.721950
Si Si2 0.074372 0.399244 0.851236
Si Si3 0.634577 0.807239 0.260551
Si Si4 0.890018 0.363292 0.511581
Si Si5 0.250000 0.750000 0.073080
Si Si6 0.000000 0.000000 0.164095
Si Si7 0.838220 0.560012 0.559998
Si Si8 0.027293 0.790306 0.618137
O O1 0.681466 0.089444 0.732213
O O2 0.876906 0.978144 0.711147
O O3 0.677482 0.922857 0.790689
O O4 0.669117 0.942295 0.647152
O O5 0.000000 0.500000 0.865763
O O6 0.974910 0.327771 0.816208
O O7 0.123048 0.357476 0.926143
O O8 0.750000 0.750000 0.293774
O O9 0.585463 0.747055 0.192639
O O10 0.804259 0.452135 0.537245
O O11 0.895639 0.263857 0.555049
O O12 0.026840 0.407037 0.531714
O O13 0.246283 0.648058 0.032477
O O14 0.381483 0.741620 0.114875
O O15 0.029240 0.094981 0.118097
#
# Coordination Sequence:
#
# PCOD9353588 Si02
#       8
#     8   8   8   8   4   4   8   8
#     4  11  22  39  64  93 127 169 214 277 324 398
#     4  10  21  38  63  96 129 168 218 267 334 400
#     4  11  22  38  61  96 124 162 216 274 327 389
#     4  10  20  37  62  97 128 166 216 271 327 397
#     4  10  20  32  58  96 116 162 204 262 332 382
#     4  12  24  40  64 100 130 166 226 282 336 388
#     4  10  18  34  58  95 125 154 212 276 321 379
#     4  11  22  38  63  94 127 167 218 275 333 383
#
# _framework density 20.26286
#
# number of rings (size 3 to 8) (size 9 to 14) (size 15 to 20)
#    0.000    1.429    5.714    1.714    4.000    0.000 
#    5.143    0.000    0.000    6.857    0.000    0.000 
#    0.000    0.000    0.000    0.000    0.000    0.000 
#
# Total GULP energy -156195.380623 kJ/mol
# GULP energy per Si atom -5578.406451 kJ/mol
# Density = 2.021674 g / cm^3
# Si number density = 20.262860 Si / 1000 Ang^3
#
#
#
# Elastic Constant Matrix: (Units=GPa)
#
#
# Indices 1 2 3 4 5 6 
#
# 1 86.5026 33.5863 28.7958 0.0000 0.0000 0.0000
# 2 33.5863 167.8437 58.4005 0.0000 0.0000 0.0000
# 3 28.7958 58.4005 120.0203 0.0000 0.0000 0.0000
# 4 0.0000 0.0000 0.0000 -2.4849 0.0000 0.0000
# 5 0.0000 0.0000 0.0000 0.0000 62.4190 0.0000
# 6 0.0000 0.0000 0.0000 0.0000 0.0000 28.1066
#
#
#
# Elastic Compliance Matrix: (Units=1/GPa)
#
#
# Indices 1 2 3 4 5 6 
#
# 1 0.013013 -0.001827 -0.002233 0.000000 0.000000 0.000000
# 2 -0.001827 0.007429 -0.003176 0.000000 0.000000 0.000000
# 3 -0.002233 -0.003176 0.010413 0.000000 0.000000 0.000000
# 4 0.000000 0.000000 0.000000 -0.402430 0.000000 0.000000
# 5 0.000000 0.000000 0.000000 0.000000 0.016021 0.000000
# 6 0.000000 0.000000 0.000000 0.000000 0.000000 0.035579
#
#
# Mechanical properties :
#
#
# Convention : Reuss Voigt Hill
#
# Bulk Modulus (GPa) = 61.04240 68.43689 64.73965
# Shear Modulus (GPa) = -16.66438 34.51373 8.92468
#
# Velocity S-wave (km/s) = -2.87088 4.13158 2.10096
# Velocity P-wave (km/s) = 4.38194 7.52382 6.15667
#
# Compressibility (1/GPa) = 0.01638206
#
# Stress axis : x y z
#
# Youngs Moduli (GPa) = 76.84563 134.61261 96.03083
#
# Poissons Ratio (x) = 0.24593 0.21445
# Poissons Ratio (y) = 0.14039 0.30503
# Poissons Ratio (z) = 0.17161 0.42758
#
# Static dielectric constant tensor:
#      x y z
#    x 1.702320 0.000000 0.000000 
#    y 0.000000 1.804660 0.000000 
#    z 0.000000 0.000000 1.685630 
# 
# From -- ./inp_files/11634.got.cif
#   From: 2010.05.17/outbox.cif.g08.bks.cpg/sg37_6_cif.got.tgz:11634.got - 2010.06.03 17:53:42.
