data_PCOD9353407
_publ_section_title
;
Structure prediction by ZEFSAII (Michael W. Deem and Ramdas Pophale) SiO2 
 PCOD9353407
Probable space group: C M C 21
;
_chemical_formula_sum "Si O2"
_cell_formula_units_Z 28
_cell_length_a 21.000000
_cell_length_b 15.000000
_cell_length_c 9.000000
_cell_angle_alpha 90.000000
_cell_angle_beta 90.000000
_cell_angle_gamma 90.000000
_cell_volume 2835.000000
_symmetry_space_group_name_H-M "C M C 21"
_symmetry_group_IT_number 36
_symmetry_cell_setting 'orthorhombic'
loop_
_space_group_symop_operation_xyz
x,y,z
-x,-y,1/2+z
x,-y,1/2+z
-x,y,z
1/2+x,1/2+y,z
1/2-x,1/2-y,1/2+z
1/2+x,1/2-y,1/2+z
1/2-x,1/2+y,z
loop_
_atom_site_type_symbol
_atom_site_label
_atom_site_fract_x
_atom_site_fract_y
_atom_site_fract_z
Si Si1 0.327375 0.120588 0.577570
Si Si2 0.197815 0.241283 0.581799
Si Si3 0.000000 0.938579 0.900640
Si Si4 0.118791 0.233247 0.878700
Si Si5 0.697048 0.070836 0.921309
Si Si6 0.364656 0.599628 0.373137
Si Si7 0.833509 0.931830 0.547588
Si Si8 0.000000 0.868858 0.245813
O O1 0.266355 0.189685 0.573303
O O2 0.379395 0.177699 0.481755
O O3 0.329009 0.093005 0.754674
O O4 0.322477 0.025647 0.489966
O O5 0.173882 0.237881 0.752110
O O6 0.188040 0.343247 0.528766
O O7 0.158485 0.185621 0.459659
O O8 0.937580 0.896857 0.825053
O O9 0.000000 0.908243 0.076168
O O10 0.000000 0.044069 0.855584
O O11 0.059370 0.195951 0.783119
O O12 0.129854 0.154938 0.996656
O O13 0.773155 0.065151 0.937622
O O14 0.366505 0.523200 0.500526
O O15 0.324056 0.576154 0.225044
#
# Coordination Sequence:
#
# PCOD9353407 Si02
#       8
#     8   8   4   8   8   8   8   4
#     4  12  24  41  65  97 135 175 225 281 346 406
#     4  12  23  40  64  97 134 177 220 282 341 409
#     4  12  24  42  64  97 139 184 234 270 336 404
#     4  12  25  43  65  97 140 179 228 278 340 414
#     4  12  25  40  66  96 135 175 222 281 350 417
#     4  12  24  37  61  94 140 178 223 276 334 407
#     4  12  22  37  61  96 131 179 221 274 340 412
#     4  12  26  44  68 101 139 190 230 284 336 404
#
# _framework density 9.8765429999999999
#
# number of rings (size 3 to 8) (size 9 to 14) (size 15 to 20)
#    0.000    0.000    7.143    4.286    2.000    0.000 
#    0.000    0.000    0.000    4.286    0.000    0.000 
#    0.000    0.000    0.000    0.000    0.000    0.000 
#
# Total GULP energy -156004.019371 kJ/mol
# GULP energy per Si atom -5571.572120 kJ/mol
# Density = 0.985406 g / cm^3
# Si number density = 9.876543 Si / 1000 Ang^3
#
#
#
# Elastic Constant Matrix: (Units=GPa)
#
#
# Indices 1 2 3 4 5 6 
#
# 1 34.6775 14.7462 10.7262 0.0000 0.0000 0.0000
# 2 14.7462 127.5275 36.4867 0.0000 0.0000 0.0000
# 3 10.7262 36.4867 135.3288 0.0000 0.0000 0.0000
# 4 0.0000 0.0000 0.0000 29.3065 0.0000 0.0000
# 5 0.0000 0.0000 0.0000 0.0000 19.0338 0.0000
# 6 0.0000 0.0000 0.0000 0.0000 0.0000 24.9424
#
#
#
# Elastic Compliance Matrix: (Units=1/GPa)
#
#
# Indices 1 2 3 4 5 6 
#
# 1 0.030644 -0.003087 -0.001597 0.000000 0.000000 0.000000
# 2 -0.003087 0.008808 -0.002130 0.000000 0.000000 0.000000
# 3 -0.001597 -0.002130 0.008090 0.000000 0.000000 0.000000
# 4 0.000000 0.000000 0.000000 0.034122 0.000000 0.000000
# 5 0.000000 0.000000 0.000000 0.000000 0.052538 0.000000
# 6 0.000000 0.000000 0.000000 0.000000 0.000000 0.040092
#
#
# Mechanical properties :
#
#
# Convention : Reuss Voigt Hill
#
# Bulk Modulus (GPa) = 29.48544 46.82801 38.15672
# Shear Modulus (GPa) = 25.09717 30.36152 27.72934
#
# Velocity S-wave (km/s) = 3.56834 3.92478 3.75079
# Velocity P-wave (km/s) = 5.65126 6.65557 6.17387
#
# Compressibility (1/GPa) = 0.03391505
#
# Stress axis : x y z
#
# Youngs Moduli (GPa) = 32.63332 113.53599 123.60540
#
# Poissons Ratio (x) = 0.35044 0.19735
# Poissons Ratio (y) = 0.10072 0.26329
# Poissons Ratio (z) = 0.05210 0.24184
#
# Static dielectric constant tensor:
#      x y z
#    x 1.831390 0.000000 0.000000 
#    y 0.000000 1.790030 0.000000 
#    z 0.000000 0.000000 1.683210 
# 
# From -- ./inp_files/5255.got.cif
#   From: 2010.05.17/outbox.ucp.g08.bks.cvg/sg36_3_cif.got.tgz:5255.got - 2010.06.11 10:37:26.
