data_PCOD9353795
_publ_section_title
;
Structure prediction by ZEFSAII (Michael W. Deem and Ramdas Pophale) SiO2 
 PCOD9353795
Probable space group: C C C 2
;
_chemical_formula_sum "Si O2"
_cell_formula_units_Z 64
_cell_length_a 8.782818
_cell_length_b 15.146553
_cell_length_c 24.169070
_cell_angle_alpha 90.000000
_cell_angle_beta 90.000000
_cell_angle_gamma 90.000000
_cell_volume 3215.197324
_symmetry_space_group_name_H-M "C C C 2"
_symmetry_group_IT_number 37
_symmetry_cell_setting 'orthorhombic'
loop_
_space_group_symop_operation_xyz
x,y,z
-x,-y,z
-x,y,1/2+z
x,-y,1/2+z
1/2+x,1/2+y,z
1/2-x,1/2-y,z
1/2-x,1/2+y,1/2+z
1/2+x,1/2-y,1/2+z
loop_
_atom_site_type_symbol
_atom_site_label
_atom_site_fract_x
_atom_site_fract_y
_atom_site_fract_z
Si Si1 0.419426 0.260151 0.997150
Si Si2 0.659008 0.657499 0.178019
Si Si3 0.319286 0.998524 0.876856
Si Si4 0.859452 0.561919 0.990632
Si Si5 0.903780 0.093048 0.801193
Si Si6 0.129444 0.172976 0.597352
Si Si7 0.360354 0.670714 0.376748
Si Si8 0.683812 0.011181 0.605686
O O1 0.250000 0.250000 0.023268
O O2 0.403976 0.320804 0.942141
O O3 0.432589 0.157668 0.976152
O O4 0.543836 0.297002 0.039810
O O5 0.750000 0.750000 0.174131
O O6 0.624768 0.632134 0.241238
O O7 0.503836 0.666114 0.142687
O O8 0.752897 0.574786 0.153190
O O9 0.243122 0.088967 0.858987
O O10 0.500000 0.000000 0.874684
O O11 0.246367 0.926696 0.837505
O O12 0.277131 0.007123 0.942123
O O13 0.775455 0.563453 0.048778
O O14 0.000000 0.500000 0.003767
O O15 0.994531 0.162511 0.838737
O O16 0.000000 0.000000 0.797351
O O17 0.250000 0.250000 0.609925
O O18 0.226631 0.081736 0.598775
O O19 0.250000 0.750000 0.365828
O O20 0.500000 0.000000 0.613866
#
# Coordination Sequence:
#
# PCOD9353795 Si02
#       8
#     8   8   8   8   8   8   8   8
#     4  11  21  40  63  96 136 171 218 274 345 407
#     4  12  26  47  68  97 137 182 230 294 335 402
#     4  10  21  39  65  91 130 171 217 274 333 404
#     4  10  19  36  60  93 131 170 205 271 331 403
#     4  10  24  44  66  92 128 174 230 276 336 405
#     4  12  25  42  69 102 133 182 225 285 345 411
#     4  10  21  41  62  91 129 173 219 275 338 397
#     4  11  24  43  70 100 136 177 231 275 348 409
#
# _framework density 19.905465
#
# number of rings (size 3 to 8) (size 9 to 14) (size 15 to 20)
#    0.000    1.250    2.500    5.250    1.750    2.000 
#    0.000    2.500    0.000    0.000    0.000    0.000 
#    0.000    0.000    0.000    0.000    0.000    0.000 
#
# Total GULP energy -178180.382878 kJ/mol
# GULP energy per Si atom -5568.136965 kJ/mol
# Density = 1.986016 g / cm^3
# Si number density = 19.905465 Si / 1000 Ang^3
#
#
#
# Elastic Constant Matrix: (Units=GPa)
#
#
# Indices 1 2 3 4 5 6 
#
# 1 126.3131 60.4829 76.3308 0.0000 0.0000 0.0000
# 2 60.4829 108.3611 55.3151 0.0000 0.0000 0.0000
# 3 76.3308 55.3151 139.6536 0.0000 0.0000 0.0000
# 4 0.0000 0.0000 0.0000 36.1179 0.0000 0.0000
# 5 0.0000 0.0000 0.0000 0.0000 1.9435 0.0000
# 6 0.0000 0.0000 0.0000 0.0000 0.0000 31.7006
#
#
#
# Elastic Compliance Matrix: (Units=1/GPa)
#
#
# Indices 1 2 3 4 5 6 
#
# 1 0.013512 -0.004728 -0.005513 0.000000 0.000000 0.000000
# 2 -0.004728 0.013221 -0.002653 0.000000 0.000000 0.000000
# 3 -0.005513 -0.002653 0.011224 0.000000 0.000000 0.000000
# 4 0.000000 0.000000 0.000000 0.027687 0.000000 0.000000
# 5 0.000000 0.000000 0.000000 0.000000 0.514548 0.000000
# 6 0.000000 0.000000 0.000000 0.000000 0.000000 0.031545
#
#
# Mechanical properties :
#
#
# Convention : Reuss Voigt Hill
#
# Bulk Modulus (GPa) = 82.16025 84.28727 83.22376
# Shear Modulus (GPa) = 7.79324 26.09900 16.94612
#
# Velocity S-wave (km/s) = 1.98081 3.62491 2.92092
# Velocity P-wave (km/s) = 6.82615 7.74310 7.29904
#
# Compressibility (1/GPa) = 0.01217134
#
# Stress axis : x y z
#
# Youngs Moduli (GPa) = 74.00871 75.63482 89.09202
#
# Poissons Ratio (x) = 0.35759 0.49113
# Poissons Ratio (y) = 0.34990 0.23634
# Poissons Ratio (z) = 0.40798 0.20064
#
# Static dielectric constant tensor:
#      x y z
#    x 1.780580 0.000000 0.000000 
#    y 0.000000 1.687730 0.000000 
#    z 0.000000 0.000000 1.749010 
# 
# From -- ./inp_files/18499.got.cif
#   From: 2010.05.17/outbox.cif.g08.bks.cpg/sg37_10_cif.got.tgz:18499.got - 2010.06.03 17:53:42.
