data_PCOD9353278
_publ_section_title
;
Structure prediction by ZEFSAII (Michael W. Deem and Ramdas Pophale) SiO2 
 PCOD9353278
Probable space group: C M C 21
;
_chemical_formula_sum "Si O2"
_cell_formula_units_Z 24
_cell_length_a 13.988496
_cell_length_b 6.214000
_cell_length_c 8.824191
_cell_angle_alpha 90.000000
_cell_angle_beta 90.000000
_cell_angle_gamma 90.000000
_cell_volume 767.038515
_symmetry_space_group_name_H-M "C M C 21"
_symmetry_group_IT_number 36
_symmetry_cell_setting 'orthorhombic'
loop_
_space_group_symop_operation_xyz
x,y,z
-x,-y,1/2+z
x,-y,1/2+z
-x,y,z
1/2+x,1/2+y,z
1/2-x,1/2-y,1/2+z
1/2+x,1/2-y,1/2+z
1/2-x,1/2+y,z
loop_
_atom_site_type_symbol
_atom_site_label
_atom_site_fract_x
_atom_site_fract_y
_atom_site_fract_z
Si Si1 0.693307 0.979013 0.951850
Si Si2 0.664055 0.305252 0.704613
Si Si3 0.000000 0.150175 0.724056
Si Si4 0.500000 0.939631 0.427642
O O1 0.745814 0.836317 0.826106
O O2 0.611218 0.124348 0.861156
O O3 0.623896 0.875453 0.080018
O O4 0.769612 0.088345 0.060841
O O5 0.589639 0.495823 0.733724
O O6 0.000000 0.323916 0.855585
O O7 0.000000 0.277766 0.567311
#
# Coordination Sequence:
#
# PCOD9353278 Si02
#       4
#     8   8   4   4
#     4  12  27  52  86 131 178 229 289 355 439 537
#     4  12  28  53  87 129 180 231 288 363 442 528
#     4  12  30  58  88 122 172 234 298 370 442 522
#     4  12  28  56  86 118 168 232 300 360 436 524
#
# _framework density 31.289173000000002
#
# number of rings (size 3 to 8) (size 9 to 14) (size 15 to 20)
#    0.000    0.000    0.000    8.000    0.000   10.667 
#    0.000   21.667    0.000    0.000    0.000    0.000 
#    0.000    0.000    0.000    0.000    0.000    0.000 
#
# Total GULP energy -67020.945019 kJ/mol
# GULP energy per Si atom -5585.078752 kJ/mol
# Density = 3.121796 g / cm^3
# Si number density = 31.289173 Si / 1000 Ang^3
#
#
#
# Elastic Constant Matrix: (Units=GPa)
#
#
# Indices 1 2 3 4 5 6 
#
# 1 195.6491 68.1710 88.8926 0.0000 0.0000 0.0000
# 2 68.1710 193.6021 142.6893 0.0000 0.0000 0.0000
# 3 88.8926 142.6893 346.6775 0.0000 0.0000 0.0000
# 4 0.0000 0.0000 0.0000 81.9630 0.0000 0.0000
# 5 0.0000 0.0000 0.0000 0.0000 65.1888 0.0000
# 6 0.0000 0.0000 0.0000 0.0000 0.0000 158.0101
#
#
#
# Elastic Compliance Matrix: (Units=1/GPa)
#
#
# Indices 1 2 3 4 5 6 
#
# 1 0.006044 -0.001415 -0.000967 0.000000 0.000000 0.000000
# 2 -0.001415 0.007746 -0.002825 0.000000 0.000000 0.000000
# 3 -0.000967 -0.002825 0.004295 0.000000 0.000000 0.000000
# 4 0.000000 0.000000 0.000000 0.012201 0.000000 0.000000
# 5 0.000000 0.000000 0.000000 0.000000 0.015340 0.000000
# 6 0.000000 0.000000 0.000000 0.000000 0.000000 0.006329
#
#
# Mechanical properties :
#
#
# Convention : Reuss Voigt Hill
#
# Bulk Modulus (GPa) = 130.38522 148.38162 139.38342
# Shear Modulus (GPa) = 77.01045 90.11077 83.56061
#
# Velocity S-wave (km/s) = 4.96648 5.37232 5.17338
# Velocity P-wave (km/s) = 8.63999 9.27406 8.96263
#
# Compressibility (1/GPa) = 0.00766958
#
# Stress axis : x y z
#
# Youngs Moduli (GPa) = 165.45977 129.10163 232.80958
#
# Poissons Ratio (x) = 0.18272 0.22517
# Poissons Ratio (y) = 0.23417 0.65774
# Poissons Ratio (z) = 0.16003 0.36474
#
# Static dielectric constant tensor:
#      x y z
#    x 2.527560 0.000000 0.000000 
#    y 0.000000 2.829650 0.000000 
#    z 0.000000 0.000000 3.375530 
# 
# From -- ./inp_files/3640.got.cif
#   From: 2010.05.17/outbox.cif.g08.bks.cpg/sg36_2_cif.got.tgz:3640.got - 2010.06.03 17:41:39.
