data_PCOD9353185
_publ_section_title
;
Structure prediction by ZEFSAII (Michael W. Deem and Ramdas Pophale) SiO2 
 PCOD9353185
Probable space group: C M C 21
;
_chemical_formula_sum "Si O2"
_cell_formula_units_Z 48
_cell_length_a 21.817067
_cell_length_b 11.468558
_cell_length_c 9.095106
_cell_angle_alpha 90.000000
_cell_angle_beta 90.000000
_cell_angle_gamma 90.000000
_cell_volume 2275.689185
_symmetry_space_group_name_H-M "C M C 21"
_symmetry_group_IT_number 36
_symmetry_cell_setting 'orthorhombic'
loop_
_space_group_symop_operation_xyz
x,y,z
-x,-y,1/2+z
x,-y,1/2+z
-x,y,z
1/2+x,1/2+y,z
1/2-x,1/2-y,1/2+z
1/2+x,1/2-y,1/2+z
1/2-x,1/2+y,z
loop_
_atom_site_type_symbol
_atom_site_label
_atom_site_fract_x
_atom_site_fract_y
_atom_site_fract_z
Si Si1 0.760930 0.924549 0.064030
Si Si2 0.430560 0.836876 0.393039
Si Si3 0.142374 0.254350 0.654239
Si Si4 0.676843 0.985959 0.809641
Si Si5 0.864957 0.070570 0.916679
Si Si6 0.930862 0.110187 0.213049
O O1 0.802002 0.808867 0.069063
O O2 0.730222 0.945141 0.222420
O O3 0.804663 0.030362 0.008084
O O4 0.706648 0.920961 0.947657
O O5 0.500000 0.883212 0.403525
O O6 0.413860 0.763779 0.540637
O O7 0.378776 0.932877 0.361673
O O8 0.427438 0.744213 0.260846
O O9 0.155688 0.385998 0.698836
O O10 0.136345 0.177264 0.801783
O O11 0.913874 0.093728 0.044058
O O12 0.884756 0.962563 0.814602
O O13 0.000000 0.068429 0.241612
#
# Coordination Sequence:
#
# PCOD9353185 Si02
#       6
#     8   8   8   8   8   8
#     4  12  25  45  70 108 145 185 238 301 371 435
#     4  11  27  52  73 102 148 199 252 301 359 442
#     4  12  27  45  75 107 145 194 241 305 370 437
#     4  12  28  47  71 108 142 195 238 304 367 443
#     4  12  23  43  69 110 145 186 239 306 369 433
#     4  11  23  42  70 101 144 191 244 301 360 428
#
# _framework density 21.092511999999999
#
# number of rings (size 3 to 8) (size 9 to 14) (size 15 to 20)
#    0.000    0.333    6.667    0.500    7.000    3.333 
#    0.000    0.000    0.000    0.000    0.000    0.000 
#    0.000    0.000    0.000    0.000    0.000    0.000 
#
# Total GULP energy -134132.394773 kJ/mol
# GULP energy per Si atom -5588.849782 kJ/mol
# Density = 2.104450 g / cm^3
# Si number density = 21.092512 Si / 1000 Ang^3
#
#
#
# Elastic Constant Matrix: (Units=GPa)
#
#
# Indices 1 2 3 4 5 6 
#
# 1 107.9402 34.4022 49.1067 0.0000 0.0000 0.0000
# 2 34.4022 63.0609 27.8542 0.0000 0.0000 0.0000
# 3 49.1067 27.8542 111.4662 0.0000 0.0000 0.0000
# 4 0.0000 0.0000 0.0000 44.7135 0.0000 0.0000
# 5 0.0000 0.0000 0.0000 0.0000 32.3307 0.0000
# 6 0.0000 0.0000 0.0000 0.0000 0.0000 28.0103
#
#
#
# Elastic Compliance Matrix: (Units=1/GPa)
#
#
# Indices 1 2 3 4 5 6 
#
# 1 0.012891 -0.005085 -0.004408 0.000000 0.000000 0.000000
# 2 -0.005085 0.019831 -0.002715 0.000000 0.000000 0.000000
# 3 -0.004408 -0.002715 0.011592 0.000000 0.000000 0.000000
# 4 0.000000 0.000000 0.000000 0.022365 0.000000 0.000000
# 5 0.000000 0.000000 0.000000 0.000000 0.030930 0.000000
# 6 0.000000 0.000000 0.000000 0.000000 0.000000 0.035701
#
#
# Mechanical properties :
#
#
# Convention : Reuss Voigt Hill
#
# Bulk Modulus (GPa) = 50.26075 56.13260 53.19667
# Shear Modulus (GPa) = 30.42110 32.41784 31.41947
#
# Velocity S-wave (km/s) = 3.80184 3.92463 3.86372
# Velocity P-wave (km/s) = 6.56905 6.87076 6.72160
#
# Compressibility (1/GPa) = 0.01989624
#
# Stress axis : x y z
#
# Youngs Moduli (GPa) = 77.57568 50.42551 86.26690
#
# Poissons Ratio (x) = 0.25642 0.38029
# Poissons Ratio (y) = 0.39449 0.23424
# Poissons Ratio (z) = 0.34197 0.13692
#
# Static dielectric constant tensor:
#      x y z
#    x 1.779330 0.000000 0.000000 
#    y 0.000000 1.750000 0.000000 
#    z 0.000000 0.000000 1.779680 
# 
# From -- ./inp_files/5558.got.cif
#   From: 2010.05.17/outbox.cif.g08.bks.cpg/sg36_3_cif.got.tgz:5558.got - 2010.06.03 17:41:39.
