data_PCOD9353046
_publ_section_title
;
Structure prediction by ZEFSAII (Michael W. Deem and Ramdas Pophale) SiO2 
 PCOD9353046
Probable space group: C M C 21
;
_chemical_formula_sum "Si O2"
_cell_formula_units_Z 40
_cell_length_a 16.058482
_cell_length_b 5.301605
_cell_length_c 18.204360
_cell_angle_alpha 90.000000
_cell_angle_beta 90.000000
_cell_angle_gamma 90.000000
_cell_volume 1549.841450
_symmetry_space_group_name_H-M "C M C 21"
_symmetry_group_IT_number 36
_symmetry_cell_setting 'orthorhombic'
loop_
_space_group_symop_operation_xyz
x,y,z
-x,-y,1/2+z
x,-y,1/2+z
-x,y,z
1/2+x,1/2+y,z
1/2-x,1/2-y,1/2+z
1/2+x,1/2-y,1/2+z
1/2-x,1/2+y,z
loop_
_atom_site_type_symbol
_atom_site_label
_atom_site_fract_x
_atom_site_fract_y
_atom_site_fract_z
Si Si1 0.344581 0.144539 0.960560
Si Si2 0.306830 0.749999 0.740668
Si Si3 0.155419 0.144539 0.020777
Si Si4 0.094678 0.390915 0.161643
Si Si5 0.594678 0.390913 0.819694
O O1 0.349132 0.239158 0.877289
O O2 0.250000 0.114186 0.990669
O O3 0.384135 0.373785 0.006406
O O4 0.384135 0.873785 0.974930
O O5 0.250000 0.499999 0.740668
O O6 0.368533 0.670411 0.806539
O O7 0.368533 0.829588 0.674798
O O8 0.150868 0.239160 0.104048
O O9 0.093354 0.250001 0.240668
O O10 0.000000 0.398474 0.134987
O O11 0.500000 0.398472 0.846350
#
# Coordination Sequence:
#
# PCOD9353046 Si02
#       5
#     8   8   8   8   8
#     4  10  25  45  72 105 152 201 258 319 385 468
#     4  12  27  44  77 110 146 198 252 314 373 452
#     4  10  25  45  72 105 152 201 258 319 385 468
#     4  11  27  50  78 116 161 206 262 327 398 470
#     4  11  27  50  78 116 161 206 262 327 398 470
#
# _framework density 25.809092
#
# number of rings (size 3 to 8) (size 9 to 14) (size 15 to 20)
#    0.000    1.200    2.000    0.600   16.800    1.600 
#    0.000    0.000    0.000    0.000    0.000    0.000 
#    0.000    0.000    0.000    0.000    0.000    0.000 
#
# Total GULP energy -111808.147814 kJ/mol
# GULP energy per Si atom -5590.407391 kJ/mol
# Density = 2.575035 g / cm^3
# Si number density = 25.809092 Si / 1000 Ang^3
#
#
#
# Elastic Constant Matrix: (Units=GPa)
#
#
# Indices 1 2 3 4 5 6 
#
# 1 126.3710 11.8419 19.6837 0.0000 0.0000 0.0000
# 2 11.8419 151.6714 9.3307 0.0000 0.0000 0.0000
# 3 19.6837 9.3307 137.2434 0.0000 0.0000 0.0000
# 4 0.0000 0.0000 0.0000 50.7414 0.0000 0.0000
# 5 0.0000 0.0000 0.0000 0.0000 32.3737 0.0000
# 6 0.0000 0.0000 0.0000 0.0000 0.0000 -61.7503
#
#
#
# Elastic Compliance Matrix: (Units=1/GPa)
#
#
# Indices 1 2 3 4 5 6 
#
# 1 0.008142 -0.000566 -0.001129 0.000000 0.000000 0.000000
# 2 -0.000566 0.006660 -0.000372 0.000000 0.000000 0.000000
# 3 -0.001129 -0.000372 0.007474 0.000000 0.000000 0.000000
# 4 0.000000 0.000000 0.000000 0.019708 0.000000 0.000000
# 5 0.000000 0.000000 0.000000 0.000000 0.030889 0.000000
# 6 0.000000 0.000000 0.000000 0.000000 0.000000 -0.016194
#
#
# Mechanical properties :
#
#
# Convention : Reuss Voigt Hill
#
# Bulk Modulus (GPa) = 55.12139 55.22205 55.17172
# Shear Modulus (GPa) = 74.78289 29.23493 52.00891
#
# Velocity S-wave (km/s) = 5.38872 3.36927 4.49390
# Velocity P-wave (km/s) = 7.75380 6.04804 6.95342
#
# Compressibility (1/GPa) = 0.01814178
#
# Stress axis : x y z
#
# Youngs Moduli (GPa) = 122.81744 150.14403 133.80526
#
# Poissons Ratio (x) = 0.08502 0.15110
# Poissons Ratio (y) = 0.06954 0.04972
# Poissons Ratio (z) = 0.13869 0.05579
#
# Static dielectric constant tensor:
#      x y z
#    x 2.427150 0.000000 0.000000 
#    y 0.000000 2.115190 0.000000 
#    z 0.000000 0.000000 2.112190 
# 
# From -- ./inp_files/14799.got.cif
#   From: 2010.05.17/outbox.cif.g08.bks.cpg/sg36_8_cif.got.tgz:14799.got - 2010.06.03 17:41:39.
