data_PCOD9353474
_publ_section_title
;
Structure prediction by ZEFSAII (Michael W. Deem and Ramdas Pophale) SiO2 
 PCOD9353474
Probable space group: C C C 2
;
_chemical_formula_sum "Si O2"
_cell_formula_units_Z 56
_cell_length_a 21.531702
_cell_length_b 4.926632
_cell_length_c 26.722013
_cell_angle_alpha 90.000000
_cell_angle_beta 90.000000
_cell_angle_gamma 90.000000
_cell_volume 2834.638327
_symmetry_space_group_name_H-M "C C C 2"
_symmetry_group_IT_number 37
_symmetry_cell_setting 'orthorhombic'
loop_
_space_group_symop_operation_xyz
x,y,z
-x,-y,z
-x,y,1/2+z
x,-y,1/2+z
1/2+x,1/2+y,z
1/2-x,1/2-y,z
1/2-x,1/2+y,1/2+z
1/2+x,1/2-y,1/2+z
loop_
_atom_site_type_symbol
_atom_site_label
_atom_site_fract_x
_atom_site_fract_y
_atom_site_fract_z
Si Si1 0.705003 0.999478 0.713090
Si Si2 0.193562 0.568178 0.914420
Si Si3 0.872752 0.933257 0.947959
Si Si4 0.673812 0.251411 0.552104
Si Si5 0.063698 0.152468 0.848828
Si Si6 0.636267 0.150088 0.813217
Si Si7 0.675271 0.248451 0.113998
O O1 0.750000 0.250000 0.696735
O O2 0.663494 0.100566 0.758835
O O3 0.750000 0.750000 0.728608
O O4 0.662721 0.880627 0.668022
O O5 0.250000 0.750000 0.933508
O O6 0.183810 0.257754 0.928057
O O7 0.188053 0.582323 0.854853
O O8 0.137149 0.748355 0.937416
O O9 0.926419 0.843889 0.909188
O O10 0.866856 0.860186 0.005990
O O11 0.750000 0.250000 0.542233
O O12 0.659170 0.447758 0.598957
O O13 0.656403 0.950680 0.569179
O O14 0.079054 0.448099 0.826868
O O15 0.115909 0.956259 0.824700
O O16 0.000000 0.000000 0.837336
O O17 0.750000 0.250000 0.113782
#
# Coordination Sequence:
#
# PCOD9353474 Si02
#       7
#     8   8   8   8   8   8   8
#     4  11  20  33  51  76 109 140 167 201 241 300
#     4  10  18  29  43  68 102 130 155 194 241 301
#     4  10  20  30  47  71  96 131 169 198 247 298
#     4  10  17  28  44  67  99 133 166 200 233 286
#     4  10  21  38  54  73  99 128 172 224 260 301
#     4  10  21  33  52  76  98 132 172 204 255 307
#     4   9  18  29  44  67  99 136 168 193 230 281
#
# _framework density 19.755607000000001
#
# number of rings (size 3 to 8) (size 9 to 14) (size 15 to 20)
#    0.000    2.000    0.000    6.000    0.000    3.429 
#    0.000    0.000    0.000    0.000    0.000    6.000 
#    0.000    0.000    0.000    0.000    0.000    0.000 
#
# Total GULP energy -155939.762749 kJ/mol
# GULP energy per Si atom -5569.277241 kJ/mol
# Density = 1.971064 g / cm^3
# Si number density = 19.755607 Si / 1000 Ang^3
#
#
#
# Elastic Constant Matrix: (Units=GPa)
#
#
# Indices 1 2 3 4 5 6 
#
# 1 18.4800 0.2921 0.7220 0.0000 0.0000 0.0000
# 2 0.2921 98.2901 5.3745 0.0000 0.0000 0.0000
# 3 0.7220 5.3745 112.3636 0.0000 0.0000 0.0000
# 4 0.0000 0.0000 0.0000 23.2954 0.0000 0.0000
# 5 0.0000 0.0000 0.0000 0.0000 9.4288 0.0000
# 6 0.0000 0.0000 0.0000 0.0000 0.0000 18.4364
#
#
#
# Elastic Compliance Matrix: (Units=1/GPa)
#
#
# Indices 1 2 3 4 5 6 
#
# 1 0.054128 -0.000142 -0.000341 0.000000 0.000000 0.000000
# 2 -0.000142 0.010201 -0.000487 0.000000 0.000000 0.000000
# 3 -0.000341 -0.000487 0.008925 0.000000 0.000000 0.000000
# 4 0.000000 0.000000 0.000000 0.042927 0.000000 0.000000
# 5 0.000000 0.000000 0.000000 0.000000 0.106058 0.000000
# 6 0.000000 0.000000 0.000000 0.000000 0.000000 0.054241
#
#
# Mechanical properties :
#
#
# Convention : Reuss Voigt Hill
#
# Bulk Modulus (GPa) = 14.02252 26.87901 20.45076
# Shear Modulus (GPa) = 16.54581 25.08179 20.81380
#
# Velocity S-wave (km/s) = 2.89714 3.56702 3.24939
# Velocity P-wave (km/s) = 4.27839 5.53174 4.94493
#
# Compressibility (1/GPa) = 0.07131386
#
# Stress axis : x y z
#
# Youngs Moduli (GPa) = 18.47466 98.02945 112.04274
#
# Poissons Ratio (x) = 0.01394 0.03821
# Poissons Ratio (y) = 0.00263 0.05457
# Poissons Ratio (z) = 0.00630 0.04774
#
# Static dielectric constant tensor:
#      x y z
#    x 1.737350 0.000000 0.000000 
#    y 0.000000 1.710400 0.000000 
#    z 0.000000 0.000000 1.754620 
# 
# From -- ./inp_files/19091.got.cif
#   From: 2010.05.17/outbox.cif.g08.bks.cpg/sg37_10_cif.got.tgz:19091.got - 2010.06.03 17:53:42.
