data_PCOD9353283
_publ_section_title
;
Structure prediction by ZEFSAII (Michael W. Deem and Ramdas Pophale) SiO2 
 PCOD9353283
Probable space group: C M C 21
;
_chemical_formula_sum "Si O2"
_cell_formula_units_Z 64
_cell_length_a 19.059395
_cell_length_b 27.102704
_cell_length_c 7.099484
_cell_angle_alpha 90.000000
_cell_angle_beta 90.000000
_cell_angle_gamma 90.000000
_cell_volume 3667.317556
_symmetry_space_group_name_H-M "C M C 21"
_symmetry_group_IT_number 36
_symmetry_cell_setting 'orthorhombic'
loop_
_space_group_symop_operation_xyz
x,y,z
-x,-y,1/2+z
x,-y,1/2+z
-x,y,z
1/2+x,1/2+y,z
1/2-x,1/2-y,1/2+z
1/2+x,1/2-y,1/2+z
1/2-x,1/2+y,z
loop_
_atom_site_type_symbol
_atom_site_label
_atom_site_fract_x
_atom_site_fract_y
_atom_site_fract_z
Si Si1 0.173558 0.346922 0.625000
Si Si2 0.919249 0.721780 0.646520
Si Si3 0.080066 0.253655 0.595140
Si Si4 0.795828 0.215719 0.144588
Si Si5 0.702299 0.311306 0.083076
Si Si6 0.079522 0.541722 0.465036
Si Si7 0.825437 0.373851 0.053499
Si Si8 0.421082 0.929572 0.526135
O O1 0.121367 0.301391 0.670543
O O2 0.245043 0.323503 0.544103
O O3 0.186763 0.371077 0.827308
O O4 0.134414 0.386192 0.494115
O O5 0.919253 0.734316 0.870008
O O6 0.870120 0.765887 0.565555
O O7 0.879250 0.670378 0.607740
O O8 0.000000 0.719939 0.584343
O O9 0.123903 0.204167 0.640453
O O10 0.000000 0.251224 0.655831
O O11 0.801957 0.195228 0.355993
O O12 0.750351 0.265742 0.152436
O O13 0.747894 0.359733 0.129522
O O14 0.134569 0.574531 0.580776
O O15 0.076106 0.562780 0.253172
O O16 0.097024 0.483926 0.452641
O O17 0.000000 0.544671 0.544115
O O18 0.500000 0.915232 0.465714
#
# Coordination Sequence:
#
# PCOD9353283 Si02
#       8
#     8   8   8   8   8   8   8   8
#     4   9  16  26  39  52  68  93 122 147 171 202
#     4   9  16  24  35  53  75  96 117 141 170 204
#     4   9  16  24  35  53  75  96 117 141 170 204
#     4   8  14  24  36  50  69  92 116 142 170 200
#     4   8  14  24  36  50  69  92 116 142 170 200
#     4   9  17  27  37  50  68  89 114 144 175 204
#     4   9  16  26  39  52  68  93 122 147 171 202
#     4   9  17  27  37  50  68  89 114 144 175 204
#
# _framework density 17.451447999999999
#
# number of rings (size 3 to 8) (size 9 to 14) (size 15 to 20)
#    0.000    3.250    0.000    0.750    0.000    2.500 
#    0.000    2.500    0.000    0.000    0.000    0.000 
#    0.000    1.000    0.000    0.750    0.000    1.500 
#
# Total GULP energy -178206.280790 kJ/mol
# GULP energy per Si atom -5568.946275 kJ/mol
# Density = 1.741173 g / cm^3
# Si number density = 17.451448 Si / 1000 Ang^3
#
#
#
# Elastic Constant Matrix: (Units=GPa)
#
#
# Indices 1 2 3 4 5 6 
#
# 1 59.6020 27.3886 -8.4849 0.0000 0.0000 0.0000
# 2 27.3886 69.4954 -3.2529 0.0000 0.0000 0.0000
# 3 -8.4849 -3.2529 50.2774 0.0000 0.0000 0.0000
# 4 0.0000 0.0000 0.0000 9.5893 0.0000 0.0000
# 5 0.0000 0.0000 0.0000 0.0000 7.6777 0.0000
# 6 0.0000 0.0000 0.0000 0.0000 0.0000 31.0032
#
#
#
# Elastic Compliance Matrix: (Units=1/GPa)
#
#
# Indices 1 2 3 4 5 6 
#
# 1 0.020932 -0.008109 0.003008 0.000000 0.000000 0.000000
# 2 -0.008109 0.017574 -0.000231 0.000000 0.000000 0.000000
# 3 0.003008 -0.000231 0.020382 0.000000 0.000000 0.000000
# 4 0.000000 0.000000 0.000000 0.104283 0.000000 0.000000
# 5 0.000000 0.000000 0.000000 0.000000 0.130247 0.000000
# 6 0.000000 0.000000 0.000000 0.000000 0.000000 0.032255
#
#
# Mechanical properties :
#
#
# Convention : Reuss Voigt Hill
#
# Bulk Modulus (GPa) = 20.73634 23.40848 22.07241
# Shear Modulus (GPa) = 14.18790 20.56898 17.37844
#
# Velocity S-wave (km/s) = 2.85440 3.43686 3.15908
# Velocity P-wave (km/s) = 4.77195 5.40296 5.09723
#
# Compressibility (1/GPa) = 0.04822452
#
# Stress axis : x y z
#
# Youngs Moduli (GPa) = 47.77299 56.90117 49.06215
#
# Poissons Ratio (x) = 0.46140 -0.14758
# Poissons Ratio (y) = 0.38738 0.01135
# Poissons Ratio (z) = -0.14370 0.01317
#
# Static dielectric constant tensor:
#      x y z
#    x 1.639120 0.000000 0.000000 
#    y 0.000000 1.589080 0.000000 
#    z 0.000000 0.000000 1.697030 
# 
# From -- ./inp_files/4447.got.cif
#   From: 2010.05.17/outbox.cif.g08.bks.cpg/sg36_3_cif.got.tgz:4447.got - 2010.06.03 17:41:39.
