data_PCOD9353969
_publ_section_title
;
Structure prediction by ZEFSAII (Michael W. Deem and Ramdas Pophale) SiO2 
 PCOD9353969
Probable space group: C C C 2
;
_chemical_formula_sum "Si O2"
_cell_formula_units_Z 40
_cell_length_a 20.412886
_cell_length_b 9.671053
_cell_length_c 8.042172
_cell_angle_alpha 90.000000
_cell_angle_beta 90.000000
_cell_angle_gamma 90.000000
_cell_volume 1587.638167
_symmetry_space_group_name_H-M "C C C 2"
_symmetry_group_IT_number 37
_symmetry_cell_setting 'orthorhombic'
loop_
_space_group_symop_operation_xyz
x,y,z
-x,-y,z
-x,y,1/2+z
x,-y,1/2+z
1/2+x,1/2+y,z
1/2-x,1/2-y,z
1/2-x,1/2+y,1/2+z
1/2+x,1/2-y,1/2+z
loop_
_atom_site_type_symbol
_atom_site_label
_atom_site_fract_x
_atom_site_fract_y
_atom_site_fract_z
Si Si1 0.869418 0.177256 0.048450
Si Si2 0.986539 0.839660 0.306642
Si Si3 0.604944 0.233516 0.514671
Si Si4 0.691668 0.570159 0.219092
Si Si5 0.195671 0.624092 0.269863
O O1 0.849555 0.323869 0.119488
O O2 0.853601 0.063799 0.188541
O O3 0.940581 0.159330 0.971027
O O4 0.822316 0.139725 0.894517
O O5 0.943571 0.748712 0.175450
O O6 0.054707 0.776537 0.368161
O O7 0.000000 0.000000 0.258474
O O8 0.664626 0.333349 0.573246
O O9 0.647559 0.113295 0.428085
O O10 0.764611 0.512787 0.224949
O O11 0.250000 0.750000 0.287123
#
# Coordination Sequence:
#
# PCOD9353969 Si02
#       5
#     8   8   8   8   8
#     4  10  20  35  57  86 119 161 200 248 312 367
#     4  11  21  33  60  87 123 159 191 251 334 379
#     4  11  22  36  59  90 125 162 197 253 316 372
#     4  10  20  37  57  79 125 169 196 250 300 372
#     4  10  22  38  53  83 129 164 209 243 290 391
#
# _framework density 25.194656999999999
#
# number of rings (size 3 to 8) (size 9 to 14) (size 15 to 20)
#    0.000    1.600    2.000    4.200    8.400    0.000 
#    0.000   28.000    0.000    0.000    0.000    0.000 
#    0.000  270.400    0.000    0.000    0.000    0.000 
#
# Total GULP energy -111675.146602 kJ/mol
# GULP energy per Si atom -5583.757330 kJ/mol
# Density = 2.513731 g / cm^3
# Si number density = 25.194657 Si / 1000 Ang^3
#
#
#
# Elastic Constant Matrix: (Units=GPa)
#
#
# Indices 1 2 3 4 5 6 
#
# 1 151.2261 52.9837 88.0259 0.0000 0.0000 0.0000
# 2 52.9837 46.9243 46.2292 0.0000 0.0000 0.0000
# 3 88.0259 46.2292 135.8829 0.0000 0.0000 0.0000
# 4 0.0000 0.0000 0.0000 19.0562 0.0000 0.0000
# 5 0.0000 0.0000 0.0000 0.0000 60.7707 0.0000
# 6 0.0000 0.0000 0.0000 0.0000 0.0000 13.7203
#
#
#
# Elastic Compliance Matrix: (Units=1/GPa)
#
#
# Indices 1 2 3 4 5 6 
#
# 1 0.012955 -0.009566 -0.005138 0.000000 0.000000 0.000000
# 2 -0.009566 0.039119 -0.007112 0.000000 0.000000 0.000000
# 3 -0.005138 -0.007112 0.013107 0.000000 0.000000 0.000000
# 4 0.000000 0.000000 0.000000 0.052476 0.000000 0.000000
# 5 0.000000 0.000000 0.000000 0.000000 0.016455 0.000000
# 6 0.000000 0.000000 0.000000 0.000000 0.000000 0.072884
#
#
# Mechanical properties :
#
#
# Convention : Reuss Voigt Hill
#
# Bulk Modulus (GPa) = 46.40490 78.72345 62.56418
# Shear Modulus (GPa) = 19.39410 28.49575 23.94492
#
# Velocity S-wave (km/s) = 2.77748 3.36672 3.08620
# Velocity P-wave (km/s) = 5.36138 6.81373 6.13072
#
# Compressibility (1/GPa) = 0.02154945
#
# Stress axis : x y z
#
# Youngs Moduli (GPa) = 77.19200 25.56334 76.29511
#
# Poissons Ratio (x) = 0.24454 0.39198
# Poissons Ratio (y) = 0.73842 0.54259
# Poissons Ratio (z) = 0.39659 0.18180
#
# Static dielectric constant tensor:
#      x y z
#    x 2.026660 0.000000 0.000000 
#    y 0.000000 1.986360 0.000000 
#    z 0.000000 0.000000 2.058260 
# 
# From -- ./inp_files/4307.got.cif
#   From: 2010.05.17/outbox.cif.g08.bks.cpg/sg37_3_cif.got.tgz:4307.got - 2010.06.03 17:53:42.
