data_PCOD9353649
_publ_section_title
;
Structure prediction by ZEFSAII (Michael W. Deem and Ramdas Pophale) SiO2 
 PCOD9353649
Probable space group: C C C 2
;
_chemical_formula_sum "Si O2"
_cell_formula_units_Z 40
_cell_length_a 15.458381
_cell_length_b 5.807845
_cell_length_c 16.950798
_cell_angle_alpha 90.000000
_cell_angle_beta 90.000000
_cell_angle_gamma 90.000000
_cell_volume 1521.840624
_symmetry_space_group_name_H-M "C C C 2"
_symmetry_group_IT_number 37
_symmetry_cell_setting 'orthorhombic'
loop_
_space_group_symop_operation_xyz
x,y,z
-x,-y,z
-x,y,1/2+z
x,-y,1/2+z
1/2+x,1/2+y,z
1/2-x,1/2-y,z
1/2-x,1/2+y,1/2+z
1/2+x,1/2-y,1/2+z
loop_
_atom_site_type_symbol
_atom_site_label
_atom_site_fract_x
_atom_site_fract_y
_atom_site_fract_z
Si Si1 0.905040 0.371749 0.438010
Si Si2 0.887369 0.648212 0.591787
Si Si3 0.500000 0.500000 0.249431
Si Si4 0.314496 0.455912 0.180483
Si Si5 0.000000 0.500000 0.234892
Si Si6 0.000000 0.000000 0.007535
Si Si7 0.250000 0.750000 0.324550
O O1 0.867079 0.480522 0.519572
O O2 0.827670 0.365558 0.374699
O O3 0.000000 0.500000 0.426273
O O4 0.925286 0.102422 0.453457
O O5 0.918426 0.531620 0.673949
O O6 0.821978 0.853004 0.612567
O O7 0.970288 0.787748 0.559538
O O8 0.416012 0.438356 0.198772
O O9 0.490730 0.759821 0.284232
O O10 0.250000 0.250000 0.158929
O O11 0.281958 0.555134 0.263896
#
# Coordination Sequence:
#
# PCOD9353649 Si02
#       7
#     8   8   4   8   4   4   4
#     4  10  24  48  80 110 159 217 274 340 430 513
#     4  10  20  42  78 112 147 202 274 341 412 493
#     4  10  25  43  78 110 159 209 270 340 431 495
#     4  11  28  47  77 115 165 213 276 347 423 512
#     4  10  18  38  74 118 146 194 266 346 406 496
#     4  10  19  43  78 112 151 207 274 332 421 503
#     4  12  30  52  68 120 168 212 276 336 426 518
#
# _framework density 26.283961999999999
#
# number of rings (size 3 to 8) (size 9 to 14) (size 15 to 20)
#    0.000    1.600    3.000    2.400    5.600    5.600 
#    7.200    0.000    0.000    0.000    0.000    0.000 
#    0.000    0.000    0.000    0.000    0.000    0.000 
#
# Total GULP energy -111505.660822 kJ/mol
# GULP energy per Si atom -5575.283041 kJ/mol
# Density = 2.622414 g / cm^3
# Si number density = 26.283962 Si / 1000 Ang^3
#
#
#
# Elastic Constant Matrix: (Units=GPa)
#
#
# Indices 1 2 3 4 5 6 
#
# 1 162.7694 44.6777 57.0247 0.0000 0.0000 0.0000
# 2 44.6777 182.9918 59.7371 0.0000 0.0000 0.0000
# 3 57.0247 59.7371 137.5960 0.0000 0.0000 0.0000
# 4 0.0000 0.0000 0.0000 35.2498 0.0000 0.0000
# 5 0.0000 0.0000 0.0000 0.0000 26.4670 0.0000
# 6 0.0000 0.0000 0.0000 0.0000 0.0000 61.4236
#
#
#
# Elastic Compliance Matrix: (Units=1/GPa)
#
#
# Indices 1 2 3 4 5 6 
#
# 1 0.007320 -0.000928 -0.002631 0.000000 0.000000 0.000000
# 2 -0.000928 0.006485 -0.002431 0.000000 0.000000 0.000000
# 3 -0.002631 -0.002431 0.009413 0.000000 0.000000 0.000000
# 4 0.000000 0.000000 0.000000 0.028369 0.000000 0.000000
# 5 0.000000 0.000000 0.000000 0.000000 0.037783 0.000000
# 6 0.000000 0.000000 0.000000 0.000000 0.000000 0.016280
#
#
# Mechanical properties :
#
#
# Convention : Reuss Voigt Hill
#
# Bulk Modulus (GPa) = 88.97807 89.58179 89.27993
# Shear Modulus (GPa) = 41.19429 46.08926 43.64178
#
# Velocity S-wave (km/s) = 3.96318 4.19204 4.07922
# Velocity P-wave (km/s) = 7.40733 7.58862 7.49852
#
# Compressibility (1/GPa) = 0.01123872
#
# Stress axis : x y z
#
# Youngs Moduli (GPa) = 136.60961 154.20496 106.23454
#
# Poissons Ratio (x) = 0.14317 0.27946
# Poissons Ratio (y) = 0.12684 0.25822
# Poissons Ratio (z) = 0.35937 0.37481
#
# Static dielectric constant tensor:
#      x y z
#    x 2.096130 0.000000 0.000000 
#    y 0.000000 2.187930 0.000000 
#    z 0.000000 0.000000 2.060540 
# 
# From -- ./inp_files/15329.got.cif
#   From: 2010.05.17/outbox.cif.g08.bks.cpg/sg37_8_cif.got.tgz:15329.got - 2010.06.03 17:53:42.
