data_PCOD9353510
_publ_section_title
;
Structure prediction by ZEFSAII (Michael W. Deem and Ramdas Pophale) SiO2 
 PCOD9353510
Probable space group: C C C 2
;
_chemical_formula_sum "Si O2"
_cell_formula_units_Z 40
_cell_length_a 11.110475
_cell_length_b 8.488656
_cell_length_c 18.190132
_cell_angle_alpha 90.000000
_cell_angle_beta 90.000000
_cell_angle_gamma 90.000000
_cell_volume 1715.565924
_symmetry_space_group_name_H-M "C C C 2"
_symmetry_group_IT_number 37
_symmetry_cell_setting 'orthorhombic'
loop_
_space_group_symop_operation_xyz
x,y,z
-x,-y,z
-x,y,1/2+z
x,-y,1/2+z
1/2+x,1/2+y,z
1/2-x,1/2-y,z
1/2-x,1/2+y,1/2+z
1/2+x,1/2-y,1/2+z
loop_
_atom_site_type_symbol
_atom_site_label
_atom_site_fract_x
_atom_site_fract_y
_atom_site_fract_z
Si Si1 0.623079 0.692034 0.347790
Si Si2 0.424451 0.662496 0.683232
Si Si3 0.699660 0.523066 0.046258
Si Si4 0.867688 0.834055 0.894353
Si Si5 0.624167 0.795518 0.591872
O O1 0.750000 0.750000 0.380002
O O2 0.618244 0.725650 0.260955
O O3 0.625614 0.504555 0.357455
O O4 0.496370 0.748340 0.382201
O O5 0.500000 0.500000 0.696094
O O6 0.327618 0.608031 0.622940
O O7 0.511710 0.788906 0.644253
O O8 0.618357 0.362554 0.041869
O O9 0.834862 0.451164 0.048678
O O10 0.661084 0.630306 0.979397
O O11 0.750000 0.750000 0.862995
O O12 0.750000 0.750000 0.634509
#
# Coordination Sequence:
#
# PCOD9353510 Si02
#       5
#     8   8   8   8   8
#     4  11  27  43  65  95 138 186 225 271 339 410
#     4  10  17  37  62  95 122 168 221 272 330 400
#     4   8  19  34  62  97 121 163 216 282 332 385
#     4  11  25  43  67  97 135 180 226 282 340 405
#     4   7  17  29  62  99 117 155 214 277 330 388
#
# _framework density 23.315920999999999
#
# number of rings (size 3 to 8) (size 9 to 14) (size 15 to 20)
#    1.200    1.200    2.000    0.000   11.200    4.000 
#    0.000    0.000    0.000    2.400    0.000    0.000 
#    0.000    0.000    0.000    0.000    0.000    0.000 
#
# Total GULP energy -111519.078215 kJ/mol
# GULP energy per Si atom -5575.953911 kJ/mol
# Density = 2.326285 g / cm^3
# Si number density = 23.315921 Si / 1000 Ang^3
#
#
#
# Elastic Constant Matrix: (Units=GPa)
#
#
# Indices 1 2 3 4 5 6 
#
# 1 164.0167 59.1237 33.5093 0.0000 0.0000 0.0000
# 2 59.1237 35.0073 18.9859 0.0000 0.0000 0.0000
# 3 33.5093 18.9859 100.3434 0.0000 0.0000 0.0000
# 4 0.0000 0.0000 0.0000 25.7111 0.0000 0.0000
# 5 0.0000 0.0000 0.0000 0.0000 37.8549 0.0000
# 6 0.0000 0.0000 0.0000 0.0000 0.0000 42.1145
#
#
#
# Elastic Compliance Matrix: (Units=1/GPa)
#
#
# Indices 1 2 3 4 5 6 
#
# 1 0.015591 -0.026196 -0.000250 0.000000 0.000000 0.000000
# 2 -0.026196 0.075846 -0.005603 0.000000 0.000000 0.000000
# 3 -0.000250 -0.005603 0.011109 0.000000 0.000000 0.000000
# 4 0.000000 0.000000 0.000000 0.038894 0.000000 0.000000
# 5 0.000000 0.000000 0.000000 0.000000 0.026417 0.000000
# 6 0.000000 0.000000 0.000000 0.000000 0.000000 0.023745
#
#
# Mechanical properties :
#
#
# Convention : Reuss Voigt Hill
#
# Bulk Modulus (GPa) = 26.00841 58.06725 42.03783
# Shear Modulus (GPa) = 18.62091 33.65266 26.13679
#
# Velocity S-wave (km/s) = 2.82908 3.80325 3.35174
# Velocity P-wave (km/s) = 4.67446 6.65168 5.74871
#
# Compressibility (1/GPa) = 0.03844911
#
# Stress axis : x y z
#
# Youngs Moduli (GPa) = 64.13976 13.18458 90.01407
#
# Poissons Ratio (x) = 0.34538 0.02251
# Poissons Ratio (y) = 1.68020 0.50433
# Poissons Ratio (z) = 0.01604 0.07387
#
# Static dielectric constant tensor:
#      x y z
#    x 1.948150 0.000000 0.000000 
#    y 0.000000 1.820650 0.000000 
#    z 0.000000 0.000000 1.899540 
# 
# From -- ./inp_files/14231.got.cif
#   From: 2010.05.17/outbox.cif.g08.bks.cpg/sg37_8_cif.got.tgz:14231.got - 2010.06.03 17:53:42.
