data_PCOD9353529
_publ_section_title
;
Structure prediction by ZEFSAII (Michael W. Deem and Ramdas Pophale) SiO2 
 PCOD9353529
Probable space group: C C C 2
;
_chemical_formula_sum "Si O2"
_cell_formula_units_Z 48
_cell_length_a 6.903315
_cell_length_b 30.657527
_cell_length_c 9.200153
_cell_angle_alpha 90.000000
_cell_angle_beta 90.000000
_cell_angle_gamma 90.000000
_cell_volume 1947.107188
_symmetry_space_group_name_H-M "C C C 2"
_symmetry_group_IT_number 37
_symmetry_cell_setting 'orthorhombic'
loop_
_space_group_symop_operation_xyz
x,y,z
-x,-y,z
-x,y,1/2+z
x,-y,1/2+z
1/2+x,1/2+y,z
1/2-x,1/2-y,z
1/2-x,1/2+y,1/2+z
1/2+x,1/2-y,1/2+z
loop_
_atom_site_type_symbol
_atom_site_label
_atom_site_fract_x
_atom_site_fract_y
_atom_site_fract_z
Si Si1 0.097810 0.353611 0.390950
Si Si2 0.052106 0.157425 0.605722
Si Si3 0.320054 0.439528 0.669711
Si Si4 0.231033 0.510793 0.450076
Si Si5 0.230368 0.800877 0.381841
Si Si6 0.109790 0.589235 0.628356
O O1 0.267039 0.337083 0.494557
O O2 0.185161 0.379816 0.255697
O O3 0.945487 0.317524 0.341429
O O4 0.961029 0.385364 0.485825
O O5 0.068422 0.106141 0.650197
O O6 0.095438 0.186867 0.745341
O O7 0.865170 0.173589 0.517730
O O8 0.322112 0.467953 0.522875
O O9 0.340690 0.469286 0.811932
O O10 0.094950 0.426883 0.689445
O O11 0.229417 0.547670 0.576653
O O12 0.000000 0.500000 0.420518
O O13 0.250000 0.750000 0.412414
#
# Coordination Sequence:
#
# PCOD9353529 Si02
#       6
#     8   8   8   8   8   8
#     4  11  22  44  73 109 151 201 246 316 391 453
#     4  11  28  50  75 115 152 201 253 319 399 470
#     4  10  20  36  60 104 152 194 258 309 361 447
#     4  10  18  29  61 109 150 204 268 311 354 446
#     4  12  29  50  79 110 150 195 254 327 396 482
#     4  10  18  34  64 102 148 198 258 302 368 439
#
# _framework density 24.651955999999998
#
# number of rings (size 3 to 8) (size 9 to 14) (size 15 to 20)
#    0.000    1.333    5.000    1.500    9.333    0.000 
#    0.000    0.000    0.000    8.000    0.000    0.000 
#    0.000    0.000    0.000    0.000    0.000    0.000 
#
# Total GULP energy -134392.374291 kJ/mol
# GULP energy per Si atom -5599.682262 kJ/mol
# Density = 2.459585 g / cm^3
# Si number density = 24.651956 Si / 1000 Ang^3
#
#
#
# Elastic Constant Matrix: (Units=GPa)
#
#
# Indices 1 2 3 4 5 6 
#
# 1 111.3698 57.0204 39.5487 0.0000 0.0000 0.0000
# 2 57.0204 114.4717 62.5705 0.0000 0.0000 0.0000
# 3 39.5487 62.5705 159.4573 0.0000 0.0000 0.0000
# 4 0.0000 0.0000 0.0000 19.5475 0.0000 0.0000
# 5 0.0000 0.0000 0.0000 0.0000 40.4200 0.0000
# 6 0.0000 0.0000 0.0000 0.0000 0.0000 26.3172
#
#
#
# Elastic Compliance Matrix: (Units=1/GPa)
#
#
# Indices 1 2 3 4 5 6 
#
# 1 0.012135 -0.005601 -0.000812 0.000000 0.000000 0.000000
# 2 -0.005601 0.013706 -0.003989 0.000000 0.000000 0.000000
# 3 -0.000812 -0.003989 0.008038 0.000000 0.000000 0.000000
# 4 0.000000 0.000000 0.000000 0.051158 0.000000 0.000000
# 5 0.000000 0.000000 0.000000 0.000000 0.024740 0.000000
# 6 0.000000 0.000000 0.000000 0.000000 0.000000 0.037998
#
#
# Mechanical properties :
#
#
# Convention : Reuss Voigt Hill
#
# Bulk Modulus (GPa) = 76.48039 78.17532 77.32786
# Shear Modulus (GPa) = 28.91222 32.33420 30.62321
#
# Velocity S-wave (km/s) = 3.42836 3.62557 3.52834
# Velocity P-wave (km/s) = 6.83834 7.02188 6.93072
#
# Compressibility (1/GPa) = 0.01307525
#
# Stress axis : x y z
#
# Youngs Moduli (GPa) = 82.40613 72.96009 124.40947
#
# Poissons Ratio (x) = 0.40864 0.10102
# Poissons Ratio (y) = 0.46154 0.49628
# Poissons Ratio (z) = 0.06691 0.29105
#
# Static dielectric constant tensor:
#      x y z
#    x 2.014330 0.000000 0.000000 
#    y 0.000000 2.038770 0.000000 
#    z 0.000000 0.000000 1.950700 
# 
# From -- ./inp_files/2403.got.cif
#   From: 2010.05.17/outbox.cif.g08.bks.cpg/sg37_2_cif.got.tgz:2403.got - 2010.06.03 17:53:42.
