data_PCOD9353809
_publ_section_title
;
Structure prediction by ZEFSAII (Michael W. Deem and Ramdas Pophale) SiO2 
 PCOD9353809
Probable space group: C C C 2
;
_chemical_formula_sum "Si O2"
_cell_formula_units_Z 32
_cell_length_a 18.398491
_cell_length_b 13.447941
_cell_length_c 5.143423
_cell_angle_alpha 90.000000
_cell_angle_beta 90.000000
_cell_angle_gamma 90.000000
_cell_volume 1272.595087
_symmetry_space_group_name_H-M "C C C 2"
_symmetry_group_IT_number 37
_symmetry_cell_setting 'orthorhombic'
loop_
_space_group_symop_operation_xyz
x,y,z
-x,-y,z
-x,y,1/2+z
x,-y,1/2+z
1/2+x,1/2+y,z
1/2-x,1/2-y,z
1/2-x,1/2+y,1/2+z
1/2+x,1/2-y,1/2+z
loop_
_atom_site_type_symbol
_atom_site_label
_atom_site_fract_x
_atom_site_fract_y
_atom_site_fract_z
Si Si1 0.590590 0.561932 0.686670
Si Si2 0.541954 0.226663 0.976869
Si Si3 0.744410 0.129808 0.159344
Si Si4 0.812167 0.334828 0.670609
O O1 0.576350 0.473821 0.480587
O O2 0.551932 0.657099 0.556369
O O3 0.675379 0.591418 0.709740
O O4 0.518931 0.191741 0.267030
O O5 0.615683 0.202116 0.816572
O O6 0.750000 0.250000 0.119455
O O7 0.684595 0.120445 0.384192
O O8 0.721775 0.089897 0.878115
O O9 0.750000 0.250000 0.628861
#
# Coordination Sequence:
#
# PCOD9353809 Si02
#       4
#     8   8   8   8
#     4  12  25  39  58  90 130 174 216 251 308 394
#     4  12  25  39  58  90 130 174 216 251 308 394
#     4  10  19  36  64  81 108 160 217 267 322 344
#     4  10  19  36  64  81 108 160 217 267 322 344
#
# _framework density 25.145468999999999
#
# number of rings (size 3 to 8) (size 9 to 14) (size 15 to 20)
#    0.000    1.000    5.000    4.500    7.000    3.000 
#    0.000    0.000    0.000    0.000    0.000    0.000 
#    0.000   70.000    0.000    0.000    0.000    0.000 
#
# Total GULP energy -89154.094088 kJ/mol
# GULP energy per Si atom -5572.130881 kJ/mol
# Density = 2.508824 g / cm^3
# Si number density = 25.145469 Si / 1000 Ang^3
#
#
#
# Elastic Constant Matrix: (Units=GPa)
#
#
# Indices 1 2 3 4 5 6 
#
# 1 126.7139 16.6423 11.5088 0.0000 0.0000 0.0000
# 2 16.6423 47.4049 -18.0828 0.0000 0.0000 0.0000
# 3 11.5088 -18.0828 188.1069 0.0000 0.0000 0.0000
# 4 0.0000 0.0000 0.0000 5.5307 0.0000 0.0000
# 5 0.0000 0.0000 0.0000 0.0000 20.2493 0.0000
# 6 0.0000 0.0000 0.0000 0.0000 0.0000 20.1942
#
#
#
# Elastic Compliance Matrix: (Units=1/GPa)
#
#
# Indices 1 2 3 4 5 6 
#
# 1 0.008395 -0.003263 -0.000827 0.000000 0.000000 0.000000
# 2 -0.003263 0.023166 0.002427 0.000000 0.000000 0.000000
# 3 -0.000827 0.002427 0.005600 0.000000 0.000000 0.000000
# 4 0.000000 0.000000 0.000000 0.180809 0.000000 0.000000
# 5 0.000000 0.000000 0.000000 0.000000 0.049384 0.000000
# 6 0.000000 0.000000 0.000000 0.000000 0.000000 0.049519
#
#
# Mechanical properties :
#
#
# Convention : Reuss Voigt Hill
#
# Bulk Modulus (GPa) = 29.55594 42.48470 36.02032
# Shear Modulus (GPa) = 15.08388 32.67200 23.87794
#
# Velocity S-wave (km/s) = 2.45187 3.60852 3.08489
# Velocity P-wave (km/s) = 4.44916 5.85612 5.20044
#
# Compressibility (1/GPa) = 0.03383415
#
# Stress axis : x y z
#
# Youngs Moduli (GPa) = 119.11167 43.16664 178.57105
#
# Poissons Ratio (x) = 0.14085 0.14774
# Poissons Ratio (y) = 0.38866 -0.43332
# Poissons Ratio (z) = 0.09854 -0.10475
#
# Static dielectric constant tensor:
#      x y z
#    x 2.204670 0.000000 0.000000 
#    y 0.000000 1.805800 0.000000 
#    z 0.000000 0.000000 2.079720 
# 
# From -- ./inp_files/413.got.cif
#   From: 2010.05.17/outbox.cif.g08.bks.cpg/sg37_1_cif.got.tgz:413.got - 2010.06.03 17:53:42.
