data_PCOD9353817
_publ_section_title
;
Structure prediction by ZEFSAII (Michael W. Deem and Ramdas Pophale) SiO2 
 PCOD9353817
Probable space group: C C C 2
;
_chemical_formula_sum "Si O2"
_cell_formula_units_Z 64
_cell_length_a 9.304192
_cell_length_b 15.582423
_cell_length_c 22.530707
_cell_angle_alpha 90.000000
_cell_angle_beta 90.000000
_cell_angle_gamma 90.000000
_cell_volume 3266.543705
_symmetry_space_group_name_H-M "C C C 2"
_symmetry_group_IT_number 37
_symmetry_cell_setting 'orthorhombic'
loop_
_space_group_symop_operation_xyz
x,y,z
-x,-y,z
-x,y,1/2+z
x,-y,1/2+z
1/2+x,1/2+y,z
1/2-x,1/2-y,z
1/2-x,1/2+y,1/2+z
1/2+x,1/2-y,1/2+z
loop_
_atom_site_type_symbol
_atom_site_label
_atom_site_fract_x
_atom_site_fract_y
_atom_site_fract_z
Si Si1 0.347407 0.676914 0.898060
Si Si2 0.651835 0.667164 0.837746
Si Si3 0.982889 0.337915 0.116903
Si Si4 0.943368 0.805630 0.528398
Si Si5 0.768981 0.900702 0.050062
Si Si6 0.897598 0.201747 0.199296
Si Si7 0.324228 0.512750 0.425028
Si Si8 0.195339 0.932677 0.111853
O O1 0.250000 0.750000 0.870596
O O2 0.490893 0.670445 0.861096
O O3 0.276848 0.583421 0.907558
O O4 0.401622 0.710649 0.961635
O O5 0.750000 0.750000 0.854063
O O6 0.627428 0.673598 0.766920
O O7 0.705827 0.580606 0.871495
O O8 0.123746 0.369199 0.081729
O O9 0.910901 0.273625 0.069889
O O10 0.007834 0.275291 0.174704
O O11 0.863313 0.411963 0.126732
O O12 0.852537 0.886009 0.551345
O O13 0.110984 0.829173 0.537101
O O14 0.828126 0.968737 0.097992
O O15 0.757182 0.948922 0.985896
O O16 0.750000 0.250000 0.183021
O O17 0.899934 0.115318 0.160917
O O18 0.500000 0.500000 0.433876
#
# Coordination Sequence:
#
# PCOD9353817 Si02
#       8
#     8   8   8   8   8   8   8   8
#     4  11  22  39  60  84 121 165 201 250 313 370
#     4  10  21  40  66  88 111 165 215 259 301 359
#     4  10  22  34  56  87 117 152 192 251 293 360
#     4  11  20  35  54  78 118 159 188 227 305 373
#     4  12  20  33  55  90 124 145 191 251 307 350
#     4   8  18  40  62  82 117 160 212 239 295 382
#     4  10  20  38  57  87 127 158 201 251 306 379
#     4  10  19  37  57  82 114 160 192 233 300 369
#
# _framework density 19.592575
#
# number of rings (size 3 to 8) (size 9 to 14) (size 15 to 20)
#    0.000    1.750    3.750    3.000    1.750    0.000 
#    0.000   11.875    0.000    3.000    0.000    0.000 
#    0.000    0.000    0.000    0.000    0.000    0.000 
#
# Total GULP energy -178138.364386 kJ/mol
# GULP energy per Si atom -5566.823887 kJ/mol
# Density = 1.954798 g / cm^3
# Si number density = 19.592575 Si / 1000 Ang^3
#
#
#
# Elastic Constant Matrix: (Units=GPa)
#
#
# Indices 1 2 3 4 5 6 
#
# 1 61.7051 20.7441 7.6882 0.0000 0.0000 0.0000
# 2 20.7441 91.9090 34.9172 0.0000 0.0000 0.0000
# 3 7.6882 34.9172 93.1829 0.0000 0.0000 0.0000
# 4 0.0000 0.0000 0.0000 22.7165 0.0000 0.0000
# 5 0.0000 0.0000 0.0000 0.0000 18.2440 0.0000
# 6 0.0000 0.0000 0.0000 0.0000 0.0000 30.5275
#
#
#
# Elastic Compliance Matrix: (Units=1/GPa)
#
#
# Indices 1 2 3 4 5 6 
#
# 1 0.017537 -0.003974 0.000042 0.000000 0.000000 0.000000
# 2 -0.003974 0.013587 -0.004763 0.000000 0.000000 0.000000
# 3 0.000042 -0.004763 0.012513 0.000000 0.000000 0.000000
# 4 0.000000 0.000000 0.000000 0.044021 0.000000 0.000000
# 5 0.000000 0.000000 0.000000 0.000000 0.054813 0.000000
# 6 0.000000 0.000000 0.000000 0.000000 0.000000 0.032757
#
#
# Mechanical properties :
#
#
# Convention : Reuss Voigt Hill
#
# Bulk Modulus (GPa) = 38.10057 41.49957 39.80007
# Shear Modulus (GPa) = 24.83030 26.52744 25.67887
#
# Velocity S-wave (km/s) = 3.56382 3.68360 3.62421
# Velocity P-wave (km/s) = 6.03515 6.27050 6.15395
#
# Compressibility (1/GPa) = 0.02624632
#
# Stress axis : x y z
#
# Youngs Moduli (GPa) = 57.02259 73.59990 79.91681
#
# Poissons Ratio (x) = 0.29250 -0.00338
# Poissons Ratio (y) = 0.22662 0.38067
# Poissons Ratio (z) = -0.00241 0.35058
#
# Static dielectric constant tensor:
#      x y z
#    x 1.783870 0.000000 0.000000 
#    y 0.000000 1.746040 0.000000 
#    z 0.000000 0.000000 1.721150 
# 
# From -- ./inp_files/18466.got.cif
#   From: 2010.05.17/outbox.cif.g08.bks.cpg/sg37_10_cif.got.tgz:18466.got - 2010.06.03 17:53:42.
