data_PCOD9353353
_publ_section_title
;
Structure prediction by ZEFSAII (Michael W. Deem and Ramdas Pophale) SiO2 
 PCOD9353353
Probable space group: C M C 21
;
_chemical_formula_sum "Si O2"
_cell_formula_units_Z 32
_cell_length_a 9.000000
_cell_length_b 30.000000
_cell_length_c 12.000000
_cell_angle_alpha 90.000000
_cell_angle_beta 90.000000
_cell_angle_gamma 90.000000
_cell_volume 3240.000000
_symmetry_space_group_name_H-M "C M C 21"
_symmetry_group_IT_number 36
_symmetry_cell_setting 'orthorhombic'
loop_
_space_group_symop_operation_xyz
x,y,z
-x,-y,1/2+z
x,-y,1/2+z
-x,y,z
1/2+x,1/2+y,z
1/2-x,1/2-y,1/2+z
1/2+x,1/2-y,1/2+z
1/2-x,1/2+y,z
loop_
_atom_site_type_symbol
_atom_site_label
_atom_site_fract_x
_atom_site_fract_y
_atom_site_fract_z
Si Si1 0.831628 0.929014 0.416090
Si Si2 0.822628 0.278193 0.357670
Si Si3 0.831282 0.164787 0.031939
Si Si4 0.672092 0.071106 0.692803
Si Si5 0.319871 0.318346 0.913635
Si Si6 0.820413 0.893124 0.750253
Si Si7 0.823336 0.470441 0.627419
Si Si8 0.822736 0.164391 0.661992
O O1 0.834048 0.876709 0.445981
O O2 0.712872 0.937038 0.321152
O O3 0.776254 0.953773 0.525507
O O4 0.000000 0.941969 0.384454
O O5 0.772400 0.298497 0.476687
O O6 0.771927 0.226709 0.351561
O O7 0.752743 0.308213 0.260969
O O8 0.000000 0.280000 0.349433
O O9 0.000000 0.181906 0.044212
O O10 0.788307 0.141010 0.147556
O O11 0.500000 0.083278 0.678539
O O12 0.772766 0.112838 0.659456
O O13 0.698983 0.023220 0.637969
O O14 0.500000 0.318831 0.908055
O O15 0.273466 0.364863 0.857898
O O16 0.278484 0.315750 0.042497
O O17 0.735725 0.939391 0.728835
O O18 0.000000 0.900727 0.749658
O O19 0.000000 0.462192 0.612356
O O20 0.000000 0.166568 0.675319
#
# Coordination Sequence:
#
# PCOD9353353 Si02
#       8
#     8   8   8   8   8   8   8   8
#     4  10  20  36  59  85 114 152 199 247 295 353
#     4  11  22  37  60  87 117 155 197 244 303 360
#     4   9  18  33  57  85 112 145 192 249 292 343
#     4  11  23  39  60  87 121 159 198 250 308 358
#     4   9  22  41  60  86 122 162 201 251 304 357
#     4   9  19  39  62  84 116 158 206 250 296 354
#     4  10  22  38  58  88 124 158 198 249 305 362
#     4  11  23  41  62  88 122 157 203 252 301 363
#
# _framework density 9.8765429999999999
#
# number of rings (size 3 to 8) (size 9 to 14) (size 15 to 20)
#    0.000    2.000    1.250    2.625    1.750    5.000 
#    0.000    6.875    0.000    0.000    0.000    0.000 
#    0.000    0.000    0.000    0.000    0.000    0.000 
#
# Total GULP energy -178530.480420 kJ/mol
# GULP energy per Si atom -5579.077513 kJ/mol
# Density = 0.985406 g / cm^3
# Si number density = 9.876543 Si / 1000 Ang^3
#
#
#
# Elastic Constant Matrix: (Units=GPa)
#
#
# Indices 1 2 3 4 5 6 
#
# 1 44.6293 31.6868 11.1705 0.0000 0.0000 0.0000
# 2 31.6868 82.4138 15.9539 0.0000 0.0000 0.0000
# 3 11.1705 15.9539 43.8485 0.0000 0.0000 0.0000
# 4 0.0000 0.0000 0.0000 11.4154 0.0000 0.0000
# 5 0.0000 0.0000 0.0000 0.0000 18.1956 0.0000
# 6 0.0000 0.0000 0.0000 0.0000 0.0000 18.3534
#
#
#
# Elastic Compliance Matrix: (Units=1/GPa)
#
#
# Indices 1 2 3 4 5 6 
#
# 1 0.031423 -0.011330 -0.003883 0.000000 0.000000 0.000000
# 2 -0.011330 0.017138 -0.003349 0.000000 0.000000 0.000000
# 3 -0.003883 -0.003349 0.025014 0.000000 0.000000 0.000000
# 4 0.000000 0.000000 0.000000 0.087601 0.000000 0.000000
# 5 0.000000 0.000000 0.000000 0.000000 0.054958 0.000000
# 6 0.000000 0.000000 0.000000 0.000000 0.000000 0.054486
#
#
# Mechanical properties :
#
#
# Convention : Reuss Voigt Hill
#
# Bulk Modulus (GPa) = 27.43423 32.05713 29.74568
# Shear Modulus (GPa) = 15.63015 17.06489 16.34752
#
# Velocity S-wave (km/s) = 2.81601 2.94242 2.87991
# Velocity P-wave (km/s) = 4.94894 5.27333 5.11370
#
# Compressibility (1/GPa) = 0.03645082
#
# Stress axis : x y z
#
# Youngs Moduli (GPa) = 31.82389 58.34820 39.97831
#
# Poissons Ratio (x) = 0.66109 0.15522
# Poissons Ratio (y) = 0.36057 0.13390
# Poissons Ratio (z) = 0.12356 0.19543
#
# Static dielectric constant tensor:
#      x y z
#    x 1.665220 0.000000 0.000000 
#    y 0.000000 1.699220 0.000000 
#    z 0.000000 0.000000 1.739430 
# 
# From -- ./inp_files/7243.got.cif
#   From: 2010.05.17/outbox.ucp.g08.bks.cvg/sg36_4_cif.got.tgz:7243.got - 2010.06.11 10:37:26.
