data_PCOD9353230
_publ_section_title
;
Structure prediction by ZEFSAII (Michael W. Deem and Ramdas Pophale) SiO2 
 PCOD9353230
Probable space group: C M C 21
;
_chemical_formula_sum "Si O2"
_cell_formula_units_Z 48
_cell_length_a 18.272411
_cell_length_b 13.624134
_cell_length_c 8.564893
_cell_angle_alpha 90.000000
_cell_angle_beta 90.000000
_cell_angle_gamma 90.000000
_cell_volume 2132.193934
_symmetry_space_group_name_H-M "C M C 21"
_symmetry_group_IT_number 36
_symmetry_cell_setting 'orthorhombic'
loop_
_space_group_symop_operation_xyz
x,y,z
-x,-y,1/2+z
x,-y,1/2+z
-x,y,z
1/2+x,1/2+y,z
1/2-x,1/2-y,1/2+z
1/2+x,1/2-y,1/2+z
1/2-x,1/2+y,z
loop_
_atom_site_type_symbol
_atom_site_label
_atom_site_fract_x
_atom_site_fract_y
_atom_site_fract_z
Si Si1 0.083929 0.449817 0.336720
Si Si2 0.847101 0.864324 0.284390
Si Si3 0.083528 0.261664 0.530806
Si Si4 0.327348 0.084874 0.526640
Si Si5 0.192264 0.052249 0.094288
Si Si6 0.727847 0.282003 0.841175
O O1 0.087932 0.377101 0.487732
O O2 0.130857 0.411793 0.190614
O O3 0.115046 0.552338 0.395288
O O4 0.000000 0.455364 0.288147
O O5 0.896590 0.782114 0.200571
O O6 0.857758 0.899107 0.461510
O O7 0.765004 0.818538 0.285053
O O8 0.848047 0.964079 0.183971
O O9 0.148666 0.221919 0.420869
O O10 0.000000 0.232255 0.491953
O O11 0.286817 0.181258 0.467941
O O12 0.263995 0.001377 0.524291
O O13 0.221682 0.136229 0.208366
#
# Coordination Sequence:
#
# PCOD9353230 Si02
#       6
#     8   8   8   8   8   8
#     4  11  25  43  67 104 154 196 236 304 379 445
#     4  12  24  44  70 107 137 195 242 306 365 437
#     4  11  26  47  68 104 151 192 240 308 371 428
#     4  12  21  41  69 106 140 191 244 301 366 444
#     4  12  23  41  71 104 139 176 254 302 358 424
#     4  12  24  42  76 107 141 190 250 309 360 440
#
# _framework density 22.512022999999999
#
# number of rings (size 3 to 8) (size 9 to 14) (size 15 to 20)
#    0.000    0.333    5.000    4.500    2.333    0.000 
#    0.000    5.000    0.000    0.000    0.000    0.000 
#    0.000    0.000    0.000    0.000    0.000    0.000 
#
# Total GULP energy -134191.820992 kJ/mol
# GULP energy per Si atom -5591.325875 kJ/mol
# Density = 2.246078 g / cm^3
# Si number density = 22.512023 Si / 1000 Ang^3
#
#
#
# Elastic Constant Matrix: (Units=GPa)
#
#
# Indices 1 2 3 4 5 6 
#
# 1 107.2721 24.7488 23.1207 0.0000 0.0000 0.0000
# 2 24.7488 75.4277 32.9523 0.0000 0.0000 0.0000
# 3 23.1207 32.9523 106.2881 0.0000 0.0000 0.0000
# 4 0.0000 0.0000 0.0000 44.7159 0.0000 0.0000
# 5 0.0000 0.0000 0.0000 0.0000 36.9767 0.0000
# 6 0.0000 0.0000 0.0000 0.0000 0.0000 25.7989
#
#
#
# Elastic Compliance Matrix: (Units=1/GPa)
#
#
# Indices 1 2 3 4 5 6 
#
# 1 0.010256 -0.002765 -0.001374 0.000000 0.000000 0.000000
# 2 -0.002765 0.016080 -0.004384 0.000000 0.000000 0.000000
# 3 -0.001374 -0.004384 0.011066 0.000000 0.000000 0.000000
# 4 0.000000 0.000000 0.000000 0.022363 0.000000 0.000000
# 5 0.000000 0.000000 0.000000 0.000000 0.027044 0.000000
# 6 0.000000 0.000000 0.000000 0.000000 0.000000 0.038761
#
#
# Mechanical properties :
#
#
# Convention : Reuss Voigt Hill
#
# Bulk Modulus (GPa) = 49.12224 50.07016 49.59620
# Shear Modulus (GPa) = 33.46666 35.37602 34.42134
#
# Velocity S-wave (km/s) = 3.85984 3.96842 3.91451
# Velocity P-wave (km/s) = 6.46006 6.57934 6.51997
#
# Compressibility (1/GPa) = 0.02035738
#
# Stress axis : x y z
#
# Youngs Moduli (GPa) = 97.50296 62.18856 90.36414
#
# Poissons Ratio (x) = 0.17195 0.12414
# Poissons Ratio (y) = 0.26960 0.39614
# Poissons Ratio (z) = 0.13395 0.27262
#
# Static dielectric constant tensor:
#      x y z
#    x 1.801880 0.000000 0.000000 
#    y 0.000000 1.881910 0.000000 
#    z 0.000000 0.000000 1.883030 
# 
# From -- ./inp_files/4656.got.cif
#   From: 2010.05.17/outbox.cif.g08.bks.cpg/sg36_3_cif.got.tgz:4656.got - 2010.06.03 17:41:39.
