data_PCOD9353224
_publ_section_title
;
Structure prediction by ZEFSAII (Michael W. Deem and Ramdas Pophale) SiO2 
 PCOD9353224
Probable space group: C M C 21
;
_chemical_formula_sum "Si O2"
_cell_formula_units_Z 40
_cell_length_a 11.174317
_cell_length_b 17.472202
_cell_length_c 8.427373
_cell_angle_alpha 90.000000
_cell_angle_beta 90.000000
_cell_angle_gamma 90.000000
_cell_volume 1645.359663
_symmetry_space_group_name_H-M "C M C 21"
_symmetry_group_IT_number 36
_symmetry_cell_setting 'orthorhombic'
loop_
_space_group_symop_operation_xyz
x,y,z
-x,-y,1/2+z
x,-y,1/2+z
-x,y,z
1/2+x,1/2+y,z
1/2-x,1/2-y,1/2+z
1/2+x,1/2-y,1/2+z
1/2-x,1/2+y,z
loop_
_atom_site_type_symbol
_atom_site_label
_atom_site_fract_x
_atom_site_fract_y
_atom_site_fract_z
Si Si1 0.288033 0.250583 0.461140
Si Si2 0.360159 0.963716 0.494726
Si Si3 0.500000 0.538744 0.284098
Si Si4 0.760199 0.595426 0.320387
Si Si5 0.500000 0.622376 0.943680
Si Si6 0.637418 0.161173 0.763818
O O1 0.299055 0.182784 0.333311
O O2 0.387025 0.318257 0.446738
O O3 0.294912 0.204016 0.624154
O O4 0.161042 0.288232 0.421029
O O5 0.500000 0.949950 0.523409
O O6 0.287850 0.934147 0.644181
O O7 0.325164 0.921137 0.330209
O O8 0.336601 0.050952 0.452369
O O9 0.621646 0.575319 0.354993
O O10 0.500000 0.445934 0.310871
O O11 0.500000 0.570546 0.103335
O O12 0.500000 0.159152 0.717882
#
# Coordination Sequence:
#
# PCOD9353224 Si02
#       6
#     8   8   4   8   4   8
#     4  12  26  46  77 108 155 193 260 327 391 458
#     4  11  25  45  75 110 155 201 264 314 391 472
#     4  12  26  50  78 104 158 202 254 312 392 482
#     4  12  26  45  78 112 154 212 258 326 391 471
#     4  12  28  50  76 110 148 200 254 324 386 470
#     4  11  24  46  71 104 149 199 248 321 386 462
#
# _framework density 24.310793
#
# number of rings (size 3 to 8) (size 9 to 14) (size 15 to 20)
#    0.000    0.400    1.000    7.800    4.200    3.200 
#    1.800    2.000    0.000    0.000    0.000    0.000 
#    0.000    0.000    0.000    0.000    0.000    0.000 
#
# Total GULP energy -111814.904333 kJ/mol
# GULP energy per Si atom -5590.745217 kJ/mol
# Density = 2.425546 g / cm^3
# Si number density = 24.310793 Si / 1000 Ang^3
#
#
#
# Elastic Constant Matrix: (Units=GPa)
#
#
# Indices 1 2 3 4 5 6 
#
# 1 80.5415 25.5256 19.2248 0.0000 0.0000 0.0000
# 2 25.5256 185.5716 50.8260 0.0000 0.0000 0.0000
# 3 19.2248 50.8260 73.5713 0.0000 0.0000 0.0000
# 4 0.0000 0.0000 0.0000 55.1388 0.0000 0.0000
# 5 0.0000 0.0000 0.0000 0.0000 27.6632 0.0000
# 6 0.0000 0.0000 0.0000 0.0000 0.0000 33.7152
#
#
#
# Elastic Compliance Matrix: (Units=1/GPa)
#
#
# Indices 1 2 3 4 5 6 
#
# 1 0.013419 -0.001092 -0.002752 0.000000 0.000000 0.000000
# 2 -0.001092 0.006735 -0.004368 0.000000 0.000000 0.000000
# 3 -0.002752 -0.004368 0.017329 0.000000 0.000000 0.000000
# 4 0.000000 0.000000 0.000000 0.018136 0.000000 0.000000
# 5 0.000000 0.000000 0.000000 0.000000 0.036149 0.000000
# 6 0.000000 0.000000 0.000000 0.000000 0.000000 0.029660
#
#
# Mechanical properties :
#
#
# Convention : Reuss Voigt Hill
#
# Bulk Modulus (GPa) = 47.48456 58.98190 53.23323
# Shear Modulus (GPa) = 34.51336 39.57731 37.04534
#
# Velocity S-wave (km/s) = 3.77194 4.03919 3.90785
# Velocity P-wave (km/s) = 6.20844 6.78732 6.50432
#
# Compressibility (1/GPa) = 0.02105948
#
# Stress axis : x y z
#
# Youngs Moduli (GPa) = 74.52150 148.47369 57.70775
#
# Poissons Ratio (x) = 0.16214 0.15882
# Poissons Ratio (y) = 0.08138 0.25204
# Poissons Ratio (z) = 0.20509 0.64847
#
# Static dielectric constant tensor:
#      x y z
#    x 1.884320 0.000000 0.000000 
#    y 0.000000 2.030990 0.000000 
#    z 0.000000 0.000000 1.967670 
# 
# From -- ./inp_files/3104.got.cif
#   From: 2010.05.17/outbox.cif.g08.bks.cpg/sg36_2_cif.got.tgz:3104.got - 2010.06.03 17:41:39.
