data_PCOD9353584
_publ_section_title
;
Structure prediction by ZEFSAII (Michael W. Deem and Ramdas Pophale) SiO2 
 PCOD9353584
Probable space group: C C C 2
;
_chemical_formula_sum "Si O2"
_cell_formula_units_Z 40
_cell_length_a 7.879634
_cell_length_b 17.116790
_cell_length_c 13.739036
_cell_angle_alpha 90.000000
_cell_angle_beta 90.000000
_cell_angle_gamma 90.000000
_cell_volume 1853.039297
_symmetry_space_group_name_H-M "C C C 2"
_symmetry_group_IT_number 37
_symmetry_cell_setting 'orthorhombic'
loop_
_space_group_symop_operation_xyz
x,y,z
-x,-y,z
-x,y,1/2+z
x,-y,1/2+z
1/2+x,1/2+y,z
1/2-x,1/2-y,z
1/2-x,1/2+y,1/2+z
1/2+x,1/2-y,1/2+z
loop_
_atom_site_type_symbol
_atom_site_label
_atom_site_fract_x
_atom_site_fract_y
_atom_site_fract_z
Si Si1 0.623502 0.437412 0.563500
Si Si2 0.664701 0.046972 0.176739
Si Si3 0.011407 0.371006 0.000023
Si Si4 0.621418 0.189346 0.311339
Si Si5 0.552818 0.728421 0.133684
O O1 0.500000 0.500000 0.511031
O O2 0.689910 0.484805 0.657598
O O3 0.796404 0.406317 0.511855
O O4 0.529141 0.359700 0.598987
O O5 0.610054 0.076828 0.067832
O O6 0.700772 0.118987 0.247492
O O7 0.500000 0.000000 0.214187
O O8 0.992663 0.287198 0.050655
O O9 0.995357 0.353210 0.886403
O O10 0.750000 0.250000 0.364343
O O11 0.534242 0.245562 0.232929
O O12 0.750000 0.750000 0.145967
#
# Coordination Sequence:
#
# PCOD9353584 Si02
#       5
#     8   8   8   8   8
#     4  10  18  34  56  80 107 137 176 228 270 302
#     4   9  20  36  55  78 109 144 177 216 269 325
#     4   9  20  38  55  74 107 148 179 209 264 331
#     4  11  20  35  57  80 106 142 182 219 263 319
#     4   9  19  37  56  76 107 143 178 218 265 319
#
# _framework density 21.586158000000001
#
# number of rings (size 3 to 8) (size 9 to 14) (size 15 to 20)
#    0.000    2.400    0.000    4.200    0.000    2.400 
#    0.000   13.000    0.000    0.000    0.000    0.000 
#    0.000    0.000    0.000    0.000    0.000    0.000 
#
# Total GULP energy -111459.332749 kJ/mol
# GULP energy per Si atom -5572.966637 kJ/mol
# Density = 2.153703 g / cm^3
# Si number density = 21.586158 Si / 1000 Ang^3
#
#
#
# Elastic Constant Matrix: (Units=GPa)
#
#
# Indices 1 2 3 4 5 6 
#
# 1 23.8807 17.0243 -7.1382 0.0000 0.0000 0.0000
# 2 17.0243 168.7477 25.1671 0.0000 0.0000 0.0000
# 3 -7.1382 25.1671 74.1912 0.0000 0.0000 0.0000
# 4 0.0000 0.0000 0.0000 -2.3700 0.0000 0.0000
# 5 0.0000 0.0000 0.0000 0.0000 13.1600 0.0000
# 6 0.0000 0.0000 0.0000 0.0000 0.0000 20.3197
#
#
#
# Elastic Compliance Matrix: (Units=1/GPa)
#
#
# Indices 1 2 3 4 5 6 
#
# 1 0.047999 -0.005826 0.006594 0.000000 0.000000 0.000000
# 2 -0.005826 0.006949 -0.002918 0.000000 0.000000 0.000000
# 3 0.006594 -0.002918 0.015103 0.000000 0.000000 0.000000
# 4 0.000000 0.000000 0.000000 -0.421941 0.000000 0.000000
# 5 0.000000 0.000000 0.000000 0.000000 0.075988 0.000000
# 6 0.000000 0.000000 0.000000 0.000000 0.000000 0.049213
#
#
# Mechanical properties :
#
#
# Convention : Reuss Voigt Hill
#
# Bulk Modulus (GPa) = 15.20852 37.43621 26.32236
# Shear Modulus (GPa) = -24.94109 21.67304 -1.63403
#
# Velocity S-wave (km/s) = -3.40284 3.17207 -0.87099
# Velocity P-wave (km/s) = 2.89452 5.54945 3.34799
#
# Compressibility (1/GPa) = 0.06575261
#
# Stress axis : x y z
#
# Youngs Moduli (GPa) = 20.83366 143.90729 66.21234
#
# Poissons Ratio (x) = 0.83840 -0.43663
# Poissons Ratio (y) = 0.12138 0.19319
# Poissons Ratio (z) = -0.13739 0.41988
#
# Static dielectric constant tensor:
#      x y z
#    x 1.880420 0.000000 0.000000 
#    y 0.000000 1.819490 0.000000 
#    z 0.000000 0.000000 1.766260 
# 
# From -- ./inp_files/6113.got.cif
#   From: 2010.05.17/outbox.cif.g08.bks.cpg/sg37_4_cif.got.tgz:6113.got - 2010.06.03 17:53:42.
