data_PCOD9353739
_publ_section_title
;
Structure prediction by ZEFSAII (Michael W. Deem and Ramdas Pophale) SiO2 
 PCOD9353739
Probable space group: C C C 2
;
_chemical_formula_sum "Si O2"
_cell_formula_units_Z 40
_cell_length_a 9.863001
_cell_length_b 13.409285
_cell_length_c 14.879213
_cell_angle_alpha 90.000000
_cell_angle_beta 90.000000
_cell_angle_gamma 90.000000
_cell_volume 1967.862090
_symmetry_space_group_name_H-M "C C C 2"
_symmetry_group_IT_number 37
_symmetry_cell_setting 'orthorhombic'
loop_
_space_group_symop_operation_xyz
x,y,z
-x,-y,z
-x,y,1/2+z
x,-y,1/2+z
1/2+x,1/2+y,z
1/2-x,1/2-y,z
1/2-x,1/2+y,1/2+z
1/2+x,1/2-y,1/2+z
loop_
_atom_site_type_symbol
_atom_site_label
_atom_site_fract_x
_atom_site_fract_y
_atom_site_fract_z
Si Si1 0.406926 0.280846 0.514800
Si Si2 0.518259 0.612402 0.347241
Si Si3 0.247255 0.637232 0.716807
Si Si4 0.165935 0.077183 0.673327
Si Si5 0.970667 0.608245 0.645473
O O1 0.250000 0.250000 0.493996
O O2 0.493232 0.310979 0.428172
O O3 0.392340 0.373086 0.584089
O O4 0.476339 0.192489 0.570422
O O5 0.500000 0.500000 0.382772
O O6 0.669160 0.632404 0.308688
O O7 0.579698 0.387671 0.259851
O O8 0.250000 0.750000 0.679750
O O9 0.317237 0.543122 0.665892
O O10 0.087218 0.617217 0.720058
O O11 0.320205 0.113994 0.684621
O O12 0.000000 0.500000 0.603449
#
# Coordination Sequence:
#
# PCOD9353739 Si02
#       5
#     8   8   8   8   8
#     4  10  20  36  62  86 117 158 193 239 297 354
#     4  10  21  35  59  91 116 148 195 243 292 346
#     4  10  19  34  60  86 114 152 195 239 289 345
#     4   9  20  38  60  87 119 154 195 242 292 347
#     4   9  19  37  63  86 112 156 197 237 295 352
#
# _framework density 20.326627999999999
#
# number of rings (size 3 to 8) (size 9 to 14) (size 15 to 20)
#    0.000    2.400    0.000    1.800    0.000    4.000 
#    0.000    0.000    0.000  188.400    0.000    0.000 
#    0.000    0.000    0.000    0.000    0.000    0.000 
#
# Total GULP energy -111400.880435 kJ/mol
# GULP energy per Si atom -5570.044022 kJ/mol
# Density = 2.028036 g / cm^3
# Si number density = 20.326628 Si / 1000 Ang^3
#
#
#
# Elastic Constant Matrix: (Units=GPa)
#
#
# Indices 1 2 3 4 5 6 
#
# 1 110.9886 34.9969 51.5052 0.0000 0.0000 0.0000
# 2 34.9969 126.0249 54.5181 0.0000 0.0000 0.0000
# 3 51.5052 54.5181 76.6729 0.0000 0.0000 0.0000
# 4 0.0000 0.0000 0.0000 15.9365 0.0000 0.0000
# 5 0.0000 0.0000 0.0000 0.0000 13.0134 0.0000
# 6 0.0000 0.0000 0.0000 0.0000 0.0000 23.4427
#
#
#
# Elastic Compliance Matrix: (Units=1/GPa)
#
#
# Indices 1 2 3 4 5 6 
#
# 1 0.013096 0.000244 -0.008971 0.000000 0.000000 0.000000
# 2 0.000244 0.011465 -0.008316 0.000000 0.000000 0.000000
# 3 -0.008971 -0.008316 0.024981 0.000000 0.000000 0.000000
# 4 0.000000 0.000000 0.000000 0.062749 0.000000 0.000000
# 5 0.000000 0.000000 0.000000 0.000000 0.076844 0.000000
# 6 0.000000 0.000000 0.000000 0.000000 0.000000 0.042657
#
#
# Mechanical properties :
#
#
# Convention : Reuss Voigt Hill
#
# Bulk Modulus (GPa) = 64.69578 66.19187 65.44383
# Shear Modulus (GPa) = 18.44816 21.98958 20.21887
#
# Velocity S-wave (km/s) = 3.01589 3.29266 3.15731
# Velocity P-wave (km/s) = 6.63510 6.86224 6.74963
#
# Compressibility (1/GPa) = 0.01545696
#
# Stress axis : x y z
#
# Youngs Moduli (GPa) = 76.35961 87.22536 40.02976
#
# Poissons Ratio (x) = -0.02128 0.35910
# Poissons Ratio (y) = -0.01863 0.33288
# Poissons Ratio (z) = 0.68500 0.72534
#
# Static dielectric constant tensor:
#      x y z
#    x 1.760060 0.000000 0.000000 
#    y 0.000000 1.799250 0.000000 
#    z 0.000000 0.000000 1.665970 
# 
# From -- ./inp_files/11383.got.cif
#   From: 2010.05.17/outbox.cif.g08.bks.cpg/sg37_6_cif.got.tgz:11383.got - 2010.06.03 17:53:42.
