data_PCOD9353703
_publ_section_title
;
Structure prediction by ZEFSAII (Michael W. Deem and Ramdas Pophale) SiO2 
 PCOD9353703
Probable space group: C C C 2
;
_chemical_formula_sum "Si O2"
_cell_formula_units_Z 48
_cell_length_a 14.573316
_cell_length_b 18.004597
_cell_length_c 8.430695
_cell_angle_alpha 90.000000
_cell_angle_beta 90.000000
_cell_angle_gamma 90.000000
_cell_volume 2212.102084
_symmetry_space_group_name_H-M "C C C 2"
_symmetry_group_IT_number 37
_symmetry_cell_setting 'orthorhombic'
loop_
_space_group_symop_operation_xyz
x,y,z
-x,-y,z
-x,y,1/2+z
x,-y,1/2+z
1/2+x,1/2+y,z
1/2-x,1/2-y,z
1/2-x,1/2+y,1/2+z
1/2+x,1/2-y,1/2+z
loop_
_atom_site_type_symbol
_atom_site_label
_atom_site_fract_x
_atom_site_fract_y
_atom_site_fract_z
Si Si1 0.025949 0.914527 0.540710
Si Si2 0.053153 0.403007 0.632719
Si Si3 0.773626 0.329595 0.070595
Si Si4 0.883796 0.442451 0.484657
Si Si5 0.643597 0.386616 0.832863
Si Si6 0.196747 0.942223 0.332155
O O1 0.081393 0.872944 0.678474
O O2 0.098239 0.917459 0.395846
O O3 0.930885 0.883731 0.475426
O O4 0.000000 0.000000 0.589010
O O5 0.116915 0.336984 0.574486
O O6 0.092189 0.473399 0.532726
O O7 0.074516 0.422825 0.813495
O O8 0.945021 0.395241 0.605994
O O9 0.750000 0.250000 0.140882
O O10 0.733106 0.395951 0.181617
O O11 0.727523 0.338357 0.898179
O O12 0.775675 0.431721 0.465865
O O13 0.684414 0.469726 0.806924
#
# Coordination Sequence:
#
# PCOD9353703 Si02
#       6
#     8   8   8   8   8   8
#     4  10  20  33  61  94 120 150 205 261 310 372
#     4  10  20  35  57  86 118 154 197 262 301 368
#     4  11  24  41  60  90 130 170 206 263 332 381
#     4  10  19  32  56  87 115 149 206 251 302 346
#     4  11  20  37  61  91 123 161 211 260 313 378
#     4  10  20  36  61  89 118 161 208 260 310 378
#
# _framework density 21.698817999999999
#
# number of rings (size 3 to 8) (size 9 to 14) (size 15 to 20)
#    0.000    1.667    1.667    6.500    2.333    1.333 
#    0.000    7.500    0.000    0.000    0.000    0.000 
#    0.000    0.000    0.000    0.000    0.000    0.000 
#
# Total GULP energy -133926.760522 kJ/mol
# GULP energy per Si atom -5580.281688 kJ/mol
# Density = 2.164943 g / cm^3
# Si number density = 21.698818 Si / 1000 Ang^3
#
#
#
# Elastic Constant Matrix: (Units=GPa)
#
#
# Indices 1 2 3 4 5 6 
#
# 1 93.0137 18.0072 -3.3440 0.0000 0.0000 0.0000
# 2 18.0072 41.1493 0.5988 0.0000 0.0000 0.0000
# 3 -3.3440 0.5988 62.6039 0.0000 0.0000 0.0000
# 4 0.0000 0.0000 0.0000 8.6612 0.0000 0.0000
# 5 0.0000 0.0000 0.0000 0.0000 38.6347 0.0000
# 6 0.0000 0.0000 0.0000 0.0000 0.0000 16.5439
#
#
#
# Elastic Compliance Matrix: (Units=1/GPa)
#
#
# Indices 1 2 3 4 5 6 
#
# 1 0.011775 -0.005163 0.000678 0.000000 0.000000 0.000000
# 2 -0.005163 0.026569 -0.000530 0.000000 0.000000 0.000000
# 3 0.000678 -0.000530 0.016015 0.000000 0.000000 0.000000
# 4 0.000000 0.000000 0.000000 0.115458 0.000000 0.000000
# 5 0.000000 0.000000 0.000000 0.000000 0.025883 0.000000
# 6 0.000000 0.000000 0.000000 0.000000 0.000000 0.060445
#
#
# Mechanical properties :
#
#
# Convention : Reuss Voigt Hill
#
# Bulk Modulus (GPa) = 22.55811 25.25455 23.90633
# Shear Modulus (GPa) = 17.79678 24.86828 21.33253
#
# Velocity S-wave (km/s) = 2.86697 3.38903 3.13888
# Velocity P-wave (km/s) = 4.62363 5.19403 4.91711
#
# Compressibility (1/GPa) = 0.04432996
#
# Stress axis : x y z
#
# Youngs Moduli (GPa) = 84.92590 37.63829 62.44244
#
# Poissons Ratio (x) = 0.19431 -0.04236
# Poissons Ratio (y) = 0.43844 0.03309
# Poissons Ratio (z) = -0.05761 0.01994
#
# Static dielectric constant tensor:
#      x y z
#    x 1.840730 0.000000 0.000000 
#    y 0.000000 1.916450 0.000000 
#    z 0.000000 0.000000 1.846290 
# 
# From -- ./inp_files/3573.got.cif
#   From: 2010.05.17/outbox.cif.g08.bks.cpg/sg37_2_cif.got.tgz:3573.got - 2010.06.03 17:53:42.
