data_PCOD9353322
_publ_section_title
;
Structure prediction by ZEFSAII (Michael W. Deem and Ramdas Pophale) SiO2 
 PCOD9353322
Probable space group: C M C 21
;
_chemical_formula_sum "Si O2"
_cell_formula_units_Z 32
_cell_length_a 9.000000
_cell_length_b 30.000000
_cell_length_c 12.000000
_cell_angle_alpha 90.000000
_cell_angle_beta 90.000000
_cell_angle_gamma 90.000000
_cell_volume 3240.000000
_symmetry_space_group_name_H-M "C M C 21"
_symmetry_group_IT_number 36
_symmetry_cell_setting 'orthorhombic'
loop_
_space_group_symop_operation_xyz
x,y,z
-x,-y,1/2+z
x,-y,1/2+z
-x,y,z
1/2+x,1/2+y,z
1/2-x,1/2-y,1/2+z
1/2+x,1/2-y,1/2+z
1/2-x,1/2+y,z
loop_
_atom_site_type_symbol
_atom_site_label
_atom_site_fract_x
_atom_site_fract_y
_atom_site_fract_z
Si Si1 0.820559 0.835963 0.445190
Si Si2 0.678769 0.984107 0.971978
Si Si3 0.822757 0.325725 0.841651
Si Si4 0.676765 0.972000 0.717827
Si Si5 0.321101 0.240872 0.525948
Si Si6 0.677080 0.380421 0.661149
Si Si7 0.679875 0.834185 0.202096
Si Si8 0.823115 0.108899 0.519559
O O1 0.777367 0.791786 0.514736
O O2 0.784518 0.876148 0.530029
O O3 0.737680 0.834653 0.327973
O O4 0.000000 0.835342 0.426965
O O5 0.500000 0.975339 0.974486
O O6 0.709707 0.996871 0.838844
O O7 0.779127 0.940957 0.991305
O O8 0.708361 0.009847 0.090902
O O9 0.780357 0.280689 0.906219
O O10 0.741751 0.338559 0.728959
O O11 0.000000 0.327380 0.827553
O O12 0.767122 0.361834 0.930790
O O13 0.500000 0.965132 0.720207
O O14 0.758313 0.924525 0.717337
O O15 0.500000 0.239498 0.532240
O O16 0.271897 0.209743 0.629288
O O17 0.500000 0.379864 0.670409
O O18 0.500000 0.837435 0.197851
O O19 0.756648 0.875251 0.137628
O O20 0.000000 0.116512 0.513694
#
# Coordination Sequence:
#
# PCOD9353322 Si02
#       8
#     8   8   8   8   8   8   8   8
#     4  10  22  39  56  82 122 159 196 251 309 361
#     4  10  21  39  62  90 119 158 202 255 307 369
#     4  10  19  35  60  85 114 151 198 247 288 351
#     4  10  22  40  63  88 122 160 206 255 310 373
#     4   8  18  36  57  81 113 153 195 246 301 350
#     4  11  23  37  58  87 122 160 198 246 308 365
#     4  10  21  38  59  84 116 156 202 249 295 361
#     4  11  21  36  61  89 116 151 191 241 302 360
#
# _framework density 9.8765429999999999
#
# number of rings (size 3 to 8) (size 9 to 14) (size 15 to 20)
#    0.000    2.000    1.250    3.000    1.750    2.500 
#    0.000    4.375    0.000    0.000    0.000    0.000 
#    0.000    0.000    0.000    0.000    0.000    0.000 
#
# Total GULP energy -178167.582160 kJ/mol
# GULP energy per Si atom -5567.736942 kJ/mol
# Density = 0.985406 g / cm^3
# Si number density = 9.876543 Si / 1000 Ang^3
#
#
#
# Elastic Constant Matrix: (Units=GPa)
#
#
# Indices 1 2 3 4 5 6 
#
# 1 -29.7578 13.2296 6.7699 0.0000 0.0000 0.0000
# 2 13.2296 30.3947 32.9064 0.0000 0.0000 0.0000
# 3 6.7699 32.9064 166.1597 0.0000 0.0000 0.0000
# 4 0.0000 0.0000 0.0000 20.9385 0.0000 0.0000
# 5 0.0000 0.0000 0.0000 0.0000 33.1914 0.0000
# 6 0.0000 0.0000 0.0000 0.0000 0.0000 14.3234
#
#
#
# Elastic Compliance Matrix: (Units=1/GPa)
#
#
# Indices 1 2 3 4 5 6 
#
# 1 -0.027814 0.013849 -0.001609 0.000000 0.000000 0.000000
# 2 0.013849 0.034984 -0.007493 0.000000 0.000000 0.000000
# 3 -0.001609 -0.007493 0.007568 0.000000 0.000000 0.000000
# 4 0.000000 0.000000 0.000000 0.047759 0.000000 0.000000
# 5 0.000000 0.000000 0.000000 0.000000 0.030128 0.000000
# 6 0.000000 0.000000 0.000000 0.000000 0.000000 0.069816
#
#
# Mechanical properties :
#
#
# Convention : Reuss Voigt Hill
#
# Bulk Modulus (GPa) = 41.26830 30.28980 35.77905
# Shear Modulus (GPa) = 31.05114 21.28339 26.16726
#
# Velocity S-wave (km/s) = 3.96910 3.28605 3.64362
# Velocity P-wave (km/s) = 6.47630 5.45573 5.98780
#
# Compressibility (1/GPa) = 0.02423168
#
# Stress axis : x y z
#
# Youngs Moduli (GPa) = -35.95314 28.58413 132.14030
#
# Poissons Ratio (x) = -0.39585 0.21266
# Poissons Ratio (y) = 0.49790 0.99007
# Poissons Ratio (z) = -0.05786 0.21417
#
# Static dielectric constant tensor:
#      x y z
#    x 1.645450 0.000000 0.000000 
#    y 0.000000 1.743340 0.000000 
#    z 0.000000 0.000000 1.755990 
# 
# From -- ./inp_files/7211.got.cif
#   From: 2010.05.17/outbox.ucp.g08.bks.cvg/sg36_4_cif.got.tgz:7211.got - 2010.06.11 10:37:26.
