data_PCOD9353530
_publ_section_title
;
Structure prediction by ZEFSAII (Michael W. Deem and Ramdas Pophale) SiO2 
 PCOD9353530
Probable space group: C C C 2
;
_chemical_formula_sum "Si O2"
_cell_formula_units_Z 64
_cell_length_a 20.138698
_cell_length_b 20.340021
_cell_length_c 8.493287
_cell_angle_alpha 90.000000
_cell_angle_beta 90.000000
_cell_angle_gamma 90.000000
_cell_volume 3479.033303
_symmetry_space_group_name_H-M "C C C 2"
_symmetry_group_IT_number 37
_symmetry_cell_setting 'orthorhombic'
loop_
_space_group_symop_operation_xyz
x,y,z
-x,-y,z
-x,y,1/2+z
x,-y,1/2+z
1/2+x,1/2+y,z
1/2-x,1/2-y,z
1/2-x,1/2+y,1/2+z
1/2+x,1/2-y,1/2+z
loop_
_atom_site_type_symbol
_atom_site_label
_atom_site_fract_x
_atom_site_fract_y
_atom_site_fract_z
Si Si1 0.159655 0.196754 0.028210
Si Si2 0.689788 0.825535 0.156856
Si Si3 0.322652 0.223683 0.520602
Si Si4 0.640835 0.649774 0.672625
Si Si5 0.865739 0.925876 0.206877
Si Si6 0.570780 0.533381 0.523227
Si Si7 0.712881 0.957363 0.285389
Si Si8 0.710799 0.092236 0.131226
O O1 0.236810 0.182650 0.078846
O O2 0.146742 0.273595 0.058309
O O3 0.122839 0.147526 0.146331
O O4 0.145337 0.175232 0.850872
O O5 0.684661 0.798104 0.337741
O O6 0.676924 0.903227 0.173591
O O7 0.250000 0.250000 0.566808
O O8 0.367412 0.286741 0.558828
O O9 0.332175 0.159147 0.628452
O O10 0.585955 0.594629 0.637706
O O11 0.711980 0.614835 0.637759
O O12 0.914944 0.943077 0.347472
O O13 0.790824 0.939054 0.264316
O O14 0.877112 0.976123 0.064735
O O15 0.500000 0.500000 0.541080
O O16 0.696862 0.940659 0.463640
O O17 0.700726 0.033627 0.252872
#
# Coordination Sequence:
#
# PCOD9353530 Si02
#       8
#     8   8   8   8   8   8   8   8
#     4  10  20  29  48  69  91 120 161 206 258 310
#     4   9  18  30  44  70  93 125 156 200 251 309
#     4   9  17  31  46  65  95 121 158 202 247 303
#     4  11  21  32  48  68  90 124 166 218 260 303
#     4  11  20  35  48  64  90 121 161 217 261 305
#     4  12  24  37  51  66  88 126 176 224 269 307
#     4  10  18  30  46  65  96 125 157 199 246 305
#     4  10  20  28  45  68  92 127 159 195 246 303
#
# _framework density 18.395916
#
# number of rings (size 3 to 8) (size 9 to 14) (size 15 to 20)
#    0.000    1.750    3.750    1.875    8.750    0.000 
#    0.000    0.625    0.000    0.000    0.000    0.000 
#    0.000    0.000    0.000    1.125    0.000   20.500 
#
# Total GULP energy -178317.653393 kJ/mol
# GULP energy per Si atom -5572.426669 kJ/mol
# Density = 1.835405 g / cm^3
# Si number density = 18.395916 Si / 1000 Ang^3
#
#
#
# Elastic Constant Matrix: (Units=GPa)
#
#
# Indices 1 2 3 4 5 6 
#
# 1 22.0046 25.2284 13.6261 0.0000 0.0000 0.0000
# 2 25.2284 135.6307 38.5825 0.0000 0.0000 0.0000
# 3 13.6261 38.5825 75.1852 0.0000 0.0000 0.0000
# 4 0.0000 0.0000 0.0000 29.4958 0.0000 0.0000
# 5 0.0000 0.0000 0.0000 0.0000 8.1109 0.0000
# 6 0.0000 0.0000 0.0000 0.0000 0.0000 18.2292
#
#
#
# Elastic Compliance Matrix: (Units=1/GPa)
#
#
# Indices 1 2 3 4 5 6 
#
# 1 0.060009 -0.009448 -0.006028 0.000000 0.000000 0.000000
# 2 -0.009448 0.010121 -0.003481 0.000000 0.000000 0.000000
# 3 -0.006028 -0.003481 0.016179 0.000000 0.000000 0.000000
# 4 0.000000 0.000000 0.000000 0.033903 0.000000 0.000000
# 5 0.000000 0.000000 0.000000 0.000000 0.123291 0.000000
# 6 0.000000 0.000000 0.000000 0.000000 0.000000 0.054857
#
#
# Mechanical properties :
#
#
# Convention : Reuss Voigt Hill
#
# Bulk Modulus (GPa) = 20.66273 43.07717 31.86995
# Shear Modulus (GPa) = 14.18820 21.52609 17.85714
#
# Velocity S-wave (km/s) = 2.78019 3.42446 3.11901
# Velocity P-wave (km/s) = 4.64355 6.25328 5.50754
#
# Compressibility (1/GPa) = 0.04839631
#
# Stress axis : x y z
#
# Youngs Moduli (GPa) = 16.66412 98.80830 61.80701
#
# Poissons Ratio (x) = 0.93350 0.37254
# Poissons Ratio (y) = 0.15744 0.21517
# Poissons Ratio (z) = 0.10044 0.34399
#
# Static dielectric constant tensor:
#      x y z
#    x 1.640790 0.000000 0.000000 
#    y 0.000000 1.716550 0.000000 
#    z 0.000000 0.000000 1.677190 
# 
# From -- ./inp_files/4448.got.cif
#   From: 2010.05.17/outbox.cif.g08.bks.cpg/sg37_3_cif.got.tgz:4448.got - 2010.06.03 17:53:42.
