data_PCOD9353682
_publ_section_title
;
Structure prediction by ZEFSAII (Michael W. Deem and Ramdas Pophale) SiO2 
 PCOD9353682
Probable space group: C C C 2
;
_chemical_formula_sum "Si O2"
_cell_formula_units_Z 56
_cell_length_a 10.587838
_cell_length_b 22.946895
_cell_length_c 9.079560
_cell_angle_alpha 90.000000
_cell_angle_beta 90.000000
_cell_angle_gamma 90.000000
_cell_volume 2205.951801
_symmetry_space_group_name_H-M "C C C 2"
_symmetry_group_IT_number 37
_symmetry_cell_setting 'orthorhombic'
loop_
_space_group_symop_operation_xyz
x,y,z
-x,-y,z
-x,y,1/2+z
x,-y,1/2+z
1/2+x,1/2+y,z
1/2-x,1/2-y,z
1/2-x,1/2+y,1/2+z
1/2+x,1/2-y,1/2+z
loop_
_atom_site_type_symbol
_atom_site_label
_atom_site_fract_x
_atom_site_fract_y
_atom_site_fract_z
Si Si1 0.864199 0.417548 0.606720
Si Si2 0.753528 0.188056 0.055381
Si Si3 0.334491 0.999780 0.364854
Si Si4 0.690608 0.565005 0.623113
Si Si5 0.418758 0.609086 0.573797
Si Si6 0.370899 0.793876 0.750569
Si Si7 0.005851 0.811777 0.845477
O O1 0.907455 0.448936 0.456574
O O2 0.899565 0.458581 0.743606
O O3 0.712062 0.422678 0.594896
O O4 0.888936 0.349422 0.644824
O O5 0.750000 0.250000 0.134219
O O6 0.757150 0.130481 0.148568
O O7 0.659711 0.183880 0.916124
O O8 0.887602 0.190863 0.971364
O O9 0.273275 0.040348 0.489548
O O10 0.221525 0.969242 0.271267
O O11 0.545310 0.569890 0.568732
O O12 0.442695 0.645796 0.720918
O O13 0.401171 0.653809 0.437049
O O14 0.250000 0.750000 0.712291
O O15 0.491410 0.751679 0.771243
#
# Coordination Sequence:
#
# PCOD9353682 Si02
#       7
#     8   8   8   8   8   8   8
#     4  11  19  33  48  69 103 140 176 212 249 306
#     4   8  14  29  50  65  84 132 171 203 255 305
#     4  10  22  30  44  68 101 145 177 205 238 311
#     4  10  19  31  42  68 100 136 171 211 242 291
#     4  11  18  30  48  72 102 135 176 213 247 314
#     4   9  15  32  53  68  89 140 175 209 269 310
#     4   9  18  28  50  73  95 129 170 214 265 303
#
# _framework density 25.385866
#
# number of rings (size 3 to 8) (size 9 to 14) (size 15 to 20)
#    0.000    2.571    4.286    1.714    0.000    3.429 
#    0.000    0.714    6.286    0.000    0.000    0.000 
#    0.000    3.429    0.000    0.000    0.000    0.000 
#
# Total GULP energy -156319.694425 kJ/mol
# GULP energy per Si atom -5582.846229 kJ/mol
# Density = 2.532809 g / cm^3
# Si number density = 25.385866 Si / 1000 Ang^3
#
#
#
# Elastic Constant Matrix: (Units=GPa)
#
#
# Indices 1 2 3 4 5 6 
#
# 1 66.0899 25.1048 40.9718 0.0000 0.0000 0.0000
# 2 25.1048 173.7793 63.8840 0.0000 0.0000 0.0000
# 3 40.9718 63.8840 121.8408 0.0000 0.0000 0.0000
# 4 0.0000 0.0000 0.0000 39.6991 0.0000 0.0000
# 5 0.0000 0.0000 0.0000 0.0000 30.5467 0.0000
# 6 0.0000 0.0000 0.0000 0.0000 0.0000 18.3458
#
#
#
# Elastic Compliance Matrix: (Units=1/GPa)
#
#
# Indices 1 2 3 4 5 6 
#
# 1 0.019150 -0.000494 -0.006180 0.000000 0.000000 0.000000
# 2 -0.000494 0.007141 -0.003578 0.000000 0.000000 0.000000
# 3 -0.006180 -0.003578 0.012162 0.000000 0.000000 0.000000
# 4 0.000000 0.000000 0.000000 0.025189 0.000000 0.000000
# 5 0.000000 0.000000 0.000000 0.000000 0.032737 0.000000
# 6 0.000000 0.000000 0.000000 0.000000 0.000000 0.054508
#
#
# Mechanical properties :
#
#
# Convention : Reuss Voigt Hill
#
# Bulk Modulus (GPa) = 55.71856 69.07015 62.39436
# Shear Modulus (GPa) = 28.18866 33.16827 30.67846
#
# Velocity S-wave (km/s) = 3.33589 3.61856 3.48010
# Velocity P-wave (km/s) = 6.06909 6.68774 6.38591
#
# Compressibility (1/GPa) = 0.01794734
#
# Stress axis : x y z
#
# Youngs Moduli (GPa) = 52.21860 140.03258 82.22478
#
# Poissons Ratio (x) = 0.06924 0.50819
# Poissons Ratio (y) = 0.02582 0.29420
# Poissons Ratio (z) = 0.32273 0.50104
#
# Static dielectric constant tensor:
#      x y z
#    x 2.064100 0.000000 0.000000 
#    y 0.000000 2.112650 0.000000 
#    z 0.000000 0.000000 1.965620 
# 
# From -- ./inp_files/4133.got.cif
#   From: 2010.05.17/outbox.cif.g08.bks.cpg/sg37_3_cif.got.tgz:4133.got - 2010.06.03 17:53:42.
