data_PCOD9353635
_publ_section_title
;
Structure prediction by ZEFSAII (Michael W. Deem and Ramdas Pophale) SiO2 
 PCOD9353635
Probable space group: C C C 2
;
_chemical_formula_sum "Si O2"
_cell_formula_units_Z 60
_cell_length_a 13.757427
_cell_length_b 12.297596
_cell_length_c 18.334778
_cell_angle_alpha 90.000000
_cell_angle_beta 90.000000
_cell_angle_gamma 90.000000
_cell_volume 3101.937866
_symmetry_space_group_name_H-M "C C C 2"
_symmetry_group_IT_number 37
_symmetry_cell_setting 'orthorhombic'
loop_
_space_group_symop_operation_xyz
x,y,z
-x,-y,z
-x,y,1/2+z
x,-y,1/2+z
1/2+x,1/2+y,z
1/2-x,1/2-y,z
1/2-x,1/2+y,1/2+z
1/2+x,1/2-y,1/2+z
loop_
_atom_site_type_symbol
_atom_site_label
_atom_site_fract_x
_atom_site_fract_y
_atom_site_fract_z
Si Si1 0.446336 0.714113 0.897000
Si Si2 0.441179 0.608885 0.198154
Si Si3 0.336666 0.002346 0.229968
Si Si4 0.005029 0.330221 0.755602
Si Si5 0.786294 0.049552 0.088789
Si Si6 0.407329 0.581026 0.479740
Si Si7 0.657475 0.495073 0.831832
Si Si8 0.750000 0.750000 0.486611
O O1 0.482751 0.801642 0.839328
O O2 0.533027 0.687519 0.954313
O O3 0.413366 0.607567 0.848542
O O4 0.347595 0.743057 0.938672
O O5 0.500000 0.500000 0.181342
O O6 0.497866 0.719238 0.209936
O O7 0.365831 0.619548 0.133068
O O8 0.388048 0.579259 0.274047
O O9 0.421285 0.090476 0.228386
O O10 0.258503 0.033994 0.292674
O O11 0.390719 0.888666 0.247827
O O12 0.284998 0.992259 0.151787
O O13 0.744257 0.137751 0.032528
O O14 0.840478 0.948713 0.048651
O O15 0.500000 0.500000 0.485903
O O16 0.339987 0.550973 0.410418
#
# Coordination Sequence:
#
# PCOD9353635 Si02
#       8
#     8   8   8   8   8   8   8   4
#     4  11  21  37  67 100 119 167 211 276 314 377
#     4  11  20  36  65  95 119 160 212 267 313 363
#     4  10  25  41  62  93 129 177 211 262 321 387
#     4  11  22  42  65  90 129 167 224 265 312 382
#     4  11  23  38  60  91 130 171 205 260 323 395
#     4  10  18  37  62  89 130 154 203 264 321 374
#     4  10  18  38  62  95 123 155 214 269 314 365
#     4  12  22  34  62  94 132 164 216 254 326 390
#
# _framework density 19.342746999999999
#
# number of rings (size 3 to 8) (size 9 to 14) (size 15 to 20)
#    0.000    1.333    5.333    2.400    0.000    1.600 
#    0.000    0.000    8.800    4.800    0.000    0.000 
#    0.000    0.000    0.000    0.000    0.000    0.000 
#
# Total GULP energy -167233.797842 kJ/mol
# GULP energy per Si atom -5574.459928 kJ/mol
# Density = 1.929872 g / cm^3
# Si number density = 19.342747 Si / 1000 Ang^3
#
#
#
# Elastic Constant Matrix: (Units=GPa)
#
#
# Indices 1 2 3 4 5 6 
#
# 1 89.6549 31.2483 60.3692 0.0000 0.0000 0.0000
# 2 31.2483 72.7565 28.9073 0.0000 0.0000 0.0000
# 3 60.3692 28.9073 121.1150 0.0000 0.0000 0.0000
# 4 0.0000 0.0000 0.0000 12.1472 0.0000 0.0000
# 5 0.0000 0.0000 0.0000 0.0000 22.5800 0.0000
# 6 0.0000 0.0000 0.0000 0.0000 0.0000 25.5961
#
#
#
# Elastic Compliance Matrix: (Units=1/GPa)
#
#
# Indices 1 2 3 4 5 6 
#
# 1 0.018097 -0.004627 -0.007916 0.000000 0.000000 0.000000
# 2 -0.004627 0.016368 -0.001600 0.000000 0.000000 0.000000
# 3 -0.007916 -0.001600 0.012584 0.000000 0.000000 0.000000
# 4 0.000000 0.000000 0.000000 0.082323 0.000000 0.000000
# 5 0.000000 0.000000 0.000000 0.000000 0.044287 0.000000
# 6 0.000000 0.000000 0.000000 0.000000 0.000000 0.039068
#
#
# Mechanical properties :
#
#
# Convention : Reuss Voigt Hill
#
# Bulk Modulus (GPa) = 53.29915 58.28625 55.79270
# Shear Modulus (GPa) = 20.22099 22.93145 21.57622
#
# Velocity S-wave (km/s) = 3.23678 3.44689 3.34349
# Velocity P-wave (km/s) = 6.44856 6.78529 6.61907
#
# Compressibility (1/GPa) = 0.01876203
#
# Stress axis : x y z
#
# Youngs Moduli (GPa) = 55.25824 61.09622 79.46509
#
# Poissons Ratio (x) = 0.28271 0.62903
# Poissons Ratio (y) = 0.25570 0.12715
# Poissons Ratio (z) = 0.43742 0.09776
#
# Static dielectric constant tensor:
#      x y z
#    x 1.699500 0.000000 0.000000 
#    y 0.000000 1.706760 0.000000 
#    z 0.000000 0.000000 1.694940 
# 
# From -- ./inp_files/15294.got.cif
#   From: 2010.05.17/outbox.cif.g08.bks.cpg/sg37_8_cif.got.tgz:15294.got - 2010.06.03 17:53:42.
