data_PCOD9353760
_publ_section_title
;
Structure prediction by ZEFSAII (Michael W. Deem and Ramdas Pophale) SiO2 
 PCOD9353760
Probable space group: C C C 2
;
_chemical_formula_sum "Si O2"
_cell_formula_units_Z 64
_cell_length_a 14.768120
_cell_length_b 8.804342
_cell_length_c 23.000270
_cell_angle_alpha 90.000000
_cell_angle_beta 90.000000
_cell_angle_gamma 90.000000
_cell_volume 2990.577427
_symmetry_space_group_name_H-M "C C C 2"
_symmetry_group_IT_number 37
_symmetry_cell_setting 'orthorhombic'
loop_
_space_group_symop_operation_xyz
x,y,z
-x,-y,z
-x,y,1/2+z
x,-y,1/2+z
1/2+x,1/2+y,z
1/2-x,1/2-y,z
1/2-x,1/2+y,1/2+z
1/2+x,1/2-y,1/2+z
loop_
_atom_site_type_symbol
_atom_site_label
_atom_site_fract_x
_atom_site_fract_y
_atom_site_fract_z
Si Si1 0.409596 0.607230 0.356210
Si Si2 0.468674 0.764274 0.068131
Si Si3 0.487103 0.178623 0.434399
Si Si4 0.150482 0.798717 0.841940
Si Si5 0.867710 0.429616 0.614592
Si Si6 0.552913 0.140326 0.735207
Si Si7 0.192793 0.093171 0.619861
Si Si8 0.078897 0.124591 0.724882
O O1 0.500000 0.500000 0.356519
O O2 0.429022 0.736330 0.402495
O O3 0.338454 0.473516 0.362606
O O4 0.396522 0.664835 0.290903
O O5 0.572973 0.789852 0.088972
O O6 0.404129 0.625803 0.089222
O O7 0.416941 0.919401 0.088690
O O8 0.472080 0.758080 0.998525
O O9 0.401528 0.213660 0.393361
O O10 0.500000 0.000000 0.438458
O O11 0.250000 0.750000 0.828998
O O12 0.094994 0.753096 0.783166
O O13 0.880182 0.415262 0.684620
O O14 0.761445 0.459083 0.601875
O O15 0.472405 0.227850 0.701224
O O16 0.500000 0.000000 0.764584
O O17 0.250000 0.250000 0.614361
O O18 0.163238 0.075043 0.686965
O O19 0.000000 0.000000 0.723397
#
# Coordination Sequence:
#
# PCOD9353760 Si02
#       8
#     8   8   8   8   8   8   8   8
#     4   9  20  41  59  89 133 170 220 276 326 416
#     4  10  19  39  63  94 134 177 222 287 342 410
#     4  11  21  41  72  93 117 182 239 273 340 412
#     4  11  25  41  61  99 134 173 224 282 351 411
#     4  10  19  35  60 101 136 160 230 283 332 424
#     4  12  20  37  67  92 129 175 221 272 339 417
#     4  10  21  36  61  99 130 175 215 272 349 409
#     4  11  20  38  60  88 139 176 209 267 351 409
#
# _framework density 21.400549999999999
#
# number of rings (size 3 to 8) (size 9 to 14) (size 15 to 20)
#    0.000    1.500    7.500    1.125    1.750    1.500 
#    0.000    2.500    0.000    0.000    3.250    0.000 
#    0.000    0.000    0.000    0.000    0.000    0.000 
#
# Total GULP energy -178264.709696 kJ/mol
# GULP energy per Si atom -5570.772178 kJ/mol
# Density = 2.135184 g / cm^3
# Si number density = 21.400550 Si / 1000 Ang^3
#
#
#
# Elastic Constant Matrix: (Units=GPa)
#
#
# Indices 1 2 3 4 5 6 
#
# 1 110.5674 29.5257 29.7195 0.0000 0.0000 0.0000
# 2 29.5257 53.7066 12.1735 0.0000 0.0000 0.0000
# 3 29.7195 12.1735 122.1648 0.0000 0.0000 0.0000
# 4 0.0000 0.0000 0.0000 -3.9087 0.0000 0.0000
# 5 0.0000 0.0000 0.0000 0.0000 10.7566 0.0000
# 6 0.0000 0.0000 0.0000 0.0000 0.0000 21.9437
#
#
#
# Elastic Compliance Matrix: (Units=1/GPa)
#
#
# Indices 1 2 3 4 5 6 
#
# 1 0.011124 -0.005629 -0.002145 0.000000 0.000000 0.000000
# 2 -0.005629 0.021899 -0.000813 0.000000 0.000000 0.000000
# 3 -0.002145 -0.000813 0.008789 0.000000 0.000000 0.000000
# 4 0.000000 0.000000 0.000000 -0.255839 0.000000 0.000000
# 5 0.000000 0.000000 0.000000 0.000000 0.092966 0.000000
# 6 0.000000 0.000000 0.000000 0.000000 0.000000 0.045571
#
#
# Mechanical properties :
#
#
# Convention : Reuss Voigt Hill
#
# Bulk Modulus (GPa) = 40.58976 47.69737 44.14356
# Shear Modulus (GPa) = -99.79387 20.09299 -39.85044
#
# Velocity S-wave (km/s) = -6.83613 3.06747 -4.31991
# Velocity P-wave (km/s) = 6.58045 5.90611 2.05186
#
# Compressibility (1/GPa) = 0.02463676
#
# Stress axis : x y z
#
# Youngs Moduli (GPa) = 89.89469 45.66490 113.78460
#
# Poissons Ratio (x) = 0.25706 0.24410
# Poissons Ratio (y) = 0.50605 0.09247
# Poissons Ratio (z) = 0.19285 0.03711
#
# Static dielectric constant tensor:
#      x y z
#    x 1.844370 0.000000 0.000000 
#    y 0.000000 1.879850 0.000000 
#    z 0.000000 0.000000 1.777640 
# 
# From -- ./inp_files/18913.got.cif
#   From: 2010.05.17/outbox.cif.g08.bks.cpg/sg37_10_cif.got.tgz:18913.got - 2010.06.03 17:53:42.
