data_PCOD9353205
_publ_section_title
;
Structure prediction by ZEFSAII (Michael W. Deem and Ramdas Pophale) SiO2 
 PCOD9353205
Probable space group: C M C 21
;
_chemical_formula_sum "Si O2"
_cell_formula_units_Z 40
_cell_length_a 24.856001
_cell_length_b 9.426390
_cell_length_c 7.121186
_cell_angle_alpha 90.000000
_cell_angle_beta 90.000000
_cell_angle_gamma 90.000000
_cell_volume 1668.510681
_symmetry_space_group_name_H-M "C M C 21"
_symmetry_group_IT_number 36
_symmetry_cell_setting 'orthorhombic'
loop_
_space_group_symop_operation_xyz
x,y,z
-x,-y,1/2+z
x,-y,1/2+z
-x,y,z
1/2+x,1/2+y,z
1/2-x,1/2-y,1/2+z
1/2+x,1/2-y,1/2+z
1/2-x,1/2+y,z
loop_
_atom_site_type_symbol
_atom_site_label
_atom_site_fract_x
_atom_site_fract_y
_atom_site_fract_z
Si Si1 0.327217 0.663031 0.712200
Si Si2 0.215278 0.666345 0.880173
Si Si3 0.437229 0.470800 0.314670
Si Si4 0.657229 0.886957 0.017529
Si Si5 0.940666 0.250033 0.164316
O O1 0.276720 0.618192 0.843893
O O2 0.301118 0.702795 0.512471
O O3 0.380823 0.569120 0.711719
O O4 0.345181 0.805409 0.821490
O O5 0.183542 0.535663 0.971236
O O6 0.193243 0.694155 0.671740
O O7 0.500000 0.452502 0.240305
O O8 0.436881 0.365500 0.493823
O O9 0.432248 0.642169 0.338604
O O10 0.600039 0.875092 0.119338
O O11 0.000000 0.308837 0.175385
#
# Coordination Sequence:
#
# PCOD9353205 Si02
#       5
#     8   8   8   8   8
#     4  11  24  41  66  96 130 176 223 279 329 397
#     4  12  24  42  65  94 133 178 221 272 337 403
#     4   9  20  39  65  94 128 167 221 278 331 390
#     4  11  24  42  63  94 133 168 222 273 328 405
#     4   9  20  40  63  94 130 169 219 278 335 393
#
# _framework density 23.973472999999998
#
# number of rings (size 3 to 8) (size 9 to 14) (size 15 to 20)
#    0.000    1.600    4.000    0.000    2.800    4.800 
#    0.000    2.000    0.000    0.000    0.000    0.000 
#    0.000    0.000    0.000    0.000    0.000    0.000 
#
# Total GULP energy -111451.630952 kJ/mol
# GULP energy per Si atom -5572.581548 kJ/mol
# Density = 2.391891 g / cm^3
# Si number density = 23.973473 Si / 1000 Ang^3
#
#
#
# Elastic Constant Matrix: (Units=GPa)
#
#
# Indices 1 2 3 4 5 6 
#
# 1 196.1000 42.0561 21.0743 0.0000 0.0000 0.0000
# 2 42.0561 53.0610 3.7162 0.0000 0.0000 0.0000
# 3 21.0743 3.7162 77.4345 0.0000 0.0000 0.0000
# 4 0.0000 0.0000 0.0000 31.0986 0.0000 0.0000
# 5 0.0000 0.0000 0.0000 0.0000 30.6820 0.0000
# 6 0.0000 0.0000 0.0000 0.0000 0.0000 42.6188
#
#
#
# Elastic Compliance Matrix: (Units=1/GPa)
#
#
# Indices 1 2 3 4 5 6 
#
# 1 0.006309 -0.004897 -0.001482 0.000000 0.000000 0.000000
# 2 -0.004897 0.022710 0.000243 0.000000 0.000000 0.000000
# 3 -0.001482 0.000243 0.013306 0.000000 0.000000 0.000000
# 4 0.000000 0.000000 0.000000 0.032156 0.000000 0.000000
# 5 0.000000 0.000000 0.000000 0.000000 0.032592 0.000000
# 6 0.000000 0.000000 0.000000 0.000000 0.000000 0.023464
#
#
# Mechanical properties :
#
#
# Convention : Reuss Voigt Hill
#
# Bulk Modulus (GPa) = 33.27428 51.14320 42.20874
# Shear Modulus (GPa) = 32.71686 38.19647 35.45667
#
# Velocity S-wave (km/s) = 3.69821 3.99592 3.84994
# Velocity P-wave (km/s) = 5.66969 6.53218 6.11616
#
# Compressibility (1/GPa) = 0.03005324
#
# Stress axis : x y z
#
# Youngs Moduli (GPa) = 158.50781 44.03299 75.15503
#
# Poissons Ratio (x) = 0.21561 0.11138
# Poissons Ratio (y) = 0.77615 -0.01824
# Poissons Ratio (z) = 0.23491 -0.01069
#
# Static dielectric constant tensor:
#      x y z
#    x 1.959540 0.000000 0.000000 
#    y 0.000000 1.912090 0.000000 
#    z 0.000000 0.000000 2.026160 
# 
# From -- ./inp_files/5469.got.cif
#   From: 2010.05.17/outbox.cif.g08.bks.cpg/sg36_3_cif.got.tgz:5469.got - 2010.06.03 17:41:39.
