data_PCOD9353640
_publ_section_title
;
Structure prediction by ZEFSAII (Michael W. Deem and Ramdas Pophale) SiO2 
 PCOD9353640
Probable space group: C C C 2
;
_chemical_formula_sum "Si O2"
_cell_formula_units_Z 60
_cell_length_a 15.162202
_cell_length_b 18.146223
_cell_length_c 10.408034
_cell_angle_alpha 90.000000
_cell_angle_beta 90.000000
_cell_angle_gamma 90.000000
_cell_volume 2863.632114
_symmetry_space_group_name_H-M "C C C 2"
_symmetry_group_IT_number 37
_symmetry_cell_setting 'orthorhombic'
loop_
_space_group_symop_operation_xyz
x,y,z
-x,-y,z
-x,y,1/2+z
x,-y,1/2+z
1/2+x,1/2+y,z
1/2-x,1/2-y,z
1/2-x,1/2+y,1/2+z
1/2+x,1/2-y,1/2+z
loop_
_atom_site_type_symbol
_atom_site_label
_atom_site_fract_x
_atom_site_fract_y
_atom_site_fract_z
Si Si1 0.612871 0.801867 0.620220
Si Si2 0.076807 0.058860 0.081440
Si Si3 0.325898 0.304237 0.398611
Si Si4 0.250000 0.750000 0.332538
Si Si5 0.651532 0.385578 0.341518
Si Si6 0.487610 0.694113 0.705501
Si Si7 0.747727 0.008282 0.701415
Si Si8 0.806985 0.430070 0.960552
O O1 0.641508 0.736469 0.525595
O O2 0.679003 0.791330 0.740261
O O3 0.516798 0.776445 0.668109
O O4 0.625015 0.874887 0.533778
O O5 0.038769 0.141204 0.088703
O O6 0.160312 0.051044 0.175820
O O7 0.114853 0.053326 0.938591
O O8 0.000000 0.000000 0.108025
O O9 0.250000 0.250000 0.342813
O O10 0.407072 0.308244 0.303375
O O11 0.280829 0.379726 0.444086
O O12 0.297550 0.683433 0.406208
O O13 0.570846 0.347950 0.267893
O O14 0.717764 0.428604 0.248487
O O15 0.704975 0.996172 0.561754
O O16 0.685420 0.040903 0.813714
#
# Coordination Sequence:
#
# PCOD9353640 Si02
#       8
#     8   8   8   4   8   8   8   8
#     4  10  19  37  63  83 122 173 228 269 318 395
#     4  12  25  34  52  91 138 172 201 260 339 419
#     4  10  20  37  61  88 125 168 222 272 327 402
#     4  10  18  38  56  80 116 178 220 270 318 396
#     4  11  23  35  55  84 127 169 220 264 327 406
#     4  11  22  36  58  91 127 177 218 269 332 408
#     4  12  22  35  58  86 130 175 209 262 328 408
#     4  11  21  38  60  91 127 171 219 266 330 404
#
# _framework density 20.952411999999999
#
# number of rings (size 3 to 8) (size 9 to 14) (size 15 to 20)
#    0.000    1.067    7.333    1.600    3.733    0.000 
#    1.200    0.000    0.000    0.000    0.000   11.200 
#    0.000    0.000    0.000    0.000    0.000    0.000 
#
# Total GULP energy -167233.912350 kJ/mol
# GULP energy per Si atom -5574.463745 kJ/mol
# Density = 2.090472 g / cm^3
# Si number density = 20.952412 Si / 1000 Ang^3
#
#
#
# Elastic Constant Matrix: (Units=GPa)
#
#
# Indices 1 2 3 4 5 6 
#
# 1 29.7463 26.7931 7.5350 0.0000 0.0000 0.0000
# 2 26.7931 62.8692 19.4085 0.0000 0.0000 0.0000
# 3 7.5350 19.4085 70.6718 0.0000 0.0000 0.0000
# 4 0.0000 0.0000 0.0000 8.7270 0.0000 0.0000
# 5 0.0000 0.0000 0.0000 0.0000 20.5821 0.0000
# 6 0.0000 0.0000 0.0000 0.0000 0.0000 27.1110
#
#
#
# Elastic Compliance Matrix: (Units=1/GPa)
#
#
# Indices 1 2 3 4 5 6 
#
# 1 0.054587 -0.023455 0.000621 0.000000 0.000000 0.000000
# 2 -0.023455 0.027458 -0.005040 0.000000 0.000000 0.000000
# 3 0.000621 -0.005040 0.015468 0.000000 0.000000 0.000000
# 4 0.000000 0.000000 0.000000 0.114586 0.000000 0.000000
# 5 0.000000 0.000000 0.000000 0.000000 0.048586 0.000000
# 6 0.000000 0.000000 0.000000 0.000000 0.000000 0.036885
#
#
# Mechanical properties :
#
#
# Convention : Reuss Voigt Hill
#
# Bulk Modulus (GPa) = 23.94348 30.08451 27.01400
# Shear Modulus (GPa) = 13.61511 18.58742 16.10127
#
# Velocity S-wave (km/s) = 2.55190 2.98170 2.77513
# Velocity P-wave (km/s) = 4.48724 5.12286 4.81555
#
# Compressibility (1/GPa) = 0.04176502
#
# Stress axis : x y z
#
# Youngs Moduli (GPa) = 18.31946 36.41933 64.65060
#
# Poissons Ratio (x) = 0.85422 -0.04018
# Poissons Ratio (y) = 0.42969 0.32584
# Poissons Ratio (z) = -0.01139 0.18355
#
# Static dielectric constant tensor:
#      x y z
#    x 1.616710 0.000000 0.000000 
#    y 0.000000 1.825830 0.000000 
#    z 0.000000 0.000000 1.787020 
# 
# From -- ./inp_files/4095.got.cif
#   From: 2010.05.17/outbox.cif.g08.bks.cpg/sg37_3_cif.got.tgz:4095.got - 2010.06.03 17:53:42.
