data_PCOD9353326
_publ_section_title
;
Structure prediction by ZEFSAII (Michael W. Deem and Ramdas Pophale) SiO2 
 PCOD9353326
Probable space group: C M C 21
;
_chemical_formula_sum "Si O2"
_cell_formula_units_Z 32
_cell_length_a 9.000000
_cell_length_b 30.000000
_cell_length_c 12.000000
_cell_angle_alpha 90.000000
_cell_angle_beta 90.000000
_cell_angle_gamma 90.000000
_cell_volume 3240.000000
_symmetry_space_group_name_H-M "C M C 21"
_symmetry_group_IT_number 36
_symmetry_cell_setting 'orthorhombic'
loop_
_space_group_symop_operation_xyz
x,y,z
-x,-y,1/2+z
x,-y,1/2+z
-x,y,z
1/2+x,1/2+y,z
1/2-x,1/2-y,1/2+z
1/2+x,1/2-y,1/2+z
1/2-x,1/2+y,z
loop_
_atom_site_type_symbol
_atom_site_label
_atom_site_fract_x
_atom_site_fract_y
_atom_site_fract_z
Si Si1 0.331928 0.068783 0.366500
Si Si2 0.321154 0.865660 0.056981
Si Si3 0.820579 0.085225 0.014426
Si Si4 0.169713 0.648098 0.186348
Si Si5 0.820863 0.087497 0.751342
Si Si6 0.679609 0.272566 0.005884
Si Si7 0.677403 0.262370 0.745629
Si Si8 0.322375 0.489570 0.690252
O O1 0.500000 0.051299 0.379853
O O2 0.281982 0.091389 0.480951
O O3 0.337173 0.109377 0.278328
O O4 0.229982 0.033088 0.305441
O O5 0.500000 0.860392 0.054092
O O6 0.262020 0.874396 0.181607
O O7 0.241927 0.822892 0.004229
O O8 0.738174 0.125837 0.075886
O O9 0.774812 0.040669 0.084355
O O10 0.000000 0.089699 0.026626
O O11 0.787400 0.084986 0.883124
O O12 0.276275 0.686194 0.232272
O O13 0.000000 0.664282 0.168081
O O14 0.000000 0.092802 0.740015
O O15 0.773265 0.040522 0.696485
O O16 0.500000 0.270958 0.013440
O O17 0.746747 0.256211 0.128171
O O18 0.717230 0.251776 0.879488
O O19 0.500000 0.254809 0.736315
O O20 0.500000 0.489803 0.688556
#
# Coordination Sequence:
#
# PCOD9353326 Si02
#       8
#     8   8   8   8   8   8   8   8
#     4   9  19  35  57  84 114 148 190 240 292 348
#     4  11  23  40  61  87 121 160 199 249 306 364
#     4   9  19  36  54  81 118 153 197 251 304 360
#     4  10  19  36  62  87 114 151 194 241 295 357
#     4  10  22  37  56  84 119 158 202 254 308 363
#     4  11  25  44  68  97 128 165 211 259 315 381
#     4  11  24  42  67  98 128 163 206 257 315 378
#     4   9  19  34  57  84 112 152 199 249 299 353
#
# _framework density 9.8765429999999999
#
# number of rings (size 3 to 8) (size 9 to 14) (size 15 to 20)
#    0.000    2.000    1.250    1.500    1.750    5.000 
#    0.000    0.000    0.000    0.000    0.000    0.000 
#    0.000    0.000    0.000    0.000    0.000    0.000 
#
# Total GULP energy -178295.965527 kJ/mol
# GULP energy per Si atom -5571.748923 kJ/mol
# Density = 0.985406 g / cm^3
# Si number density = 9.876543 Si / 1000 Ang^3
#
#
#
# Elastic Constant Matrix: (Units=GPa)
#
#
# Indices 1 2 3 4 5 6 
#
# 1 38.6976 9.5349 37.7314 0.0000 0.0000 0.0000
# 2 9.5349 35.8904 25.4831 0.0000 0.0000 0.0000
# 3 37.7314 25.4831 163.5161 0.0000 0.0000 0.0000
# 4 0.0000 0.0000 0.0000 27.1431 0.0000 0.0000
# 5 0.0000 0.0000 0.0000 0.0000 34.3787 0.0000
# 6 0.0000 0.0000 0.0000 0.0000 0.0000 17.6845
#
#
#
# Elastic Compliance Matrix: (Units=1/GPa)
#
#
# Indices 1 2 3 4 5 6 
#
# 1 0.033815 -0.003872 -0.007199 0.000000 0.000000 0.000000
# 2 -0.003872 0.031773 -0.004058 0.000000 0.000000 0.000000
# 3 -0.007199 -0.004058 0.008409 0.000000 0.000000 0.000000
# 4 0.000000 0.000000 0.000000 0.036842 0.000000 0.000000
# 5 0.000000 0.000000 0.000000 0.000000 0.029088 0.000000
# 6 0.000000 0.000000 0.000000 0.000000 0.000000 0.056547
#
#
# Mechanical properties :
#
#
# Convention : Reuss Voigt Hill
#
# Bulk Modulus (GPa) = 22.86327 42.62253 32.74290
# Shear Modulus (GPa) = 20.72011 26.86490 23.79250
#
# Velocity S-wave (km/s) = 3.24227 3.69187 3.47435
# Velocity P-wave (km/s) = 5.06123 6.30854 5.71899
#
# Compressibility (1/GPa) = 0.04373828
#
# Stress axis : x y z
#
# Youngs Moduli (GPa) = 29.57260 31.47364 118.91553
#
# Poissons Ratio (x) = 0.12186 0.85613
# Poissons Ratio (y) = 0.11450 0.48258
# Poissons Ratio (z) = 0.21291 0.12773
#
# Static dielectric constant tensor:
#      x y z
#    x 1.674640 0.000000 0.000000 
#    y 0.000000 1.714750 0.000000 
#    z 0.000000 0.000000 1.724780 
# 
# From -- ./inp_files/7201.got.cif
#   From: 2010.05.17/outbox.ucp.g08.bks.cvg/sg36_4_cif.got.tgz:7201.got - 2010.06.11 10:37:26.
