data_PCOD9353900
_publ_section_title
;
Structure prediction by ZEFSAII (Michael W. Deem and Ramdas Pophale) SiO2 
 PCOD9353900
Probable space group: C C C 2
;
_chemical_formula_sum "Si O2"
_cell_formula_units_Z 60
_cell_length_a 19.840804
_cell_length_b 11.222213
_cell_length_c 12.063760
_cell_angle_alpha 90.000000
_cell_angle_beta 90.000000
_cell_angle_gamma 90.000000
_cell_volume 2686.089400
_symmetry_space_group_name_H-M "C C C 2"
_symmetry_group_IT_number 37
_symmetry_cell_setting 'orthorhombic'
loop_
_space_group_symop_operation_xyz
x,y,z
-x,-y,z
-x,y,1/2+z
x,-y,1/2+z
1/2+x,1/2+y,z
1/2-x,1/2-y,z
1/2-x,1/2+y,1/2+z
1/2+x,1/2-y,1/2+z
loop_
_atom_site_type_symbol
_atom_site_label
_atom_site_fract_x
_atom_site_fract_y
_atom_site_fract_z
Si Si1 0.673865 0.268568 0.134590
Si Si2 0.598004 0.653585 0.985005
Si Si3 0.457754 0.763163 0.989670
Si Si4 0.311577 0.464218 0.820529
Si Si5 0.815166 0.197977 0.690258
Si Si6 0.834257 0.623354 0.858591
Si Si7 0.598005 0.895284 0.297154
Si Si8 0.500000 0.000000 0.618923
O O1 0.750000 0.250000 0.088604
O O2 0.613678 0.269902 0.046057
O O3 0.674661 0.387504 0.209500
O O4 0.662290 0.167170 0.229714
O O5 0.626251 0.551338 0.904327
O O6 0.630044 0.774586 0.930367
O O7 0.518021 0.668440 0.995572
O O8 0.631204 0.645342 0.105088
O O9 0.481841 0.883713 0.049926
O O10 0.448811 0.804319 0.863446
O O11 0.299320 0.597840 0.781165
O O12 0.244881 0.404982 0.875753
O O13 0.750000 0.250000 0.628371
O O14 0.844216 0.314024 0.748630
O O15 0.873383 0.499715 0.874422
O O16 0.559814 0.959734 0.198791
#
# Coordination Sequence:
#
# PCOD9353900 Si02
#       8
#     8   8   8   8   8   8   8   4
#     4   9  21  43  70  98 134 184 237 285 345 416
#     4  11  24  44  71 101 139 190 237 282 359 421
#     4  12  25  41  69 104 140 184 226 291 359 419
#     4  10  23  44  71  97 138 189 238 286 346 420
#     4  12  25  45  68 104 143 182 237 296 346 415
#     4  10  19  43  70 100 136 180 232 298 345 411
#     4  12  25  39  69 105 141 173 230 295 353 413
#     4  12  22  44  68 102 142 176 226 288 362 412
#
# _framework density 22.337305000000001
#
# number of rings (size 3 to 8) (size 9 to 14) (size 15 to 20)
#    0.000    1.067    4.000    4.000    1.867    1.600 
#    4.800    4.000    0.000    0.000    0.000    0.000 
#    0.000    0.000    0.000    0.000    0.000    0.000 
#
# Total GULP energy -167749.437416 kJ/mol
# GULP energy per Si atom -5591.647914 kJ/mol
# Density = 2.228646 g / cm^3
# Si number density = 22.337305 Si / 1000 Ang^3
#
#
#
# Elastic Constant Matrix: (Units=GPa)
#
#
# Indices 1 2 3 4 5 6 
#
# 1 131.6259 26.4035 29.8379 0.0000 0.0000 0.0000
# 2 26.4035 59.0764 0.0858 0.0000 0.0000 0.0000
# 3 29.8379 0.0858 41.9148 0.0000 0.0000 0.0000
# 4 0.0000 0.0000 0.0000 2.8203 0.0000 0.0000
# 5 0.0000 0.0000 0.0000 0.0000 30.5298 0.0000
# 6 0.0000 0.0000 0.0000 0.0000 0.0000 28.0818
#
#
#
# Elastic Compliance Matrix: (Units=1/GPa)
#
#
# Indices 1 2 3 4 5 6 
#
# 1 0.010138 -0.004521 -0.007208 0.000000 0.000000 0.000000
# 2 -0.004521 0.018943 0.003179 0.000000 0.000000 0.000000
# 3 -0.007208 0.003179 0.028982 0.000000 0.000000 0.000000
# 4 0.000000 0.000000 0.000000 0.354574 0.000000 0.000000
# 5 0.000000 0.000000 0.000000 0.000000 0.032755 0.000000
# 6 0.000000 0.000000 0.000000 0.000000 0.000000 0.035610
#
#
# Mechanical properties :
#
#
# Convention : Reuss Voigt Hill
#
# Bulk Modulus (GPa) = 24.41082 38.36351 31.38716
# Shear Modulus (GPa) = 9.77029 24.03904 16.90467
#
# Velocity S-wave (km/s) = 2.09368 3.28408 2.75397
# Velocity P-wave (km/s) = 4.09837 5.62069 4.91878
#
# Compressibility (1/GPa) = 0.04096544
#
# Stress axis : x y z
#
# Youngs Moduli (GPa) = 98.63898 52.78986 34.50372
#
# Poissons Ratio (x) = 0.23864 0.24869
# Poissons Ratio (y) = 0.44591 -0.10970
# Poissons Ratio (z) = 0.71096 -0.16783
#
# Static dielectric constant tensor:
#      x y z
#    x 1.872870 0.000000 0.000000 
#    y 0.000000 1.799830 0.000000 
#    z 0.000000 0.000000 1.807660 
# 
# From -- ./inp_files/8643.got.cif
#   From: 2010.05.17/outbox.cif.g08.bks.cpg/sg37_5_cif.got.tgz:8643.got - 2010.06.03 17:53:42.
