data_PCOD9353921
_publ_section_title
;
Structure prediction by ZEFSAII (Michael W. Deem and Ramdas Pophale) SiO2 
 PCOD9353921
Probable space group: C C C 2
;
_chemical_formula_sum "Si O2"
_cell_formula_units_Z 52
_cell_length_a 10.092250
_cell_length_b 10.241641
_cell_length_c 27.564664
_cell_angle_alpha 90.000000
_cell_angle_beta 90.000000
_cell_angle_gamma 90.000000
_cell_volume 2849.116787
_symmetry_space_group_name_H-M "C C C 2"
_symmetry_group_IT_number 37
_symmetry_cell_setting 'orthorhombic'
loop_
_space_group_symop_operation_xyz
x,y,z
-x,-y,z
-x,y,1/2+z
x,-y,1/2+z
1/2+x,1/2+y,z
1/2-x,1/2-y,z
1/2-x,1/2+y,1/2+z
1/2+x,1/2-y,1/2+z
loop_
_atom_site_type_symbol
_atom_site_label
_atom_site_fract_x
_atom_site_fract_y
_atom_site_fract_z
Si Si1 0.143277 0.635494 0.769450
Si Si2 0.867831 0.643599 0.931971
Si Si3 0.985821 0.216474 0.855103
Si Si4 0.500000 0.000000 0.183212
Si Si5 0.719997 0.486954 0.348220
Si Si6 0.640223 0.135139 0.544186
Si Si7 0.640080 0.135481 0.095323
O O1 0.250000 0.750000 0.761997
O O2 0.210520 0.513846 0.797134
O O3 0.041584 0.689952 0.809845
O O4 0.080884 0.593246 0.719207
O O5 0.750000 0.750000 0.933671
O O6 0.991753 0.710768 0.905720
O O7 0.818015 0.538297 0.892863
O O8 0.886102 0.606309 0.987415
O O9 0.865209 0.116138 0.858622
O O10 0.117969 0.132644 0.845318
O O11 0.594850 0.086058 0.148587
O O12 0.750000 0.250000 0.549086
O O13 0.499474 0.173311 0.568936
O O14 0.685670 0.998772 0.568659
O O15 0.750000 0.250000 0.094811
#
# Coordination Sequence:
#
# PCOD9353921 Si02
#       7
#     8   8   8   4   8   8   8
#     4  10  20  33  52  77 104 139 179 219 268 322
#     4   9  17  31  53  78 107 145 180 213 259 314
#     4   9  18  31  47  74 110 141 173 212 255 314
#     4  10  22  38  56  76 102 134 182 236 282 336
#     4   9  18  31  47  74 110 141 173 212 255 314
#     4   9  20  39  61  86 115 147 188 233 277 334
#     4  10  24  42  59  83 111 141 185 241 296 346
#
# _framework density 18.251270999999999
#
# number of rings (size 3 to 8) (size 9 to 14) (size 15 to 20)
#    0.000    2.769    0.000    0.923    0.000    8.000 
#    0.000    4.615    0.000    0.000    0.000    0.000 
#    0.000    0.000    0.000    0.000    0.000    0.000 
#
# Total GULP energy -144941.139536 kJ/mol
# GULP energy per Si atom -5574.659213 kJ/mol
# Density = 1.820973 g / cm^3
# Si number density = 18.251271 Si / 1000 Ang^3
#
#
#
# Elastic Constant Matrix: (Units=GPa)
#
#
# Indices 1 2 3 4 5 6 
#
# 1 56.9704 48.7551 33.5411 0.0000 0.0000 0.0000
# 2 48.7551 82.8923 46.5096 0.0000 0.0000 0.0000
# 3 33.5411 46.5096 151.0687 0.0000 0.0000 0.0000
# 4 0.0000 0.0000 0.0000 -14.4143 0.0000 0.0000
# 5 0.0000 0.0000 0.0000 0.0000 195.4559 0.0000
# 6 0.0000 0.0000 0.0000 0.0000 0.0000 40.0191
#
#
#
# Elastic Compliance Matrix: (Units=1/GPa)
#
#
# Indices 1 2 3 4 5 6 
#
# 1 0.035730 -0.020023 -0.001768 0.000000 0.000000 0.000000
# 2 -0.020023 0.025804 -0.003499 0.000000 0.000000 0.000000
# 3 -0.001768 -0.003499 0.008089 0.000000 0.000000 0.000000
# 4 0.000000 0.000000 0.000000 -0.069376 0.000000 0.000000
# 5 0.000000 0.000000 0.000000 0.000000 0.005116 0.000000
# 6 0.000000 0.000000 0.000000 0.000000 0.000000 0.024988
#
#
# Mechanical properties :
#
#
# Convention : Reuss Voigt Hill
#
# Bulk Modulus (GPa) = 52.51347 60.94921 56.73134
# Shear Modulus (GPa) = 57.28718 55.02053 56.15386
#
# Velocity S-wave (km/s) = 5.60858 5.49651 5.55283
# Velocity P-wave (km/s) = 8.41288 8.58773 8.50075
#
# Compressibility (1/GPa) = 0.01904273
#
# Stress axis : x y z
#
# Youngs Moduli (GPa) = 27.98780 38.75373 123.62073
#
# Poissons Ratio (x) = 0.77597 0.21861
# Poissons Ratio (y) = 0.56040 0.43250
# Poissons Ratio (z) = 0.04949 0.13559
#
# Static dielectric constant tensor:
#      x y z
#    x 1.591650 0.000000 0.000000 
#    y 0.000000 1.649350 0.000000 
#    z 0.000000 0.000000 1.601950 
# 
# From -- ./inp_files/19741.got.cif
#   From: 2010.05.17/outbox.cif.g08.bks.cpg/sg37_10_cif.got.tgz:19741.got - 2010.06.03 17:53:42.
