data_PCOD9353362
_publ_section_title
;
Structure prediction by ZEFSAII (Michael W. Deem and Ramdas Pophale) SiO2 
 PCOD9353362
Probable space group: C M C 21
;
_chemical_formula_sum "Si O2"
_cell_formula_units_Z 32
_cell_length_a 9.000000
_cell_length_b 30.000000
_cell_length_c 12.000000
_cell_angle_alpha 90.000000
_cell_angle_beta 90.000000
_cell_angle_gamma 90.000000
_cell_volume 3240.000000
_symmetry_space_group_name_H-M "C M C 21"
_symmetry_group_IT_number 36
_symmetry_cell_setting 'orthorhombic'
loop_
_space_group_symop_operation_xyz
x,y,z
-x,-y,1/2+z
x,-y,1/2+z
-x,y,z
1/2+x,1/2+y,z
1/2-x,1/2-y,1/2+z
1/2+x,1/2-y,1/2+z
1/2-x,1/2+y,z
loop_
_atom_site_type_symbol
_atom_site_label
_atom_site_fract_x
_atom_site_fract_y
_atom_site_fract_z
Si Si1 0.324252 0.965368 0.156650
Si Si2 0.674900 0.446557 0.707736
Si Si3 0.327548 0.189712 0.671734
Si Si4 0.181181 0.391409 0.324210
Si Si5 0.179672 0.631214 0.073502
Si Si6 0.674054 0.782965 0.699022
Si Si7 0.828969 0.927100 0.949637
Si Si8 0.169640 0.340165 0.917461
O O1 0.500000 0.973692 0.162333
O O2 0.275613 0.937413 0.265132
O O3 0.235355 0.010723 0.144241
O O4 0.283359 0.936404 0.049103
O O5 0.500000 0.439927 0.692519
O O6 0.761510 0.403936 0.662723
O O7 0.701547 0.455335 0.838805
O O8 0.500000 0.193805 0.702238
O O9 0.266752 0.148850 0.744963
O O10 0.250804 0.235989 0.694158
O O11 0.319569 0.179149 0.541119
O O12 0.229184 0.383372 0.450476
O O13 0.000000 0.391392 0.323189
O O14 0.230084 0.680399 0.110220
O O15 0.000000 0.630871 0.076121
O O16 0.500000 0.776712 0.676890
O O17 0.689965 0.804387 0.820932
O O18 0.795136 0.877318 0.909157
O O19 0.000000 0.932696 0.984517
O O20 0.000000 0.358497 0.903574
#
# Coordination Sequence:
#
# PCOD9353362 Si02
#       8
#     8   8   8   8   8   8   8   8
#     4  11  23  41  65  89 120 160 204 246 296 360
#     4  11  25  42  60  90 126 156 197 249 305 358
#     4  10  21  38  60  84 117 156 196 244 300 355
#     4   9  20  39  61  88 117 152 199 247 290 350
#     4  10  21  40  63  87 118 158 202 244 294 357
#     4  10  22  37  58  88 119 152 200 250 294 355
#     4  11  23  40  63  90 121 155 199 255 308 356
#     4  10  20  39  62  84 114 157 207 251 295 359
#
# _framework density 9.8765429999999999
#
# number of rings (size 3 to 8) (size 9 to 14) (size 15 to 20)
#    0.000    1.750    2.500    1.125    3.500    3.000 
#    0.000    1.250    0.000    0.000    0.000    0.000 
#    0.000    0.000    0.000    0.000    0.000    0.000 
#
# Total GULP energy -178552.960897 kJ/mol
# GULP energy per Si atom -5579.780028 kJ/mol
# Density = 0.985406 g / cm^3
# Si number density = 9.876543 Si / 1000 Ang^3
#
#
#
# Elastic Constant Matrix: (Units=GPa)
#
#
# Indices 1 2 3 4 5 6 
#
# 1 -2.3502 4.8106 13.5907 0.0000 0.0000 0.0000
# 2 4.8106 56.8440 -17.8502 0.0000 0.0000 0.0000
# 3 13.5907 -17.8502 34.4758 0.0000 0.0000 0.0000
# 4 0.0000 0.0000 0.0000 -4.8578 0.0000 0.0000
# 5 0.0000 0.0000 0.0000 0.0000 19.9956 0.0000
# 6 0.0000 0.0000 0.0000 0.0000 0.0000 19.2107
#
#
#
# Elastic Compliance Matrix: (Units=1/GPa)
#
#
# Indices 1 2 3 4 5 6 
#
# 1 -0.093840 0.023355 0.049085 0.000000 0.000000 0.000000
# 2 0.023355 0.015195 -0.001340 0.000000 0.000000 0.000000
# 3 0.049085 -0.001340 0.008962 0.000000 0.000000 0.000000
# 4 0.000000 0.000000 0.000000 -0.205856 0.000000 0.000000
# 5 0.000000 0.000000 0.000000 0.000000 0.050011 0.000000
# 6 0.000000 0.000000 0.000000 0.000000 0.000000 0.052054
#
#
# Mechanical properties :
#
#
# Convention : Reuss Voigt Hill
#
# Bulk Modulus (GPa) = 13.78955 10.00801 11.89878
# Shear Modulus (GPa) = -17.15245 12.76427 -2.19409
#
# Velocity S-wave (km/s) = -2.94996 2.54479 -1.05507
# Velocity P-wave (km/s) = 2.14637 3.70299 2.13368
#
# Compressibility (1/GPa) = 0.07251867
#
# Stress axis : x y z
#
# Youngs Moduli (GPa) = -10.65640 65.81208 111.57944
#
# Poissons Ratio (x) = -1.53706 -5.47692
# Poissons Ratio (y) = 0.24888 0.14948
# Poissons Ratio (z) = 0.52307 0.08817
#
# Static dielectric constant tensor:
#      x y z
#    x 1.682650 0.000000 0.000000 
#    y 0.000000 1.776240 0.000000 
#    z 0.000000 0.000000 1.711000 
# 
# From -- ./inp_files/7101.got.cif
#   From: 2010.05.17/outbox.ucp.g08.bks.cvg/sg36_4_cif.got.tgz:7101.got - 2010.06.11 10:37:26.
