data_PCOD9353043
_publ_section_title
;
Structure prediction by ZEFSAII (Michael W. Deem and Ramdas Pophale) SiO2 
 PCOD9353043
Probable space group: C M C 21
;
_chemical_formula_sum "Si O2"
_cell_formula_units_Z 48
_cell_length_a 20.521543
_cell_length_b 10.582260
_cell_length_c 9.325990
_cell_angle_alpha 90.000000
_cell_angle_beta 90.000000
_cell_angle_gamma 90.000000
_cell_volume 2025.272124
_symmetry_space_group_name_H-M "C M C 21"
_symmetry_group_IT_number 36
_symmetry_cell_setting 'orthorhombic'
loop_
_space_group_symop_operation_xyz
x,y,z
-x,-y,1/2+z
x,-y,1/2+z
-x,y,z
1/2+x,1/2+y,z
1/2-x,1/2-y,1/2+z
1/2+x,1/2-y,1/2+z
1/2-x,1/2+y,z
loop_
_atom_site_type_symbol
_atom_site_label
_atom_site_fract_x
_atom_site_fract_y
_atom_site_fract_z
Si Si1 0.928035 0.737700 0.599850
Si Si2 0.575314 0.833274 0.652630
Si Si3 0.358375 0.352226 0.368424
Si Si4 0.711044 0.756285 0.127182
Si Si5 0.386879 0.999138 0.405318
Si Si6 0.749067 0.507996 0.273218
O O1 0.916715 0.851328 0.484370
O O2 0.862631 0.742450 0.693478
O O3 0.916303 0.614290 0.500243
O O4 0.000000 0.738641 0.661961
O O5 0.500000 0.798038 0.659825
O O6 0.617287 0.724104 0.729864
O O7 0.593705 0.875019 0.492547
O O8 0.585879 0.960168 0.750209
O O9 0.303534 0.273618 0.460275
O O10 0.322194 0.482308 0.338438
O O11 0.749739 0.638776 0.189741
O O12 0.741797 0.889100 0.166137
O O13 0.309248 0.000535 0.382405
#
# Coordination Sequence:
#
# PCOD9353043 Si02
#       6
#     8   8   8   8   8   8
#     4   9  19  40  63  95 134 183 233 285 362 422
#     4  11  22  42  68 105 142 189 242 296 372 435
#     4   9  23  39  68  92 137 186 224 300 355 427
#     4  10  25  42  71  99 139 184 229 302 356 435
#     4  11  23  36  70 102 145 188 232 312 355 436
#     4  12  25  43  66 105 138 184 246 287 372 433
#
# _framework density 23.700519
#
# number of rings (size 3 to 8) (size 9 to 14) (size 15 to 20)
#    1.000    0.667    0.000    6.000    7.000    0.000 
#    0.000    3.333    0.000    0.000    0.000    0.000 
#    0.000    0.000    0.000    0.000    0.000    0.000 
#
# Total GULP energy -133893.981312 kJ/mol
# GULP energy per Si atom -5578.915888 kJ/mol
# Density = 2.364658 g / cm^3
# Si number density = 23.700519 Si / 1000 Ang^3
#
#
#
# Elastic Constant Matrix: (Units=GPa)
#
#
# Indices 1 2 3 4 5 6 
#
# 1 132.8277 31.0550 22.6252 0.0000 0.0000 0.0000
# 2 31.0550 70.5283 21.8345 0.0000 0.0000 0.0000
# 3 22.6252 21.8345 59.1066 0.0000 0.0000 0.0000
# 4 0.0000 0.0000 0.0000 22.9533 0.0000 0.0000
# 5 0.0000 0.0000 0.0000 0.0000 38.3059 0.0000
# 6 0.0000 0.0000 0.0000 0.0000 0.0000 30.7474
#
#
#
# Elastic Compliance Matrix: (Units=1/GPa)
#
#
# Indices 1 2 3 4 5 6 
#
# 1 0.008627 -0.003135 -0.002144 0.000000 0.000000 0.000000
# 2 -0.003135 0.017149 -0.005135 0.000000 0.000000 0.000000
# 3 -0.002144 -0.005135 0.019636 0.000000 0.000000 0.000000
# 4 0.000000 0.000000 0.000000 0.043567 0.000000 0.000000
# 5 0.000000 0.000000 0.000000 0.000000 0.026106 0.000000
# 6 0.000000 0.000000 0.000000 0.000000 0.000000 0.032523
#
#
# Mechanical properties :
#
#
# Convention : Reuss Voigt Hill
#
# Bulk Modulus (GPa) = 40.67698 45.94356 43.31027
# Shear Modulus (GPa) = 28.30787 30.86451 29.58619
#
# Velocity S-wave (km/s) = 3.45976 3.61261 3.53701
# Velocity P-wave (km/s) = 5.75848 6.06864 5.91559
#
# Compressibility (1/GPa) = 0.02458393
#
# Stress axis : x y z
#
# Youngs Moduli (GPa) = 115.91959 58.31355 50.92621
#
# Poissons Ratio (x) = 0.18279 0.10920
# Poissons Ratio (y) = 0.36337 0.26150
# Poissons Ratio (z) = 0.24855 0.29944
#
# Static dielectric constant tensor:
#      x y z
#    x 1.915410 0.000000 0.000000 
#    y 0.000000 1.942610 0.000000 
#    z 0.000000 0.000000 1.969170 
# 
# From -- ./inp_files/9197.got.cif
#   From: 2010.05.17/outbox.cif.g08.bks.cpg/sg36_5_cif.got.tgz:9197.got - 2010.06.03 17:41:39.
