data_PCOD9353406
_publ_section_title
;
Structure prediction by ZEFSAII (Michael W. Deem and Ramdas Pophale) SiO2 
 PCOD9353406
Probable space group: C M C 21
;
_chemical_formula_sum "Si O2"
_cell_formula_units_Z 20
_cell_length_a 12.000000
_cell_length_b 27.000000
_cell_length_c 6.000000
_cell_angle_alpha 90.000000
_cell_angle_beta 90.000000
_cell_angle_gamma 90.000000
_cell_volume 1944.000000
_symmetry_space_group_name_H-M "C M C 21"
_symmetry_group_IT_number 36
_symmetry_cell_setting 'orthorhombic'
loop_
_space_group_symop_operation_xyz
x,y,z
-x,-y,1/2+z
x,-y,1/2+z
-x,y,z
1/2+x,1/2+y,z
1/2-x,1/2-y,1/2+z
1/2+x,1/2-y,1/2+z
1/2-x,1/2+y,z
loop_
_atom_site_type_symbol
_atom_site_label
_atom_site_fract_x
_atom_site_fract_y
_atom_site_fract_z
Si Si1 0.755600 0.475907 0.150980
Si Si2 0.119811 0.280902 0.875032
Si Si3 0.000000 0.893288 0.674595
Si Si4 0.000000 0.054315 0.669855
Si Si5 0.304793 0.320816 0.563692
Si Si6 0.370413 0.870521 0.232747
O O1 0.783868 0.498569 0.404514
O O2 0.620217 0.472594 0.161924
O O3 0.815730 0.421787 0.142541
O O4 0.228401 0.291410 0.734607
O O5 0.128286 0.223506 0.944800
O O6 0.000000 0.287641 0.756571
O O7 0.123705 0.323539 0.064232
O O8 0.000000 0.919554 0.422453
O O9 0.890515 0.859095 0.669755
O O10 0.000000 0.919063 0.921054
O O11 0.216821 0.351752 0.417371
O O12 0.500000 0.879826 0.302011
#
# Coordination Sequence:
#
# PCOD9353406 Si02
#       6
#     8   8   4   4   8   8
#     4  12  27  48  76 105 142 187 242 305 371 435
#     4  11  24  42  67 101 144 192 241 295 358 434
#     4  12  26  41  80 108 154 190 238 301 366 436
#     4  12  24  49  74 114 144 186 236 305 378 436
#     4  12  23  43  68 106 144 195 242 298 358 437
#     4  11  26  47  69 101 141 190 245 301 363 432
#
# _framework density 10.288066000000001
#
# number of rings (size 3 to 8) (size 9 to 14) (size 15 to 20)
#    0.000    0.400    5.000    3.600    2.800    0.800 
#    1.800    0.000    0.000    0.000    0.000    0.000 
#    0.000    0.000    0.000    0.000    0.000    0.000 
#
# Total GULP energy -111439.773570 kJ/mol
# GULP energy per Si atom -5571.988679 kJ/mol
# Density = 1.026465 g / cm^3
# Si number density = 10.288066 Si / 1000 Ang^3
#
#
#
# Elastic Constant Matrix: (Units=GPa)
#
#
# Indices 1 2 3 4 5 6 
#
# 1 120.9973 16.0913 12.2995 0.0000 0.0000 0.0000
# 2 16.0913 91.5083 40.8752 0.0000 0.0000 0.0000
# 3 12.2995 40.8752 103.7561 0.0000 0.0000 0.0000
# 4 0.0000 0.0000 0.0000 46.8337 0.0000 0.0000
# 5 0.0000 0.0000 0.0000 0.0000 -9.8799 0.0000
# 6 0.0000 0.0000 0.0000 0.0000 0.0000 45.6010
#
#
#
# Elastic Compliance Matrix: (Units=1/GPa)
#
#
# Indices 1 2 3 4 5 6 
#
# 1 0.008484 -0.001265 -0.000507 0.000000 0.000000 0.000000
# 2 -0.001265 0.013450 -0.005149 0.000000 0.000000 0.000000
# 3 -0.000507 -0.005149 0.011727 0.000000 0.000000 0.000000
# 4 0.000000 0.000000 0.000000 0.021352 0.000000 0.000000
# 5 0.000000 0.000000 0.000000 0.000000 -0.101216 0.000000
# 6 0.000000 0.000000 0.000000 0.000000 0.000000 0.021929
#
#
# Mechanical properties :
#
#
# Convention : Reuss Voigt Hill
#
# Bulk Modulus (GPa) = 50.45807 50.53265 50.49536
# Shear Modulus (GPa) = -1307.64517 32.97733 -637.33392
#
# Velocity S-wave (km/s) = -25.23678 4.00771 -17.61865
# Velocity P-wave (km/s) = 28.71616 6.78439 19.73056
#
# Compressibility (1/GPa) = 0.01981843
#
# Stress axis : x y z
#
# Youngs Moduli (GPa) = 117.86208 74.34735 85.27677
#
# Poissons Ratio (x) = 0.09408 0.04326
# Poissons Ratio (y) = 0.14914 0.43908
# Poissons Ratio (z) = 0.05979 0.38280
#
# Static dielectric constant tensor:
#      x y z
#    x 1.727880 0.000000 0.000000 
#    y 0.000000 1.751420 0.000000 
#    z 0.000000 0.000000 1.805510 
# 
# From -- ./inp_files/524.got.cif
#   From: 2010.05.17/outbox.ucp.g08.bks.cvg/sg36_1_cif.got.tgz:524.got - 2010.06.11 10:37:26.
