data_PCOD9353088
_publ_section_title
;
Structure prediction by ZEFSAII (Michael W. Deem and Ramdas Pophale) SiO2 
 PCOD9353088
Probable space group: C M C 21
;
_chemical_formula_sum "Si O2"
_cell_formula_units_Z 64
_cell_length_a 9.108769
_cell_length_b 23.752905
_cell_length_c 17.380290
_cell_angle_alpha 90.000000
_cell_angle_beta 90.000000
_cell_angle_gamma 90.000000
_cell_volume 3760.394760
_symmetry_space_group_name_H-M "C M C 21"
_symmetry_group_IT_number 36
_symmetry_cell_setting 'orthorhombic'
loop_
_space_group_symop_operation_xyz
x,y,z
-x,-y,1/2+z
x,-y,1/2+z
-x,y,z
1/2+x,1/2+y,z
1/2-x,1/2-y,1/2+z
1/2+x,1/2-y,1/2+z
1/2-x,1/2+y,z
loop_
_atom_site_type_symbol
_atom_site_label
_atom_site_fract_x
_atom_site_fract_y
_atom_site_fract_z
Si Si1 0.667199 0.576618 0.666100
Si Si2 0.167199 0.423382 0.546190
Si Si3 0.824117 0.185921 0.583000
Si Si4 0.174659 0.866357 0.777938
Si Si5 0.825341 0.366357 0.934353
Si Si6 0.333148 0.026263 0.220348
Si Si7 0.833148 0.026262 0.491942
Si Si8 0.324117 0.814078 0.629290
O O1 0.500000 0.575008 0.695370
O O2 0.713374 0.640851 0.650044
O O3 0.771224 0.536817 0.715975
O O4 0.664706 0.549451 0.580069
O O5 0.164705 0.450548 0.632221
O O6 0.271224 0.463182 0.496315
O O7 0.213374 0.359148 0.562247
O O8 0.000000 0.424991 0.516920
O O9 0.736738 0.168034 0.507084
O O10 0.796376 0.250000 0.606145
O O11 0.000000 0.178977 0.568920
O O12 0.250000 0.845858 0.856145
O O13 0.228375 0.930637 0.764464
O O14 0.236739 0.831966 0.705207
O O15 0.000000 0.863465 0.781974
O O16 0.000000 0.363466 0.930317
O O17 0.771625 0.430637 0.947826
O O18 0.500000 0.029081 0.249473
O O19 0.000000 0.029080 0.462818
O O20 0.500000 0.821023 0.643370
#
# Coordination Sequence:
#
# PCOD9353088 Si02
#       8
#     8   8   8   8   8   8   8   8
#     4   8  14  25  43  68  95 122 152 189 234 281
#     4   8  14  25  43  68  95 122 152 189 234 281
#     4   9  18  33  52  74 101 133 170 210 249 292
#     4  11  21  33  50  72  99 129 164 206 254 305
#     4  11  21  33  50  72  99 129 164 206 254 305
#     4   9  16  27  44  67  94 122 153 190 236 286
#     4   9  16  27  44  67  94 122 153 190 236 286
#     4   9  18  33  52  74 101 133 170 210 249 292
#
# _framework density 17.019487999999999
#
# number of rings (size 3 to 8) (size 9 to 14) (size 15 to 20)
#    0.000    2.750    0.000    4.500    0.000    6.500 
#    0.000    0.000    0.000    1.500    0.000    7.000 
#    0.000    0.000    0.000    0.000    0.000    0.000 
#
# Total GULP energy -178309.486661 kJ/mol
# GULP energy per Si atom -5572.171458 kJ/mol
# Density = 1.698075 g / cm^3
# Si number density = 17.019488 Si / 1000 Ang^3
#
#
#
# Elastic Constant Matrix: (Units=GPa)
#
#
# Indices 1 2 3 4 5 6 
#
# 1 110.9019 58.0641 42.6142 0.0000 0.0000 0.0000
# 2 58.0641 136.5314 25.6229 0.0000 0.0000 0.0000
# 3 42.6142 25.6229 41.2277 0.0000 0.0000 0.0000
# 4 0.0000 0.0000 0.0000 8.9451 0.0000 0.0000
# 5 0.0000 0.0000 0.0000 0.0000 17.3459 0.0000
# 6 0.0000 0.0000 0.0000 0.0000 0.0000 24.5208
#
#
#
# Elastic Compliance Matrix: (Units=1/GPa)
#
#
# Indices 1 2 3 4 5 6 
#
# 1 0.017069 -0.004469 -0.014865 0.000000 0.000000 0.000000
# 2 -0.004469 0.009462 -0.001261 0.000000 0.000000 0.000000
# 3 -0.014865 -0.001261 0.040404 0.000000 0.000000 0.000000
# 4 0.000000 0.000000 0.000000 0.111794 0.000000 0.000000
# 5 0.000000 0.000000 0.000000 0.000000 0.057650 0.000000
# 6 0.000000 0.000000 0.000000 0.000000 0.000000 0.040782
#
#
# Mechanical properties :
#
#
# Convention : Reuss Voigt Hill
#
# Bulk Modulus (GPa) = 38.84377 60.14037 49.49207
# Shear Modulus (GPa) = 15.29366 20.98635 18.14001
#
# Velocity S-wave (km/s) = 3.00091 3.51533 3.26826
# Velocity P-wave (km/s) = 5.90593 7.20344 6.58671
#
# Compressibility (1/GPa) = 0.02574416
#
# Stress axis : x y z
#
# Youngs Moduli (GPa) = 58.58584 105.68991 24.74981
#
# Poissons Ratio (x) = 0.47236 0.36791
# Poissons Ratio (y) = 0.26184 0.03120
# Poissons Ratio (z) = 0.87090 0.13325
#
# Static dielectric constant tensor:
#      x y z
#    x 1.573480 0.000000 0.000000 
#    y 0.000000 1.591500 0.000000 
#    z 0.000000 0.000000 1.580240 
# 
# From -- ./inp_files/14067.got.cif
#   From: 2010.05.17/outbox.cif.g08.bks.cpg/sg36_8_cif.got.tgz:14067.got - 2010.06.03 17:41:39.
