data_PCOD9353148
_publ_section_title
;
Structure prediction by ZEFSAII (Michael W. Deem and Ramdas Pophale) SiO2 
 PCOD9353148
Probable space group: C M C 21
;
_chemical_formula_sum "Si O2"
_cell_formula_units_Z 48
_cell_length_a 22.225951
_cell_length_b 11.392864
_cell_length_c 8.764185
_cell_angle_alpha 90.000000
_cell_angle_beta 90.000000
_cell_angle_gamma 90.000000
_cell_volume 2219.242710
_symmetry_space_group_name_H-M "C M C 21"
_symmetry_group_IT_number 36
_symmetry_cell_setting 'orthorhombic'
loop_
_space_group_symop_operation_xyz
x,y,z
-x,-y,1/2+z
x,-y,1/2+z
-x,y,z
1/2+x,1/2+y,z
1/2-x,1/2-y,1/2+z
1/2+x,1/2-y,1/2+z
1/2-x,1/2+y,z
loop_
_atom_site_type_symbol
_atom_site_label
_atom_site_fract_x
_atom_site_fract_y
_atom_site_fract_z
Si Si1 0.391909 0.350092 0.007170
Si Si2 0.564656 0.895711 0.566497
Si Si3 0.674838 0.736517 0.996988
Si Si4 0.205266 0.714511 0.836592
Si Si5 0.572154 0.589160 0.851340
Si Si6 0.635501 0.968397 0.850249
O O1 0.430404 0.231404 0.990279
O O2 0.402221 0.388516 0.181697
O O3 0.325995 0.303659 0.957706
O O4 0.414136 0.456400 0.902880
O O5 0.500000 0.907449 0.640550
O O6 0.575794 0.993902 0.440655
O O7 0.617092 0.910800 0.690650
O O8 0.726881 0.689590 0.886240
O O9 0.611612 0.672924 0.961931
O O10 0.668755 0.872572 0.951345
O O11 0.695873 0.727682 0.171181
O O12 0.171537 0.589304 0.833556
O O13 0.500000 0.610915 0.855162
#
# Coordination Sequence:
#
# PCOD9353148 Si02
#       6
#     8   8   8   8   8   8
#     4  11  25  45  70 104 142 190 238 293 354 427
#     4  11  22  43  71 102 142 185 228 282 351 420
#     4  12  26  46  74 102 143 188 236 300 359 427
#     4  11  27  47  72 106 140 186 244 298 361 427
#     4  12  25  45  72 105 146 191 238 292 362 434
#     4  11  24  44  69 105 138 178 234 291 347 421
#
# _framework density 21.628997999999999
#
# number of rings (size 3 to 8) (size 9 to 14) (size 15 to 20)
#    0.000    0.667    3.333    4.000    4.667    0.667 
#    0.000    1.667    0.000    0.000    0.000    0.000 
#    0.000    0.000    0.000    0.000    0.000    0.000 
#
# Total GULP energy -134130.805405 kJ/mol
# GULP energy per Si atom -5588.783559 kJ/mol
# Density = 2.157977 g / cm^3
# Si number density = 21.628998 Si / 1000 Ang^3
#
#
#
# Elastic Constant Matrix: (Units=GPa)
#
#
# Indices 1 2 3 4 5 6 
#
# 1 108.3385 37.8980 32.9061 0.0000 0.0000 0.0000
# 2 37.8980 73.8158 32.3845 0.0000 0.0000 0.0000
# 3 32.9061 32.3845 72.7857 0.0000 0.0000 0.0000
# 4 0.0000 0.0000 0.0000 39.8570 0.0000 0.0000
# 5 0.0000 0.0000 0.0000 0.0000 26.7940 0.0000
# 6 0.0000 0.0000 0.0000 0.0000 0.0000 8.5220
#
#
#
# Elastic Compliance Matrix: (Units=1/GPa)
#
#
# Indices 1 2 3 4 5 6 
#
# 1 0.011854 -0.004641 -0.003294 0.000000 0.000000 0.000000
# 2 -0.004641 0.018650 -0.006200 0.000000 0.000000 0.000000
# 3 -0.003294 -0.006200 0.017987 0.000000 0.000000 0.000000
# 4 0.000000 0.000000 0.000000 0.025090 0.000000 0.000000
# 5 0.000000 0.000000 0.000000 0.000000 0.037322 0.000000
# 6 0.000000 0.000000 0.000000 0.000000 0.000000 0.117344
#
#
# Mechanical properties :
#
#
# Convention : Reuss Voigt Hill
#
# Bulk Modulus (GPa) = 49.45369 51.25745 50.35557
# Shear Modulus (GPa) = 18.99284 25.15133 22.07209
#
# Velocity S-wave (km/s) = 2.96652 3.41376 3.19797
# Velocity P-wave (km/s) = 5.88624 6.26804 6.08014
#
# Compressibility (1/GPa) = 0.02022094
#
# Stress axis : x y z
#
# Youngs Moduli (GPa) = 84.35689 53.61960 55.59617
#
# Poissons Ratio (x) = 0.24884 0.18316
# Poissons Ratio (y) = 0.39149 0.34468
# Poissons Ratio (z) = 0.27791 0.33243
#
# Static dielectric constant tensor:
#      x y z
#    x 1.833750 0.000000 0.000000 
#    y 0.000000 1.755040 0.000000 
#    z 0.000000 0.000000 1.798100 
# 
# From -- ./inp_files/5545.got.cif
#   From: 2010.05.17/outbox.cif.g08.bks.cpg/sg36_3_cif.got.tgz:5545.got - 2010.06.03 17:41:39.
