data_PCOD9353674
_publ_section_title
;
Structure prediction by ZEFSAII (Michael W. Deem and Ramdas Pophale) SiO2 
 PCOD9353674
Probable space group: C C C 2
;
_chemical_formula_sum "Si O2"
_cell_formula_units_Z 56
_cell_length_a 27.215850
_cell_length_b 15.137475
_cell_length_c 8.662441
_cell_angle_alpha 90.000000
_cell_angle_beta 90.000000
_cell_angle_gamma 90.000000
_cell_volume 3568.745938
_symmetry_space_group_name_H-M "C C C 2"
_symmetry_group_IT_number 37
_symmetry_cell_setting 'orthorhombic'
loop_
_space_group_symop_operation_xyz
x,y,z
-x,-y,z
-x,y,1/2+z
x,-y,1/2+z
1/2+x,1/2+y,z
1/2-x,1/2-y,z
1/2-x,1/2+y,1/2+z
1/2+x,1/2-y,1/2+z
loop_
_atom_site_type_symbol
_atom_site_label
_atom_site_fract_x
_atom_site_fract_y
_atom_site_fract_z
Si Si1 0.232162 0.614392 0.923390
Si Si2 0.566140 0.457047 0.442776
Si Si3 0.176893 0.902045 0.520027
Si Si4 0.676227 0.281170 0.804014
Si Si5 0.736631 0.456245 0.229223
Si Si6 0.068620 0.829885 0.910567
Si Si7 0.990740 0.861133 0.675154
O O1 0.286531 0.654374 0.894429
O O2 0.195315 0.684164 0.846809
O O3 0.230623 0.523204 0.830043
O O4 0.231107 0.598027 0.106484
O O5 0.619967 0.422081 0.485686
O O6 0.570029 0.562677 0.426867
O O7 0.527240 0.418494 0.566427
O O8 0.544291 0.420480 0.282661
O O9 0.180695 0.814532 0.626593
O O10 0.205686 0.902065 0.356995
O O11 0.200165 0.981807 0.624490
O O12 0.621427 0.296347 0.863098
O O13 0.028057 0.808542 0.782735
O O14 0.045201 0.801974 0.072341
#
# Coordination Sequence:
#
# PCOD9353674 Si02
#       7
#     8   8   8   8   8   8   8
#     4   9  19  35  52  72  95 124 165 208 252 299
#     4  11  18  28  40  64  93 136 183 192 223 271
#     4  10  19  29  50  70  95 133 166 202 242 291
#     4  10  20  33  48  71 104 129 157 207 259 284
#     4   9  18  34  53  70  89 129 168 205 242 303
#     4  11  18  30  42  63  98 136 167 207 236 269
#     4  10  21  27  41  63  96 139 179 205 217 274
#
# _framework density 15.691787
#
# number of rings (size 3 to 8) (size 9 to 14) (size 15 to 20)
#    0.000    2.000    1.429    6.000    4.000    0.000 
#    0.000    8.571    0.000    0.000    0.000    0.000 
#    0.000    3.429    0.000    0.000    0.000    0.000 
#
# Total GULP energy -156005.086909 kJ/mol
# GULP energy per Si atom -5571.610247 kJ/mol
# Density = 1.565607 g / cm^3
# Si number density = 15.691787 Si / 1000 Ang^3
#
#
#
# Elastic Constant Matrix: (Units=GPa)
#
#
# Indices 1 2 3 4 5 6 
#
# 1 78.6122 29.3430 40.4303 0.0000 0.0000 0.0000
# 2 29.3430 40.3982 31.8231 0.0000 0.0000 0.0000
# 3 40.4303 31.8231 119.7341 0.0000 0.0000 0.0000
# 4 0.0000 0.0000 0.0000 13.4810 0.0000 0.0000
# 5 0.0000 0.0000 0.0000 0.0000 22.1988 0.0000
# 6 0.0000 0.0000 0.0000 0.0000 0.0000 11.1499
#
#
#
# Elastic Compliance Matrix: (Units=1/GPa)
#
#
# Indices 1 2 3 4 5 6 
#
# 1 0.018473 -0.010756 -0.003379 0.000000 0.000000 0.000000
# 2 -0.010756 0.037571 -0.006354 0.000000 0.000000 0.000000
# 3 -0.003379 -0.006354 0.011182 0.000000 0.000000 0.000000
# 4 0.000000 0.000000 0.000000 0.074179 0.000000 0.000000
# 5 0.000000 0.000000 0.000000 0.000000 0.045047 0.000000
# 6 0.000000 0.000000 0.000000 0.000000 0.000000 0.089687
#
#
# Mechanical properties :
#
#
# Convention : Reuss Voigt Hill
#
# Bulk Modulus (GPa) = 38.09781 49.10416 43.60098
# Shear Modulus (GPa) = 15.34368 18.50915 16.92641
#
# Velocity S-wave (km/s) = 3.13040 3.43817 3.28789
# Velocity P-wave (km/s) = 6.11534 6.86456 6.50075
#
# Compressibility (1/GPa) = 0.02624823
#
# Stress axis : x y z
#
# Youngs Moduli (GPa) = 54.13176 26.61599 89.43318
#
# Poissons Ratio (x) = 0.28629 0.30220
# Poissons Ratio (y) = 0.58226 0.56823
# Poissons Ratio (z) = 0.18291 0.16911
#
# Static dielectric constant tensor:
#      x y z
#    x 1.521440 0.000000 0.000000 
#    y 0.000000 1.521060 0.000000 
#    z 0.000000 0.000000 1.595010 
# 
# From -- ./inp_files/3803.got.cif
#   From: 2010.05.17/outbox.cif.g08.bks.cpg/sg37_2_cif.got.tgz:3803.got - 2010.06.03 17:53:42.
