data_PCOD9353606
_publ_section_title
;
Structure prediction by ZEFSAII (Michael W. Deem and Ramdas Pophale) SiO2 
 PCOD9353606
Probable space group: C C C 2
;
_chemical_formula_sum "Si O2"
_cell_formula_units_Z 56
_cell_length_a 9.404763
_cell_length_b 12.952337
_cell_length_c 22.010973
_cell_angle_alpha 90.000000
_cell_angle_beta 90.000000
_cell_angle_gamma 90.000000
_cell_volume 2681.237176
_symmetry_space_group_name_H-M "C C C 2"
_symmetry_group_IT_number 37
_symmetry_cell_setting 'orthorhombic'
loop_
_space_group_symop_operation_xyz
x,y,z
-x,-y,z
-x,y,1/2+z
x,-y,1/2+z
1/2+x,1/2+y,z
1/2-x,1/2-y,z
1/2-x,1/2+y,1/2+z
1/2+x,1/2-y,1/2+z
loop_
_atom_site_type_symbol
_atom_site_label
_atom_site_fract_x
_atom_site_fract_y
_atom_site_fract_z
Si Si1 0.976213 0.797662 0.263840
Si Si2 0.273758 0.389982 0.566492
Si Si3 0.000000 0.500000 0.830311
Si Si4 0.793803 0.592648 0.238001
Si Si5 0.015639 0.263976 0.521672
Si Si6 0.136845 0.574688 0.597356
Si Si7 0.584126 0.777546 0.885374
Si Si8 0.250000 0.750000 0.181054
O O1 0.879293 0.696972 0.253399
O O2 0.874182 0.892191 0.246743
O O3 0.011843 0.794852 0.334773
O O4 0.116006 0.779161 0.222911
O O5 0.154190 0.339613 0.523040
O O6 0.423609 0.341038 0.549708
O O7 0.261932 0.511924 0.564731
O O8 0.230348 0.345091 0.633570
O O9 0.134675 0.512890 0.784580
O O10 0.036360 0.396059 0.868511
O O11 0.827194 0.577613 0.167734
O O12 0.902711 0.318104 0.566272
O O13 0.961786 0.255121 0.453853
O O14 0.000000 0.500000 0.590085
O O15 0.750000 0.750000 0.879925
#
# Coordination Sequence:
#
# PCOD9353606 Si02
#       8
#     8   8   4   8   8   8   8   4
#     4  10  21  37  64  94 129 173 215 266 338 396
#     4   9  20  35  66  90 122 169 206 275 328 391
#     4  10  24  40  68  96 128 168 224 270 336 402
#     4  10  20  37  63 101 126 167 218 274 330 407
#     4   9  20  38  60  90 122 175 217 254 331 390
#     4  10  18  35  63  92 128 159 208 267 330 393
#     4  11  24  44  66  89 130 179 219 273 328 391
#     4  10  18  38  60  86 130 164 206 260 344 394
#
# _framework density 20.88588
#
# number of rings (size 3 to 8) (size 9 to 14) (size 15 to 20)
#    0.000    2.286    1.429    2.571    5.000    4.571 
#    7.714    2.857    0.000    0.000    0.000    0.000 
#    0.000    0.000    0.000    0.000    0.000    0.000 
#
# Total GULP energy -156206.806606 kJ/mol
# GULP energy per Si atom -5578.814522 kJ/mol
# Density = 2.083834 g / cm^3
# Si number density = 20.885880 Si / 1000 Ang^3
#
#
#
# Elastic Constant Matrix: (Units=GPa)
#
#
# Indices 1 2 3 4 5 6 
#
# 1 110.2455 47.4707 50.9058 0.0000 0.0000 0.0000
# 2 47.4707 46.8818 29.0534 0.0000 0.0000 0.0000
# 3 50.9058 29.0534 113.3110 0.0000 0.0000 0.0000
# 4 0.0000 0.0000 0.0000 -96.6013 0.0000 0.0000
# 5 0.0000 0.0000 0.0000 0.0000 34.4508 0.0000
# 6 0.0000 0.0000 0.0000 0.0000 0.0000 34.9454
#
#
#
# Elastic Compliance Matrix: (Units=1/GPa)
#
#
# Indices 1 2 3 4 5 6 
#
# 1 0.017442 -0.015224 -0.003932 0.000000 0.000000 0.000000
# 2 -0.015224 0.038648 -0.003070 0.000000 0.000000 0.000000
# 3 -0.003932 -0.003070 0.011379 0.000000 0.000000 0.000000
# 4 0.000000 0.000000 0.000000 -0.010352 0.000000 0.000000
# 5 0.000000 0.000000 0.000000 0.000000 0.029027 0.000000
# 6 0.000000 0.000000 0.000000 0.000000 0.000000 0.028616
#
#
# Mechanical properties :
#
#
# Convention : Reuss Voigt Hill
#
# Bulk Modulus (GPa) = 43.44774 58.36643 50.90709
# Shear Modulus (GPa) = 29.96093 4.09287 17.02690
#
# Velocity S-wave (km/s) = 3.79160 1.40139 2.85833
# Velocity P-wave (km/s) = 6.32581 5.53395 5.94308
#
# Compressibility (1/GPa) = 0.02301616
#
# Stress axis : x y z
#
# Youngs Moduli (GPa) = 57.33408 25.87472 87.88058
#
# Poissons Ratio (x) = 0.39391 0.34558
# Poissons Ratio (y) = 0.87284 0.26980
# Poissons Ratio (z) = 0.22546 0.07944
#
# Static dielectric constant tensor:
#      x y z
#    x 1.798700 0.000000 0.000000 
#    y 0.000000 1.828380 0.000000 
#    z 0.000000 0.000000 1.725250 
# 
# From -- ./inp_files/16456.got.cif
#   From: 2010.05.17/outbox.cif.g08.bks.cpg/sg37_9_cif.got.tgz:16456.got - 2010.06.03 17:53:42.
