data_PCOD9353420
_publ_section_title
;
Structure prediction by ZEFSAII (Michael W. Deem and Ramdas Pophale) SiO2 
 PCOD9353420
Probable space group: C C C 2
;
_chemical_formula_sum "Si O2"
_cell_formula_units_Z 48
_cell_length_a 18.802167
_cell_length_b 7.365746
_cell_length_c 15.414858
_cell_angle_alpha 90.000000
_cell_angle_beta 90.000000
_cell_angle_gamma 90.000000
_cell_volume 2134.834304
_symmetry_space_group_name_H-M "C C C 2"
_symmetry_group_IT_number 37
_symmetry_cell_setting 'orthorhombic'
loop_
_space_group_symop_operation_xyz
x,y,z
-x,-y,z
-x,y,1/2+z
x,-y,1/2+z
1/2+x,1/2+y,z
1/2-x,1/2-y,z
1/2-x,1/2+y,1/2+z
1/2+x,1/2-y,1/2+z
loop_
_atom_site_type_symbol
_atom_site_label
_atom_site_fract_x
_atom_site_fract_y
_atom_site_fract_z
Si Si1 0.786617 0.557258 0.097150
Si Si2 0.531369 0.792489 0.961807
Si Si3 0.332184 0.017792 0.910883
Si Si4 0.553839 0.833433 0.149723
Si Si5 0.277165 0.536400 0.771617
Si Si6 0.081436 0.179166 0.330882
O O1 0.750000 0.750000 0.075061
O O2 0.865059 0.594681 0.137615
O O3 0.737688 0.472766 0.173094
O O4 0.799679 0.463188 0.004562
O O5 0.481734 0.675873 0.900163
O O6 0.500000 0.000000 0.964603
O O7 0.611333 0.822790 0.928223
O O8 0.535182 0.729580 0.061092
O O9 0.272459 0.059181 0.841202
O O10 0.374762 0.851095 0.868566
O O11 0.548616 0.723304 0.237570
O O12 0.500000 0.000000 0.157380
O O13 0.250000 0.750000 0.768332
O O14 0.357315 0.535170 0.807254
#
# Coordination Sequence:
#
# PCOD9353420 Si02
#       6
#     8   8   8   8   8   8
#     4  10  17  29  44  71 102 132 166 202 253 306
#     4   8  16  24  37  68  94 122 152 193 242 281
#     4   9  16  26  44  68  97 128 159 205 242 294
#     4  10  16  25  44  68 101 129 156 199 254 305
#     4   9  16  28  44  67  95 135 163 196 251 306
#     4  10  16  28  43  68 103 128 163 199 252 306
#
# _framework density 22.484182000000001
#
# number of rings (size 3 to 8) (size 9 to 14) (size 15 to 20)
#    0.000    2.667    5.000    2.500    0.000    0.000 
#    0.000    0.000    0.000    3.000    0.000    4.667 
#    0.000    0.000    0.000    0.000    0.000    0.000 
#
# Total GULP energy -133865.625931 kJ/mol
# GULP energy per Si atom -5577.734414 kJ/mol
# Density = 2.243301 g / cm^3
# Si number density = 22.484182 Si / 1000 Ang^3
#
#
#
# Elastic Constant Matrix: (Units=GPa)
#
#
# Indices 1 2 3 4 5 6 
#
# 1 126.4583 27.4623 80.9333 0.0000 0.0000 0.0000
# 2 27.4623 46.4134 25.3460 0.0000 0.0000 0.0000
# 3 80.9333 25.3460 217.9748 0.0000 0.0000 0.0000
# 4 0.0000 0.0000 0.0000 -27.1725 0.0000 0.0000
# 5 0.0000 0.0000 0.0000 0.0000 -80.5672 0.0000
# 6 0.0000 0.0000 0.0000 0.0000 0.0000 11.6795
#
#
#
# Elastic Compliance Matrix: (Units=1/GPa)
#
#
# Indices 1 2 3 4 5 6 
#
# 1 0.011247 -0.004671 -0.003633 0.000000 0.000000 0.000000
# 2 -0.004671 0.024946 -0.001166 0.000000 0.000000 0.000000
# 3 -0.003633 -0.001166 0.006072 0.000000 0.000000 0.000000
# 4 0.000000 0.000000 0.000000 -0.036802 0.000000 0.000000
# 5 0.000000 0.000000 0.000000 0.000000 -0.012412 0.000000
# 6 0.000000 0.000000 0.000000 0.000000 0.000000 0.085620
#
#
# Mechanical properties :
#
#
# Convention : Reuss Voigt Hill
#
# Bulk Modulus (GPa) = 42.87232 73.14773 58.01002
# Shear Modulus (GPa) = 47.44404 -2.07173 22.68615
#
# Velocity S-wave (km/s) = 4.59857 -0.96095 3.17989
# Velocity P-wave (km/s) = 6.87786 5.60110 6.27206
#
# Compressibility (1/GPa) = 0.02332507
#
# Stress axis : x y z
#
# Youngs Moduli (GPa) = 88.91129 40.08624 164.68482
#
# Poissons Ratio (x) = 0.18724 0.59828
# Poissons Ratio (y) = 0.41530 0.19209
# Poissons Ratio (z) = 0.32301 0.04676
#
# Static dielectric constant tensor:
#      x y z
#    x 1.852970 0.000000 0.000000 
#    y 0.000000 1.858750 0.000000 
#    z 0.000000 0.000000 1.840870 
# 
# From -- ./inp_files/11661.got.cif
#   From: 2010.05.17/outbox.cif.g08.bks.cpg/sg37_6_cif.got.tgz:11661.got - 2010.06.03 17:53:42.
