data_PCOD9353589
_publ_section_title
;
Structure prediction by ZEFSAII (Michael W. Deem and Ramdas Pophale) SiO2 
 PCOD9353589
Probable space group: C C C 2
;
_chemical_formula_sum "Si O2"
_cell_formula_units_Z 56
_cell_length_a 18.941917
_cell_length_b 11.307941
_cell_length_c 12.241246
_cell_angle_alpha 90.000000
_cell_angle_beta 90.000000
_cell_angle_gamma 90.000000
_cell_volume 2622.002423
_symmetry_space_group_name_H-M "C C C 2"
_symmetry_group_IT_number 37
_symmetry_cell_setting 'orthorhombic'
loop_
_space_group_symop_operation_xyz
x,y,z
-x,-y,z
-x,y,1/2+z
x,-y,1/2+z
1/2+x,1/2+y,z
1/2-x,1/2-y,z
1/2-x,1/2+y,1/2+z
1/2+x,1/2-y,1/2+z
loop_
_atom_site_type_symbol
_atom_site_label
_atom_site_fract_x
_atom_site_fract_y
_atom_site_fract_z
Si Si1 0.660222 0.107465 0.073930
Si Si2 0.093281 0.191163 0.863530
Si Si3 0.561894 0.098541 0.523593
Si Si4 0.708116 0.582366 0.718885
Si Si5 0.610982 0.536313 0.516712
Si Si6 0.031865 0.778577 0.139212
Si Si7 0.260259 0.626605 0.873376
O O1 0.726527 0.127336 0.150711
O O2 0.599676 0.196780 0.110827
O O3 0.626037 0.977415 0.071413
O O4 0.694219 0.124609 0.955419
O O5 0.166030 0.171887 0.796772
O O6 0.035781 0.181495 0.765261
O O7 0.083230 0.317949 0.921524
O O8 0.094666 0.083463 0.950692
O O9 0.532618 0.193598 0.610555
O O10 0.500000 0.000000 0.498532
O O11 0.653288 0.524010 0.631726
O O12 0.740080 0.482148 0.794276
O O13 0.544132 0.614051 0.554849
O O14 0.666445 0.610136 0.441207
O O15 0.250000 0.750000 0.812797
#
# Coordination Sequence:
#
# PCOD9353589 Si02
#       7
#     8   8   8   8   8   8   8
#     4  10  21  39  61  95 132 173 213 273 326 401
#     4  10  22  41  68  93 128 176 221 274 339 404
#     4  10  24  43  62  95 131 173 227 279 324 401
#     4   9  21  37  62 100 131 166 218 268 339 397
#     4   9  19  39  60  94 127 160 221 264 322 396
#     4  10  21  42  65  87 130 177 221 273 331 393
#     4  10  18  34  59  91 127 170 203 262 334 387
#
# _framework density 21.357721999999999
#
# number of rings (size 3 to 8) (size 9 to 14) (size 15 to 20)
#    0.000    2.286    1.429    0.000    2.000    3.429 
#    7.714    7.143    0.000    0.000    0.000    0.000 
#    0.000    0.000    0.000    0.000    0.000    0.000 
#
# Total GULP energy -156186.762271 kJ/mol
# GULP energy per Si atom -5578.098653 kJ/mol
# Density = 2.130911 g / cm^3
# Si number density = 21.357722 Si / 1000 Ang^3
#
#
#
# Elastic Constant Matrix: (Units=GPa)
#
#
# Indices 1 2 3 4 5 6 
#
# 1 69.6465 38.2958 27.2294 0.0000 0.0000 0.0000
# 2 38.2958 131.8083 50.6948 0.0000 0.0000 0.0000
# 3 27.2294 50.6948 87.4377 0.0000 0.0000 0.0000
# 4 0.0000 0.0000 0.0000 22.5358 0.0000 0.0000
# 5 0.0000 0.0000 0.0000 0.0000 47.8337 0.0000
# 6 0.0000 0.0000 0.0000 0.0000 0.0000 -0.3530
#
#
#
# Elastic Compliance Matrix: (Units=1/GPa)
#
#
# Indices 1 2 3 4 5 6 
#
# 1 0.017787 -0.003909 -0.003273 0.000000 0.000000 0.000000
# 2 -0.003909 0.010623 -0.004942 0.000000 0.000000 0.000000
# 3 -0.003273 -0.004942 0.015321 0.000000 0.000000 0.000000
# 4 0.000000 0.000000 0.000000 0.044374 0.000000 0.000000
# 5 0.000000 0.000000 0.000000 0.000000 0.020906 0.000000
# 6 0.000000 0.000000 0.000000 0.000000 0.000000 -2.832826
#
#
# Mechanical properties :
#
#
# Convention : Reuss Voigt Hill
#
# Bulk Modulus (GPa) = 51.32384 57.92580 54.62482
# Shear Modulus (GPa) = -1.85662 25.51482 11.82910
#
# Velocity S-wave (km/s) = -0.93337 3.46011 2.35597
# Velocity P-wave (km/s) = 4.78761 6.56839 5.74739
#
# Compressibility (1/GPa) = 0.01948412
#
# Stress axis : x y z
#
# Youngs Moduli (GPa) = 56.21997 94.13351 65.26981
#
# Poissons Ratio (x) = 0.36799 0.21361
# Poissons Ratio (y) = 0.21978 0.32255
# Poissons Ratio (z) = 0.18399 0.46518
#
# Static dielectric constant tensor:
#      x y z
#    x 1.794560 0.000000 0.000000 
#    y 0.000000 1.810440 0.000000 
#    z 0.000000 0.000000 1.767010 
# 
# From -- ./inp_files/7293.got.cif
#   From: 2010.05.17/outbox.cif.g08.bks.cpg/sg37_4_cif.got.tgz:7293.got - 2010.06.03 17:53:42.
