data_PCOD9353508
_publ_section_title
;
Structure prediction by ZEFSAII (Michael W. Deem and Ramdas Pophale) SiO2 
 PCOD9353508
Probable space group: C C C 2
;
_chemical_formula_sum "Si O2"
_cell_formula_units_Z 56
_cell_length_a 13.983095
_cell_length_b 20.773262
_cell_length_c 8.389411
_cell_angle_alpha 90.000000
_cell_angle_beta 90.000000
_cell_angle_gamma 90.000000
_cell_volume 2436.909932
_symmetry_space_group_name_H-M "C C C 2"
_symmetry_group_IT_number 37
_symmetry_cell_setting 'orthorhombic'
loop_
_space_group_symop_operation_xyz
x,y,z
-x,-y,z
-x,y,1/2+z
x,-y,1/2+z
1/2+x,1/2+y,z
1/2-x,1/2-y,z
1/2-x,1/2+y,1/2+z
1/2+x,1/2-y,1/2+z
loop_
_atom_site_type_symbol
_atom_site_label
_atom_site_fract_x
_atom_site_fract_y
_atom_site_fract_z
Si Si1 0.291224 0.929618 0.958230
Si Si2 0.149577 0.290244 0.331034
Si Si3 0.848364 0.705861 0.975765
Si Si4 0.089552 0.899499 0.283621
Si Si5 0.364725 0.262002 0.655108
Si Si6 0.571100 0.557765 0.447636
Si Si7 0.208456 0.431349 0.846615
O O1 0.332872 0.865209 0.878585
O O2 0.180251 0.933380 0.899862
O O3 0.330350 0.999418 0.902777
O O4 0.298795 0.925131 0.152556
O O5 0.250000 0.250000 0.321541
O O6 0.109296 0.285702 0.152034
O O7 0.097566 0.260737 0.485192
O O8 0.750000 0.750000 0.976209
O O9 0.900764 0.727568 0.814656
O O10 0.831299 0.630254 0.940301
O O11 0.122998 0.836187 0.191784
O O12 0.177676 0.925939 0.385778
O O13 0.994599 0.884852 0.381518
O O14 0.074117 0.946196 0.136036
O O15 0.250000 0.250000 0.647307
O O16 0.500000 0.500000 0.399465
#
# Coordination Sequence:
#
# PCOD9353508 Si02
#       7
#     8   8   8   8   8   8   8
#     4  11  22  32  51  72 110 146 187 229 259 317
#     4  10  19  33  53  77  93 132 182 223 280 321
#     4  10  18  31  54  75  94 129 180 221 278 326
#     4  11  22  35  50  70 104 148 189 233 262 308
#     4  10  17  37  53  71  98 127 185 230 275 319
#     4  11  22  34  47  69 105 151 191 223 254 305
#     4  11  19  33  48  73 104 143 184 223 267 305
#
# _framework density 22.979921000000001
#
# number of rings (size 3 to 8) (size 9 to 14) (size 15 to 20)
#    0.000    1.429    5.714    3.857    2.000    1.143 
#    2.571    0.000    0.000    0.000    0.000    0.000 
#    0.000    0.000    0.000   10.286    0.857    0.571 
#
# Total GULP energy -156091.209710 kJ/mol
# GULP energy per Si atom -5574.686061 kJ/mol
# Density = 2.292762 g / cm^3
# Si number density = 22.979921 Si / 1000 Ang^3
#
#
#
# Elastic Constant Matrix: (Units=GPa)
#
#
# Indices 1 2 3 4 5 6 
#
# 1 16.8265 -7.3859 14.1312 0.0000 0.0000 0.0000
# 2 -7.3859 125.9576 19.0270 0.0000 0.0000 0.0000
# 3 14.1312 19.0270 150.2747 0.0000 0.0000 0.0000
# 4 0.0000 0.0000 0.0000 26.3519 0.0000 0.0000
# 5 0.0000 0.0000 0.0000 0.0000 33.0623 0.0000
# 6 0.0000 0.0000 0.0000 0.0000 0.0000 27.9996
#
#
#
# Elastic Compliance Matrix: (Units=1/GPa)
#
#
# Indices 1 2 3 4 5 6 
#
# 1 0.067493 0.005012 -0.006981 0.000000 0.000000 0.000000
# 2 0.005012 0.008466 -0.001543 0.000000 0.000000 0.000000
# 3 -0.006981 -0.001543 0.007506 0.000000 0.000000 0.000000
# 4 0.000000 0.000000 0.000000 0.037948 0.000000 0.000000
# 5 0.000000 0.000000 0.000000 0.000000 0.030246 0.000000
# 6 0.000000 0.000000 0.000000 0.000000 0.000000 0.035715
#
#
# Mechanical properties :
#
#
# Convention : Reuss Voigt Hill
#
# Bulk Modulus (GPa) = 13.08195 38.28925 25.68560
# Shear Modulus (GPa) = 22.73968 35.30186 29.02077
#
# Velocity S-wave (km/s) = 3.14912 3.92370 3.55755
# Velocity P-wave (km/s) = 4.35060 6.10126 5.29873
#
# Compressibility (1/GPa) = 0.07644119
#
# Stress axis : x y z
#
# Youngs Moduli (GPa) = 14.81625 118.11654 133.21997
#
# Poissons Ratio (x) = -0.59203 0.93006
# Poissons Ratio (y) = -0.07426 0.20560
# Poissons Ratio (z) = 0.10344 0.18229
#
# Static dielectric constant tensor:
#      x y z
#    x 1.658890 0.000000 0.000000 
#    y 0.000000 2.075380 0.000000 
#    z 0.000000 0.000000 1.869400 
# 
# From -- ./inp_files/4119.got.cif
#   From: 2010.05.17/outbox.cif.g08.bks.cpg/sg37_3_cif.got.tgz:4119.got - 2010.06.03 17:53:42.
