data_PCOD9353460
_publ_section_title
;
Structure prediction by ZEFSAII (Michael W. Deem and Ramdas Pophale) SiO2 
 PCOD9353460
Probable space group: C C C 2
;
_chemical_formula_sum "Si O2"
_cell_formula_units_Z 48
_cell_length_a 11.723353
_cell_length_b 16.281399
_cell_length_c 14.814898
_cell_angle_alpha 90.000000
_cell_angle_beta 90.000000
_cell_angle_gamma 90.000000
_cell_volume 2827.757919
_symmetry_space_group_name_H-M "C C C 2"
_symmetry_group_IT_number 37
_symmetry_cell_setting 'orthorhombic'
loop_
_space_group_symop_operation_xyz
x,y,z
-x,-y,z
-x,y,1/2+z
x,-y,1/2+z
1/2+x,1/2+y,z
1/2-x,1/2-y,z
1/2-x,1/2+y,1/2+z
1/2+x,1/2-y,1/2+z
loop_
_atom_site_type_symbol
_atom_site_label
_atom_site_fract_x
_atom_site_fract_y
_atom_site_fract_z
Si Si1 0.874340 0.977833 0.309760
Si Si2 0.250000 0.750000 0.442060
Si Si3 0.128768 0.208894 0.334786
Si Si4 0.243297 0.364907 0.776259
Si Si5 0.937262 0.742472 0.702888
Si Si6 0.516374 0.315113 0.518358
Si Si7 0.000000 0.000000 0.488456
O O1 0.852000 0.882616 0.295874
O O2 0.894543 0.993147 0.417403
O O3 0.779530 0.041081 0.277789
O O4 0.000000 0.000000 0.270831
O O5 0.217719 0.674593 0.374648
O O6 0.356981 0.717947 0.498522
O O7 0.250000 0.250000 0.351738
O O8 0.050344 0.257328 0.263578
O O9 0.055761 0.198378 0.426543
O O10 0.137194 0.339559 0.714590
O O11 0.354355 0.313789 0.743038
O O12 0.964425 0.765701 0.601175
O O13 0.512731 0.413277 0.538011
#
# Coordination Sequence:
#
# PCOD9353460 Si02
#       7
#     8   4   8   8   8   8   4
#     4   9  15  34  59  81 103 142 193 231 268 330
#     4  10  16  34  58  76 104 150 186 228 264 334
#     4  11  22  36  53  85 118 142 185 238 288 331
#     4  10  17  36  59  80 106 150 191 231 272 341
#     4  10  21  33  54  86 110 147 188 224 289 338
#     4  11  20  34  56  85 113 145 188 237 281 337
#     4   8  16  30  54  88 108 128 190 242 278 316
#
# _framework density 16.974578999999999
#
# number of rings (size 3 to 8) (size 9 to 14) (size 15 to 20)
#    0.500    1.667    6.667    0.000    3.500    1.333 
#    0.000    0.833    0.000    0.000    4.333    0.000 
#    0.000    0.000    0.000    0.000    0.000    0.000 
#
# Total GULP energy -133671.229796 kJ/mol
# GULP energy per Si atom -5569.634575 kJ/mol
# Density = 1.693594 g / cm^3
# Si number density = 16.974579 Si / 1000 Ang^3
#
#
#
# Elastic Constant Matrix: (Units=GPa)
#
#
# Indices 1 2 3 4 5 6 
#
# 1 97.2038 68.9840 26.1645 0.0000 0.0000 0.0000
# 2 68.9840 95.2134 23.5652 0.0000 0.0000 0.0000
# 3 26.1645 23.5652 54.3130 0.0000 0.0000 0.0000
# 4 0.0000 0.0000 0.0000 11.2977 0.0000 0.0000
# 5 0.0000 0.0000 0.0000 0.0000 15.1557 0.0000
# 6 0.0000 0.0000 0.0000 0.0000 0.0000 30.0220
#
#
#
# Elastic Compliance Matrix: (Units=1/GPa)
#
#
# Indices 1 2 3 4 5 6 
#
# 1 0.021969 -0.014897 -0.004120 0.000000 0.000000 0.000000
# 2 -0.014897 0.021868 -0.002312 0.000000 0.000000 0.000000
# 3 -0.004120 -0.002312 0.021399 0.000000 0.000000 0.000000
# 4 0.000000 0.000000 0.000000 0.088514 0.000000 0.000000
# 5 0.000000 0.000000 0.000000 0.000000 0.065982 0.000000
# 6 0.000000 0.000000 0.000000 0.000000 0.000000 0.033309
#
#
# Mechanical properties :
#
#
# Convention : Reuss Voigt Hill
#
# Bulk Modulus (GPa) = 44.28803 53.79529 49.04166
# Shear Modulus (GPa) = 16.48943 19.82950 18.15947
#
# Velocity S-wave (km/s) = 3.12014 3.42158 3.27433
# Velocity P-wave (km/s) = 6.25522 6.88260 6.57640
#
# Compressibility (1/GPa) = 0.02257946
#
# Stress axis : x y z
#
# Youngs Moduli (GPa) = 45.51877 45.72838 46.73057
#
# Poissons Ratio (x) = 0.68123 0.19251
# Poissons Ratio (y) = 0.67811 0.10802
# Poissons Ratio (z) = 0.18752 0.10571
#
# Static dielectric constant tensor:
#      x y z
#    x 1.570230 0.000000 0.000000 
#    y 0.000000 1.519300 0.000000 
#    z 0.000000 0.000000 1.592010 
# 
# From -- ./inp_files/11689.got.cif
#   From: 2010.05.17/outbox.cif.g08.bks.cpg/sg37_6_cif.got.tgz:11689.got - 2010.06.03 17:53:42.
