data_PCOD9353949
_publ_section_title
;
Structure prediction by ZEFSAII (Michael W. Deem and Ramdas Pophale) SiO2 
 PCOD9353949
Probable space group: C C C 2
;
_chemical_formula_sum "Si O2"
_cell_formula_units_Z 64
_cell_length_a 15.222485
_cell_length_b 11.298922
_cell_length_c 16.845112
_cell_angle_alpha 90.000000
_cell_angle_beta 90.000000
_cell_angle_gamma 90.000000
_cell_volume 2897.320026
_symmetry_space_group_name_H-M "C C C 2"
_symmetry_group_IT_number 37
_symmetry_cell_setting 'orthorhombic'
loop_
_space_group_symop_operation_xyz
x,y,z
-x,-y,z
-x,y,1/2+z
x,-y,1/2+z
1/2+x,1/2+y,z
1/2-x,1/2-y,z
1/2-x,1/2+y,1/2+z
1/2+x,1/2-y,1/2+z
loop_
_atom_site_type_symbol
_atom_site_label
_atom_site_fract_x
_atom_site_fract_y
_atom_site_fract_z
Si Si1 0.281994 0.014425 0.208340
Si Si2 0.377299 0.774791 0.960569
Si Si3 0.377299 0.225209 0.644951
Si Si4 0.218006 0.514425 0.397180
Si Si5 0.097860 0.025061 0.709424
Si Si6 0.902140 0.974939 0.396096
Si Si7 0.556211 0.889977 0.960314
Si Si8 0.056211 0.610023 0.645205
O O1 0.325139 0.892855 0.171987
O O2 0.184057 0.043280 0.177426
O O3 0.278199 1.000000 0.302760
O O4 0.352398 0.116251 0.188947
O O5 0.325139 0.892855 0.933532
O O6 0.366874 0.658872 0.908136
O O7 0.483125 0.790713 0.956856
O O8 0.354885 0.752927 0.052760
O O9 0.366874 0.341128 0.697383
O O10 0.483125 0.209287 0.648664
O O11 0.315943 0.543280 0.428094
O O12 0.147602 0.616251 0.416573
O O13 0.090860 0.000000 0.802760
O O14 0.000000 0.000000 0.675421
O O15 0.000000 0.000000 0.430099
O O16 0.500000 0.000000 0.926160
O O17 0.575141 0.916839 0.052760
O O18 0.000000 0.500000 0.679360
#
# Coordination Sequence:
#
# PCOD9353949 Si02
#       8
#     8   8   8   8   8   8   8   8
#     4  10  20  34  58  89 115 145 187 234 285 338
#     4  10  21  39  62  85 112 151 193 229 277 344
#     4  10  21  39  62  85 112 151 193 229 277 344
#     4  10  20  34  58  89 115 145 187 234 285 338
#     4  10  23  40  55  78 116 156 194 236 280 331
#     4  10  23  40  55  78 116 156 194 236 280 331
#     4   8  16  32  55  84 113 139 177 231 281 328
#     4   8  16  32  55  84 113 139 177 231 281 328
#
# _framework density 22.089378
#
# number of rings (size 3 to 8) (size 9 to 14) (size 15 to 20)
#    0.000    2.500    0.000    3.000    0.000   12.000 
#    0.000    3.750    0.000    3.000    0.000    0.000 
#    0.000    0.000    0.000    0.000    0.000    0.000 
#
# Total GULP energy -178136.755766 kJ/mol
# GULP energy per Si atom -5566.773618 kJ/mol
# Density = 2.203910 g / cm^3
# Si number density = 22.089378 Si / 1000 Ang^3
#
#
#
# Elastic Constant Matrix: (Units=GPa)
#
#
# Indices 1 2 3 4 5 6 
#
# 1 233.3072 -1.4555 19.7221 0.0000 0.0000 0.0000
# 2 -1.4555 39.3497 18.4831 0.0000 0.0000 0.0000
# 3 19.7221 18.4831 61.3358 0.0000 0.0000 0.0000
# 4 0.0000 0.0000 0.0000 26.9345 0.0000 0.0000
# 5 0.0000 0.0000 0.0000 0.0000 100.6628 0.0000
# 6 0.0000 0.0000 0.0000 0.0000 0.0000 -110.6415
#
#
#
# Elastic Compliance Matrix: (Units=1/GPa)
#
#
# Indices 1 2 3 4 5 6 
#
# 1 0.004438 0.000972 -0.001720 0.000000 0.000000 0.000000
# 2 0.000972 0.029816 -0.009297 0.000000 0.000000 0.000000
# 3 -0.001720 -0.009297 0.019658 0.000000 0.000000 0.000000
# 4 0.000000 0.000000 0.000000 0.037127 0.000000 0.000000
# 5 0.000000 0.000000 0.000000 0.000000 0.009934 0.000000
# 6 0.000000 0.000000 0.000000 0.000000 0.000000 -0.009038
#
#
# Mechanical properties :
#
#
# Convention : Reuss Voigt Hill
#
# Bulk Modulus (GPa) = 29.56680 45.27690 37.42185
# Shear Modulus (GPa) = 40.55161 23.20738 31.87949
#
# Velocity S-wave (km/s) = 4.28927 3.24483 3.80307
# Velocity P-wave (km/s) = 6.15992 5.88049 6.02183
#
# Compressibility (1/GPa) = 0.03382172
#
# Stress axis : x y z
#
# Youngs Moduli (GPa) = 225.34521 33.53882 50.86885
#
# Poissons Ratio (x) = -0.03260 0.08748
# Poissons Ratio (y) = -0.21902 0.47295
# Poissons Ratio (z) = 0.38754 0.31182
#
# Static dielectric constant tensor:
#      x y z
#    x 1.967950 0.000000 0.000000 
#    y 0.000000 1.945630 0.000000 
#    z 0.000000 0.000000 1.774140 
# 
# From -- ./inp_files/15305.got.cif
#   From: 2010.05.17/outbox.cif.g08.bks.cpg/sg37_8_cif.got.tgz:15305.got - 2010.06.03 17:53:42.
