data_PCOD9353654
_publ_section_title
;
Structure prediction by ZEFSAII (Michael W. Deem and Ramdas Pophale) SiO2 
 PCOD9353654
Probable space group: C C C 2
;
_chemical_formula_sum "Si O2"
_cell_formula_units_Z 40
_cell_length_a 14.603988
_cell_length_b 9.718524
_cell_length_c 14.462354
_cell_angle_alpha 90.000000
_cell_angle_beta 90.000000
_cell_angle_gamma 90.000000
_cell_volume 2052.630447
_symmetry_space_group_name_H-M "C C C 2"
_symmetry_group_IT_number 37
_symmetry_cell_setting 'orthorhombic'
loop_
_space_group_symop_operation_xyz
x,y,z
-x,-y,z
-x,y,1/2+z
x,-y,1/2+z
1/2+x,1/2+y,z
1/2-x,1/2-y,z
1/2-x,1/2+y,1/2+z
1/2+x,1/2-y,1/2+z
loop_
_atom_site_type_symbol
_atom_site_label
_atom_site_fract_x
_atom_site_fract_y
_atom_site_fract_z
Si Si1 0.390880 0.675447 0.838360
Si Si2 0.701976 0.458795 0.539019
Si Si3 0.584309 0.359122 0.281025
Si Si4 0.250000 0.250000 0.194083
Si Si5 0.250000 0.250000 0.875954
Si Si6 0.000000 0.000000 0.606042
Si Si7 0.250000 0.250000 0.493925
O O1 0.382837 0.512506 0.812695
O O2 0.498581 0.692297 0.840988
O O3 0.339110 0.757781 0.758009
O O4 0.338114 0.723600 0.928891
O O5 0.735516 0.377278 0.627809
O O6 0.736651 0.378026 0.447446
O O7 0.589996 0.460874 0.546302
O O8 0.248276 0.107798 0.547210
O O9 0.664577 0.255736 0.306187
O O10 0.542002 0.385610 0.178157
#
# Coordination Sequence:
#
# PCOD9353654 Si02
#       7
#     8   8   8   4   4   4   4
#     4   9  19  38  66  85 120 173 213 252 306 408
#     4  11  23  38  64  96 130 163 213 276 324 364
#     4  10  19  41  65  92 114 180 223 243 298 421
#     4  10  18  40  64  90 124 162 210 270 324 364
#     4  11  24  36  68  97 128 158 226 277 314 372
#     4  10  22  40  66  90 120 184 222 250 304 412
#     4  11  22  36  62  95 126 164 204 267 328 378
#
# _framework density 19.487189999999998
#
# number of rings (size 3 to 8) (size 9 to 14) (size 15 to 20)
#    0.000    2.000    6.000    0.000    2.800    0.800 
#    0.000    1.000    0.000    2.400    0.000    0.000 
#    0.000    0.000    0.000    0.000    0.000    0.000 
#
# Total GULP energy -111345.210684 kJ/mol
# GULP energy per Si atom -5567.260534 kJ/mol
# Density = 1.944284 g / cm^3
# Si number density = 19.487190 Si / 1000 Ang^3
#
#
#
# Elastic Constant Matrix: (Units=GPa)
#
#
# Indices 1 2 3 4 5 6 
#
# 1 138.4164 48.1689 30.2584 0.0000 0.0000 0.0000
# 2 48.1689 84.6492 26.4193 0.0000 0.0000 0.0000
# 3 30.2584 26.4193 53.8779 0.0000 0.0000 0.0000
# 4 0.0000 0.0000 0.0000 25.9065 0.0000 0.0000
# 5 0.0000 0.0000 0.0000 0.0000 32.1126 0.0000
# 6 0.0000 0.0000 0.0000 0.0000 0.0000 34.1512
#
#
#
# Elastic Compliance Matrix: (Units=1/GPa)
#
#
# Indices 1 2 3 4 5 6 
#
# 1 0.009440 -0.004389 -0.003150 0.000000 0.000000 0.000000
# 2 -0.004389 0.015989 -0.005375 0.000000 0.000000 0.000000
# 3 -0.003150 -0.005375 0.022965 0.000000 0.000000 0.000000
# 4 0.000000 0.000000 0.000000 0.038600 0.000000 0.000000
# 5 0.000000 0.000000 0.000000 0.000000 0.031140 0.000000
# 6 0.000000 0.000000 0.000000 0.000000 0.000000 0.029282
#
#
# Mechanical properties :
#
#
# Convention : Reuss Voigt Hill
#
# Bulk Modulus (GPa) = 44.31358 54.07076 49.19217
# Shear Modulus (GPa) = 27.66000 29.90718 28.78359
#
# Velocity S-wave (km/s) = 3.77157 3.92179 3.84741
# Velocity P-wave (km/s) = 6.46185 6.95085 6.71081
#
# Compressibility (1/GPa) = 0.02256645
#
# Stress axis : x y z
#
# Youngs Moduli (GPa) = 105.92675 62.54465 43.54426
#
# Poissons Ratio (x) = 0.27451 0.13715
# Poissons Ratio (y) = 0.46491 0.23406
# Poissons Ratio (z) = 0.33364 0.33619
#
# Static dielectric constant tensor:
#      x y z
#    x 1.686460 0.000000 0.000000 
#    y 0.000000 1.703530 0.000000 
#    z 0.000000 0.000000 1.766850 
# 
# From -- ./inp_files/11378.got.cif
#   From: 2010.05.17/outbox.cif.g08.bks.cpg/sg37_6_cif.got.tgz:11378.got - 2010.06.03 17:53:42.
