data_PCOD9353272
_publ_section_title
;
Structure prediction by ZEFSAII (Michael W. Deem and Ramdas Pophale) SiO2 
 PCOD9353272
Probable space group: C M C 21
;
_chemical_formula_sum "Si O2"
_cell_formula_units_Z 48
_cell_length_a 14.843832
_cell_length_b 10.117872
_cell_length_c 15.041283
_cell_angle_alpha 90.000000
_cell_angle_beta 90.000000
_cell_angle_gamma 90.000000
_cell_volume 2259.020093
_symmetry_space_group_name_H-M "C M C 21"
_symmetry_group_IT_number 36
_symmetry_cell_setting 'orthorhombic'
loop_
_space_group_symop_operation_xyz
x,y,z
-x,-y,1/2+z
x,-y,1/2+z
-x,y,z
1/2+x,1/2+y,z
1/2-x,1/2-y,1/2+z
1/2+x,1/2-y,1/2+z
1/2-x,1/2+y,z
loop_
_atom_site_type_symbol
_atom_site_label
_atom_site_fract_x
_atom_site_fract_y
_atom_site_fract_z
Si Si1 0.500000 0.161869 0.315230
Si Si2 0.500000 0.635407 0.653693
Si Si3 0.500000 0.864116 0.016685
Si Si4 0.840479 0.199364 0.518289
Si Si5 0.160854 0.773708 0.821536
Si Si6 0.813871 0.495978 0.561611
Si Si7 0.686109 0.983596 0.773770
Si Si8 0.500000 0.323079 0.686911
O O1 0.500000 0.281813 0.245093
O O2 0.500000 0.199705 0.418912
O O3 0.411657 0.074049 0.297607
O O4 0.413549 0.673187 0.594495
O O5 0.500000 0.479730 0.671683
O O6 0.588677 0.954241 0.028588
O O7 0.500000 0.755707 0.094517
O O8 0.879560 0.199050 0.418807
O O9 0.800134 0.344338 0.535354
O O10 0.762632 0.090743 0.523647
O O11 0.239002 0.878678 0.802331
O O12 0.199328 0.625267 0.819236
O O13 0.086776 0.784122 0.744741
O O14 0.810308 0.504209 0.668108
#
# Coordination Sequence:
#
# PCOD9353272 Si02
#       8
#     4   4   4   8   8   8   8   4
#     4  12  26  47  73 102 140 189 244 292 354 426
#     4  12  28  48  70 105 144 191 235 298 356 418
#     4  12  26  47  73 102 140 189 244 292 354 426
#     4  12  26  46  74 107 145 187 236 291 355 426
#     4  12  26  46  74 107 145 187 236 291 355 426
#     4  12  25  48  73 105 142 189 235 293 355 421
#     4  12  25  48  73 105 142 189 235 293 355 421
#     4  12  28  48  70 105 144 191 235 298 356 418
#
# _framework density 21.248149999999999
#
# number of rings (size 3 to 8) (size 9 to 14) (size 15 to 20)
#    0.000    0.000    3.333    7.000    4.667    1.333 
#    0.000    0.000    0.000    0.000    0.000    0.000 
#    0.000    0.000    0.000    0.000    0.000    0.000 
#
# Total GULP energy -134523.820647 kJ/mol
# GULP energy per Si atom -5605.159194 kJ/mol
# Density = 2.119979 g / cm^3
# Si number density = 21.248150 Si / 1000 Ang^3
#
#
#
# Elastic Constant Matrix: (Units=GPa)
#
#
# Indices 1 2 3 4 5 6 
#
# 1 79.7175 38.1967 -20.3693 0.0000 0.0000 0.0000
# 2 38.1967 138.3100 -21.9101 0.0000 0.0000 0.0000
# 3 -20.3693 -21.9101 75.7070 0.0000 0.0000 0.0000
# 4 0.0000 0.0000 0.0000 24.3308 0.0000 0.0000
# 5 0.0000 0.0000 0.0000 0.0000 25.8718 0.0000
# 6 0.0000 0.0000 0.0000 0.0000 0.0000 21.1922
#
#
#
# Elastic Compliance Matrix: (Units=1/GPa)
#
#
# Indices 1 2 3 4 5 6 
#
# 1 0.015076 -0.003690 0.002988 0.000000 0.000000 0.000000
# 2 -0.003690 0.008481 0.001462 0.000000 0.000000 0.000000
# 3 0.002988 0.001462 0.014436 0.000000 0.000000 0.000000
# 4 0.000000 0.000000 0.000000 0.041100 0.000000 0.000000
# 5 0.000000 0.000000 0.000000 0.000000 0.038652 0.000000
# 6 0.000000 0.000000 0.000000 0.000000 0.000000 0.047187
#
#
# Mechanical properties :
#
#
# Convention : Reuss Voigt Hill
#
# Bulk Modulus (GPa) = 25.30871 31.72989 28.51930
# Shear Modulus (GPa) = 28.31526 34.13344 31.22435
#
# Velocity S-wave (km/s) = 3.65444 4.01236 3.83758
# Velocity P-wave (km/s) = 5.45375 6.03580 5.75214
#
# Compressibility (1/GPa) = 0.03951209
#
# Stress axis : x y z
#
# Youngs Moduli (GPa) = 66.33070 117.91418 69.27211
#
# Poissons Ratio (x) = 0.43511 -0.20701
# Poissons Ratio (y) = 0.24477 -0.10124
# Poissons Ratio (z) = -0.19822 -0.17234
#
# Static dielectric constant tensor:
#      x y z
#    x 1.729040 0.000000 0.000000 
#    y 0.000000 1.724860 0.000000 
#    z 0.000000 0.000000 1.760770 
# 
# From -- ./inp_files/12545.got.cif
#   From: 2010.05.17/outbox.cif.g08.bks.cpg/sg36_7_cif.got.tgz:12545.got - 2010.06.03 17:41:39.
