data_PCOD9353928
_publ_section_title
;
Structure prediction by ZEFSAII (Michael W. Deem and Ramdas Pophale) SiO2 
 PCOD9353928
Probable space group: C C C 2
;
_chemical_formula_sum "Si O2"
_cell_formula_units_Z 64
_cell_length_a 18.458121
_cell_length_b 14.880460
_cell_length_c 11.417597
_cell_angle_alpha 90.000000
_cell_angle_beta 90.000000
_cell_angle_gamma 90.000000
_cell_volume 3136.018062
_symmetry_space_group_name_H-M "C C C 2"
_symmetry_group_IT_number 37
_symmetry_cell_setting 'orthorhombic'
loop_
_space_group_symop_operation_xyz
x,y,z
-x,-y,z
-x,y,1/2+z
x,-y,1/2+z
1/2+x,1/2+y,z
1/2-x,1/2-y,z
1/2-x,1/2+y,1/2+z
1/2+x,1/2-y,1/2+z
loop_
_atom_site_type_symbol
_atom_site_label
_atom_site_fract_x
_atom_site_fract_y
_atom_site_fract_z
Si Si1 0.407948 0.786865 0.122490
Si Si2 0.557655 0.720698 0.230493
Si Si3 0.634452 0.426516 0.583463
Si Si4 0.164669 0.883788 0.204625
Si Si5 0.259180 0.855968 0.416031
Si Si6 0.074353 0.617592 0.880135
Si Si7 0.031587 0.093165 0.874010
Si Si8 0.593877 0.911279 0.851106
O O1 0.488788 0.743646 0.145597
O O2 0.349852 0.705661 0.129652
O O3 0.398556 0.856317 0.230125
O O4 0.399749 0.841487 0.002672
O O5 0.614479 0.652191 0.174187
O O6 0.590232 0.813389 0.275589
O O7 0.525872 0.670544 0.346861
O O8 0.650099 0.523813 0.637498
O O9 0.703984 0.401212 0.505902
O O10 0.562720 0.427283 0.501569
O O11 0.236579 0.884794 0.283490
O O12 0.101353 0.877303 0.301416
O O13 0.250000 0.750000 0.422266
O O14 0.342748 0.878086 0.435656
O O15 0.100885 0.518674 0.846054
O O16 0.987083 0.610204 0.892847
O O17 0.000000 0.000000 0.825222
#
# Coordination Sequence:
#
# PCOD9353928 Si02
#       8
#     8   8   8   8   8   8   8   8
#     4  10  21  38  65  92 127 165 207 264 332 389
#     4  10  21  37  59  99 132 160 209 271 330 394
#     4  11  24  37  62  98 128 173 211 262 330 395
#     4  10  22  40  60  92 125 168 214 256 323 406
#     4  11  24  46  65  87 131 182 219 262 326 422
#     4  10  23  39  69  99 122 162 219 289 321 372
#     4  10  20  33  58  89 134 164 201 260 327 394
#     4  10  23  45  62  92 126 165 226 267 327 388
#
# _framework density 20.408045000000001
#
# number of rings (size 3 to 8) (size 9 to 14) (size 15 to 20)
#    0.000    1.750    2.500    0.750    8.750    5.000 
#    2.250    0.000    0.000    1.500    0.000    0.000 
#    0.000    0.000    0.000    0.000    0.000    0.000 
#
# Total GULP energy -178613.497387 kJ/mol
# GULP energy per Si atom -5581.671793 kJ/mol
# Density = 2.036160 g / cm^3
# Si number density = 20.408045 Si / 1000 Ang^3
#
#
#
# Elastic Constant Matrix: (Units=GPa)
#
#
# Indices 1 2 3 4 5 6 
#
# 1 52.0893 25.2577 9.7869 0.0000 0.0000 0.0000
# 2 25.2577 157.6366 41.0972 0.0000 0.0000 0.0000
# 3 9.7869 41.0972 57.0030 0.0000 0.0000 0.0000
# 4 0.0000 0.0000 0.0000 16.0467 0.0000 0.0000
# 5 0.0000 0.0000 0.0000 0.0000 -2.4836 0.0000
# 6 0.0000 0.0000 0.0000 0.0000 0.0000 18.1667
#
#
#
# Elastic Compliance Matrix: (Units=1/GPa)
#
#
# Indices 1 2 3 4 5 6 
#
# 1 0.020911 -0.002973 -0.001447 0.000000 0.000000 0.000000
# 2 -0.002973 0.008235 -0.005427 0.000000 0.000000 0.000000
# 3 -0.001447 -0.005427 0.021704 0.000000 0.000000 0.000000
# 4 0.000000 0.000000 0.000000 0.062318 0.000000 0.000000
# 5 0.000000 0.000000 0.000000 0.000000 -0.402642 0.000000
# 6 0.000000 0.000000 0.000000 0.000000 0.000000 0.055046
#
#
# Mechanical properties :
#
#
# Convention : Reuss Voigt Hill
#
# Bulk Modulus (GPa) = 32.09571 46.55693 39.32632
# Shear Modulus (GPa) = -24.46787 19.05177 -2.70805
#
# Velocity S-wave (km/s) = -3.46632 3.05871 -1.15318
# Velocity P-wave (km/s) = 0.50926 5.94448 4.18793
#
# Compressibility (1/GPa) = 0.03115682
#
# Stress axis : x y z
#
# Youngs Moduli (GPa) = 47.82083 121.43473 46.07524
#
# Poissons Ratio (x) = 0.36108 0.06665
# Poissons Ratio (y) = 0.14219 0.25003
# Poissons Ratio (z) = 0.06918 0.65897
#
# Static dielectric constant tensor:
#      x y z
#    x 1.746320 0.000000 0.000000 
#    y 0.000000 1.739920 0.000000 
#    z 0.000000 0.000000 1.750880 
# 
# From -- ./inp_files/8359.got.cif
#   From: 2010.05.17/outbox.cif.g08.bks.cpg/sg37_5_cif.got.tgz:8359.got - 2010.06.03 17:53:42.
