data_PCOD9353178
_publ_section_title
;
Structure prediction by ZEFSAII (Michael W. Deem and Ramdas Pophale) SiO2 
 PCOD9353178
Probable space group: C M C 21
;
_chemical_formula_sum "Si O2"
_cell_formula_units_Z 40
_cell_length_a 17.332235
_cell_length_b 8.494454
_cell_length_c 10.894809
_cell_angle_alpha 90.000000
_cell_angle_beta 90.000000
_cell_angle_gamma 90.000000
_cell_volume 1604.019555
_symmetry_space_group_name_H-M "C M C 21"
_symmetry_group_IT_number 36
_symmetry_cell_setting 'orthorhombic'
loop_
_space_group_symop_operation_xyz
x,y,z
-x,-y,1/2+z
x,-y,1/2+z
-x,y,z
1/2+x,1/2+y,z
1/2-x,1/2-y,1/2+z
1/2+x,1/2-y,1/2+z
1/2-x,1/2+y,z
loop_
_atom_site_type_symbol
_atom_site_label
_atom_site_fract_x
_atom_site_fract_y
_atom_site_fract_z
Si Si1 0.369792 0.936765 0.266340
Si Si2 0.791767 0.019564 0.633537
Si Si3 0.129041 0.222248 0.820071
Si Si4 0.000000 0.825493 0.741512
Si Si5 0.722174 0.779060 0.463718
Si Si6 0.000000 0.065512 0.970367
O O1 0.292835 0.937080 0.184977
O O2 0.427623 0.795900 0.234852
O O3 0.338676 0.896813 0.403843
O O4 0.401592 0.115881 0.259916
O O5 0.853111 0.069107 0.736051
O O6 0.816952 0.126999 0.518972
O O7 0.772270 0.855208 0.572271
O O8 0.214822 0.269451 0.863925
O O9 0.073603 0.167907 0.927490
O O10 0.000000 0.937514 0.619165
O O11 0.000000 0.917499 0.873601
#
# Coordination Sequence:
#
# PCOD9353178 Si02
#       6
#     8   8   8   4   8   4
#     4  11  25  47  69 109 143 201 249 311 376 457
#     4  11  23  41  71 107 147 186 243 308 380 450
#     4  11  25  44  73 106 145 196 253 307 379 455
#     4  12  31  52  76 104 160 201 264 318 386 459
#     4  11  23  41  72 107 146 187 242 312 376 454
#     4  12  31  50  74 110 148 207 258 322 382 453
#
# _framework density 24.937353000000002
#
# number of rings (size 3 to 8) (size 9 to 14) (size 15 to 20)
#    0.000    0.800    4.000    1.800    8.400    0.000 
#    0.000    0.000    0.000    0.000    0.000    0.000 
#    0.000    0.000    0.000    0.000    0.000    0.000 
#
# Total GULP energy -111707.397376 kJ/mol
# GULP energy per Si atom -5585.369869 kJ/mol
# Density = 2.488059 g / cm^3
# Si number density = 24.937353 Si / 1000 Ang^3
#
#
#
# Elastic Constant Matrix: (Units=GPa)
#
#
# Indices 1 2 3 4 5 6 
#
# 1 90.0225 14.2091 32.6395 0.0000 0.0000 0.0000
# 2 14.2091 121.2379 41.2567 0.0000 0.0000 0.0000
# 3 32.6395 41.2567 103.5861 0.0000 0.0000 0.0000
# 4 0.0000 0.0000 0.0000 46.4280 0.0000 0.0000
# 5 0.0000 0.0000 0.0000 0.0000 42.0961 0.0000
# 6 0.0000 0.0000 0.0000 0.0000 0.0000 21.6524
#
#
#
# Elastic Compliance Matrix: (Units=1/GPa)
#
#
# Indices 1 2 3 4 5 6 
#
# 1 0.012543 -0.000145 -0.003895 0.000000 0.000000 0.000000
# 2 -0.000145 0.009543 -0.003755 0.000000 0.000000 0.000000
# 3 -0.003895 -0.003755 0.012377 0.000000 0.000000 0.000000
# 4 0.000000 0.000000 0.000000 0.021539 0.000000 0.000000
# 5 0.000000 0.000000 0.000000 0.000000 0.023755 0.000000
# 6 0.000000 0.000000 0.000000 0.000000 0.000000 0.046184
#
#
# Mechanical properties :
#
#
# Convention : Reuss Voigt Hill
#
# Bulk Modulus (GPa) = 52.98381 54.56189 53.77285
# Shear Modulus (GPa) = 33.82453 37.15139 35.48796
#
# Velocity S-wave (km/s) = 3.68690 3.86397 3.77647
# Velocity P-wave (km/s) = 6.27831 6.46793 6.37382
#
# Compressibility (1/GPa) = 0.01887369
#
# Stress axis : x y z
#
# Youngs Moduli (GPa) = 79.72403 104.78764 80.79721
#
# Poissons Ratio (x) = 0.01517 0.31468
# Poissons Ratio (y) = 0.01154 0.30341
# Poissons Ratio (z) = 0.31050 0.39351
#
# Static dielectric constant tensor:
#      x y z
#    x 1.946250 0.000000 0.000000 
#    y 0.000000 1.995430 0.000000 
#    z 0.000000 0.000000 2.006310 
# 
# From -- ./inp_files/8789.got.cif
#   From: 2010.05.17/outbox.cif.g08.bks.cpg/sg36_5_cif.got.tgz:8789.got - 2010.06.03 17:41:39.
