data_PCOD9353782
_publ_section_title
;
Structure prediction by ZEFSAII (Michael W. Deem and Ramdas Pophale) SiO2 
 PCOD9353782
Probable space group: C C C 2
;
_chemical_formula_sum "Si O2"
_cell_formula_units_Z 48
_cell_length_a 31.800651
_cell_length_b 9.010289
_cell_length_c 8.808803
_cell_angle_alpha 90.000000
_cell_angle_beta 90.000000
_cell_angle_gamma 90.000000
_cell_volume 2524.013242
_symmetry_space_group_name_H-M "C C C 2"
_symmetry_group_IT_number 37
_symmetry_cell_setting 'orthorhombic'
loop_
_space_group_symop_operation_xyz
x,y,z
-x,-y,z
-x,y,1/2+z
x,-y,1/2+z
1/2+x,1/2+y,z
1/2-x,1/2-y,z
1/2-x,1/2+y,1/2+z
1/2+x,1/2-y,1/2+z
loop_
_atom_site_type_symbol
_atom_site_label
_atom_site_fract_x
_atom_site_fract_y
_atom_site_fract_z
Si Si1 0.620716 0.393756 0.060480
Si Si2 0.333883 0.046644 0.860155
Si Si3 0.796951 0.698134 0.580706
Si Si4 0.044752 0.420501 0.052405
Si Si5 0.590020 0.855433 0.351127
Si Si6 0.898850 0.197269 0.403573
O O1 0.668691 0.330799 0.063983
O O2 0.602580 0.353367 0.227273
O O3 0.599620 0.303007 0.921645
O O4 0.612642 0.563365 0.016204
O O5 0.302454 0.127432 0.746618
O O6 0.362456 0.179581 0.924257
O O7 0.368509 0.936068 0.784691
O O8 0.310429 0.937544 0.973238
O O9 0.750000 0.750000 0.550714
O O10 0.054849 0.369266 0.222957
O O11 0.000000 0.500000 0.039538
O O12 0.076418 0.548530 0.996858
O O13 0.057513 0.280258 0.946831
#
# Coordination Sequence:
#
# PCOD9353782 Si02
#       6
#     8   8   8   8   8   8
#     4  10  21  37  60  87 118 158 200 240 294 357
#     4   9  19  37  57  79 113 156 195 232 286 353
#     4  10  21  36  56  86 119 154 199 249 293 342
#     4  11  21  35  58  87 114 147 189 239 292 346
#     4  10  19  36  59  82 113 152 193 232 284 359
#     4  10  20  37  60  85 116 155 198 242 290 359
#
# _framework density 19.017334000000002
#
# number of rings (size 3 to 8) (size 9 to 14) (size 15 to 20)
#    0.000    2.000    0.000    6.500    0.000    4.000 
#    0.000    2.500    0.000    6.000    0.000    0.000 
#    0.000    0.000    0.000    0.000    0.000    0.000 
#
# Total GULP energy -133740.664522 kJ/mol
# GULP energy per Si atom -5572.527688 kJ/mol
# Density = 1.897405 g / cm^3
# Si number density = 19.017334 Si / 1000 Ang^3
#
#
#
# Elastic Constant Matrix: (Units=GPa)
#
#
# Indices 1 2 3 4 5 6 
#
# 1 94.5259 58.4620 56.5950 0.0000 0.0000 0.0000
# 2 58.4620 132.2389 51.0232 0.0000 0.0000 0.0000
# 3 56.5950 51.0232 97.0675 0.0000 0.0000 0.0000
# 4 0.0000 0.0000 0.0000 30.5820 0.0000 0.0000
# 5 0.0000 0.0000 0.0000 0.0000 17.3453 0.0000
# 6 0.0000 0.0000 0.0000 0.0000 0.0000 22.0103
#
#
#
# Elastic Compliance Matrix: (Units=1/GPa)
#
#
# Indices 1 2 3 4 5 6 
#
# 1 0.018619 -0.005071 -0.008190 0.000000 0.000000 0.000000
# 2 -0.005071 0.010867 -0.002756 0.000000 0.000000 0.000000
# 3 -0.008190 -0.002756 0.016526 0.000000 0.000000 0.000000
# 4 0.000000 0.000000 0.000000 0.032699 0.000000 0.000000
# 5 0.000000 0.000000 0.000000 0.000000 0.057653 0.000000
# 6 0.000000 0.000000 0.000000 0.000000 0.000000 0.045433
#
#
# Mechanical properties :
#
#
# Convention : Reuss Voigt Hill
#
# Bulk Modulus (GPa) = 71.53967 72.88809 72.21388
# Shear Modulus (GPa) = 22.88425 24.50430 23.69427
#
# Velocity S-wave (km/s) = 3.47268 3.59350 3.53360
# Velocity P-wave (km/s) = 7.33342 7.45842 7.39619
#
# Compressibility (1/GPa) = 0.01397826
#
# Stress axis : x y z
#
# Youngs Moduli (GPa) = 53.70760 92.01931 60.51131
#
# Poissons Ratio (x) = 0.46666 0.49560
# Poissons Ratio (y) = 0.27237 0.16674
# Poissons Ratio (z) = 0.43988 0.25356
#
# Static dielectric constant tensor:
#      x y z
#    x 1.681860 0.000000 0.000000 
#    y 0.000000 1.652360 0.000000 
#    z 0.000000 0.000000 1.697450 
# 
# From -- ./inp_files/2383.got.cif
#   From: 2010.05.17/outbox.cif.g08.bks.cpg/sg37_2_cif.got.tgz:2383.got - 2010.06.03 17:53:42.
