data_PCOD9353241
_publ_section_title
;
Structure prediction by ZEFSAII (Michael W. Deem and Ramdas Pophale) SiO2 
 PCOD9353241
Probable space group: C M C 21
;
_chemical_formula_sum "Si O2"
_cell_formula_units_Z 48
_cell_length_a 27.364378
_cell_length_b 7.779266
_cell_length_c 8.599877
_cell_angle_alpha 90.000000
_cell_angle_beta 90.000000
_cell_angle_gamma 90.000000
_cell_volume 1830.696885
_symmetry_space_group_name_H-M "C M C 21"
_symmetry_group_IT_number 36
_symmetry_cell_setting 'orthorhombic'
loop_
_space_group_symop_operation_xyz
x,y,z
-x,-y,1/2+z
x,-y,1/2+z
-x,y,z
1/2+x,1/2+y,z
1/2-x,1/2-y,1/2+z
1/2+x,1/2-y,1/2+z
1/2-x,1/2+y,z
loop_
_atom_site_type_symbol
_atom_site_label
_atom_site_fract_x
_atom_site_fract_y
_atom_site_fract_z
Si Si1 0.054023 0.871265 0.094270
Si Si2 0.945201 0.570270 0.846108
Si Si3 0.292543 0.371112 0.949341
Si Si4 0.773559 0.570462 0.168217
Si Si5 0.351508 0.232593 0.689971
Si Si6 0.591335 0.311246 0.406360
O O1 0.094627 0.863981 0.226769
O O2 0.000000 0.879033 0.168369
O O3 0.056008 0.700385 0.991525
O O4 0.060874 0.039666 0.990886
O O5 0.902218 0.640301 0.737008
O O6 0.933724 0.376050 0.895513
O O7 0.000000 0.580231 0.777779
O O8 0.245783 0.359680 0.832158
O O9 0.337395 0.364738 0.828680
O O10 0.274127 0.514988 0.069195
O O11 0.299817 0.209244 0.061784
O O12 0.808642 0.408824 0.191963
O O13 0.361236 0.293586 0.514489
#
# Coordination Sequence:
#
# PCOD9353241 Si02
#       6
#     8   8   8   8   8   8
#     4  11  25  47  74 110 154 212 277 327 384 469
#     4  11  26  50  80 114 160 217 270 326 397 478
#     4  12  25  49  77 109 149 198 252 329 393 476
#     4  12  25  49  79 110 150 197 257 322 404 476
#     4  12  27  48  78 115 156 204 261 331 400 488
#     4  12  26  45  74 112 157 210 262 333 398 471
#
# _framework density 26.219525000000001
#
# number of rings (size 3 to 8) (size 9 to 14) (size 15 to 20)
#    0.000    0.333    3.333    4.500    0.000    7.333 
#    0.000    1.667    0.000    0.000    0.000    0.000 
#    0.000    0.000    0.000    0.000    0.000    0.000 
#
# Total GULP energy -134536.071523 kJ/mol
# GULP energy per Si atom -5605.669647 kJ/mol
# Density = 2.615985 g / cm^3
# Si number density = 26.219525 Si / 1000 Ang^3
#
#
#
# Elastic Constant Matrix: (Units=GPa)
#
#
# Indices 1 2 3 4 5 6 
#
# 1 114.6630 33.8568 18.5768 0.0000 0.0000 0.0000
# 2 33.8568 80.3126 37.2592 0.0000 0.0000 0.0000
# 3 18.5768 37.2592 111.3294 0.0000 0.0000 0.0000
# 4 0.0000 0.0000 0.0000 45.0108 0.0000 0.0000
# 5 0.0000 0.0000 0.0000 0.0000 49.0933 0.0000
# 6 0.0000 0.0000 0.0000 0.0000 0.0000 41.0600
#
#
#
# Elastic Compliance Matrix: (Units=1/GPa)
#
#
# Indices 1 2 3 4 5 6 
#
# 1 0.009970 -0.004062 -0.000304 0.000000 0.000000 0.000000
# 2 -0.004062 0.016395 -0.004809 0.000000 0.000000 0.000000
# 3 -0.000304 -0.004809 0.010643 0.000000 0.000000 0.000000
# 4 0.000000 0.000000 0.000000 0.022217 0.000000 0.000000
# 5 0.000000 0.000000 0.000000 0.000000 0.020369 0.000000
# 6 0.000000 0.000000 0.000000 0.000000 0.000000 0.024355
#
#
# Mechanical properties :
#
#
# Convention : Reuss Voigt Hill
#
# Bulk Modulus (GPa) = 53.59951 53.96563 53.78257
# Shear Modulus (GPa) = 38.90528 41.47364 40.18946
#
# Velocity S-wave (km/s) = 3.85623 3.98148 3.91935
# Velocity P-wave (km/s) = 6.34935 6.46244 6.40615
#
# Compressibility (1/GPa) = 0.01865689
#
# Stress axis : x y z
#
# Youngs Moduli (GPa) = 100.30262 60.99525 93.96188
#
# Poissons Ratio (x) = 0.24775 0.02859
# Poissons Ratio (y) = 0.40741 0.45188
# Poissons Ratio (z) = 0.03052 0.29333
#
# Static dielectric constant tensor:
#      x y z
#    x 2.049570 0.000000 0.000000 
#    y 0.000000 2.034090 0.000000 
#    z 0.000000 0.000000 2.021430 
# 
# From -- ./inp_files/5957.got.cif
#   From: 2010.05.17/outbox.cif.g08.bks.cpg/sg36_3_cif.got.tgz:5957.got - 2010.06.03 17:41:39.
