data_PCOD9353967
_publ_section_title
;
Structure prediction by ZEFSAII (Michael W. Deem and Ramdas Pophale) SiO2 
 PCOD9353967
Probable space group: C C C 2
;
_chemical_formula_sum "Si O2"
_cell_formula_units_Z 64
_cell_length_a 8.619665
_cell_length_b 16.692885
_cell_length_c 21.431055
_cell_angle_alpha 90.000000
_cell_angle_beta 90.000000
_cell_angle_gamma 90.000000
_cell_volume 3083.651852
_symmetry_space_group_name_H-M "C C C 2"
_symmetry_group_IT_number 37
_symmetry_cell_setting 'orthorhombic'
loop_
_space_group_symop_operation_xyz
x,y,z
-x,-y,z
-x,y,1/2+z
x,-y,1/2+z
1/2+x,1/2+y,z
1/2-x,1/2-y,z
1/2-x,1/2+y,1/2+z
1/2+x,1/2-y,1/2+z
loop_
_atom_site_type_symbol
_atom_site_label
_atom_site_fract_x
_atom_site_fract_y
_atom_site_fract_z
Si Si1 0.747671 0.533140 0.762110
Si Si2 0.863412 0.936736 0.145727
Si Si3 0.111164 0.680435 0.309088
Si Si4 0.275927 0.338959 0.940772
Si Si5 0.674036 0.029381 0.528314
Si Si6 0.487614 0.340143 0.250840
Si Si7 0.714908 0.120069 0.839878
Si Si8 0.406426 0.577565 0.955102
O O1 0.735217 0.481256 0.699755
O O2 0.864103 0.607453 0.761224
O O3 0.583575 0.579668 0.769507
O O4 0.793920 0.472110 0.816381
O O5 0.754389 0.925973 0.086513
O O6 0.938833 0.858834 0.179335
O O7 0.000000 0.000000 0.129856
O O8 0.234677 0.667398 0.366406
O O9 0.088493 0.762987 0.270267
O O10 0.946873 0.664274 0.341141
O O11 0.250000 0.250000 0.965217
O O12 0.449986 0.362330 0.961683
O O13 0.171821 0.408522 0.970707
O O14 0.500000 0.000000 0.541107
O O15 0.796385 0.958672 0.509201
O O16 0.332362 0.338965 0.291339
O O17 0.793037 0.117273 0.906323
O O18 0.500000 0.500000 0.928787
#
# Coordination Sequence:
#
# PCOD9353967 Si02
#       8
#     8   8   8   8   8   8   8   8
#     4  10  20  35  57  82 113 156 202 245 297 362
#     4   9  20  40  63  83 112 159 212 254 302 374
#     4  12  22  34  56  92 129 155 196 258 315 369
#     4  11  23  39  61  89 125 164 203 251 319 391
#     4  11  23  42  65  90 117 157 215 273 321 380
#     4  10  21  37  58  84 121 165 203 246 309 380
#     4  11  20  33  53  85 120 155 196 246 303 365
#     4  10  20  36  62  87 118 163 209 253 312 385
#
# _framework density 20.754614
#
# number of rings (size 3 to 8) (size 9 to 14) (size 15 to 20)
#    0.000    1.500    0.000    8.625    0.000    2.000 
#    0.000    5.625    0.000    3.000    0.000    0.000 
#    0.000    0.000    0.000    0.000    0.000    0.000 
#
# Total GULP energy -178422.344596 kJ/mol
# GULP energy per Si atom -5575.698269 kJ/mol
# Density = 2.070738 g / cm^3
# Si number density = 20.754614 Si / 1000 Ang^3
#
#
#
# Elastic Constant Matrix: (Units=GPa)
#
#
# Indices 1 2 3 4 5 6 
#
# 1 93.1873 29.1179 33.9870 0.0000 0.0000 0.0000
# 2 29.1179 115.0982 24.9201 0.0000 0.0000 0.0000
# 3 33.9870 24.9201 79.2397 0.0000 0.0000 0.0000
# 4 0.0000 0.0000 0.0000 11.9117 0.0000 0.0000
# 5 0.0000 0.0000 0.0000 0.0000 15.2284 0.0000
# 6 0.0000 0.0000 0.0000 0.0000 0.0000 35.2676
#
#
#
# Elastic Compliance Matrix: (Units=1/GPa)
#
#
# Indices 1 2 3 4 5 6 
#
# 1 0.013255 -0.002277 -0.004969 0.000000 0.000000 0.000000
# 2 -0.002277 0.009714 -0.002078 0.000000 0.000000 0.000000
# 3 -0.004969 -0.002078 0.015405 0.000000 0.000000 0.000000
# 4 0.000000 0.000000 0.000000 0.083951 0.000000 0.000000
# 5 0.000000 0.000000 0.000000 0.000000 0.065667 0.000000
# 6 0.000000 0.000000 0.000000 0.000000 0.000000 0.028355
#
#
# Mechanical properties :
#
#
# Convention : Reuss Voigt Hill
#
# Bulk Modulus (GPa) = 50.69772 51.50834 51.10303
# Shear Modulus (GPa) = 20.69785 25.78155 23.23970
#
# Velocity S-wave (km/s) = 3.16138 3.52832 3.34988
# Velocity P-wave (km/s) = 6.14866 6.43975 6.29589
#
# Compressibility (1/GPa) = 0.01972475
#
# Stress axis : x y z
#
# Youngs Moduli (GPa) = 75.44339 102.94054 64.91485
#
# Poissons Ratio (x) = 0.23444 0.32256
# Poissons Ratio (y) = 0.17182 0.13491
# Poissons Ratio (z) = 0.37488 0.21394
#
# Static dielectric constant tensor:
#      x y z
#    x 1.826990 0.000000 0.000000 
#    y 0.000000 1.801600 0.000000 
#    z 0.000000 0.000000 1.742290 
# 
# From -- ./inp_files/16513.got.cif
#   From: 2010.05.17/outbox.cif.g08.bks.cpg/sg37_9_cif.got.tgz:16513.got - 2010.06.03 17:53:42.
