data_PCOD9353089
_publ_section_title
;
Structure prediction by ZEFSAII (Michael W. Deem and Ramdas Pophale) SiO2 
 PCOD9353089
Probable space group: C M C 21
;
_chemical_formula_sum "Si O2"
_cell_formula_units_Z 40
_cell_length_a 25.493758
_cell_length_b 17.032578
_cell_length_c 5.069338
_cell_angle_alpha 90.000000
_cell_angle_beta 90.000000
_cell_angle_gamma 90.000000
_cell_volume 2201.230361
_symmetry_space_group_name_H-M "C M C 21"
_symmetry_group_IT_number 36
_symmetry_cell_setting 'orthorhombic'
loop_
_space_group_symop_operation_xyz
x,y,z
-x,-y,1/2+z
x,-y,1/2+z
-x,y,z
1/2+x,1/2+y,z
1/2-x,1/2-y,1/2+z
1/2+x,1/2-y,1/2+z
1/2-x,1/2+y,z
loop_
_atom_site_type_symbol
_atom_site_label
_atom_site_fract_x
_atom_site_fract_y
_atom_site_fract_z
Si Si1 0.000000 0.196782 0.859241
Si Si2 0.275027 0.459016 0.688472
Si Si3 0.611155 0.307921 0.242725
Si Si4 0.890061 0.083421 0.237565
Si Si5 0.224371 0.784382 0.446645
Si Si6 0.500000 0.587982 0.364504
O O1 0.055878 0.237113 0.788849
O O2 0.000000 0.124090 0.654022
O O3 0.000000 0.161806 0.155546
O O4 0.253799 0.521886 0.478122
O O5 0.337694 0.466750 0.739330
O O6 0.269941 0.372668 0.563346
O O7 0.605839 0.378979 0.450407
O O8 0.665798 0.269792 0.333054
O O9 0.616244 0.345634 0.952170
O O10 0.945456 0.045415 0.311256
O O11 0.261616 0.769987 0.195584
#
# Coordination Sequence:
#
# PCOD9353089 Si02
#       6
#     4   8   8   8   8   4
#     4   8  14  24  42  63  86 118 154 193 235 276
#     4  11  21  34  49  67  92 126 163 201 243 291
#     4   9  16  28  45  66  90 121 158 196 239 281
#     4   9  16  28  43  62  87 120 160 199 233 270
#     4  11  21  34  51  72  97 128 164 205 249 297
#     4   8  14  24  40  59  84 116 156 199 231 258
#
# _framework density 18.171655000000001
#
# number of rings (size 3 to 8) (size 9 to 14) (size 15 to 20)
#    0.000    2.400    0.000    6.000    0.000    0.000 
#    0.000    1.000    0.000    0.000    0.000    0.000 
#    0.000    0.000    0.000   18.000    0.000    2.200 
#
# Total GULP energy -111441.266896 kJ/mol
# GULP energy per Si atom -5572.063345 kJ/mol
# Density = 1.813030 g / cm^3
# Si number density = 18.171655 Si / 1000 Ang^3
#
#
#
# Elastic Constant Matrix: (Units=GPa)
#
#
# Indices 1 2 3 4 5 6 
#
# 1 83.7444 31.0327 26.0250 0.0000 0.0000 0.0000
# 2 31.0327 31.9803 19.2904 0.0000 0.0000 0.0000
# 3 26.0250 19.2904 95.9361 0.0000 0.0000 0.0000
# 4 0.0000 0.0000 0.0000 30.2503 0.0000 0.0000
# 5 0.0000 0.0000 0.0000 0.0000 29.4646 0.0000
# 6 0.0000 0.0000 0.0000 0.0000 0.0000 16.6654
#
#
#
# Elastic Compliance Matrix: (Units=1/GPa)
#
#
# Indices 1 2 3 4 5 6 
#
# 1 0.018869 -0.017323 -0.001635 0.000000 0.000000 0.000000
# 2 -0.017323 0.051490 -0.005654 0.000000 0.000000 0.000000
# 3 -0.001635 -0.005654 0.012004 0.000000 0.000000 0.000000
# 4 0.000000 0.000000 0.000000 0.033058 0.000000 0.000000
# 5 0.000000 0.000000 0.000000 0.000000 0.033939 0.000000
# 6 0.000000 0.000000 0.000000 0.000000 0.000000 0.060004
#
#
# Mechanical properties :
#
#
# Convention : Reuss Voigt Hill
#
# Bulk Modulus (GPa) = 30.17734 40.48411 35.33072
# Shear Modulus (GPa) = 18.54366 24.29691 21.42028
#
# Velocity S-wave (km/s) = 3.19795 3.66057 3.43705
# Velocity P-wave (km/s) = 5.50261 6.33983 5.93600
#
# Compressibility (1/GPa) = 0.03313745
#
# Stress axis : x y z
#
# Youngs Moduli (GPa) = 52.99793 19.42142 83.30490
#
# Poissons Ratio (x) = 0.33644 0.13623
# Poissons Ratio (y) = 0.91809 0.47100
# Poissons Ratio (z) = 0.08667 0.10981
#
# Static dielectric constant tensor:
#      x y z
#    x 1.736620 0.000000 0.000000 
#    y 0.000000 1.596300 0.000000 
#    z 0.000000 0.000000 1.667900 
# 
# From -- ./inp_files/1710.got.cif
#   From: 2010.05.17/outbox.cif.g08.bks.cpg/sg36_1_cif.got.tgz:1710.got - 2010.06.03 17:41:39.
