data_PCOD9353285
_publ_section_title
;
Structure prediction by ZEFSAII (Michael W. Deem and Ramdas Pophale) SiO2 
 PCOD9353285
Probable space group: C M C 21
;
_chemical_formula_sum "Si O2"
_cell_formula_units_Z 64
_cell_length_a 9.307489
_cell_length_b 15.351091
_cell_length_c 21.337307
_cell_angle_alpha 90.000000
_cell_angle_beta 90.000000
_cell_angle_gamma 90.000000
_cell_volume 3048.676785
_symmetry_space_group_name_H-M "C M C 21"
_symmetry_group_IT_number 36
_symmetry_cell_setting 'orthorhombic'
loop_
_space_group_symop_operation_xyz
x,y,z
-x,-y,1/2+z
x,-y,1/2+z
-x,y,z
1/2+x,1/2+y,z
1/2-x,1/2-y,1/2+z
1/2+x,1/2-y,1/2+z
1/2-x,1/2+y,z
loop_
_atom_site_type_symbol
_atom_site_label
_atom_site_fract_x
_atom_site_fract_y
_atom_site_fract_z
Si Si1 0.327278 0.369685 0.931110
Si Si2 0.164055 0.257458 0.176330
Si Si3 0.336594 0.304177 0.061769
Si Si4 0.663050 0.896335 0.518947
Si Si5 0.171931 0.493466 0.755134
Si Si6 0.834179 0.051830 0.134877
Si Si7 0.672201 0.956019 0.386490
Si Si8 0.673355 0.682883 0.300391
O O1 0.500000 0.378089 0.935703
O O2 0.255893 0.457976 0.908105
O O3 0.302144 0.301656 0.874021
O O4 0.270926 0.347029 0.999766
O O5 0.255267 0.310591 0.126822
O O6 0.169939 0.154679 0.155876
O O7 0.208651 0.255648 0.248957
O O8 0.000000 0.286628 0.172672
O O9 0.500000 0.333981 0.069476
O O10 0.339577 0.201899 0.044098
O O11 0.500000 0.930996 0.523859
O O12 0.764954 0.950031 0.565730
O O13 0.702527 0.893450 0.445417
O O14 0.247935 0.500960 0.687929
O O15 0.207967 0.558324 0.813161
O O16 0.232768 0.400882 0.780931
O O17 0.000000 0.491119 0.746671
O O18 0.000000 0.026308 0.133721
O O19 0.500000 0.970061 0.386036
O O20 0.500000 0.664743 0.292962
#
# Coordination Sequence:
#
# PCOD9353285 Si02
#       8
#     8   8   8   8   8   8   8   8
#     4   9  17  29  45  65  88 114 144 178 216 257
#     4   8  14  24  39  59  83 109 138 176 214 247
#     4   9  17  28  44  65  87 113 142 174 214 257
#     4   9  17  30  46  65  90 117 146 180 217 259
#     4   9  15  24  40  62  86 111 141 179 220 258
#     4   9  16  26  41  63  87 112 145 182 219 256
#     4   9  18  30  45  66  90 117 147 179 217 260
#     4   8  14  25  40  59  83 109 141 180 215 250
#
# _framework density 20.992713999999999
#
# number of rings (size 3 to 8) (size 9 to 14) (size 15 to 20)
#    0.000    3.250    0.000    1.500    0.000    4.500 
#    0.000    0.000    0.000    1.500    0.000    5.250 
#    0.000    0.000    0.000    0.000    0.000    0.000 
#
# Total GULP energy -178212.247824 kJ/mol
# GULP energy per Si atom -5569.132744 kJ/mol
# Density = 2.094493 g / cm^3
# Si number density = 20.992714 Si / 1000 Ang^3
#
#
#
# Elastic Constant Matrix: (Units=GPa)
#
#
# Indices 1 2 3 4 5 6 
#
# 1 33.0395 26.9170 24.7487 0.0000 0.0000 0.0000
# 2 26.9170 17.4860 88.9675 0.0000 0.0000 0.0000
# 3 24.7487 88.9675 40.7515 0.0000 0.0000 0.0000
# 4 0.0000 0.0000 0.0000 30.7663 0.0000 0.0000
# 5 0.0000 0.0000 0.0000 0.0000 32.1015 0.0000
# 6 0.0000 0.0000 0.0000 0.0000 0.0000 -1.2809
#
#
#
# Elastic Compliance Matrix: (Units=1/GPa)
#
#
# Indices 1 2 3 4 5 6 
#
# 1 0.045108 -0.006920 -0.012287 0.000000 0.000000 0.000000
# 2 -0.006920 -0.004596 0.014237 0.000000 0.000000 0.000000
# 3 -0.012287 0.014237 0.000919 0.000000 0.000000 0.000000
# 4 0.000000 0.000000 0.000000 0.032503 0.000000 0.000000
# 5 0.000000 0.000000 0.000000 0.000000 0.031151 0.000000
# 6 0.000000 0.000000 0.000000 0.000000 0.000000 -0.780700
#
#
# Mechanical properties :
#
#
# Convention : Reuss Voigt Hill
#
# Bulk Modulus (GPa) = 31.75519 41.39369 36.57444
# Shear Modulus (GPa) = -7.63153 9.02696 0.69771
#
# Velocity S-wave (km/s) = -1.90872 2.07590 0.57713
# Velocity P-wave (km/s) = 3.20967 5.05042 4.23136
#
# Compressibility (1/GPa) = 0.03149091
#
# Stress axis : x y z
#
# Youngs Moduli (GPa) = 22.16883 -217.56510 1087.72541
#
# Poissons Ratio (x) = -1.50552 13.36535
# Poissons Ratio (y) = 0.15340 -15.48598
# Poissons Ratio (z) = 0.27240 3.09748
#
# Static dielectric constant tensor:
#      x y z
#    x 1.712880 0.000000 0.000000 
#    y 0.000000 1.812010 0.000000 
#    z 0.000000 0.000000 1.826950 
# 
# From -- ./inp_files/14106.got.cif
#   From: 2010.05.17/outbox.cif.g08.bks.cpg/sg36_8_cif.got.tgz:14106.got - 2010.06.03 17:41:39.
