data_PCOD9353000
_publ_section_title
;
Structure prediction by ZEFSAII (Michael W. Deem and Ramdas Pophale) SiO2 
 PCOD9353000
Probable space group: C M C 21
;
_chemical_formula_sum "Si O2"
_cell_formula_units_Z 60
_cell_length_a 20.180043
_cell_length_b 8.916454
_cell_length_c 13.811905
_cell_angle_alpha 90.000000
_cell_angle_beta 90.000000
_cell_angle_gamma 90.000000
_cell_volume 2485.237186
_symmetry_space_group_name_H-M "C M C 21"
_symmetry_group_IT_number 36
_symmetry_cell_setting 'orthorhombic'
loop_
_space_group_symop_operation_xyz
x,y,z
-x,-y,1/2+z
x,-y,1/2+z
-x,y,z
1/2+x,1/2+y,z
1/2-x,1/2-y,1/2+z
1/2+x,1/2-y,1/2+z
1/2-x,1/2+y,z
loop_
_atom_site_type_symbol
_atom_site_label
_atom_site_fract_x
_atom_site_fract_y
_atom_site_fract_z
Si Si1 0.221829 0.528803 0.279860
Si Si2 0.073191 0.009711 0.185005
Si Si3 0.840403 0.818167 0.062207
Si Si4 0.500000 0.396587 0.359733
Si Si5 0.879082 0.676527 0.409524
Si Si6 0.732067 0.388492 0.484070
Si Si7 0.161639 0.744981 0.724488
Si Si8 0.577457 0.847429 0.411522
O O1 0.159642 0.632176 0.309718
O O2 0.240419 0.434837 0.377791
O O3 0.201725 0.405520 0.199626
O O4 0.284279 0.630433 0.253615
O O5 0.000000 0.995931 0.137608
O O6 0.056715 0.995556 0.298556
O O7 0.109087 0.164975 0.159795
O O8 0.121510 0.874351 0.156759
O O9 0.788910 0.681371 0.052535
O O10 0.899385 0.772183 0.990003
O O11 0.802398 0.963561 0.023263
O O12 0.441214 0.284831 0.398247
O O13 0.821901 0.758313 0.469662
O O14 0.903522 0.514777 0.446880
O O15 0.117927 0.689081 0.814852
O O16 0.500000 0.840910 0.392720
#
# Coordination Sequence:
#
# PCOD9353000 Si02
#       8
#     8   8   8   4   8   8   8   8
#     4  11  19  35  65 100 126 149 221 293 343 370
#     4  10  26  44  60  89 139 188 225 249 341 432
#     4  12  23  42  65  94 137 179 215 283 340 419
#     4  10  24  42  64  90 140 174 214 280 328 420
#     4  11  20  39  65 104 126 161 221 291 343 383
#     4  12  20  38  68  99 128 163 222 284 348 388
#     4  11  21  37  64  91 125 170 218 286 324 401
#     4  11  21  36  66  96 124 169 227 283 335 383
#
# _framework density 24.142565000000001
#
# number of rings (size 3 to 8) (size 9 to 14) (size 15 to 20)
#    0.400    0.533    7.333    1.600    0.000    1.067 
#    1.200    0.000    5.867    0.000    0.000    0.000 
#    0.000    0.000    0.000    0.000    0.000    0.000 
#
# Total GULP energy -167228.795823 kJ/mol
# GULP energy per Si atom -5574.293194 kJ/mol
# Density = 2.408761 g / cm^3
# Si number density = 24.142565 Si / 1000 Ang^3
#
#
#
# Elastic Constant Matrix: (Units=GPa)
#
#
# Indices 1 2 3 4 5 6 
#
# 1 175.9260 60.4706 16.7702 0.0000 0.0000 0.0000
# 2 60.4706 122.8912 29.3117 0.0000 0.0000 0.0000
# 3 16.7702 29.3117 28.6936 0.0000 0.0000 0.0000
# 4 0.0000 0.0000 0.0000 28.5391 0.0000 0.0000
# 5 0.0000 0.0000 0.0000 0.0000 23.2482 0.0000
# 6 0.0000 0.0000 0.0000 0.0000 0.0000 65.2809
#
#
#
# Elastic Compliance Matrix: (Units=1/GPa)
#
#
# Indices 1 2 3 4 5 6 
#
# 1 0.006853 -0.003195 -0.000741 0.000000 0.000000 0.000000
# 2 -0.003195 0.012249 -0.010645 0.000000 0.000000 0.000000
# 3 -0.000741 -0.010645 0.046158 0.000000 0.000000 0.000000
# 4 0.000000 0.000000 0.000000 0.035040 0.000000 0.000000
# 5 0.000000 0.000000 0.000000 0.000000 0.043014 0.000000
# 6 0.000000 0.000000 0.000000 0.000000 0.000000 0.015318
#
#
# Mechanical properties :
#
#
# Convention : Reuss Voigt Hill
#
# Bulk Modulus (GPa) = 27.70297 60.06843 43.88570
# Shear Modulus (GPa) = 25.02155 38.14419 31.58287
#
# Velocity S-wave (km/s) = 3.22282 3.97918 3.62080
# Velocity P-wave (km/s) = 5.03472 6.78576 5.97474
#
# Compressibility (1/GPa) = 0.03609721
#
# Stress axis : x y z
#
# Youngs Moduli (GPa) = 145.91662 81.64151 21.66459
#
# Poissons Ratio (x) = 0.26088 0.01606
# Poissons Ratio (y) = 0.46627 0.23062
# Poissons Ratio (z) = 0.10814 0.86907
#
# Static dielectric constant tensor:
#      x y z
#    x 1.913480 0.000000 0.000000 
#    y 0.000000 1.938780 0.000000 
#    z 0.000000 0.000000 2.029710 
# 
# From -- ./inp_files/14892.got.cif
#   From: 2010.05.17/outbox.cif.g08.bks.cpg/sg36_8_cif.got.tgz:14892.got - 2010.06.03 17:41:39.
