data_PCOD9353504
_publ_section_title
;
Structure prediction by ZEFSAII (Michael W. Deem and Ramdas Pophale) SiO2 
 PCOD9353504
Probable space group: C C C 2
;
_chemical_formula_sum "Si O2"
_cell_formula_units_Z 52
_cell_length_a 15.819150
_cell_length_b 11.156431
_cell_length_c 16.668089
_cell_angle_alpha 90.000000
_cell_angle_beta 90.000000
_cell_angle_gamma 90.000000
_cell_volume 2941.671945
_symmetry_space_group_name_H-M "C C C 2"
_symmetry_group_IT_number 37
_symmetry_cell_setting 'orthorhombic'
loop_
_space_group_symop_operation_xyz
x,y,z
-x,-y,z
-x,y,1/2+z
x,-y,1/2+z
1/2+x,1/2+y,z
1/2-x,1/2-y,z
1/2-x,1/2+y,1/2+z
1/2+x,1/2-y,1/2+z
loop_
_atom_site_type_symbol
_atom_site_label
_atom_site_fract_x
_atom_site_fract_y
_atom_site_fract_z
Si Si1 0.034158 0.380159 0.434170
Si Si2 0.427357 0.821110 0.661617
Si Si3 0.750000 0.250000 0.062922
Si Si4 0.896851 0.412402 0.116267
Si Si5 0.373474 0.573846 0.965364
Si Si6 0.349076 0.730183 0.823646
Si Si7 0.558835 0.674692 0.001357
O O1 0.067750 0.409420 0.524102
O O2 0.110665 0.325941 0.384857
O O3 0.000000 0.500000 0.395662
O O4 0.957416 0.285435 0.441168
O O5 0.526544 0.855566 0.667051
O O6 0.393395 0.754423 0.739444
O O7 0.417875 0.733779 0.585632
O O8 0.383644 0.950247 0.643334
O O9 0.815840 0.327541 0.114513
O O10 0.698771 0.347522 0.009034
O O11 0.368441 0.607029 0.871155
O O12 0.462975 0.621147 0.001280
O O13 0.377637 0.431539 0.978488
O O14 0.250000 0.750000 0.815115
#
# Coordination Sequence:
#
# PCOD9353504 Si02
#       7
#     8   8   4   8   8   8   8
#     4  10  17  35  63  86 111 156 207 243 285 363
#     4  10  20  37  58  88 122 149 201 246 299 358
#     4  12  18  36  66  84 118 156 204 250 286 358
#     4  10  19  36  61  92 113 156 204 242 293 360
#     4  10  19  35  61  87 114 157 201 238 295 355
#     4  11  22  36  58  87 119 157 197 245 311 350
#     4   9  18  36  58  87 113 151 204 239 280 359
#
# _framework density 17.677022000000001
#
# number of rings (size 3 to 8) (size 9 to 14) (size 15 to 20)
#    0.000    1.846    8.462    0.000    2.154    1.231 
#    0.000    6.154   13.538    0.000    0.000    0.000 
#    0.000    0.000    0.000    0.000    0.000    0.000 
#
# Total GULP energy -144809.866446 kJ/mol
# GULP energy per Si atom -5569.610248 kJ/mol
# Density = 1.763679 g / cm^3
# Si number density = 17.677022 Si / 1000 Ang^3
#
#
#
# Elastic Constant Matrix: (Units=GPa)
#
#
# Indices 1 2 3 4 5 6 
#
# 1 86.5551 48.9546 47.2675 0.0000 0.0000 0.0000
# 2 48.9546 142.2723 49.6992 0.0000 0.0000 0.0000
# 3 47.2675 49.6992 90.2399 0.0000 0.0000 0.0000
# 4 0.0000 0.0000 0.0000 12.0760 0.0000 0.0000
# 5 0.0000 0.0000 0.0000 0.0000 21.8797 0.0000
# 6 0.0000 0.0000 0.0000 0.0000 0.0000 25.8049
#
#
#
# Elastic Compliance Matrix: (Units=1/GPa)
#
#
# Indices 1 2 3 4 5 6 
#
# 1 0.017475 -0.003486 -0.007233 0.000000 0.000000 0.000000
# 2 -0.003486 0.009399 -0.003350 0.000000 0.000000 0.000000
# 3 -0.007233 -0.003350 0.016716 0.000000 0.000000 0.000000
# 4 0.000000 0.000000 0.000000 0.082809 0.000000 0.000000
# 5 0.000000 0.000000 0.000000 0.000000 0.045705 0.000000
# 6 0.000000 0.000000 0.000000 0.000000 0.000000 0.038752
#
#
# Mechanical properties :
#
#
# Convention : Reuss Voigt Hill
#
# Bulk Modulus (GPa) = 64.72626 67.87887 66.30256
# Shear Modulus (GPa) = 20.47963 23.49518 21.98741
#
# Velocity S-wave (km/s) = 3.40743 3.64969 3.53064
# Velocity P-wave (km/s) = 7.22332 7.49954 7.36273
#
# Compressibility (1/GPa) = 0.01544968
#
# Stress axis : x y z
#
# Youngs Moduli (GPa) = 57.22353 106.39809 59.82452
#
# Poissons Ratio (x) = 0.37093 0.43274
# Poissons Ratio (y) = 0.19950 0.20042
# Poissons Ratio (z) = 0.41393 0.35645
#
# Static dielectric constant tensor:
#      x y z
#    x 1.611630 0.000000 0.000000 
#    y 0.000000 1.678040 0.000000 
#    z 0.000000 0.000000 1.607130 
# 
# From -- ./inp_files/15284.got.cif
#   From: 2010.05.17/outbox.cif.g08.bks.cpg/sg37_8_cif.got.tgz:15284.got - 2010.06.03 17:53:42.
