data_PCOD9353174
_publ_section_title
;
Structure prediction by ZEFSAII (Michael W. Deem and Ramdas Pophale) SiO2 
 PCOD9353174
Probable space group: C M C 21
;
_chemical_formula_sum "Si O2"
_cell_formula_units_Z 48
_cell_length_a 8.658385
_cell_length_b 19.947989
_cell_length_c 14.166932
_cell_angle_alpha 90.000000
_cell_angle_beta 90.000000
_cell_angle_gamma 90.000000
_cell_volume 2446.875218
_symmetry_space_group_name_H-M "C M C 21"
_symmetry_group_IT_number 36
_symmetry_cell_setting 'orthorhombic'
loop_
_space_group_symop_operation_xyz
x,y,z
-x,-y,1/2+z
x,-y,1/2+z
-x,y,z
1/2+x,1/2+y,z
1/2-x,1/2-y,1/2+z
1/2+x,1/2-y,1/2+z
1/2-x,1/2+y,z
loop_
_atom_site_type_symbol
_atom_site_label
_atom_site_fract_x
_atom_site_fract_y
_atom_site_fract_z
Si Si1 0.679182 0.081199 0.464380
Si Si2 0.816392 0.009542 0.281504
Si Si3 0.320065 0.051300 0.088252
Si Si4 0.683955 0.671703 0.968936
Si Si5 0.684810 0.141736 0.769539
Si Si6 0.817199 0.201845 0.576263
O O1 0.500000 0.101523 0.453346
O O2 0.742890 0.049003 0.368855
O O3 0.778064 0.142769 0.502464
O O4 0.685275 0.022190 0.541865
O O5 0.771054 0.047828 0.185852
O O6 0.000000 0.004772 0.292334
O O7 0.747112 0.934589 0.274768
O O8 0.500000 0.068599 0.103869
O O9 0.245104 0.103400 0.016139
O O10 0.500000 0.669899 0.959386
O O11 0.760010 0.677324 0.865646
O O12 0.736215 0.731787 0.036765
O O13 0.500000 0.140023 0.764568
O O14 0.751297 0.178042 0.677086
O O15 0.000000 0.212130 0.583203
#
# Coordination Sequence:
#
# PCOD9353174 Si02
#       6
#     8   8   8   8   8   8
#     4  11  23  41  67  97 132 172 219 271 326 386
#     4  12  24  39  66 101 134 173 223 275 329 389
#     4  11  23  41  67  97 132 172 219 271 326 386
#     4  12  26  45  69  99 135 175 221 273 331 395
#     4  12  24  43  68  97 132 175 221 269 331 395
#     4  12  26  45  69  99 135 175 221 273 331 395
#
# _framework density 19.616855999999999
#
# number of rings (size 3 to 8) (size 9 to 14) (size 15 to 20)
#    0.000    0.333    3.333    7.000    0.000    2.667 
#    0.000    6.667    0.000    0.000    0.000    0.000 
#    0.000    0.000    0.000    0.000    0.000    0.000 
#
# Total GULP energy -134382.862629 kJ/mol
# GULP energy per Si atom -5599.285943 kJ/mol
# Density = 1.957221 g / cm^3
# Si number density = 19.616856 Si / 1000 Ang^3
#
#
#
# Elastic Constant Matrix: (Units=GPa)
#
#
# Indices 1 2 3 4 5 6 
#
# 1 106.2763 -3.0480 1.5637 0.0000 0.0000 0.0000
# 2 -3.0480 36.3728 -14.4583 0.0000 0.0000 0.0000
# 3 1.5637 -14.4583 78.3865 0.0000 0.0000 0.0000
# 4 0.0000 0.0000 0.0000 31.2205 0.0000 0.0000
# 5 0.0000 0.0000 0.0000 0.0000 38.2257 0.0000
# 6 0.0000 0.0000 0.0000 0.0000 0.0000 33.9141
#
#
#
# Elastic Compliance Matrix: (Units=1/GPa)
#
#
# Indices 1 2 3 4 5 6 
#
# 1 0.009432 0.000772 -0.000046 0.000000 0.000000 0.000000
# 2 0.000772 0.029732 0.005469 0.000000 0.000000 0.000000
# 3 -0.000046 0.005469 0.013767 0.000000 0.000000 0.000000
# 4 0.000000 0.000000 0.000000 0.032030 0.000000 0.000000
# 5 0.000000 0.000000 0.000000 0.000000 0.026160 0.000000
# 6 0.000000 0.000000 0.000000 0.000000 0.000000 0.029486
#
#
# Mechanical properties :
#
#
# Convention : Reuss Voigt Hill
#
# Bulk Modulus (GPa) = 15.30908 21.01672 18.16290
# Shear Modulus (GPa) = 33.33532 36.47060 34.90296
#
# Velocity S-wave (km/s) = 4.12675 4.31646 4.22267
# Velocity P-wave (km/s) = 5.52519 5.96484 5.74922
#
# Compressibility (1/GPa) = 0.06532070
#
# Stress axis : x y z
#
# Youngs Moduli (GPa) = 106.01915 33.63435 72.63810
#
# Poissons Ratio (x) = -0.02597 0.00332
# Poissons Ratio (y) = -0.08187 -0.39722
# Poissons Ratio (z) = 0.00485 -0.18393
#
# Static dielectric constant tensor:
#      x y z
#    x 1.654350 0.000000 0.000000 
#    y 0.000000 1.661730 0.000000 
#    z 0.000000 0.000000 1.671720 
# 
# From -- ./inp_files/10362.got.cif
#   From: 2010.05.17/outbox.cif.g08.bks.cpg/sg36_6_cif.got.tgz:10362.got - 2010.06.03 17:41:39.
