data_PCOD9353889
_publ_section_title
;
Structure prediction by ZEFSAII (Michael W. Deem and Ramdas Pophale) SiO2 
 PCOD9353889
Probable space group: C C C 2
;
_chemical_formula_sum "Si O2"
_cell_formula_units_Z 36
_cell_length_a 11.941255
_cell_length_b 8.732980
_cell_length_c 15.409076
_cell_angle_alpha 90.000000
_cell_angle_beta 90.000000
_cell_angle_gamma 90.000000
_cell_volume 1606.900683
_symmetry_space_group_name_H-M "C C C 2"
_symmetry_group_IT_number 37
_symmetry_cell_setting 'orthorhombic'
loop_
_space_group_symop_operation_xyz
x,y,z
-x,-y,z
-x,y,1/2+z
x,-y,1/2+z
1/2+x,1/2+y,z
1/2-x,1/2-y,z
1/2-x,1/2+y,1/2+z
1/2+x,1/2-y,1/2+z
loop_
_atom_site_type_symbol
_atom_site_label
_atom_site_fract_x
_atom_site_fract_y
_atom_site_fract_z
Si Si1 0.753471 0.495968 0.207770
Si Si2 0.567970 0.272139 0.688592
Si Si3 0.250000 0.750000 0.053862
Si Si4 0.491341 0.183834 0.505574
Si Si5 0.585973 0.854903 0.829064
O O1 0.637262 0.581833 0.217113
O O2 0.848654 0.626075 0.194500
O O3 0.749372 0.391874 0.121778
O O4 0.794504 0.411092 0.294894
O O5 0.530416 0.275701 0.589632
O O6 0.463470 0.243780 0.750609
O O7 0.360782 0.771879 0.995631
O O8 0.569109 0.218066 0.422915
O O9 0.500000 0.000000 0.523821
O O10 0.500000 0.000000 0.834991
#
# Coordination Sequence:
#
# PCOD9353889 Si02
#       5
#     8   8   4   8   8
#     4  10  21  38  67  93 127 177 226 268 341 398
#     4  10  19  41  66  91 131 177 218 281 334 398
#     4  12  22  38  68  98 126 186 224 270 344 412
#     4  11  21  38  68  97 140 175 225 285 338 404
#     4   9  19  37  64  95 130 174 221 276 337 398
#
# _framework density 22.403376000000002
#
# number of rings (size 3 to 8) (size 9 to 14) (size 15 to 20)
#    0.000    1.778    4.444    0.667    0.000    6.222 
#    0.000    2.222    4.889    0.000    0.000    0.000 
#    0.000    0.000    0.000    0.000    0.000    0.000 
#
# Total GULP energy -100627.929957 kJ/mol
# GULP energy per Si atom -5590.440553 kJ/mol
# Density = 2.235238 g / cm^3
# Si number density = 22.403376 Si / 1000 Ang^3
#
#
#
# Elastic Constant Matrix: (Units=GPa)
#
#
# Indices 1 2 3 4 5 6 
#
# 1 105.2425 32.2252 51.0192 0.0000 0.0000 0.0000
# 2 32.2252 70.2603 18.2731 0.0000 0.0000 0.0000
# 3 51.0192 18.2731 159.4475 0.0000 0.0000 0.0000
# 4 0.0000 0.0000 0.0000 -6.0819 0.0000 0.0000
# 5 0.0000 0.0000 0.0000 0.0000 32.8062 0.0000
# 6 0.0000 0.0000 0.0000 0.0000 0.0000 36.4458
#
#
#
# Elastic Compliance Matrix: (Units=1/GPa)
#
#
# Indices 1 2 3 4 5 6 
#
# 1 0.012705 -0.004916 -0.003502 0.000000 0.000000 0.000000
# 2 -0.004916 0.016573 -0.000326 0.000000 0.000000 0.000000
# 3 -0.003502 -0.000326 0.007430 0.000000 0.000000 0.000000
# 4 0.000000 0.000000 0.000000 -0.164422 0.000000 0.000000
# 5 0.000000 0.000000 0.000000 0.000000 0.030482 0.000000
# 6 0.000000 0.000000 0.000000 0.000000 0.000000 0.027438
#
#
# Mechanical properties :
#
#
# Convention : Reuss Voigt Hill
#
# Bulk Modulus (GPa) = 52.03386 59.77613 55.90499
# Shear Modulus (GPa) = -108.93171 28.19621 -40.36775
#
# Velocity S-wave (km/s) = -6.98058 3.55148 -4.24944
# Velocity P-wave (km/s) = 6.45716 6.59978 0.96490
#
# Compressibility (1/GPa) = 0.01921825
#
# Stress axis : x y z
#
# Youngs Moduli (GPa) = 78.71005 60.34077 134.59816
#
# Poissons Ratio (x) = 0.29666 0.47134
# Poissons Ratio (y) = 0.38697 0.04390
# Poissons Ratio (z) = 0.27563 0.01968
#
# Static dielectric constant tensor:
#      x y z
#    x 1.817380 0.000000 0.000000 
#    y 0.000000 1.868380 0.000000 
#    z 0.000000 0.000000 1.800750 
# 
# From -- ./inp_files/11940.got.cif
#   From: 2010.05.17/outbox.cif.g08.bks.cpg/sg37_6_cif.got.tgz:11940.got - 2010.06.03 17:53:42.
