data_PCOD9353890
_publ_section_title
;
Structure prediction by ZEFSAII (Michael W. Deem and Ramdas Pophale) SiO2 
 PCOD9353890
Probable space group: C C C 2
;
_chemical_formula_sum "Si O2"
_cell_formula_units_Z 52
_cell_length_a 8.639842
_cell_length_b 20.557942
_cell_length_c 11.797673
_cell_angle_alpha 90.000000
_cell_angle_beta 90.000000
_cell_angle_gamma 90.000000
_cell_volume 2095.471659
_symmetry_space_group_name_H-M "C C C 2"
_symmetry_group_IT_number 37
_symmetry_cell_setting 'orthorhombic'
loop_
_space_group_symop_operation_xyz
x,y,z
-x,-y,z
-x,y,1/2+z
x,-y,1/2+z
1/2+x,1/2+y,z
1/2-x,1/2-y,z
1/2-x,1/2+y,1/2+z
1/2+x,1/2-y,1/2+z
loop_
_atom_site_type_symbol
_atom_site_label
_atom_site_fract_x
_atom_site_fract_y
_atom_site_fract_z
Si Si1 0.586836 0.363005 0.690310
Si Si2 0.139846 0.042820 0.393246
Si Si3 0.250000 0.750000 0.827475
Si Si4 0.651066 0.048448 0.251749
Si Si5 0.260170 0.680668 0.202661
Si Si6 0.364266 0.934853 0.602455
Si Si7 0.616427 0.856393 0.481814
O O1 0.568261 0.421667 0.781579
O O2 0.659323 0.301754 0.753562
O O3 0.424959 0.336486 0.647542
O O4 0.714087 0.390571 0.605044
O O5 0.231632 0.100384 0.455028
O O6 0.276602 0.995049 0.350481
O O7 0.000000 0.000000 0.445560
O O8 0.371938 0.795612 0.896357
O O9 0.724955 0.117922 0.275195
O O10 0.473111 0.067569 0.218449
O O11 0.690702 0.009218 0.132014
O O12 0.250000 0.750000 0.260482
O O13 0.135482 0.678509 0.102789
O O14 0.474483 0.907173 0.502742
#
# Coordination Sequence:
#
# PCOD9353890 Si02
#       7
#     8   8   4   8   8   8   8
#     4  10  22  38  71  91 122 173 231 260 322 412
#     4  10  19  41  66  96 129 165 217 283 334 395
#     4  10  22  38  64  94 132 172 212 270 338 382
#     4   9  19  39  65  93 125 163 228 262 326 394
#     4  11  22  40  70  90 127 172 215 273 321 403
#     4   9  20  40  64  94 124 168 223 268 325 397
#     4  10  22  41  64  93 138 167 209 278 347 383
#
# _framework density 24.815415999999999
#
# number of rings (size 3 to 8) (size 9 to 14) (size 15 to 20)
#    0.000    2.154    2.308    0.000    4.308    0.000 
#   13.846   18.462    6.769    0.000    0.000    0.000 
#    0.000    0.000    0.000    0.000    0.000    0.000 
#
# Total GULP energy -144792.728042 kJ/mol
# GULP energy per Si atom -5568.951079 kJ/mol
# Density = 2.475893 g / cm^3
# Si number density = 24.815416 Si / 1000 Ang^3
#
#
#
# Elastic Constant Matrix: (Units=GPa)
#
#
# Indices 1 2 3 4 5 6 
#
# 1 87.3624 34.4145 2.1456 0.0000 0.0000 0.0000
# 2 34.4145 173.8707 21.9477 0.0000 0.0000 0.0000
# 3 2.1456 21.9477 28.6057 0.0000 0.0000 0.0000
# 4 0.0000 0.0000 0.0000 32.3953 0.0000 0.0000
# 5 0.0000 0.0000 0.0000 0.0000 28.9503 0.0000
# 6 0.0000 0.0000 0.0000 0.0000 0.0000 27.6743
#
#
#
# Elastic Compliance Matrix: (Units=1/GPa)
#
#
# Indices 1 2 3 4 5 6 
#
# 1 0.012443 -0.002597 0.001059 0.000000 0.000000 0.000000
# 2 -0.002597 0.006910 -0.005107 0.000000 0.000000 0.000000
# 3 0.001059 -0.005107 0.038797 0.000000 0.000000 0.000000
# 4 0.000000 0.000000 0.000000 0.030869 0.000000 0.000000
# 5 0.000000 0.000000 0.000000 0.000000 0.034542 0.000000
# 6 0.000000 0.000000 0.000000 0.000000 0.000000 0.036135
#
#
# Mechanical properties :
#
#
# Convention : Reuss Voigt Hill
#
# Bulk Modulus (GPa) = 22.29101 45.20605 33.74853
# Shear Modulus (GPa) = 26.60441 33.22603 29.91522
#
# Velocity S-wave (km/s) = 3.27783 3.66310 3.47581
# Velocity P-wave (km/s) = 4.82989 6.01229 5.45323
#
# Compressibility (1/GPa) = 0.04486113
#
# Stress axis : x y z
#
# Youngs Moduli (GPa) = 80.36356 144.71775 25.77521
#
# Poissons Ratio (x) = 0.37578 -0.02729
# Poissons Ratio (y) = 0.20867 0.13163
# Poissons Ratio (z) = -0.08510 0.73906
#
# Static dielectric constant tensor:
#      x y z
#    x 2.117020 0.000000 0.000000 
#    y 0.000000 2.059980 0.000000 
#    z 0.000000 0.000000 2.010010 
# 
# From -- ./inp_files/10746.got.cif
#   From: 2010.05.17/outbox.cif.g08.bks.cpg/sg37_6_cif.got.tgz:10746.got - 2010.06.03 17:53:42.
