data_PCOD9353705
_publ_section_title
;
Structure prediction by ZEFSAII (Michael W. Deem and Ramdas Pophale) SiO2 
 PCOD9353705
Probable space group: C C C 2
;
_chemical_formula_sum "Si O2"
_cell_formula_units_Z 48
_cell_length_a 17.542407
_cell_length_b 22.469402
_cell_length_c 5.220678
_cell_angle_alpha 90.000000
_cell_angle_beta 90.000000
_cell_angle_gamma 90.000000
_cell_volume 2057.821047
_symmetry_space_group_name_H-M "C C C 2"
_symmetry_group_IT_number 37
_symmetry_cell_setting 'orthorhombic'
loop_
_space_group_symop_operation_xyz
x,y,z
-x,-y,z
-x,y,1/2+z
x,-y,1/2+z
1/2+x,1/2+y,z
1/2-x,1/2-y,z
1/2-x,1/2+y,1/2+z
1/2+x,1/2-y,1/2+z
loop_
_atom_site_type_symbol
_atom_site_label
_atom_site_fract_x
_atom_site_fract_y
_atom_site_fract_z
Si Si1 0.278774 0.085869 0.829860
Si Si2 0.299321 0.304541 0.047829
Si Si3 0.694771 0.579080 0.326288
Si Si4 0.548215 0.895250 0.871263
Si Si5 0.030659 0.933801 0.048314
Si Si6 0.452800 0.248769 0.842964
O O1 0.254301 0.155173 0.865150
O O2 0.258432 0.070411 0.540715
O O3 0.367241 0.078016 0.887119
O O4 0.224277 0.056729 0.048948
O O5 0.250000 0.250000 0.147460
O O6 0.374066 0.280889 0.908597
O O7 0.318559 0.350820 0.271445
O O8 0.615054 0.558972 0.441648
O O9 0.503258 0.911480 0.613983
O O10 0.557930 0.823085 0.863182
O O11 0.021045 0.904331 0.326670
O O12 0.000000 0.000000 0.102566
O O13 0.485581 0.263293 0.563794
#
# Coordination Sequence:
#
# PCOD9353705 Si02
#       6
#     8   8   8   8   8   8
#     4  10  21  36  51  76 107 145 194 246 296 359
#     4  10  22  36  51  73 106 154 196 245 304 345
#     4  10  22  35  55  79 108 149 197 244 298 355
#     4  10  19  33  51  70  97 140 189 240 290 331
#     4  10  21  39  63  88 119 159 196 248 311 378
#     4  10  21  32  45  65  93 130 187 243 280 340
#
# _framework density 23.325641000000001
#
# number of rings (size 3 to 8) (size 9 to 14) (size 15 to 20)
#    1.000    1.000    1.667    2.000    2.333    3.333 
#    0.000    0.000    0.000    0.000    0.000    0.000 
#    0.000    0.000    0.000  210.000    0.000   13.333 
#
# Total GULP energy -134133.216656 kJ/mol
# GULP energy per Si atom -5588.884027 kJ/mol
# Density = 2.327255 g / cm^3
# Si number density = 23.325641 Si / 1000 Ang^3
#
#
#
# Elastic Constant Matrix: (Units=GPa)
#
#
# Indices 1 2 3 4 5 6 
#
# 1 114.8892 -5.8313 0.6646 0.0000 0.0000 0.0000
# 2 -5.8313 50.6521 -18.5591 0.0000 0.0000 0.0000
# 3 0.6646 -18.5591 116.1996 0.0000 0.0000 0.0000
# 4 0.0000 0.0000 0.0000 -70.2879 0.0000 0.0000
# 5 0.0000 0.0000 0.0000 0.0000 39.3874 0.0000
# 6 0.0000 0.0000 0.0000 0.0000 0.0000 10.7114
#
#
#
# Elastic Compliance Matrix: (Units=1/GPa)
#
#
# Indices 1 2 3 4 5 6 
#
# 1 0.008757 0.001051 0.000118 0.000000 0.000000 0.000000
# 2 0.001051 0.021096 0.003363 0.000000 0.000000 0.000000
# 3 0.000118 0.003363 0.009142 0.000000 0.000000 0.000000
# 4 0.000000 0.000000 0.000000 -0.014227 0.000000 0.000000
# 5 0.000000 0.000000 0.000000 0.000000 0.025389 0.000000
# 6 0.000000 0.000000 0.000000 0.000000 0.000000 0.093358
#
#
# Mechanical properties :
#
#
# Convention : Reuss Voigt Hill
#
# Bulk Modulus (GPa) = 20.80734 26.03214 23.41974
# Shear Modulus (GPa) = 33.22920 16.32663 24.77792
#
# Velocity S-wave (km/s) = 3.77845 2.64851 3.26277
# Velocity P-wave (km/s) = 5.28917 4.53182 4.92508
#
# Compressibility (1/GPa) = 0.04805996
#
# Stress axis : x y z
#
# Youngs Moduli (GPa) = 114.19808 47.40260 109.38052
#
# Poissons Ratio (x) = -0.04983 -0.01289
# Poissons Ratio (y) = -0.12005 -0.36789
# Poissons Ratio (z) = -0.01346 -0.15943
#
# Static dielectric constant tensor:
#      x y z
#    x 1.822690 0.000000 0.000000 
#    y 0.000000 2.030880 0.000000 
#    z 0.000000 0.000000 1.891230 
# 
# From -- ./inp_files/580.got.cif
#   From: 2010.05.17/outbox.cif.g08.bks.cpg/sg37_1_cif.got.tgz:580.got - 2010.06.03 17:53:42.
