data_PCOD9353010
_publ_section_title
;
Structure prediction by ZEFSAII (Michael W. Deem and Ramdas Pophale) SiO2 
 PCOD9353010
Probable space group: C M C 21
;
_chemical_formula_sum "Si O2"
_cell_formula_units_Z 40
_cell_length_a 9.781312
_cell_length_b 18.712480
_cell_length_c 10.152417
_cell_angle_alpha 90.000000
_cell_angle_beta 90.000000
_cell_angle_gamma 90.000000
_cell_volume 1858.223332
_symmetry_space_group_name_H-M "C M C 21"
_symmetry_group_IT_number 36
_symmetry_cell_setting 'orthorhombic'
loop_
_space_group_symop_operation_xyz
x,y,z
-x,-y,1/2+z
x,-y,1/2+z
-x,y,z
1/2+x,1/2+y,z
1/2-x,1/2-y,1/2+z
1/2+x,1/2-y,1/2+z
1/2-x,1/2+y,z
loop_
_atom_site_type_symbol
_atom_site_label
_atom_site_fract_x
_atom_site_fract_y
_atom_site_fract_z
Si Si1 0.715947 0.772977 0.251580
Si Si2 0.151805 0.127861 0.132245
Si Si3 0.352155 0.903792 0.405145
Si Si4 0.341837 0.679061 0.501844
Si Si5 0.658631 0.927506 0.866713
O O1 0.722303 0.734855 0.395199
O O2 0.650017 0.849215 0.283526
O O3 0.837620 0.791770 0.150671
O O4 0.000000 0.096387 0.140614
O O5 0.142371 0.211511 0.167573
O O6 0.258092 0.095631 0.237297
O O7 0.222470 0.115336 0.993253
O O8 0.500000 0.891727 0.474214
O O9 0.343477 0.986996 0.372364
O O10 0.500000 0.666596 0.463266
O O11 0.247329 0.609222 0.482806
O O12 0.500000 0.902988 0.867265
#
# Coordination Sequence:
#
# PCOD9353010 Si02
#       5
#     8   8   8   8   8
#     4  11  23  44  70  99 135 177 222 278 338 398
#     4  11  24  43  67  99 135 174 223 283 339 397
#     4  11  24  44  68  96 132 178 227 276 333 405
#     4  11  25  46  71 103 139 177 226 284 339 401
#     4  10  24  43  68  97 133 180 224 273 337 407
#
# _framework density 21.525939000000001
#
# number of rings (size 3 to 8) (size 9 to 14) (size 15 to 20)
#    0.000    1.200    2.000    4.200    2.800    8.000 
#    0.000    0.000    0.000    0.000    0.000    0.000 
#    0.000    0.000    0.000    0.000    0.000    0.000 
#
# Total GULP energy -111430.975608 kJ/mol
# GULP energy per Si atom -5571.548780 kJ/mol
# Density = 2.147694 g / cm^3
# Si number density = 21.525939 Si / 1000 Ang^3
#
#
#
# Elastic Constant Matrix: (Units=GPa)
#
#
# Indices 1 2 3 4 5 6 
#
# 1 160.4965 58.2982 63.2486 0.0000 0.0000 0.0000
# 2 58.2982 118.1360 26.7610 0.0000 0.0000 0.0000
# 3 63.2486 26.7610 75.5076 0.0000 0.0000 0.0000
# 4 0.0000 0.0000 0.0000 20.3513 0.0000 0.0000
# 5 0.0000 0.0000 0.0000 0.0000 20.9053 0.0000
# 6 0.0000 0.0000 0.0000 0.0000 0.0000 1.8285
#
#
#
# Elastic Compliance Matrix: (Units=1/GPa)
#
#
# Indices 1 2 3 4 5 6 
#
# 1 0.010453 -0.003452 -0.007532 0.000000 0.000000 0.000000
# 2 -0.003452 0.010344 -0.000774 0.000000 0.000000 0.000000
# 3 -0.007532 -0.000774 0.019828 0.000000 0.000000 0.000000
# 4 0.000000 0.000000 0.000000 0.049137 0.000000 0.000000
# 5 0.000000 0.000000 0.000000 0.000000 0.047835 0.000000
# 6 0.000000 0.000000 0.000000 0.000000 0.000000 0.546894
#
#
# Mechanical properties :
#
#
# Convention : Reuss Voigt Hill
#
# Bulk Modulus (GPa) = 58.45673 72.30620 65.38146
# Shear Modulus (GPa) = 7.00564 22.33917 14.67240
#
# Velocity S-wave (km/s) = 1.80598 3.22495 2.61361
# Velocity P-wave (km/s) = 5.61820 6.89422 6.28866
#
# Compressibility (1/GPa) = 0.01710667
#
# Stress axis : x y z
#
# Youngs Moduli (GPa) = 95.66656 96.67647 50.43458
#
# Poissons Ratio (x) = 0.33373 0.37989
# Poissons Ratio (y) = 0.33025 0.03905
# Poissons Ratio (z) = 0.72060 0.07486
#
# Static dielectric constant tensor:
#      x y z
#    x 1.784800 0.000000 0.000000 
#    y 0.000000 1.796740 0.000000 
#    z 0.000000 0.000000 1.812990 
# 
# From -- ./inp_files/6512.got.cif
#   From: 2010.05.17/outbox.cif.g08.bks.cpg/sg36_4_cif.got.tgz:6512.got - 2010.06.03 17:41:39.
