data_PCOD9353727
_publ_section_title
;
Structure prediction by ZEFSAII (Michael W. Deem and Ramdas Pophale) SiO2 
 PCOD9353727
Probable space group: C C C 2
;
_chemical_formula_sum "Si O2"
_cell_formula_units_Z 64
_cell_length_a 9.372599
_cell_length_b 16.790829
_cell_length_c 21.196183
_cell_angle_alpha 90.000000
_cell_angle_beta 90.000000
_cell_angle_gamma 90.000000
_cell_volume 3335.721895
_symmetry_space_group_name_H-M "C C C 2"
_symmetry_group_IT_number 37
_symmetry_cell_setting 'orthorhombic'
loop_
_space_group_symop_operation_xyz
x,y,z
-x,-y,z
-x,y,1/2+z
x,-y,1/2+z
1/2+x,1/2+y,z
1/2-x,1/2-y,z
1/2-x,1/2+y,1/2+z
1/2+x,1/2-y,1/2+z
loop_
_atom_site_type_symbol
_atom_site_label
_atom_site_fract_x
_atom_site_fract_y
_atom_site_fract_z
Si Si1 0.556417 0.206948 0.923970
Si Si2 0.076221 0.913533 0.297648
Si Si3 0.247889 0.422911 0.483561
Si Si4 0.448318 0.621206 0.446409
Si Si5 0.592180 0.746901 0.281218
Si Si6 0.143859 0.588762 0.479404
Si Si7 0.430941 0.080413 0.598075
Si Si8 0.332121 0.834201 0.222464
O O1 0.498077 0.287601 0.954177
O O2 0.601672 0.231078 0.854671
O O3 0.683730 0.159742 0.958092
O O4 0.425241 0.145178 0.927207
O O5 0.092165 0.898590 0.373448
O O6 0.225083 0.894737 0.260167
O O7 0.971236 0.842048 0.275719
O O8 0.000000 0.000000 0.288298
O O9 0.411006 0.427824 0.464667
O O10 0.155760 0.496962 0.457489
O O11 0.213229 0.431003 0.557277
O O12 0.309078 0.609478 0.488633
O O13 0.750000 0.750000 0.252584
O O14 0.478707 0.810869 0.256785
O O15 0.047387 0.601391 0.542541
O O16 0.384448 0.136257 0.654404
O O17 0.500000 0.000000 0.625161
O O18 0.250000 0.750000 0.217428
#
# Coordination Sequence:
#
# PCOD9353727 Si02
#       8
#     8   8   8   8   8   8   8   8
#     4  10  19  34  54  81 117 149 179 225 286 346
#     4  10  21  38  60  88 118 148 186 233 288 349
#     4  10  20  36  57  81 114 149 182 227 283 341
#     4  11  20  33  57  89 117 141 177 229 287 340
#     4  10  21  37  57  84 115 149 191 237 286 341
#     4  10  20  35  56  82 112 146 186 230 276 331
#     4   9  21  40  57  78 111 150 192 231 274 332
#     4  10  22  41  61  79 110 154 194 238 286 332
#
# _framework density 19.186252
#
# number of rings (size 3 to 8) (size 9 to 14) (size 15 to 20)
#    0.000    2.000    0.000    5.250    0.000    5.000 
#    0.000   10.000    0.000    1.500    0.000    0.000 
#    0.000    0.000    0.000    0.000    0.000    0.000 
#
# Total GULP energy -178200.591630 kJ/mol
# GULP energy per Si atom -5568.768488 kJ/mol
# Density = 1.914258 g / cm^3
# Si number density = 19.186252 Si / 1000 Ang^3
#
#
#
# Elastic Constant Matrix: (Units=GPa)
#
#
# Indices 1 2 3 4 5 6 
#
# 1 158.5465 44.5546 42.6173 0.0000 0.0000 0.0000
# 2 44.5546 106.6248 20.8750 0.0000 0.0000 0.0000
# 3 42.6173 20.8750 33.0055 0.0000 0.0000 0.0000
# 4 0.0000 0.0000 0.0000 191.5913 0.0000 0.0000
# 5 0.0000 0.0000 0.0000 0.0000 8.1803 0.0000
# 6 0.0000 0.0000 0.0000 0.0000 0.0000 25.6484
#
#
#
# Elastic Compliance Matrix: (Units=1/GPa)
#
#
# Indices 1 2 3 4 5 6 
#
# 1 0.009980 -0.001880 -0.011697 0.000000 0.000000 0.000000
# 2 -0.001880 0.011058 -0.004566 0.000000 0.000000 0.000000
# 3 -0.011697 -0.004566 0.048289 0.000000 0.000000 0.000000
# 4 0.000000 0.000000 0.000000 0.005219 0.000000 0.000000
# 5 0.000000 0.000000 0.000000 0.000000 0.122245 0.000000
# 6 0.000000 0.000000 0.000000 0.000000 0.000000 0.038989
#
#
# Mechanical properties :
#
#
# Convention : Reuss Voigt Hill
#
# Bulk Modulus (GPa) = 30.26587 57.14119 43.70353
# Shear Modulus (GPa) = 17.66277 57.75933 37.71105
#
# Velocity S-wave (km/s) = 3.03742 5.49271 4.43823
# Velocity P-wave (km/s) = 5.30191 8.37099 7.00656
#
# Compressibility (1/GPa) = 0.03304052
#
# Stress axis : x y z
#
# Youngs Moduli (GPa) = 100.20239 90.42952 20.70849
#
# Poissons Ratio (x) = 0.17002 0.24223
# Poissons Ratio (y) = 0.18840 0.09456
# Poissons Ratio (z) = 1.17206 0.41294
#
# Static dielectric constant tensor:
#      x y z
#    x 1.724460 0.000000 0.000000 
#    y 0.000000 1.203580 0.000000 
#    z 0.000000 0.000000 1.652430 
# 
# From -- ./inp_files/18448.got.cif
#   From: 2010.05.17/outbox.cif.g08.bks.cpg/sg37_10_cif.got.tgz:18448.got - 2010.06.03 17:53:42.
