data_PCOD9353801
_publ_section_title
;
Structure prediction by ZEFSAII (Michael W. Deem and Ramdas Pophale) SiO2 
 PCOD9353801
Probable space group: C C C 2
;
_chemical_formula_sum "Si O2"
_cell_formula_units_Z 64
_cell_length_a 9.118543
_cell_length_b 16.883008
_cell_length_c 20.176204
_cell_angle_alpha 90.000000
_cell_angle_beta 90.000000
_cell_angle_gamma 90.000000
_cell_volume 3106.095018
_symmetry_space_group_name_H-M "C C C 2"
_symmetry_group_IT_number 37
_symmetry_cell_setting 'orthorhombic'
loop_
_space_group_symop_operation_xyz
x,y,z
-x,-y,z
-x,y,1/2+z
x,-y,1/2+z
1/2+x,1/2+y,z
1/2-x,1/2-y,z
1/2-x,1/2+y,1/2+z
1/2+x,1/2-y,1/2+z
loop_
_atom_site_type_symbol
_atom_site_label
_atom_site_fract_x
_atom_site_fract_y
_atom_site_fract_z
Si Si1 0.614074 0.696491 0.546020
Si Si2 0.202234 0.907144 0.160613
Si Si3 0.302545 0.664564 0.505720
Si Si4 0.859708 0.448983 0.604257
Si Si5 0.067980 0.083787 0.794524
Si Si6 0.420189 0.746789 0.810702
Si Si7 0.181496 0.334186 0.858458
Si Si8 0.022305 0.303825 0.669782
O O1 0.750000 0.750000 0.519682
O O2 0.668480 0.619053 0.585285
O O3 0.478524 0.673290 0.499726
O O4 0.547349 0.746844 0.607451
O O5 0.074548 0.909594 0.214468
O O6 0.318773 0.841525 0.185474
O O7 0.274951 0.992402 0.153208
O O8 0.250000 0.750000 0.533770
O O9 0.247088 0.592287 0.550940
O O10 0.225183 0.657103 0.434808
O O11 0.000000 0.500000 0.576994
O O12 0.925992 0.376905 0.645660
O O13 0.235279 0.096383 0.819656
O O14 0.980257 0.158391 0.823928
O O15 0.000000 0.000000 0.813447
O O16 0.250000 0.750000 0.825408
O O17 0.511058 0.816010 0.847897
O O18 0.452442 0.763203 0.733121
O O19 0.250000 0.250000 0.834322
#
# Coordination Sequence:
#
# PCOD9353801 Si02
#       8
#     8   8   8   8   8   8   8   8
#     4  10  21  36  62 100 125 164 210 264 322 382
#     4  10  21  36  59  95 133 168 197 263 333 386
#     4  11  22  42  69  89 120 177 222 259 319 392
#     4  10  23  38  59  94 132 167 207 261 324 389
#     4  11  23  40  61  91 132 165 208 263 324 378
#     4  11  23  39  67  96 121 167 220 269 320 389
#     4   9  22  46  67  86 124 177 220 263 320 386
#     4  10  19  36  62  93 131 161 208 260 322 386
#
# _framework density 20.604651
#
# number of rings (size 3 to 8) (size 9 to 14) (size 15 to 20)
#    0.000    1.750    3.750    0.000    5.250    0.000 
#    2.250    7.500    0.000    0.000    0.000    0.000 
#    0.000    0.000    0.000    0.000    0.000    0.000 
#
# Total GULP energy -178549.052646 kJ/mol
# GULP energy per Si atom -5579.657895 kJ/mol
# Density = 2.055775 g / cm^3
# Si number density = 20.604651 Si / 1000 Ang^3
#
#
#
# Elastic Constant Matrix: (Units=GPa)
#
#
# Indices 1 2 3 4 5 6 
#
# 1 133.1841 29.5749 33.6132 0.0000 0.0000 0.0000
# 2 29.5749 87.1394 20.8332 0.0000 0.0000 0.0000
# 3 33.6132 20.8332 50.1392 0.0000 0.0000 0.0000
# 4 0.0000 0.0000 0.0000 7.9936 0.0000 0.0000
# 5 0.0000 0.0000 0.0000 0.0000 9.7579 0.0000
# 6 0.0000 0.0000 0.0000 0.0000 0.0000 32.8357
#
#
#
# Elastic Compliance Matrix: (Units=1/GPa)
#
#
# Indices 1 2 3 4 5 6 
#
# 1 0.009298 -0.001849 -0.005465 0.000000 0.000000 0.000000
# 2 -0.001849 0.013109 -0.004207 0.000000 0.000000 0.000000
# 3 -0.005465 -0.004207 0.025357 0.000000 0.000000 0.000000
# 4 0.000000 0.000000 0.000000 0.125101 0.000000 0.000000
# 5 0.000000 0.000000 0.000000 0.000000 0.102481 0.000000
# 6 0.000000 0.000000 0.000000 0.000000 0.000000 0.030455
#
#
# Mechanical properties :
#
#
# Convention : Reuss Voigt Hill
#
# Bulk Modulus (GPa) = 40.45193 48.72282 44.58738
# Shear Modulus (GPa) = 14.83306 22.54686 18.68996
#
# Velocity S-wave (km/s) = 2.68599 3.31155 3.01504
# Velocity P-wave (km/s) = 5.41243 6.19029 5.81438
#
# Compressibility (1/GPa) = 0.02472070
#
# Stress axis : x y z
#
# Youngs Moduli (GPa) = 107.54579 76.28128 39.43753
#
# Poissons Ratio (x) = 0.14106 0.21554
# Poissons Ratio (y) = 0.19888 0.16593
# Poissons Ratio (z) = 0.58776 0.32094
#
# Static dielectric constant tensor:
#      x y z
#    x 1.823280 0.000000 0.000000 
#    y 0.000000 1.729140 0.000000 
#    z 0.000000 0.000000 1.749310 
# 
# From -- ./inp_files/16564.got.cif
#   From: 2010.05.17/outbox.cif.g08.bks.cpg/sg37_9_cif.got.tgz:16564.got - 2010.06.03 17:53:42.
