data_PCOD9353096
_publ_section_title
;
Structure prediction by ZEFSAII (Michael W. Deem and Ramdas Pophale) SiO2 
 PCOD9353096
Probable space group: C M C 21
;
_chemical_formula_sum "Si O2"
_cell_formula_units_Z 48
_cell_length_a 7.912282
_cell_length_b 28.746988
_cell_length_c 7.856626
_cell_angle_alpha 90.000000
_cell_angle_beta 90.000000
_cell_angle_gamma 90.000000
_cell_volume 1787.023176
_symmetry_space_group_name_H-M "C M C 21"
_symmetry_group_IT_number 36
_symmetry_cell_setting 'orthorhombic'
loop_
_space_group_symop_operation_xyz
x,y,z
-x,-y,1/2+z
x,-y,1/2+z
-x,y,z
1/2+x,1/2+y,z
1/2-x,1/2-y,1/2+z
1/2+x,1/2-y,1/2+z
1/2-x,1/2+y,z
loop_
_atom_site_type_symbol
_atom_site_label
_atom_site_fract_x
_atom_site_fract_y
_atom_site_fract_z
Si Si1 0.295197 0.096251 0.810430
Si Si2 0.801368 0.676207 0.037947
Si Si3 0.188537 0.016532 0.598229
Si Si4 0.687213 0.068475 0.278002
Si Si5 0.707641 0.264595 0.208066
Si Si6 0.301520 0.655112 0.475079
O O1 0.500000 0.095461 0.809149
O O2 0.235595 0.126451 0.972611
O O3 0.225198 0.045313 0.772113
O O4 0.229976 0.124770 0.646585
O O5 0.781318 0.708377 0.868503
O O6 0.000000 0.671208 0.071071
O O7 0.731758 0.711454 0.180858
O O8 0.306694 0.039755 0.456491
O O9 0.000000 0.027191 0.538601
O O10 0.205587 0.963120 0.650727
O O11 0.500000 0.066373 0.206199
O O12 0.726416 0.121714 0.329053
O O13 0.500000 0.265704 0.215956
O O14 0.763168 0.295120 0.042671
O O15 0.500000 0.658137 0.444332
#
# Coordination Sequence:
#
# PCOD9353096 Si02
#       6
#     8   8   8   8   8   8
#     4   9  16  29  49  71  97 130 167 204 244 293
#     4   9  18  32  50  73 100 130 165 205 246 291
#     4  11  21  35  54  77 103 132 168 208 252 300
#     4  11  21  35  54  77 103 132 168 208 252 300
#     4   9  18  32  50  73 100 130 165 205 246 291
#     4   9  16  29  49  71  97 130 167 204 244 293
#
# _framework density 26.860315
#
# number of rings (size 3 to 8) (size 9 to 14) (size 15 to 20)
#    0.000    2.333    0.000    6.000    0.000    2.000 
#    0.000    1.667    0.000    4.000    0.000    0.000 
#    0.000    0.000    0.000    0.000    0.000    0.000 
#
# Total GULP energy -134261.032352 kJ/mol
# GULP energy per Si atom -5594.209681 kJ/mol
# Density = 2.679918 g / cm^3
# Si number density = 26.860315 Si / 1000 Ang^3
#
#
#
# Elastic Constant Matrix: (Units=GPa)
#
#
# Indices 1 2 3 4 5 6 
#
# 1 90.2408 7.5164 -5.6837 0.0000 0.0000 0.0000
# 2 7.5164 197.3472 0.1294 0.0000 0.0000 0.0000
# 3 -5.6837 0.1294 102.8595 0.0000 0.0000 0.0000
# 4 0.0000 0.0000 0.0000 55.9482 0.0000 0.0000
# 5 0.0000 0.0000 0.0000 0.0000 11.6324 0.0000
# 6 0.0000 0.0000 0.0000 0.0000 0.0000 28.1107
#
#
#
# Elastic Compliance Matrix: (Units=1/GPa)
#
#
# Indices 1 2 3 4 5 6 
#
# 1 0.011156 -0.000425 0.000617 0.000000 0.000000 0.000000
# 2 -0.000425 0.005083 -0.000030 0.000000 0.000000 0.000000
# 3 0.000617 -0.000030 0.009756 0.000000 0.000000 0.000000
# 4 0.000000 0.000000 0.000000 0.017874 0.000000 0.000000
# 5 0.000000 0.000000 0.000000 0.000000 0.085967 0.000000
# 6 0.000000 0.000000 0.000000 0.000000 0.000000 0.035574
#
#
# Mechanical properties :
#
#
# Convention : Reuss Voigt Hill
#
# Bulk Modulus (GPa) = 37.99559 43.81908 40.90733
# Shear Modulus (GPa) = 28.75890 45.03727 36.89808
#
# Velocity S-wave (km/s) = 3.27568 4.09922 3.71037
# Velocity P-wave (km/s) = 5.33696 6.22526 5.79815
#
# Compressibility (1/GPa) = 0.02631885
#
# Stress axis : x y z
#
# Youngs Moduli (GPa) = 89.63993 196.71755 102.49970
#
# Poissons Ratio (x) = 0.08366 -0.06324
# Poissons Ratio (y) = 0.03812 0.00306
# Poissons Ratio (z) = -0.05530 0.00588
#
# Static dielectric constant tensor:
#      x y z
#    x 1.954740 0.000000 0.000000 
#    y 0.000000 2.203490 0.000000 
#    z 0.000000 0.000000 2.246440 
# 
# From -- ./inp_files/6814.got.cif
#   From: 2010.05.17/outbox.cif.g08.bks.cpg/sg36_4_cif.got.tgz:6814.got - 2010.06.03 17:41:39.
