data_PCOD9353018
_publ_section_title
;
Structure prediction by ZEFSAII (Michael W. Deem and Ramdas Pophale) SiO2 
 PCOD9353018
Probable space group: C M C 21
;
_chemical_formula_sum "Si O2"
_cell_formula_units_Z 48
_cell_length_a 23.204803
_cell_length_b 8.714273
_cell_length_c 10.447290
_cell_angle_alpha 90.000000
_cell_angle_beta 90.000000
_cell_angle_gamma 90.000000
_cell_volume 2112.577730
_symmetry_space_group_name_H-M "C M C 21"
_symmetry_group_IT_number 36
_symmetry_cell_setting 'orthorhombic'
loop_
_space_group_symop_operation_xyz
x,y,z
-x,-y,1/2+z
x,-y,1/2+z
-x,y,z
1/2+x,1/2+y,z
1/2-x,1/2-y,1/2+z
1/2+x,1/2-y,1/2+z
1/2-x,1/2+y,z
loop_
_atom_site_type_symbol
_atom_site_label
_atom_site_fract_x
_atom_site_fract_y
_atom_site_fract_z
Si Si1 0.067456 0.508472 0.147970
Si Si2 0.068035 0.147851 0.546309
Si Si3 0.620679 0.524638 0.806846
Si Si4 0.280818 0.670158 0.214326
Si Si5 0.680454 0.004114 0.802358
Si Si6 0.857142 0.708460 0.492446
O O1 0.077679 0.671496 0.076581
O O2 0.113465 0.494210 0.262421
O O3 0.000000 0.500519 0.183015
O O4 0.087929 0.365217 0.061836
O O5 0.092966 0.050269 0.666782
O O6 0.000000 0.123030 0.544992
O O7 0.091656 0.091696 0.408865
O O8 0.684757 0.462536 0.787145
O O9 0.622030 0.686998 0.877149
O O10 0.292005 0.829822 0.286781
O O11 0.215479 0.614995 0.212480
O O12 0.315085 0.694749 0.082906
O O13 0.681490 0.932054 0.942049
#
# Coordination Sequence:
#
# PCOD9353018 Si02
#       6
#     8   8   8   8   8   8
#     4  10  24  44  69 101 143 191 244 298 360 440
#     4  11  24  43  71 104 144 192 242 301 367 437
#     4  12  23  45  70 104 146 190 240 307 364 437
#     4  11  26  44  71 108 145 189 247 304 366 444
#     4  11  24  45  70 107 143 198 239 305 367 435
#     4  11  24  45  71 104 142 194 244 305 370 431
#
# _framework density 22.721056999999998
#
# number of rings (size 3 to 8) (size 9 to 14) (size 15 to 20)
#    0.000    1.000    3.333    2.500    0.000    8.667 
#    0.000    2.500    0.000    0.000    0.000    0.000 
#    0.000    0.000    0.000    0.000    0.000    0.000 
#
# Total GULP energy -134160.973580 kJ/mol
# GULP energy per Si atom -5590.040566 kJ/mol
# Density = 2.266934 g / cm^3
# Si number density = 22.721057 Si / 1000 Ang^3
#
#
#
# Elastic Constant Matrix: (Units=GPa)
#
#
# Indices 1 2 3 4 5 6 
#
# 1 119.1111 27.7109 36.8533 0.0000 0.0000 0.0000
# 2 27.7109 64.9489 16.4540 0.0000 0.0000 0.0000
# 3 36.8533 16.4540 59.4667 0.0000 0.0000 0.0000
# 4 0.0000 0.0000 0.0000 37.0070 0.0000 0.0000
# 5 0.0000 0.0000 0.0000 0.0000 18.0131 0.0000
# 6 0.0000 0.0000 0.0000 0.0000 0.0000 17.7255
#
#
#
# Elastic Compliance Matrix: (Units=1/GPa)
#
#
# Indices 1 2 3 4 5 6 
#
# 1 0.010966 -0.003180 -0.005916 0.000000 0.000000 0.000000
# 2 -0.003180 0.017479 -0.002866 0.000000 0.000000 0.000000
# 3 -0.005916 -0.002866 0.021275 0.000000 0.000000 0.000000
# 4 0.000000 0.000000 0.000000 0.027022 0.000000 0.000000
# 5 0.000000 0.000000 0.000000 0.000000 0.055515 0.000000
# 6 0.000000 0.000000 0.000000 0.000000 0.000000 0.056416
#
#
# Mechanical properties :
#
#
# Convention : Reuss Voigt Hill
#
# Bulk Modulus (GPa) = 38.76367 45.06257 41.91312
# Shear Modulus (GPa) = 22.60442 25.38303 23.99373
#
# Velocity S-wave (km/s) = 3.15757 3.34602 3.25316
# Velocity P-wave (km/s) = 5.51284 5.89947 5.70943
#
# Compressibility (1/GPa) = 0.02579735
#
# Stress axis : x y z
#
# Youngs Moduli (GPa) = 91.19327 57.21010 47.00276
#
# Poissons Ratio (x) = 0.18192 0.27807
# Poissons Ratio (y) = 0.28998 0.13470
# Poissons Ratio (z) = 0.53949 0.16395
#
# Static dielectric constant tensor:
#      x y z
#    x 1.808990 0.000000 0.000000 
#    y 0.000000 1.875150 0.000000 
#    z 0.000000 0.000000 1.898980 
# 
# From -- ./inp_files/9437.got.cif
#   From: 2010.05.17/outbox.cif.g08.bks.cpg/sg36_5_cif.got.tgz:9437.got - 2010.06.03 17:41:39.
