data_PCOD9353657
_publ_section_title
;
Structure prediction by ZEFSAII (Michael W. Deem and Ramdas Pophale) SiO2 
 PCOD9353657
Probable space group: C C C 2
;
_chemical_formula_sum "Si O2"
_cell_formula_units_Z 56
_cell_length_a 8.624635
_cell_length_b 21.222667
_cell_length_c 12.988684
_cell_angle_alpha 90.000000
_cell_angle_beta 90.000000
_cell_angle_gamma 90.000000
_cell_volume 2377.419581
_symmetry_space_group_name_H-M "C C C 2"
_symmetry_group_IT_number 37
_symmetry_cell_setting 'orthorhombic'
loop_
_space_group_symop_operation_xyz
x,y,z
-x,-y,z
-x,y,1/2+z
x,-y,1/2+z
1/2+x,1/2+y,z
1/2-x,1/2-y,z
1/2-x,1/2+y,1/2+z
1/2+x,1/2-y,1/2+z
loop_
_atom_site_type_symbol
_atom_site_label
_atom_site_fract_x
_atom_site_fract_y
_atom_site_fract_z
Si Si1 0.963601 0.214895 0.313280
Si Si2 0.372430 0.795152 0.109195
Si Si3 0.280600 0.386293 0.319268
Si Si4 0.750000 0.250000 0.482566
Si Si5 0.307866 0.135554 0.085336
Si Si6 0.728708 0.398376 0.231498
Si Si7 0.000000 0.000000 0.780594
Si Si8 0.463576 0.927807 0.402033
O O1 0.925392 0.254953 0.211066
O O2 0.895135 0.257581 0.403997
O O3 0.855522 0.152916 0.303933
O O4 0.129463 0.180888 0.326467
O O5 0.250000 0.750000 0.052200
O O6 0.535855 0.823298 0.080132
O O7 0.275375 0.858216 0.133926
O O8 0.231206 0.390130 0.197642
O O9 0.392387 0.447545 0.338684
O O10 0.126598 0.390779 0.388695
O O11 0.807539 0.190793 0.550178
O O12 0.341744 0.088733 0.992225
O O13 0.615394 0.456484 0.215129
O O14 0.878721 0.420170 0.292766
O O15 0.500000 0.000000 0.417871
#
# Coordination Sequence:
#
# PCOD9353657 Si02
#       8
#     8   8   8   4   8   8   4   8
#     4  10  20  41  69  96 134 183 216 276 351 415
#     4  10  20  39  66  94 138 176 217 282 343 412
#     4  11  25  44  70 100 135 184 236 283 348 422
#     4  12  22  42  68 100 146 176 220 292 344 416
#     4  12  26  41  66 108 135 179 233 287 342 418
#     4  10  18  40  66  92 128 175 223 267 343 394
#     4  10  22  40  74  92 122 182 230 280 340 416
#     4  12  24  43  68  98 138 185 229 292 345 410
#
# _framework density 23.554950000000002
#
# number of rings (size 3 to 8) (size 9 to 14) (size 15 to 20)
#    0.000    1.143    6.429    0.857    0.000    2.857 
#    0.000    2.143    0.000    0.000    0.000    0.000 
#    0.000    0.000    0.000    0.000    0.000    0.000 
#
# Total GULP energy -156095.508449 kJ/mol
# GULP energy per Si atom -5574.839587 kJ/mol
# Density = 2.350134 g / cm^3
# Si number density = 23.554950 Si / 1000 Ang^3
#
#
#
# Elastic Constant Matrix: (Units=GPa)
#
#
# Indices 1 2 3 4 5 6 
#
# 1 78.7440 14.9566 7.7961 0.0000 0.0000 0.0000
# 2 14.9566 98.6113 6.4341 0.0000 0.0000 0.0000
# 3 7.7961 6.4341 35.7751 0.0000 0.0000 0.0000
# 4 0.0000 0.0000 0.0000 13.0253 0.0000 0.0000
# 5 0.0000 0.0000 0.0000 0.0000 7.5472 0.0000
# 6 0.0000 0.0000 0.0000 0.0000 0.0000 58.8432
#
#
#
# Elastic Compliance Matrix: (Units=1/GPa)
#
#
# Indices 1 2 3 4 5 6 
#
# 1 0.013305 -0.001851 -0.002567 0.000000 0.000000 0.000000
# 2 -0.001851 0.010519 -0.001488 0.000000 0.000000 0.000000
# 3 -0.002567 -0.001488 0.028779 0.000000 0.000000 0.000000
# 4 0.000000 0.000000 0.000000 0.076774 0.000000 0.000000
# 5 0.000000 0.000000 0.000000 0.000000 0.132500 0.000000
# 6 0.000000 0.000000 0.000000 0.000000 0.000000 0.016994
#
#
# Mechanical properties :
#
#
# Convention : Reuss Voigt Hill
#
# Bulk Modulus (GPa) = 24.51476 30.16711 27.34094
# Shear Modulus (GPa) = 16.43225 28.14603 22.28914
#
# Velocity S-wave (km/s) = 2.64410 3.46050 3.07947
# Velocity P-wave (km/s) = 4.44430 5.36672 4.92714
#
# Compressibility (1/GPa) = 0.04079175
#
# Stress axis : x y z
#
# Youngs Moduli (GPa) = 75.15980 95.06949 34.74709
#
# Poissons Ratio (x) = 0.17593 0.08918
# Poissons Ratio (y) = 0.13909 0.05172
# Poissons Ratio (z) = 0.19290 0.14151
#
# Static dielectric constant tensor:
#      x y z
#    x 2.295310 0.000000 0.000000 
#    y 0.000000 1.089110 0.000000 
#    z 0.000000 0.000000 1.878150 
# 
# From -- ./inp_files/10864.got.cif
#   From: 2010.05.17/outbox.cif.g08.bks.cpg/sg37_6_cif.got.tgz:10864.got - 2010.06.03 17:53:42.
