data_PCOD9353160
_publ_section_title
;
Structure prediction by ZEFSAII (Michael W. Deem and Ramdas Pophale) SiO2 
 PCOD9353160
Probable space group: C M C 21
;
_chemical_formula_sum "Si O2"
_cell_formula_units_Z 64
_cell_length_a 24.875857
_cell_length_b 6.987090
_cell_length_c 15.004640
_cell_angle_alpha 90.000000
_cell_angle_beta 90.000000
_cell_angle_gamma 90.000000
_cell_volume 2607.954253
_symmetry_space_group_name_H-M "C M C 21"
_symmetry_group_IT_number 36
_symmetry_cell_setting 'orthorhombic'
loop_
_space_group_symop_operation_xyz
x,y,z
-x,-y,1/2+z
x,-y,1/2+z
-x,y,z
1/2+x,1/2+y,z
1/2-x,1/2-y,1/2+z
1/2+x,1/2-y,1/2+z
1/2-x,1/2+y,z
loop_
_atom_site_type_symbol
_atom_site_label
_atom_site_fract_x
_atom_site_fract_y
_atom_site_fract_z
Si Si1 0.439707 0.020985 0.150180
Si Si2 0.747206 0.872991 0.057511
Si Si3 0.143579 0.365905 0.789486
Si Si4 0.628745 0.922990 0.994416
Si Si5 0.060293 0.020984 0.602382
Si Si6 0.628745 0.422989 0.758147
Si Si7 0.752794 0.127009 0.195051
Si Si8 0.643579 0.634096 0.463076
O O1 0.500000 0.970682 0.178555
O O2 0.394156 0.004664 0.226603
O O3 0.441556 0.250001 0.126281
O O4 0.420240 0.904340 0.063138
O O5 0.758262 0.876176 0.169584
O O6 0.741738 0.123824 0.082978
O O7 0.793529 0.901439 0.982763
O O8 0.685495 0.843997 0.028608
O O9 0.124687 0.371153 0.891093
O O10 0.135547 0.151059 0.758286
O O11 0.206471 0.401439 0.769799
O O12 0.635547 0.151060 0.994278
O O13 0.079761 0.904340 0.689424
O O14 0.105844 0.004663 0.525958
O O15 0.000000 0.970681 0.574007
O O16 0.685495 0.343998 0.723954
O O17 0.624687 0.371150 0.861469
#
# Coordination Sequence:
#
# PCOD9353160 Si02
#       8
#     8   8   8   8   8   8   8   8
#     4   9  19  40  63  83 116 161 205 254 306 359
#     4  12  22  39  63  87 123 162 198 244 301 362
#     4  11  23  39  59  91 122 159 205 249 308 365
#     4  11  24  38  61  92 123 159 203 251 305 368
#     4   9  19  40  63  83 116 161 205 254 306 359
#     4  11  24  38  61  92 123 159 203 251 305 368
#     4  12  22  39  63  87 123 162 198 244 301 362
#     4  11  23  39  59  91 122 159 205 249 308 365
#
# _framework density 24.540309000000001
#
# number of rings (size 3 to 8) (size 9 to 14) (size 15 to 20)
#    0.000    1.250    5.000    1.500    3.500    3.000 
#    0.000    0.000    0.000    5.250    0.000    0.000 
#    0.000    0.000    0.000    0.000    0.000    0.000 
#
# Total GULP energy -178758.948841 kJ/mol
# GULP energy per Si atom -5586.217151 kJ/mol
# Density = 2.448445 g / cm^3
# Si number density = 24.540309 Si / 1000 Ang^3
#
#
#
# Elastic Constant Matrix: (Units=GPa)
#
#
# Indices 1 2 3 4 5 6 
#
# 1 169.7671 10.0075 75.6684 0.0000 0.0000 0.0000
# 2 10.0075 106.7109 7.2433 0.0000 0.0000 0.0000
# 3 75.6684 7.2433 140.6008 0.0000 0.0000 0.0000
# 4 0.0000 0.0000 0.0000 48.3126 0.0000 0.0000
# 5 0.0000 0.0000 0.0000 0.0000 13.7285 0.0000
# 6 0.0000 0.0000 0.0000 0.0000 0.0000 34.9907
#
#
#
# Elastic Compliance Matrix: (Units=1/GPa)
#
#
# Indices 1 2 3 4 5 6 
#
# 1 0.007770 -0.000446 -0.004159 0.000000 0.000000 0.000000
# 2 -0.000446 0.009430 -0.000246 0.000000 0.000000 0.000000
# 3 -0.004159 -0.000246 0.009363 0.000000 0.000000 0.000000
# 4 0.000000 0.000000 0.000000 0.020699 0.000000 0.000000
# 5 0.000000 0.000000 0.000000 0.000000 0.072841 0.000000
# 6 0.000000 0.000000 0.000000 0.000000 0.000000 0.028579
#
#
# Mechanical properties :
#
#
# Convention : Reuss Voigt Hill
#
# Bulk Modulus (GPa) = 59.30631 66.99079 63.14855
# Shear Modulus (GPa) = 30.48700 41.01699 35.75200
#
# Velocity S-wave (km/s) = 3.52848 4.09273 3.82104
# Velocity P-wave (km/s) = 6.38902 7.04921 6.72722
#
# Compressibility (1/GPa) = 0.01686161
#
# Stress axis : x y z
#
# Youngs Moduli (GPa) = 128.69292 106.04849 106.80101
#
# Poissons Ratio (x) = 0.04734 0.44417
# Poissons Ratio (y) = 0.05745 0.02622
# Poissons Ratio (z) = 0.53522 0.02604
#
# Static dielectric constant tensor:
#      x y z
#    x 1.802260 0.000000 0.000000 
#    y 0.000000 2.384000 0.000000 
#    z 0.000000 0.000000 2.157930 
# 
# From -- ./inp_files/12983.got.cif
#   From: 2010.05.17/outbox.cif.g08.bks.cpg/sg36_7_cif.got.tgz:12983.got - 2010.06.03 17:41:39.
