data_PCOD9353443
_publ_section_title
;
Structure prediction by ZEFSAII (Michael W. Deem and Ramdas Pophale) SiO2 
 PCOD9353443
Probable space group: C C C 2
;
_chemical_formula_sum "Si O2"
_cell_formula_units_Z 24
_cell_length_a 29.386716
_cell_length_b 7.299793
_cell_length_c 5.300431
_cell_angle_alpha 90.000000
_cell_angle_beta 90.000000
_cell_angle_gamma 90.000000
_cell_volume 1137.032259
_symmetry_space_group_name_H-M "C C C 2"
_symmetry_group_IT_number 37
_symmetry_cell_setting 'orthorhombic'
loop_
_space_group_symop_operation_xyz
x,y,z
-x,-y,z
-x,y,1/2+z
x,-y,1/2+z
1/2+x,1/2+y,z
1/2-x,1/2-y,z
1/2-x,1/2+y,1/2+z
1/2+x,1/2-y,1/2+z
loop_
_atom_site_type_symbol
_atom_site_label
_atom_site_fract_x
_atom_site_fract_y
_atom_site_fract_z
Si Si1 0.981545 0.789763 0.600510
Si Si2 0.879225 0.120419 0.984899
Si Si3 0.293427 0.880997 0.056344
O O1 0.929447 0.795237 0.516801
O O2 0.011550 0.707128 0.376403
O O3 0.000000 0.000000 0.633630
O O4 0.839420 0.265493 0.023363
O O5 0.875397 0.971647 0.210084
O O6 0.250000 0.750000 0.026948
O O7 0.291928 0.971030 0.332325
#
# Coordination Sequence:
#
# PCOD9353443 Si02
#       3
#     8   8   8
#     4  10  16  30  52  91 120 154 208 255 276 351
#     4  12  21  36  65  96 123 163 210 259 308 359
#     4  12  26  46  66  92 127 162 208 262 318 378
#
# _framework density 21.107579000000001
#
# number of rings (size 3 to 8) (size 9 to 14) (size 15 to 20)
#    0.000    0.667    6.667    5.000    0.000    0.000 
#    0.000    0.000    0.000    6.000    0.000    0.000 
#    0.000    0.000    0.000    0.000    0.000    0.000 
#
# Total GULP energy -67118.574893 kJ/mol
# GULP energy per Si atom -5593.214574 kJ/mol
# Density = 2.105954 g / cm^3
# Si number density = 21.107579 Si / 1000 Ang^3
#
#
#
# Elastic Constant Matrix: (Units=GPa)
#
#
# Indices 1 2 3 4 5 6 
#
# 1 131.9832 14.5595 -34.9987 0.0000 0.0000 0.0000
# 2 14.5595 23.4988 -24.8518 0.0000 0.0000 0.0000
# 3 -34.9987 -24.8518 83.6623 0.0000 0.0000 0.0000
# 4 0.0000 0.0000 0.0000 5.8211 0.0000 0.0000
# 5 0.0000 0.0000 0.0000 0.0000 29.9532 0.0000
# 6 0.0000 0.0000 0.0000 0.0000 0.0000 28.3329
#
#
#
# Elastic Compliance Matrix: (Units=1/GPa)
#
#
# Indices 1 2 3 4 5 6 
#
# 1 0.008601 -0.002222 0.002938 0.000000 0.000000 0.000000
# 2 -0.002222 0.062622 0.017672 0.000000 0.000000 0.000000
# 3 0.002938 0.017672 0.018431 0.000000 0.000000 0.000000
# 4 0.000000 0.000000 0.000000 0.171789 0.000000 0.000000
# 5 0.000000 0.000000 0.000000 0.000000 0.033385 0.000000
# 6 0.000000 0.000000 0.000000 0.000000 0.000000 0.035295
#
#
# Mechanical properties :
#
#
# Convention : Reuss Voigt Hill
#
# Bulk Modulus (GPa) = 7.90943 16.50694 12.20818
# Shear Modulus (GPa) = 14.90356 31.78379 23.34367
#
# Velocity S-wave (km/s) = 2.66009 3.88467 3.32917
# Velocity P-wave (km/s) = 3.63182 5.28756 4.53588
#
# Compressibility (1/GPa) = 0.12643142
#
# Stress axis : x y z
#
# Youngs Moduli (GPa) = 116.26673 15.96887 54.25511
#
# Poissons Ratio (x) = 0.03548 -0.15941
# Poissons Ratio (y) = 0.25832 -0.95881
# Poissons Ratio (z) = -0.34160 -0.28221
#
# Static dielectric constant tensor:
#      x y z
#    x 1.756170 0.000000 0.000000 
#    y 0.000000 2.829780 0.000000 
#    z 0.000000 0.000000 1.793810 
# 
# From -- ./inp_files/101.got.cif
#   From: 2010.05.17/outbox.cif.g08.bks.cpg/sg37_1_cif.got.tgz:101.got - 2010.06.03 17:53:42.
