data_PCOD9353590
_publ_section_title
;
Structure prediction by ZEFSAII (Michael W. Deem and Ramdas Pophale) SiO2 
 PCOD9353590
Probable space group: C C C 2
;
_chemical_formula_sum "Si O2"
_cell_formula_units_Z 60
_cell_length_a 17.923820
_cell_length_b 13.048094
_cell_length_c 11.127417
_cell_angle_alpha 90.000000
_cell_angle_beta 90.000000
_cell_angle_gamma 90.000000
_cell_volume 2602.387799
_symmetry_space_group_name_H-M "C C C 2"
_symmetry_group_IT_number 37
_symmetry_cell_setting 'orthorhombic'
loop_
_space_group_symop_operation_xyz
x,y,z
-x,-y,z
-x,y,1/2+z
x,-y,1/2+z
1/2+x,1/2+y,z
1/2-x,1/2-y,z
1/2-x,1/2+y,1/2+z
1/2+x,1/2-y,1/2+z
loop_
_atom_site_type_symbol
_atom_site_label
_atom_site_fract_x
_atom_site_fract_y
_atom_site_fract_z
Si Si1 0.729697 0.860928 0.693270
Si Si2 0.146202 0.400244 0.473439
Si Si3 0.623139 0.502593 0.733761
Si Si4 0.500000 0.000000 0.506296
Si Si5 0.274366 0.904731 0.453093
Si Si6 0.412615 0.812952 0.588795
Si Si7 0.098914 0.901186 0.485586
Si Si8 0.665062 0.722884 0.307559
O O1 0.750000 0.750000 0.643776
O O2 0.662243 0.904705 0.615379
O O3 0.803760 0.931047 0.697074
O O4 0.706559 0.848301 0.830132
O O5 0.070884 0.456700 0.435428
O O6 0.211989 0.474652 0.427358
O O7 0.152139 0.284612 0.429976
O O8 0.584493 0.472284 0.605036
O O9 0.583365 0.558988 0.848924
O O10 0.649967 0.396534 0.794323
O O11 0.527559 0.097873 0.580166
O O12 0.334540 0.863032 0.545570
O O13 0.189403 0.887916 0.489578
O O14 0.432918 0.712322 0.510423
O O15 0.395204 0.773286 0.719858
O O16 0.750000 0.750000 0.271241
#
# Coordination Sequence:
#
# PCOD9353590 Si02
#       8
#     8   8   8   4   8   8   8   8
#     4  11  22  35  58  94 128 161 205 274 346 388
#     4  11  24  39  60  93 133 174 215 269 325 410
#     4  10  21  34  57  95 129 163 205 272 348 403
#     4  10  26  44  62  90 132 186 228 258 316 408
#     4  10  19  34  57  88 127 164 206 269 334 390
#     4  10  21  39  60  88 122 176 222 263 319 401
#     4  10  18  34  59  91 131 159 210 274 345 390
#     4  11  22  36  65  95 130 169 216 280 350 391
#
# _framework density 23.055748999999999
#
# number of rings (size 3 to 8) (size 9 to 14) (size 15 to 20)
#    0.000    1.600    1.333    5.600    7.467    0.533 
#    2.400    0.000    0.000    0.800    3.467    0.000 
#    0.000    0.000    0.000    0.000    0.000    0.000 
#
# Total GULP energy -167404.119817 kJ/mol
# GULP energy per Si atom -5580.137327 kJ/mol
# Density = 2.300327 g / cm^3
# Si number density = 23.055749 Si / 1000 Ang^3
#
#
#
# Elastic Constant Matrix: (Units=GPa)
#
#
# Indices 1 2 3 4 5 6 
#
# 1 49.6093 31.9894 10.0554 0.0000 0.0000 0.0000
# 2 31.9894 128.7633 37.5923 0.0000 0.0000 0.0000
# 3 10.0554 37.5923 112.6148 0.0000 0.0000 0.0000
# 4 0.0000 0.0000 0.0000 15.4184 0.0000 0.0000
# 5 0.0000 0.0000 0.0000 0.0000 -9.8145 0.0000
# 6 0.0000 0.0000 0.0000 0.0000 0.0000 39.0584
#
#
#
# Elastic Compliance Matrix: (Units=1/GPa)
#
#
# Indices 1 2 3 4 5 6 
#
# 1 0.024006 -0.005914 -0.000169 0.000000 0.000000 0.000000
# 2 -0.005914 0.010062 -0.002831 0.000000 0.000000 0.000000
# 3 -0.000169 -0.002831 0.009840 0.000000 0.000000 0.000000
# 4 0.000000 0.000000 0.000000 0.064858 0.000000 0.000000
# 5 0.000000 0.000000 0.000000 0.000000 -0.101890 0.000000
# 6 0.000000 0.000000 0.000000 0.000000 0.000000 0.025603
#
#
# Mechanical properties :
#
#
# Convention : Reuss Voigt Hill
#
# Bulk Modulus (GPa) = 38.34535 50.02905 44.18720
# Shear Modulus (GPa) = 84.74647 23.02247 53.88447
#
# Velocity S-wave (km/s) = 6.06935 3.16342 4.83964
# Velocity P-wave (km/s) = 8.11071 5.92362 7.10186
#
# Compressibility (1/GPa) = 0.02607878
#
# Stress axis : x y z
#
# Youngs Moduli (GPa) = 41.65700 99.38403 101.62742
#
# Poissons Ratio (x) = 0.58780 0.01719
# Poissons Ratio (y) = 0.24638 0.28768
# Poissons Ratio (z) = 0.00705 0.28133
#
# Static dielectric constant tensor:
#      x y z
#    x 1.854290 0.000000 0.000000 
#    y 0.000000 1.991890 0.000000 
#    z 0.000000 0.000000 1.906480 
# 
# From -- ./inp_files/8652.got.cif
#   From: 2010.05.17/outbox.cif.g08.bks.cpg/sg37_5_cif.got.tgz:8652.got - 2010.06.03 17:53:42.
