data_PCOD9353639
_publ_section_title
;
Structure prediction by ZEFSAII (Michael W. Deem and Ramdas Pophale) SiO2 
 PCOD9353639
Probable space group: C C C 2
;
_chemical_formula_sum "Si O2"
_cell_formula_units_Z 48
_cell_length_a 17.491926
_cell_length_b 7.793962
_cell_length_c 13.991618
_cell_angle_alpha 90.000000
_cell_angle_beta 90.000000
_cell_angle_gamma 90.000000
_cell_volume 1907.496962
_symmetry_space_group_name_H-M "C C C 2"
_symmetry_group_IT_number 37
_symmetry_cell_setting 'orthorhombic'
loop_
_space_group_symop_operation_xyz
x,y,z
-x,-y,z
-x,y,1/2+z
x,-y,1/2+z
1/2+x,1/2+y,z
1/2-x,1/2-y,z
1/2-x,1/2+y,1/2+z
1/2+x,1/2-y,1/2+z
loop_
_atom_site_type_symbol
_atom_site_label
_atom_site_fract_x
_atom_site_fract_y
_atom_site_fract_z
Si Si1 0.639863 0.533035 0.161140
Si Si2 0.918922 0.563898 0.348153
Si Si3 0.571738 0.119849 0.619841
Si Si4 0.329510 0.616597 0.871452
Si Si5 0.228424 0.552105 0.510513
Si Si6 0.340625 0.725330 0.303302
O O1 0.579424 0.669250 0.117760
O O2 0.679285 0.622160 0.255641
O O3 0.617753 0.347493 0.207107
O O4 0.707426 0.502002 0.088089
O O5 0.923063 0.593474 0.234145
O O6 0.888426 0.735972 0.396759
O O7 0.866089 0.398255 0.351690
O O8 0.000000 0.500000 0.382865
O O9 0.500000 0.000000 0.591379
O O10 0.646504 0.053427 0.562258
O O11 0.249185 0.919244 0.926202
O O12 0.250000 0.750000 0.485917
O O13 0.364454 0.574534 0.376736
O O14 0.250000 0.750000 0.281545
#
# Coordination Sequence:
#
# PCOD9353639 Si02
#       6
#     8   8   8   8   8   8
#     4   8  19  36  64 104 136 193 244 302 359 436
#     4  10  21  40  70 104 144 188 242 307 376 444
#     4   9  18  36  65 106 148 191 241 301 379 446
#     4   9  21  38  67 107 136 190 245 305 358 435
#     4  10  18  37  73 103 142 194 247 307 365 439
#     4  10  20  37  67  97 138 186 237 301 356 429
#
# _framework density 25.163868000000001
#
# number of rings (size 3 to 8) (size 9 to 14) (size 15 to 20)
#    1.000    1.667    0.000    1.500    0.000    2.667 
#    0.000    0.000   36.667   15.000   13.000    0.000 
#    0.000    0.000    0.000    0.000    0.000    0.000 
#
# Total GULP energy -133668.709364 kJ/mol
# GULP energy per Si atom -5569.529557 kJ/mol
# Density = 2.510659 g / cm^3
# Si number density = 25.163868 Si / 1000 Ang^3
#
#
#
# Elastic Constant Matrix: (Units=GPa)
#
#
# Indices 1 2 3 4 5 6 
#
# 1 135.0930 85.3083 21.9993 0.0000 0.0000 0.0000
# 2 85.3083 189.8932 10.7592 0.0000 0.0000 0.0000
# 3 21.9993 10.7592 77.2015 0.0000 0.0000 0.0000
# 4 0.0000 0.0000 0.0000 -0.9539 0.0000 0.0000
# 5 0.0000 0.0000 0.0000 0.0000 18.5400 0.0000
# 6 0.0000 0.0000 0.0000 0.0000 0.0000 -1.3768
#
#
#
# Elastic Compliance Matrix: (Units=1/GPa)
#
#
# Indices 1 2 3 4 5 6 
#
# 1 0.010762 -0.004698 -0.002412 0.000000 0.000000 0.000000
# 2 -0.004698 0.007359 0.000313 0.000000 0.000000 0.000000
# 3 -0.002412 0.000313 0.013597 0.000000 0.000000 0.000000
# 4 0.000000 0.000000 0.000000 -1.048380 0.000000 0.000000
# 5 0.000000 0.000000 0.000000 0.000000 0.053937 0.000000
# 6 0.000000 0.000000 0.000000 0.000000 0.000000 -0.726346
#
#
# Mechanical properties :
#
#
# Convention : Reuss Voigt Hill
#
# Bulk Modulus (GPa) = 55.17568 70.92459 63.05014
# Shear Modulus (GPa) = -2.99502 22.18328 9.59413
#
# Velocity S-wave (km/s) = -1.09215 2.97232 1.95472
# Velocity P-wave (km/s) = 4.51484 6.32660 5.49589
#
# Compressibility (1/GPa) = 0.01812393
#
# Stress axis : x y z
#
# Youngs Moduli (GPa) = 92.92157 135.88955 73.54689
#
# Poissons Ratio (x) = 0.63841 0.17739
# Poissons Ratio (y) = 0.43655 -0.02303
# Poissons Ratio (z) = 0.22412 -0.04256
#
# Static dielectric constant tensor:
#      x y z
#    x 2.013480 0.000000 0.000000 
#    y 0.000000 2.133230 0.000000 
#    z 0.000000 0.000000 2.072410 
# 
# From -- ./inp_files/12847.got.cif
#   From: 2010.05.17/outbox.cif.g08.bks.cpg/sg37_7_cif.got.tgz:12847.got - 2010.06.03 17:53:42.
