data_PCOD9353733
_publ_section_title
;
Structure prediction by ZEFSAII (Michael W. Deem and Ramdas Pophale) SiO2 
 PCOD9353733
Probable space group: C C C 2
;
_chemical_formula_sum "Si O2"
_cell_formula_units_Z 64
_cell_length_a 9.043764
_cell_length_b 16.343463
_cell_length_c 21.458767
_cell_angle_alpha 90.000000
_cell_angle_beta 90.000000
_cell_angle_gamma 90.000000
_cell_volume 3171.743578
_symmetry_space_group_name_H-M "C C C 2"
_symmetry_group_IT_number 37
_symmetry_cell_setting 'orthorhombic'
loop_
_space_group_symop_operation_xyz
x,y,z
-x,-y,z
-x,y,1/2+z
x,-y,1/2+z
1/2+x,1/2+y,z
1/2-x,1/2-y,z
1/2-x,1/2+y,1/2+z
1/2+x,1/2-y,1/2+z
loop_
_atom_site_type_symbol
_atom_site_label
_atom_site_fract_x
_atom_site_fract_y
_atom_site_fract_z
Si Si1 0.651329 0.332351 0.905910
Si Si2 0.425349 0.411149 0.528584
Si Si3 0.572089 0.087931 0.050590
Si Si4 0.040372 0.904626 0.299665
Si Si5 0.852757 0.669292 0.669054
Si Si6 0.946572 0.907695 0.663120
Si Si7 0.152994 0.668406 0.307845
Si Si8 0.954054 0.406505 0.911224
O O1 0.750000 0.250000 0.908300
O O2 0.542510 0.347175 0.848759
O O3 0.779304 0.400422 0.900621
O O4 0.564433 0.350897 0.969947
O O5 0.500000 0.500000 0.516833
O O6 0.248885 0.422492 0.539546
O O7 0.484326 0.374500 0.594355
O O8 0.550916 0.149369 0.108593
O O9 0.500000 0.000000 0.064159
O O10 0.514169 0.117549 0.983191
O O11 0.000038 0.873967 0.229485
O O12 0.216636 0.898722 0.308206
O O13 0.000000 0.000000 0.306339
O O14 0.750000 0.750000 0.660411
O O15 0.730374 0.597383 0.669657
O O16 0.917971 0.671979 0.738469
O O17 0.000000 0.000000 0.660874
O O18 0.250000 0.750000 0.315839
O O19 0.038946 0.649626 0.362027
O O20 0.000000 0.500000 0.903436
#
# Coordination Sequence:
#
# PCOD9353733 Si02
#       8
#     8   8   8   8   8   8   8   8
#     4  11  22  34  53  83 112 139 173 222 271 315
#     4   9  18  34  55  77 103 140 184 220 259 317
#     4   9  19  34  53  79 109 137 174 226 271 308
#     4  10  19  34  57  80 103 140 184 221 259 313
#     4   9  18  33  56  80 104 138 180 217 261 320
#     4   8  16  31  52  76 100 131 178 224 256 298
#     4  10  20  36  56  79 107 142 179 219 263 318
#     4  10  21  36  52  76 111 145 175 217 268 317
#
# _framework density 20.178175
#
# number of rings (size 3 to 8) (size 9 to 14) (size 15 to 20)
#    0.000    2.500    0.000    1.875    0.000    7.000 
#    0.000    3.750    0.000    0.000    0.000    1.750 
#    0.000    0.000    0.000    0.000    0.000    0.000 
#
# Total GULP energy -178203.678734 kJ/mol
# GULP energy per Si atom -5568.864960 kJ/mol
# Density = 2.013225 g / cm^3
# Si number density = 20.178175 Si / 1000 Ang^3
#
#
#
# Elastic Constant Matrix: (Units=GPa)
#
#
# Indices 1 2 3 4 5 6 
#
# 1 18.2435 5.4380 33.0125 0.0000 0.0000 0.0000
# 2 5.4380 46.9593 45.4022 0.0000 0.0000 0.0000
# 3 33.0125 45.4022 238.9266 0.0000 0.0000 0.0000
# 4 0.0000 0.0000 0.0000 -4.9366 0.0000 0.0000
# 5 0.0000 0.0000 0.0000 0.0000 30.4767 0.0000
# 6 0.0000 0.0000 0.0000 0.0000 0.0000 30.9590
#
#
#
# Elastic Compliance Matrix: (Units=1/GPa)
#
#
# Indices 1 2 3 4 5 6 
#
# 1 0.073185 0.001595 -0.010415 0.000000 0.000000 0.000000
# 2 0.001595 0.026123 -0.005184 0.000000 0.000000 0.000000
# 3 -0.010415 -0.005184 0.006610 0.000000 0.000000 0.000000
# 4 0.000000 0.000000 0.000000 -0.202568 0.000000 0.000000
# 5 0.000000 0.000000 0.000000 0.000000 0.032812 0.000000
# 6 0.000000 0.000000 0.000000 0.000000 0.000000 0.032301
#
#
# Mechanical properties :
#
#
# Convention : Reuss Voigt Hill
#
# Bulk Modulus (GPa) = 12.83567 52.42610 32.63088
# Shear Modulus (GPa) = 222.81062 25.98494 124.39778
#
# Velocity S-wave (km/s) = 10.51957 3.59245 7.86025
# Velocity P-wave (km/s) = 12.40659 6.57614 9.92897
#
# Compressibility (1/GPa) = 0.07790790
#
# Stress axis : x y z
#
# Youngs Moduli (GPa) = 13.66401 38.28075 151.29553
#
# Poissons Ratio (x) = -0.06104 1.57574
# Poissons Ratio (y) = -0.02179 0.78437
# Poissons Ratio (z) = 0.14231 0.19846
#
# Static dielectric constant tensor:
#      x y z
#    x 1.703390 0.000000 0.000000 
#    y 0.000000 1.767360 0.000000 
#    z 0.000000 0.000000 1.808510 
# 
# From -- ./inp_files/16543.got.cif
#   From: 2010.05.17/outbox.cif.g08.bks.cpg/sg37_9_cif.got.tgz:16543.got - 2010.06.03 17:53:42.
