data_PCOD9353650
_publ_section_title
;
Structure prediction by ZEFSAII (Michael W. Deem and Ramdas Pophale) SiO2 
 PCOD9353650
Probable space group: C C C 2
;
_chemical_formula_sum "Si O2"
_cell_formula_units_Z 56
_cell_length_a 10.146571
_cell_length_b 19.090031
_cell_length_c 14.125266
_cell_angle_alpha 90.000000
_cell_angle_beta 90.000000
_cell_angle_gamma 90.000000
_cell_volume 2736.040787
_symmetry_space_group_name_H-M "C C C 2"
_symmetry_group_IT_number 37
_symmetry_cell_setting 'orthorhombic'
loop_
_space_group_symop_operation_xyz
x,y,z
-x,-y,z
-x,y,1/2+z
x,-y,1/2+z
1/2+x,1/2+y,z
1/2-x,1/2-y,z
1/2-x,1/2+y,1/2+z
1/2+x,1/2-y,1/2+z
loop_
_atom_site_type_symbol
_atom_site_label
_atom_site_fract_x
_atom_site_fract_y
_atom_site_fract_z
Si Si1 0.913739 0.416020 0.244920
Si Si2 0.092724 0.257141 0.682852
Si Si3 0.500000 0.000000 0.572444
Si Si4 0.781729 0.522336 0.929905
Si Si5 0.000000 0.000000 0.385504
Si Si6 0.565324 0.351020 0.810863
Si Si7 0.590597 0.753878 0.469907
Si Si8 0.848318 0.619571 0.349677
O O1 0.919861 0.332873 0.229774
O O2 0.815427 0.440043 0.328899
O O3 0.910752 0.452388 0.142540
O O4 0.061383 0.427802 0.283427
O O5 0.250000 0.250000 0.679719
O O6 0.039279 0.259068 0.575668
O O7 0.020257 0.194284 0.738016
O O8 0.395535 0.958707 0.505401
O O9 0.625312 0.527831 0.945521
O O10 0.795925 0.437855 0.922777
O O11 0.963649 0.933268 0.320089
O O12 0.542502 0.313419 0.912293
O O13 0.724065 0.346181 0.796473
O O14 0.750000 0.750000 0.475738
O O15 0.570009 0.822308 0.405900
#
# Coordination Sequence:
#
# PCOD9353650 Si02
#       8
#     8   8   4   8   4   8   8   8
#     4  12  22  37  65  94 123 166 213 263 314 371
#     4  11  23  37  60  90 124 163 211 259 315 380
#     4  12  22  38  66  98 126 164 218 264 308 374
#     4  11  22  42  63  94 131 164 213 259 320 375
#     4  10  24  44  68  90 128 176 200 262 330 378
#     4  10  21  40  64  85 124 162 208 258 323 375
#     4   9  19  37  61  86 112 160 207 247 307 372
#     4  10  18  39  65  86 120 162 208 260 308 375
#
# _framework density 20.467531000000001
#
# number of rings (size 3 to 8) (size 9 to 14) (size 15 to 20)
#    0.000    1.429    4.286    1.714    0.000    1.143 
#    2.571    1.429    0.000    0.000    0.000    0.000 
#    0.000    0.000    0.000    0.000    0.000    0.000 
#
# Total GULP energy -155911.326745 kJ/mol
# GULP energy per Si atom -5568.261669 kJ/mol
# Density = 2.042095 g / cm^3
# Si number density = 20.467531 Si / 1000 Ang^3
#
#
#
# Elastic Constant Matrix: (Units=GPa)
#
#
# Indices 1 2 3 4 5 6 
#
# 1 90.9726 3.7358 40.0718 0.0000 0.0000 0.0000
# 2 3.7358 111.6846 38.3741 0.0000 0.0000 0.0000
# 3 40.0718 38.3741 118.1823 0.0000 0.0000 0.0000
# 4 0.0000 0.0000 0.0000 15.5354 0.0000 0.0000
# 5 0.0000 0.0000 0.0000 0.0000 3.5607 0.0000
# 6 0.0000 0.0000 0.0000 0.0000 0.0000 28.8264
#
#
#
# Elastic Compliance Matrix: (Units=1/GPa)
#
#
# Indices 1 2 3 4 5 6 
#
# 1 0.013069 0.001222 -0.004828 0.000000 0.000000 0.000000
# 2 0.001222 0.010192 -0.003724 0.000000 0.000000 0.000000
# 3 -0.004828 -0.003724 0.011308 0.000000 0.000000 0.000000
# 4 0.000000 0.000000 0.000000 0.064369 0.000000 0.000000
# 5 0.000000 0.000000 0.000000 0.000000 0.280847 0.000000
# 6 0.000000 0.000000 0.000000 0.000000 0.000000 0.034690
#
#
# Mechanical properties :
#
#
# Convention : Reuss Voigt Hill
#
# Bulk Modulus (GPa) = 50.22885 53.91141 52.07013
# Shear Modulus (GPa) = 11.47392 25.49502 18.48447
#
# Velocity S-wave (km/s) = 2.37025 3.53318 3.00844
# Velocity P-wave (km/s) = 5.66434 6.56061 6.12888
#
# Compressibility (1/GPa) = 0.01990888
#
# Stress axis : x y z
#
# Youngs Moduli (GPa) = 76.51850 98.11263 88.43624
#
# Poissons Ratio (x) = -0.11986 0.42696
# Poissons Ratio (y) = -0.09348 0.32931
# Poissons Ratio (z) = 0.36942 0.36534
#
# Static dielectric constant tensor:
#      x y z
#    x 2.057250 0.000000 0.000000 
#    y 0.000000 2.027860 0.000000 
#    z 0.000000 0.000000 1.769430 
# 
# From -- ./inp_files/7308.got.cif
#   From: 2010.05.17/outbox.cif.g08.bks.cpg/sg37_4_cif.got.tgz:7308.got - 2010.06.03 17:53:42.
