data_PCOD9353536
_publ_section_title
;
Structure prediction by ZEFSAII (Michael W. Deem and Ramdas Pophale) SiO2 
 PCOD9353536
Probable space group: C C C 2
;
_chemical_formula_sum "Si O2"
_cell_formula_units_Z 52
_cell_length_a 18.970828
_cell_length_b 8.252908
_cell_length_c 14.508909
_cell_angle_alpha 90.000000
_cell_angle_beta 90.000000
_cell_angle_gamma 90.000000
_cell_volume 2271.580057
_symmetry_space_group_name_H-M "C C C 2"
_symmetry_group_IT_number 37
_symmetry_cell_setting 'orthorhombic'
loop_
_space_group_symop_operation_xyz
x,y,z
-x,-y,z
-x,y,1/2+z
x,-y,1/2+z
1/2+x,1/2+y,z
1/2-x,1/2-y,z
1/2-x,1/2+y,1/2+z
1/2+x,1/2-y,1/2+z
loop_
_atom_site_type_symbol
_atom_site_label
_atom_site_fract_x
_atom_site_fract_y
_atom_site_fract_z
Si Si1 0.551749 0.758099 0.631000
Si Si2 0.611572 0.750495 0.182181
Si Si3 0.077412 0.427805 0.359570
Si Si4 0.893337 0.896125 0.457256
Si Si5 0.581155 0.441944 0.287323
Si Si6 0.853965 0.521003 0.042315
Si Si7 0.750000 0.750000 0.508626
O O1 0.468641 0.749208 0.644102
O O2 0.578382 0.616654 0.560837
O O3 0.585856 0.722245 0.730487
O O4 0.580090 0.923567 0.587962
O O5 0.614103 0.884996 0.263278
O O6 0.625418 0.580397 0.233106
O O7 0.656062 0.811587 0.095297
O O8 0.065703 0.249177 0.405107
O O9 0.125054 0.523072 0.434316
O O10 0.000000 0.500000 0.346191
O O11 0.812738 0.837607 0.454436
O O12 0.902472 0.053540 0.395357
O O13 0.500000 0.500000 0.278350
O O14 0.789997 0.396049 0.059156
#
# Coordination Sequence:
#
# PCOD9353536 Si02
#       7
#     8   8   8   8   8   8   4
#     4   9  17  31  50  74 102 132 168 213 266 316
#     4  10  18  30  50  77 105 130 168 216 266 321
#     4   9  16  27  47  76 100 125 166 212 262 310
#     4   9  18  33  50  71 103 140 171 211 259 310
#     4   9  19  32  49  78 106 130 166 213 268 325
#     4  10  18  32  51  71  99 137 174 216 255 300
#     4   8  18  34  52  72 100 142 188 212 244 310
#
# _framework density 22.891556000000001
#
# number of rings (size 3 to 8) (size 9 to 14) (size 15 to 20)
#    0.000    3.077    0.000    3.231    0.000    1.846 
#    0.000   12.308    0.000    0.000    0.000    0.000 
#    0.000    0.000    0.000    0.000    0.000    0.000 
#
# Total GULP energy -144995.802842 kJ/mol
# GULP energy per Si atom -5576.761648 kJ/mol
# Density = 2.283945 g / cm^3
# Si number density = 22.891556 Si / 1000 Ang^3
#
#
#
# Elastic Constant Matrix: (Units=GPa)
#
#
# Indices 1 2 3 4 5 6 
#
# 1 47.9595 14.5071 1.8078 0.0000 0.0000 0.0000
# 2 14.5071 37.2264 12.2981 0.0000 0.0000 0.0000
# 3 1.8078 12.2981 112.0305 0.0000 0.0000 0.0000
# 4 0.0000 0.0000 0.0000 34.6130 0.0000 0.0000
# 5 0.0000 0.0000 0.0000 0.0000 -3.1892 0.0000
# 6 0.0000 0.0000 0.0000 0.0000 0.0000 21.4630
#
#
#
# Elastic Compliance Matrix: (Units=1/GPa)
#
#
# Indices 1 2 3 4 5 6 
#
# 1 0.023683 -0.009446 0.000655 0.000000 0.000000 0.000000
# 2 -0.009446 0.031641 -0.003321 0.000000 0.000000 0.000000
# 3 0.000655 -0.003321 0.009280 0.000000 0.000000 0.000000
# 4 0.000000 0.000000 0.000000 0.028891 0.000000 0.000000
# 5 0.000000 0.000000 0.000000 0.000000 -0.313558 0.000000
# 6 0.000000 0.000000 0.000000 0.000000 0.000000 0.046592
#
#
# Mechanical properties :
#
#
# Convention : Reuss Voigt Hill
#
# Bulk Modulus (GPa) = 24.76442 28.27136 26.51789
# Shear Modulus (GPa) = -36.82234 21.81760 -7.50237
#
# Velocity S-wave (km/s) = -4.01503 3.09056 -1.81231
# Velocity P-wave (km/s) = 3.26379 5.01122 2.68887
#
# Compressibility (1/GPa) = 0.04038052
#
# Stress axis : x y z
#
# Youngs Moduli (GPa) = 42.22359 31.60478 107.75707
#
# Poissons Ratio (x) = 0.29853 -0.07055
# Poissons Ratio (y) = 0.39883 0.35785
# Poissons Ratio (z) = -0.02765 0.10496
#
# Static dielectric constant tensor:
#      x y z
#    x 1.842380 0.000000 0.000000 
#    y 0.000000 1.944260 0.000000 
#    z 0.000000 0.000000 1.924300 
# 
# From -- ./inp_files/12878.got.cif
#   From: 2010.05.17/outbox.cif.g08.bks.cpg/sg37_7_cif.got.tgz:12878.got - 2010.06.03 17:53:42.
