data_PCOD9353139
_publ_section_title
;
Structure prediction by ZEFSAII (Michael W. Deem and Ramdas Pophale) SiO2 
 PCOD9353139
Probable space group: C M C 21
;
_chemical_formula_sum "Si O2"
_cell_formula_units_Z 64
_cell_length_a 14.751891
_cell_length_b 22.483935
_cell_length_c 8.039119
_cell_angle_alpha 90.000000
_cell_angle_beta 90.000000
_cell_angle_gamma 90.000000
_cell_volume 2666.419479
_symmetry_space_group_name_H-M "C M C 21"
_symmetry_group_IT_number 36
_symmetry_cell_setting 'orthorhombic'
loop_
_space_group_symop_operation_xyz
x,y,z
-x,-y,1/2+z
x,-y,1/2+z
-x,y,z
1/2+x,1/2+y,z
1/2-x,1/2-y,1/2+z
1/2+x,1/2-y,1/2+z
1/2-x,1/2+y,z
loop_
_atom_site_type_symbol
_atom_site_label
_atom_site_fract_x
_atom_site_fract_y
_atom_site_fract_z
Si Si1 0.238462 0.879057 0.518480
Si Si2 0.233444 0.485115 0.758186
Si Si3 0.602438 0.096384 0.804434
Si Si4 0.600873 0.231080 0.332549
Si Si5 0.667245 0.123664 0.457734
Si Si6 0.602560 0.703287 0.183478
Si Si7 0.603920 0.577221 0.745781
Si Si8 0.152754 0.810906 0.044691
O O1 0.267182 0.941220 0.601359
O O2 0.327430 0.863520 0.411599
O O3 0.190207 0.838540 0.654745
O O4 0.153756 0.887937 0.394356
O O5 0.154005 0.533237 0.779213
O O6 0.328710 0.520389 0.737687
O O7 0.213943 0.437941 0.905748
O O8 0.500000 0.092571 0.869262
O O9 0.602609 0.118192 0.615037
O O10 0.500000 0.247839 0.279127
O O11 0.615097 0.160455 0.317120
O O12 0.607981 0.251885 0.525807
O O13 0.659543 0.267672 0.202621
O O14 0.747324 0.167485 0.505908
O O15 0.500000 0.676725 0.167755
O O16 0.611278 0.719206 0.379255
O O17 0.500000 0.560436 0.777853
O O18 0.605606 0.626179 0.597650
#
# Coordination Sequence:
#
# PCOD9353139 Si02
#       8
#     8   8   8   8   8   8   8   8
#     4  11  22  41  66 103 146 188 244 308 367 452
#     4  11  25  44  66 106 147 193 254 310 368 457
#     4  11  24  45  72  98 137 197 257 317 380 437
#     4  11  26  48  73 109 151 194 256 315 371 444
#     4  12  25  47  72 102 149 196 249 316 378 442
#     4  11  23  43  75 111 152 196 239 297 376 456
#     4  11  23  42  70 104 151 198 242 305 379 456
#     4  12  24  46  75 111 151 200 248 306 376 460
#
# _framework density 24.002223999999998
#
# number of rings (size 3 to 8) (size 9 to 14) (size 15 to 20)
#    0.000    0.750    5.000    3.375    1.750    3.500 
#    2.250    0.000    0.000    0.000    0.000    0.000 
#    0.000    0.000    0.000    0.000    0.000    0.000 
#
# Total GULP energy -178576.206772 kJ/mol
# GULP energy per Si atom -5580.506462 kJ/mol
# Density = 2.394759 g / cm^3
# Si number density = 24.002224 Si / 1000 Ang^3
#
#
#
# Elastic Constant Matrix: (Units=GPa)
#
#
# Indices 1 2 3 4 5 6 
#
# 1 164.8261 33.9336 37.4099 0.0000 0.0000 0.0000
# 2 33.9336 92.2869 36.9181 0.0000 0.0000 0.0000
# 3 37.4099 36.9181 115.7420 0.0000 0.0000 0.0000
# 4 0.0000 0.0000 0.0000 23.7492 0.0000 0.0000
# 5 0.0000 0.0000 0.0000 0.0000 21.5253 0.0000
# 6 0.0000 0.0000 0.0000 0.0000 0.0000 12.3400
#
#
#
# Elastic Compliance Matrix: (Units=1/GPa)
#
#
# Indices 1 2 3 4 5 6 
#
# 1 0.006816 -0.001862 -0.001609 0.000000 0.000000 0.000000
# 2 -0.001862 0.012930 -0.003522 0.000000 0.000000 0.000000
# 3 -0.001609 -0.003522 0.010283 0.000000 0.000000 0.000000
# 4 0.000000 0.000000 0.000000 0.042107 0.000000 0.000000
# 5 0.000000 0.000000 0.000000 0.000000 0.046457 0.000000
# 6 0.000000 0.000000 0.000000 0.000000 0.000000 0.081037
#
#
# Mechanical properties :
#
#
# Convention : Reuss Voigt Hill
#
# Bulk Modulus (GPa) = 62.33791 65.48646 63.91218
# Shear Modulus (GPa) = 22.83485 29.16246 25.99866
#
# Velocity S-wave (km/s) = 3.08777 3.48945 3.29474
# Velocity P-wave (km/s) = 6.22419 6.60135 6.41554
#
# Compressibility (1/GPa) = 0.01604160
#
# Stress axis : x y z
#
# Youngs Moduli (GPa) = 146.72249 77.34199 97.24432
#
# Poissons Ratio (x) = 0.14405 0.15645
# Poissons Ratio (y) = 0.27327 0.34251
# Poissons Ratio (z) = 0.23605 0.27241
#
# Static dielectric constant tensor:
#      x y z
#    x 1.918490 0.000000 0.000000 
#    y 0.000000 2.011630 0.000000 
#    z 0.000000 0.000000 2.032150 
# 
# From -- ./inp_files/4348.got.cif
#   From: 2010.05.17/outbox.cif.g08.bks.cpg/sg36_3_cif.got.tgz:4348.got - 2010.06.03 17:41:39.
