data_PCOD9353796
_publ_section_title
;
Structure prediction by ZEFSAII (Michael W. Deem and Ramdas Pophale) SiO2 
 PCOD9353796
Probable space group: C C C 2
;
_chemical_formula_sum "Si O2"
_cell_formula_units_Z 56
_cell_length_a 11.289406
_cell_length_b 11.901649
_cell_length_c 19.980366
_cell_angle_alpha 90.000000
_cell_angle_beta 90.000000
_cell_angle_gamma 90.000000
_cell_volume 2684.612878
_symmetry_space_group_name_H-M "C C C 2"
_symmetry_group_IT_number 37
_symmetry_cell_setting 'orthorhombic'
loop_
_space_group_symop_operation_xyz
x,y,z
-x,-y,z
-x,y,1/2+z
x,-y,1/2+z
1/2+x,1/2+y,z
1/2-x,1/2-y,z
1/2-x,1/2+y,1/2+z
1/2+x,1/2-y,1/2+z
loop_
_atom_site_type_symbol
_atom_site_label
_atom_site_fract_x
_atom_site_fract_y
_atom_site_fract_z
Si Si1 0.540373 0.127529 0.585640
Si Si2 0.179568 0.359524 0.505094
Si Si3 0.381069 0.302391 0.177055
Si Si4 0.798869 0.424322 0.863103
Si Si5 0.328996 0.359378 0.898527
Si Si6 0.699700 0.429451 0.548321
Si Si7 0.069160 0.790002 0.823924
O O1 0.443060 0.176298 0.536915
O O2 0.540811 0.198551 0.652415
O O3 0.671867 0.131898 0.555129
O O4 0.500000 0.000000 0.596194
O O5 0.250000 0.250000 0.487670
O O6 0.151229 0.427839 0.438297
O O7 0.260948 0.440132 0.550664
O O8 0.250000 0.250000 0.188782
O O9 0.371377 0.387510 0.113829
O O10 0.428888 0.338879 0.248546
O O11 0.748406 0.550761 0.854478
O O12 0.893162 0.343763 0.823943
O O13 0.677425 0.353381 0.859829
O O14 0.250000 0.250000 0.907519
O O15 0.449511 0.322249 0.861905
O O16 0.352412 0.406824 0.974300
#
# Coordination Sequence:
#
# PCOD9353796 Si02
#       7
#     8   8   8   8   8   8   8
#     4   9  19  36  60  89 120 160 200 262 322 376
#     4  10  19  36  60  94 125 151 205 268 322 378
#     4  10  19  39  64  86 114 167 218 251 310 398
#     4  10  22  40  64  91 125 175 212 260 331 397
#     4  11  24  40  62 100 131 160 219 287 328 382
#     4   9  21  37  64  90 122 164 211 263 319 388
#     4  11  22  42  66  90 127 178 221 261 327 405
#
# _framework density 20.859618999999999
#
# number of rings (size 3 to 8) (size 9 to 14) (size 15 to 20)
#    0.000    2.000    2.857    1.714    4.000    0.571 
#    2.571    4.286    0.000    0.000    0.000    0.000 
#    0.000    0.000    0.000    0.000    0.000    0.000 
#
# Total GULP energy -155976.817242 kJ/mol
# GULP energy per Si atom -5570.600616 kJ/mol
# Density = 2.081214 g / cm^3
# Si number density = 20.859619 Si / 1000 Ang^3
#
#
#
# Elastic Constant Matrix: (Units=GPa)
#
#
# Indices 1 2 3 4 5 6 
#
# 1 76.0311 15.9064 46.3342 0.0000 0.0000 0.0000
# 2 15.9064 64.2719 12.1514 0.0000 0.0000 0.0000
# 3 46.3342 12.1514 115.1020 0.0000 0.0000 0.0000
# 4 0.0000 0.0000 0.0000 10.3424 0.0000 0.0000
# 5 0.0000 0.0000 0.0000 0.0000 23.5417 0.0000
# 6 0.0000 0.0000 0.0000 0.0000 0.0000 18.4388
#
#
#
# Elastic Compliance Matrix: (Units=1/GPa)
#
#
# Indices 1 2 3 4 5 6 
#
# 1 0.018033 -0.003153 -0.006926 0.000000 0.000000 0.000000
# 2 -0.003153 0.016427 -0.000465 0.000000 0.000000 0.000000
# 3 -0.006926 -0.000465 0.011525 0.000000 0.000000 0.000000
# 4 0.000000 0.000000 0.000000 0.096690 0.000000 0.000000
# 5 0.000000 0.000000 0.000000 0.000000 0.042478 0.000000
# 6 0.000000 0.000000 0.000000 0.000000 0.000000 0.054233
#
#
# Mechanical properties :
#
#
# Convention : Reuss Voigt Hill
#
# Bulk Modulus (GPa) = 40.16642 44.90990 42.53816
# Shear Modulus (GPa) = 18.60294 22.53211 20.56753
#
# Velocity S-wave (km/s) = 2.98957 3.29017 3.14347
# Velocity P-wave (km/s) = 5.58696 6.00083 5.79759
#
# Compressibility (1/GPa) = 0.02489642
#
# Stress axis : x y z
#
# Youngs Moduli (GPa) = 55.45315 60.87456 86.76630
#
# Poissons Ratio (x) = 0.19197 0.60097
# Poissons Ratio (y) = 0.17487 0.04033
# Poissons Ratio (z) = 0.38409 0.02830
#
# Static dielectric constant tensor:
#      x y z
#    x 1.764340 0.000000 0.000000 
#    y 0.000000 1.831330 0.000000 
#    z 0.000000 0.000000 1.766780 
# 
# From -- ./inp_files/16874.got.cif
#   From: 2010.05.17/outbox.cif.g08.bks.cpg/sg37_9_cif.got.tgz:16874.got - 2010.06.03 17:53:42.
