data_PCOD9353104
_publ_section_title
;
Structure prediction by ZEFSAII (Michael W. Deem and Ramdas Pophale) SiO2 
 PCOD9353104
Probable space group: C M C 21
;
_chemical_formula_sum "Si O2"
_cell_formula_units_Z 56
_cell_length_a 15.585921
_cell_length_b 17.501607
_cell_length_c 8.324843
_cell_angle_alpha 90.000000
_cell_angle_beta 90.000000
_cell_angle_gamma 90.000000
_cell_volume 2270.839552
_symmetry_space_group_name_H-M "C M C 21"
_symmetry_group_IT_number 36
_symmetry_cell_setting 'orthorhombic'
loop_
_space_group_symop_operation_xyz
x,y,z
-x,-y,1/2+z
x,-y,1/2+z
-x,y,z
1/2+x,1/2+y,z
1/2-x,1/2-y,1/2+z
1/2+x,1/2-y,1/2+z
1/2-x,1/2+y,z
loop_
_atom_site_type_symbol
_atom_site_label
_atom_site_fract_x
_atom_site_fract_y
_atom_site_fract_z
Si Si1 0.903526 0.270931 0.547460
Si Si2 0.000000 0.952905 0.124143
Si Si3 0.500000 0.408829 0.441344
Si Si4 0.408606 0.161768 0.406396
Si Si5 0.722324 0.888469 0.419262
Si Si6 0.194847 0.993455 0.701570
Si Si7 0.357736 0.303963 0.568570
Si Si8 0.711999 0.647400 0.399465
O O1 0.906998 0.298578 0.731332
O O2 0.866858 0.345687 0.452157
O O3 0.842215 0.196929 0.525512
O O4 0.000000 0.251102 0.491571
O O5 0.100559 0.974722 0.163219
O O6 0.000000 0.999115 0.952529
O O7 0.000000 0.882757 0.256110
O O8 0.421035 0.374205 0.538859
O O9 0.500000 0.118085 0.416738
O O10 0.408485 0.227575 0.539910
O O11 0.312400 0.130897 0.426480
O O12 0.752860 0.942982 0.569281
O O13 0.787453 0.816881 0.431163
O O14 0.743364 0.938533 0.264183
O O15 0.178359 0.935823 0.851033
O O16 0.308840 0.306299 0.735408
#
# Coordination Sequence:
#
# PCOD9353104 Si02
#       8
#     8   4   4   8   8   8   8   8
#     4  11  25  43  66  95 130 170 218 267 316 382
#     4  12  20  36  58  90 124 168 209 248 324 386
#     4  12  22  38  56  88 130 162 203 252 316 396
#     4  11  21  38  63  92 121 161 206 258 318 378
#     4  11  22  44  60  88 129 170 207 257 319 379
#     4  11  23  38  63  89 129 167 207 266 316 383
#     4  11  21  38  61  87 129 165 198 261 322 381
#     4  11  22  41  64  94 127 166 207 267 326 377
#
# _framework density 24.660484
#
# number of rings (size 3 to 8) (size 9 to 14) (size 15 to 20)
#    0.000    0.857    9.286    0.000    2.000    1.143 
#    5.143    1.429    0.000    0.000    0.000    0.000 
#    0.000    0.000    0.000    0.000    0.000    0.000 
#
# Total GULP energy -155931.788747 kJ/mol
# GULP energy per Si atom -5568.992455 kJ/mol
# Density = 2.460436 g / cm^3
# Si number density = 24.660484 Si / 1000 Ang^3
#
#
#
# Elastic Constant Matrix: (Units=GPa)
#
#
# Indices 1 2 3 4 5 6 
#
# 1 181.0414 31.3610 39.4161 0.0000 0.0000 0.0000
# 2 31.3610 49.1492 30.9281 0.0000 0.0000 0.0000
# 3 39.4161 30.9281 68.3877 0.0000 0.0000 0.0000
# 4 0.0000 0.0000 0.0000 46.4949 0.0000 0.0000
# 5 0.0000 0.0000 0.0000 0.0000 20.1855 0.0000
# 6 0.0000 0.0000 0.0000 0.0000 0.0000 22.4330
#
#
#
# Elastic Compliance Matrix: (Units=1/GPa)
#
#
# Indices 1 2 3 4 5 6 
#
# 1 0.006531 -0.002514 -0.002627 0.000000 0.000000 0.000000
# 2 -0.002514 0.029407 -0.011850 0.000000 0.000000 0.000000
# 3 -0.002627 -0.011850 0.021496 0.000000 0.000000 0.000000
# 4 0.000000 0.000000 0.000000 0.021508 0.000000 0.000000
# 5 0.000000 0.000000 0.000000 0.000000 0.049541 0.000000
# 6 0.000000 0.000000 0.000000 0.000000 0.000000 0.044577
#
#
# Mechanical properties :
#
#
# Convention : Reuss Voigt Hill
#
# Bulk Modulus (GPa) = 42.64191 55.77654 49.20923
# Shear Modulus (GPa) = 23.27090 30.94755 27.10922
#
# Velocity S-wave (km/s) = 3.07522 3.54636 3.31916
# Velocity P-wave (km/s) = 5.47161 6.27979 5.88958
#
# Compressibility (1/GPa) = 0.02345111
#
# Stress axis : x y z
#
# Youngs Moduli (GPa) = 153.11320 34.00499 46.52011
#
# Poissons Ratio (x) = 0.08549 0.12222
# Poissons Ratio (y) = 0.38494 0.55128
# Poissons Ratio (z) = 0.40228 0.40297
#
# Static dielectric constant tensor:
#      x y z
#    x 2.039670 0.000000 0.000000 
#    y 0.000000 2.081970 0.000000 
#    z 0.000000 0.000000 2.066090 
# 
# From -- ./inp_files/4231.got.cif
#   From: 2010.05.17/outbox.cif.g08.bks.cpg/sg36_3_cif.got.tgz:4231.got - 2010.06.03 17:41:39.
