data_PCOD9353883
_publ_section_title
;
Structure prediction by ZEFSAII (Michael W. Deem and Ramdas Pophale) SiO2 
 PCOD9353883
Probable space group: C C C 2
;
_chemical_formula_sum "Si O2"
_cell_formula_units_Z 48
_cell_length_a 20.247011
_cell_length_b 5.049352
_cell_length_c 18.720071
_cell_angle_alpha 90.000000
_cell_angle_beta 90.000000
_cell_angle_gamma 90.000000
_cell_volume 1913.833083
_symmetry_space_group_name_H-M "C C C 2"
_symmetry_group_IT_number 37
_symmetry_cell_setting 'orthorhombic'
loop_
_space_group_symop_operation_xyz
x,y,z
-x,-y,z
-x,y,1/2+z
x,-y,1/2+z
1/2+x,1/2+y,z
1/2-x,1/2-y,z
1/2-x,1/2+y,1/2+z
1/2+x,1/2-y,1/2+z
loop_
_atom_site_type_symbol
_atom_site_label
_atom_site_fract_x
_atom_site_fract_y
_atom_site_fract_z
Si Si1 0.341412 0.829470 0.353520
Si Si2 0.824346 0.329872 0.634012
Si Si3 0.187326 0.585278 0.989412
Si Si4 0.433732 0.437716 0.444715
Si Si5 0.629563 0.356139 0.217409
Si Si6 0.050291 0.281377 0.295918
O O1 0.390839 0.668671 0.406373
O O2 0.320855 0.647328 0.286662
O O3 0.295580 0.974788 0.410484
O O4 0.382290 0.050308 0.308921
O O5 0.750000 0.250000 0.656534
O O6 0.824978 0.368690 0.549400
O O7 0.854938 0.588273 0.672723
O O8 0.863971 0.076182 0.657302
O O9 0.250000 0.750000 0.015727
O O10 0.121318 0.757826 0.981667
O O11 0.500000 0.500000 0.489324
O O12 0.465802 0.275321 0.378410
O O13 0.566913 0.498990 0.259009
O O14 0.000000 0.500000 0.263743
#
# Coordination Sequence:
#
# PCOD9353883 Si02
#       6
#     8   8   8   8   8   8
#     4  10  22  43  74 110 152 188 260 323 382 456
#     4  12  27  50  71  97 150 213 251 313 409 481
#     4  11  27  46  73 111 155 205 259 323 396 478
#     4  10  21  40  73 110 152 200 258 323 398 472
#     4  11  24  46  71 108 141 197 259 315 380 478
#     4  10  19  40  71 109 151 195 248 325 402 465
#
# _framework density 25.080558
#
# number of rings (size 3 to 8) (size 9 to 14) (size 15 to 20)
#    0.000    1.333    3.333    1.500    4.667    0.667 
#    9.000    1.667    0.000    0.000    0.000    0.000 
#    0.000    0.000    0.000    0.000    0.000    0.000 
#
# Total GULP energy -133738.454399 kJ/mol
# GULP energy per Si atom -5572.435600 kJ/mol
# Density = 2.502347 g / cm^3
# Si number density = 25.080558 Si / 1000 Ang^3
#
#
#
# Elastic Constant Matrix: (Units=GPa)
#
#
# Indices 1 2 3 4 5 6 
#
# 1 79.3899 27.3611 6.1633 0.0000 0.0000 0.0000
# 2 27.3611 169.5701 38.3451 0.0000 0.0000 0.0000
# 3 6.1633 38.3451 123.4114 0.0000 0.0000 0.0000
# 4 0.0000 0.0000 0.0000 42.1631 0.0000 0.0000
# 5 0.0000 0.0000 0.0000 0.0000 18.1130 0.0000
# 6 0.0000 0.0000 0.0000 0.0000 0.0000 39.7654
#
#
#
# Elastic Compliance Matrix: (Units=1/GPa)
#
#
# Indices 1 2 3 4 5 6 
#
# 1 0.013338 -0.002153 0.000003 0.000000 0.000000 0.000000
# 2 -0.002153 0.006690 -0.001971 0.000000 0.000000 0.000000
# 3 0.000003 -0.001971 0.008715 0.000000 0.000000 0.000000
# 4 0.000000 0.000000 0.000000 0.023717 0.000000 0.000000
# 5 0.000000 0.000000 0.000000 0.000000 0.055209 0.000000
# 6 0.000000 0.000000 0.000000 0.000000 0.000000 0.025147
#
#
# Mechanical properties :
#
#
# Convention : Reuss Voigt Hill
#
# Bulk Modulus (GPa) = 48.77806 57.34560 53.06183
# Shear Modulus (GPa) = 33.80809 40.04176 36.92492
#
# Velocity S-wave (km/s) = 3.67547 3.99999 3.84116
# Velocity P-wave (km/s) = 6.12396 6.65187 6.39337
#
# Compressibility (1/GPa) = 0.02050102
#
# Stress axis : x y z
#
# Youngs Moduli (GPa) = 74.97505 149.46823 114.74036
#
# Poissons Ratio (x) = 0.32177 -0.00032
# Poissons Ratio (y) = 0.16140 0.22618
# Poissons Ratio (z) = -0.00021 0.29464
#
# Static dielectric constant tensor:
#      x y z
#    x 2.067710 0.000000 0.000000 
#    y 0.000000 2.347860 0.000000 
#    z 0.000000 0.000000 2.066300 
# 
# From -- ./inp_files/17419.got.cif
#   From: 2010.05.17/outbox.cif.g08.bks.cpg/sg37_9_cif.got.tgz:17419.got - 2010.06.03 17:53:42.
