data_PCOD9353108
_publ_section_title
;
Structure prediction by ZEFSAII (Michael W. Deem and Ramdas Pophale) SiO2 
 PCOD9353108
Probable space group: C M C 21
;
_chemical_formula_sum "Si O2"
_cell_formula_units_Z 56
_cell_length_a 15.166397
_cell_length_b 10.729461
_cell_length_c 13.191463
_cell_angle_alpha 90.000000
_cell_angle_beta 90.000000
_cell_angle_gamma 90.000000
_cell_volume 2146.610697
_symmetry_space_group_name_H-M "C M C 21"
_symmetry_group_IT_number 36
_symmetry_cell_setting 'orthorhombic'
loop_
_space_group_symop_operation_xyz
x,y,z
-x,-y,1/2+z
x,-y,1/2+z
-x,y,z
1/2+x,1/2+y,z
1/2-x,1/2-y,1/2+z
1/2+x,1/2-y,1/2+z
1/2-x,1/2+y,z
loop_
_atom_site_type_symbol
_atom_site_label
_atom_site_fract_x
_atom_site_fract_y
_atom_site_fract_z
Si Si1 0.849018 0.234686 0.112600
Si Si2 0.144595 0.296868 0.557278
Si Si3 0.284383 0.492503 0.328771
Si Si4 0.903616 0.424468 0.757773
Si Si5 0.604142 0.745672 0.339027
Si Si6 0.404206 0.456029 0.146127
Si Si7 0.403228 0.706004 0.913170
O O1 0.745335 0.220444 0.093960
O O2 0.873546 0.287621 0.222766
O O3 0.891974 0.096306 0.107459
O O4 0.887826 0.294911 0.010766
O O5 0.106677 0.395283 0.638307
O O6 0.127584 0.324970 0.439440
O O7 0.101514 0.159814 0.571452
O O8 0.182879 0.515963 0.306985
O O9 0.333328 0.623482 0.349096
O O10 0.325192 0.443477 0.224090
O O11 0.322869 0.391407 0.406172
O O12 0.904065 0.290117 0.813325
O O13 0.000000 0.483254 0.777962
O O14 0.500000 0.716849 0.340928
O O15 0.500000 0.451443 0.196919
O O16 0.500000 0.645988 0.920810
#
# Coordination Sequence:
#
# PCOD9353108 Si02
#       7
#     8   8   8   8   8   8   8
#     4  11  24  40  64 101 142 178 222 287 350 408
#     4  12  23  40  66 101 138 185 227 282 339 418
#     4  11  21  39  64 102 134 176 223 294 347 410
#     4  11  23  41  67  99 133 180 234 284 341 419
#     4  11  22  38  62  99 138 172 221 285 343 401
#     4  11  21  38  65  98 131 172 231 287 340 407
#     4  11  22  40  70 100 132 175 228 281 350 421
#
# _framework density 26.087634999999999
#
# number of rings (size 3 to 8) (size 9 to 14) (size 15 to 20)
#    0.000    0.857    4.286    6.429    0.000    0.000 
#    0.000    0.000    0.000   14.571    0.000    0.000 
#    0.000    0.000    0.000    0.000    0.000    0.000 
#
# Total GULP energy -156654.749140 kJ/mol
# GULP energy per Si atom -5594.812469 kJ/mol
# Density = 2.602826 g / cm^3
# Si number density = 26.087635 Si / 1000 Ang^3
#
#
#
# Elastic Constant Matrix: (Units=GPa)
#
#
# Indices 1 2 3 4 5 6 
#
# 1 274.1836 40.4252 62.1159 0.0000 0.0000 0.0000
# 2 40.4252 67.8795 24.8838 0.0000 0.0000 0.0000
# 3 62.1159 24.8838 194.5045 0.0000 0.0000 0.0000
# 4 0.0000 0.0000 0.0000 34.9023 0.0000 0.0000
# 5 0.0000 0.0000 0.0000 0.0000 36.7379 0.0000
# 6 0.0000 0.0000 0.0000 0.0000 0.0000 23.1629
#
#
#
# Elastic Compliance Matrix: (Units=1/GPa)
#
#
# Indices 1 2 3 4 5 6 
#
# 1 0.004201 -0.002109 -0.001072 0.000000 0.000000 0.000000
# 2 -0.002109 0.016516 -0.001439 0.000000 0.000000 0.000000
# 3 -0.001072 -0.001439 0.005668 0.000000 0.000000 0.000000
# 4 0.000000 0.000000 0.000000 0.028651 0.000000 0.000000
# 5 0.000000 0.000000 0.000000 0.000000 0.027220 0.000000
# 6 0.000000 0.000000 0.000000 0.000000 0.000000 0.043172
#
#
# Mechanical properties :
#
#
# Convention : Reuss Voigt Hill
#
# Bulk Modulus (GPa) = 58.32947 87.93527 73.13237
# Shear Modulus (GPa) = 35.61686 46.23679 40.92683
#
# Velocity S-wave (km/s) = 3.69897 4.21451 3.96513
# Velocity P-wave (km/s) = 6.37580 7.58048 7.00409
#
# Compressibility (1/GPa) = 0.01714399
#
# Stress axis : x y z
#
# Youngs Moduli (GPa) = 238.04183 60.54869 176.43841
#
# Poissons Ratio (x) = 0.12769 0.18910
# Poissons Ratio (y) = 0.50202 0.25397
# Poissons Ratio (z) = 0.25513 0.08715
#
# Static dielectric constant tensor:
#      x y z
#    x 2.040780 0.000000 0.000000 
#    y 0.000000 2.064080 0.000000 
#    z 0.000000 0.000000 2.113910 
# 
# From -- ./inp_files/12255.got.cif
#   From: 2010.05.17/outbox.cif.g08.bks.cpg/sg36_7_cif.got.tgz:12255.got - 2010.06.03 17:41:39.
