data_PCOD9353905
_publ_section_title
;
Structure prediction by ZEFSAII (Michael W. Deem and Ramdas Pophale) SiO2 
 PCOD9353905
Probable space group: C C C 2
;
_chemical_formula_sum "Si O2"
_cell_formula_units_Z 40
_cell_length_a 14.280099
_cell_length_b 13.846605
_cell_length_c 8.605032
_cell_angle_alpha 90.000000
_cell_angle_beta 90.000000
_cell_angle_gamma 90.000000
_cell_volume 1701.480638
_symmetry_space_group_name_H-M "C C C 2"
_symmetry_group_IT_number 37
_symmetry_cell_setting 'orthorhombic'
loop_
_space_group_symop_operation_xyz
x,y,z
-x,-y,z
-x,y,1/2+z
x,-y,1/2+z
1/2+x,1/2+y,z
1/2-x,1/2-y,z
1/2-x,1/2+y,1/2+z
1/2+x,1/2-y,1/2+z
loop_
_atom_site_type_symbol
_atom_site_label
_atom_site_fract_x
_atom_site_fract_y
_atom_site_fract_z
Si Si1 0.250000 0.250000 0.684870
Si Si2 0.280648 0.376250 0.395133
Si Si3 0.896382 0.710651 0.878114
Si Si4 0.130552 0.077137 0.870620
Si Si5 0.500000 0.500000 0.609527
Si Si6 0.895037 0.283853 0.742239
O O1 0.302015 0.319317 0.553519
O O2 0.171696 0.332455 0.748409
O O3 0.301202 0.489416 0.408855
O O4 0.176640 0.353989 0.332941
O O5 0.349341 0.322571 0.270369
O O6 0.837644 0.812983 0.864326
O O7 0.001119 0.715593 0.813735
O O8 0.895457 0.687695 0.059865
O O9 0.077041 0.047348 0.716261
O O10 0.048208 0.077422 0.998703
#
# Coordination Sequence:
#
# PCOD9353905 Si02
#       6
#     4   8   8   8   4   8
#     4  10  22  36  54  82 116 158 204 248 298 358
#     4  10  21  37  53  83 123 161 196 239 299 365
#     4  12  21  36  60  87 116 158 203 247 299 359
#     4  11  20  33  55  85 121 154 197 249 299 352
#     4  10  20  30  50  86 122 152 188 244 304 342
#     4  10  21  36  56  83 121 159 194 240 302 363
#
# _framework density 23.508935999999999
#
# number of rings (size 3 to 8) (size 9 to 14) (size 15 to 20)
#    0.000    1.600    0.000    9.600    0.000    0.000 
#    0.000    0.000    0.000    1.200    0.000   11.200 
#    0.000    0.000    0.000    0.000    0.000    0.000 
#
# Total GULP energy -111548.865407 kJ/mol
# GULP energy per Si atom -5577.443270 kJ/mol
# Density = 2.345543 g / cm^3
# Si number density = 23.508936 Si / 1000 Ang^3
#
#
#
# Elastic Constant Matrix: (Units=GPa)
#
#
# Indices 1 2 3 4 5 6 
#
# 1 154.4563 -12.8065 38.0776 0.0000 0.0000 0.0000
# 2 -12.8065 25.7127 -39.0531 0.0000 0.0000 0.0000
# 3 38.0776 -39.0531 127.2540 0.0000 0.0000 0.0000
# 4 0.0000 0.0000 0.0000 -5.5248 0.0000 0.0000
# 5 0.0000 0.0000 0.0000 0.0000-1784.5233 0.0000
# 6 0.0000 0.0000 0.0000 0.0000 0.0000 0.0072
#
#
#
# Elastic Compliance Matrix: (Units=1/GPa)
#
#
# Indices 1 2 3 4 5 6 
#
# 1 0.006994 0.000571 -0.001918 0.000000 0.000000 0.000000
# 2 0.000571 0.072892 0.022199 0.000000 0.000000 0.000000
# 3 -0.001918 0.022199 0.015245 0.000000 0.000000 0.000000
# 4 0.000000 0.000000 0.000000 -0.181001 0.000000 0.000000
# 5 0.000000 0.000000 0.000000 0.000000 -0.000560 0.000000
# 6 0.000000 0.000000 0.000000 0.000000 0.000000139.776029
#
#
# Mechanical properties :
#
#
# Convention : Reuss Voigt Hill
#
# Bulk Modulus (GPa) = 7.30801 31.09545 19.20173
# Shear Modulus (GPa) = 0.03579 -336.59453 -168.27937
#
# Velocity S-wave (km/s) = 0.12352 -11.97865 -8.46974
# Velocity P-wave (km/s) = 1.77079 13.34397 9.35216
#
# Compressibility (1/GPa) = 0.13683616
#
# Stress axis : x y z
#
# Youngs Moduli (GPa) = 142.97102 13.71892 65.59617
#
# Poissons Ratio (x) = -0.00783 0.12579
# Poissons Ratio (y) = -0.08164 -1.45617
# Poissons Ratio (z) = 0.27417 -0.30455
#
# Static dielectric constant tensor:
#      x y z
#    x 25.560940 0.000000 0.000000 
#    y 0.000000 2.120400 0.000000 
#    z 0.000000 0.000000 2.000630 
# 
# From -- ./inp_files/2853.got.cif
#   From: 2010.05.17/outbox.cif.g08.bks.cpg/sg37_2_cif.got.tgz:2853.got - 2010.06.03 17:53:42.
