data_PCOD9353893
_publ_section_title
;
Structure prediction by ZEFSAII (Michael W. Deem and Ramdas Pophale) SiO2 
 PCOD9353893
Probable space group: C C C 2
;
_chemical_formula_sum "Si O2"
_cell_formula_units_Z 32
_cell_length_a 13.070747
_cell_length_b 18.831568
_cell_length_c 5.143359
_cell_angle_alpha 90.000000
_cell_angle_beta 90.000000
_cell_angle_gamma 90.000000
_cell_volume 1266.000070
_symmetry_space_group_name_H-M "C C C 2"
_symmetry_group_IT_number 37
_symmetry_cell_setting 'orthorhombic'
loop_
_space_group_symop_operation_xyz
x,y,z
-x,-y,z
-x,y,1/2+z
x,-y,1/2+z
1/2+x,1/2+y,z
1/2-x,1/2-y,z
1/2-x,1/2+y,1/2+z
1/2+x,1/2-y,1/2+z
loop_
_atom_site_type_symbol
_atom_site_label
_atom_site_fract_x
_atom_site_fract_y
_atom_site_fract_z
Si Si1 0.899950 0.752682 0.638540
Si Si2 0.123904 0.810629 0.649985
Si Si3 0.939293 0.405245 0.933868
Si Si4 0.719302 0.544035 0.242899
O O1 0.832099 0.795513 0.435998
O O2 0.926094 0.679598 0.490201
O O3 0.002271 0.799508 0.687484
O O4 0.854007 0.752904 0.926147
O O5 0.160968 0.889890 0.610241
O O6 0.838041 0.433203 0.789828
O O7 0.029689 0.424884 0.730170
O O8 0.696211 0.518738 0.537001
#
# Coordination Sequence:
#
# PCOD9353893 Si02
#       4
#     8   8   8   8
#     4  10  19  41  70 105 128 166 232 302 376 406
#     4  10  20  41  70  96 140 170 227 300 349 429
#     4  12  23  44  72 100 138 179 239 303 354 424
#     4  12  28  46  63 101 148 196 239 276 351 451
#
# _framework density 25.276458999999999
#
# number of rings (size 3 to 8) (size 9 to 14) (size 15 to 20)
#    0.000    1.000    5.000    3.000    0.000    4.000 
#    0.000   17.500    0.000    0.000    0.000    0.000 
#    0.000    0.000    0.000    0.000    0.000    0.000 
#
# Total GULP energy -89078.276689 kJ/mol
# GULP energy per Si atom -5567.392293 kJ/mol
# Density = 2.521893 g / cm^3
# Si number density = 25.276459 Si / 1000 Ang^3
#
#
#
# Elastic Constant Matrix: (Units=GPa)
#
#
# Indices 1 2 3 4 5 6 
#
# 1 82.4950 6.5827 -20.0620 0.0000 0.0000 0.0000
# 2 6.5827 99.5977 5.4614 0.0000 0.0000 0.0000
# 3 -20.0620 5.4614 196.8991 0.0000 0.0000 0.0000
# 4 0.0000 0.0000 0.0000 50.9884 0.0000 0.0000
# 5 0.0000 0.0000 0.0000 0.0000 7.5777 0.0000
# 6 0.0000 0.0000 0.0000 0.0000 0.0000 34.0848
#
#
#
# Elastic Compliance Matrix: (Units=1/GPa)
#
#
# Indices 1 2 3 4 5 6 
#
# 1 0.012510 -0.000898 0.001300 0.000000 0.000000 0.000000
# 2 -0.000898 0.010120 -0.000372 0.000000 0.000000 0.000000
# 3 0.001300 -0.000372 0.005221 0.000000 0.000000 0.000000
# 4 0.000000 0.000000 0.000000 0.019612 0.000000 0.000000
# 5 0.000000 0.000000 0.000000 0.000000 0.131966 0.000000
# 6 0.000000 0.000000 0.000000 0.000000 0.000000 0.029339
#
#
# Mechanical properties :
#
#
# Convention : Reuss Voigt Hill
#
# Bulk Modulus (GPa) = 35.82975 40.32844 38.07909
# Shear Modulus (GPa) = 22.93440 44.33083 33.63262
#
# Velocity S-wave (km/s) = 3.01548 4.19243 3.65168
# Velocity P-wave (km/s) = 5.13128 6.27892 5.73389
#
# Compressibility (1/GPa) = 0.02790977
#
# Stress axis : x y z
#
# Youngs Moduli (GPa) = 79.93841 98.81270 191.51675
#
# Poissons Ratio (x) = 0.08874 -0.24888
# Poissons Ratio (y) = 0.07179 0.07128
# Poissons Ratio (z) = -0.10388 0.03678
#
# Static dielectric constant tensor:
#      x y z
#    x 2.235680 0.000000 0.000000 
#    y 0.000000 2.054370 0.000000 
#    z 0.000000 0.000000 2.085440 
# 
# From -- ./inp_files/433.got.cif
#   From: 2010.05.17/outbox.cif.g08.bks.cpg/sg37_1_cif.got.tgz:433.got - 2010.06.03 17:53:42.
