data_PCOD9353509
_publ_section_title
;
Structure prediction by ZEFSAII (Michael W. Deem and Ramdas Pophale) SiO2 
 PCOD9353509
Probable space group: C C C 2
;
_chemical_formula_sum "Si O2"
_cell_formula_units_Z 56
_cell_length_a 19.231933
_cell_length_b 5.558147
_cell_length_c 24.954406
_cell_angle_alpha 90.000000
_cell_angle_beta 90.000000
_cell_angle_gamma 90.000000
_cell_volume 2667.474047
_symmetry_space_group_name_H-M "C C C 2"
_symmetry_group_IT_number 37
_symmetry_cell_setting 'orthorhombic'
loop_
_space_group_symop_operation_xyz
x,y,z
-x,-y,z
-x,y,1/2+z
x,-y,1/2+z
1/2+x,1/2+y,z
1/2-x,1/2-y,z
1/2-x,1/2+y,1/2+z
1/2+x,1/2-y,1/2+z
loop_
_atom_site_type_symbol
_atom_site_label
_atom_site_fract_x
_atom_site_fract_y
_atom_site_fract_z
Si Si1 0.915802 0.729212 0.385170
Si Si2 0.717408 0.505624 0.143719
Si Si3 0.424853 0.886255 0.233208
Si Si4 0.423325 0.718270 0.343251
Si Si5 0.428544 0.355520 0.620596
Si Si6 0.228581 0.494953 0.264334
Si Si7 0.543369 0.753499 0.502454
O O1 0.891416 0.478601 0.359013
O O2 0.910773 0.728022 0.449191
O O3 0.998085 0.755155 0.367414
O O4 0.886426 0.984152 0.366244
O O5 0.750000 0.250000 0.124898
O O6 0.637134 0.522482 0.129817
O O7 0.728329 0.501964 0.208006
O O8 0.750000 0.750000 0.122319
O O9 0.424457 0.681847 0.279146
O O10 0.424435 0.822613 0.170900
O O11 0.500000 0.000000 0.244143
O O12 0.352261 0.017311 0.246260
O O13 0.500000 0.500000 0.624400
O O14 0.423265 0.248049 0.561318
O O15 0.250000 0.250000 0.293203
O O16 0.250000 0.750000 0.290214
O O17 0.500000 0.500000 0.498191
O O18 0.500000 0.000000 0.500313
#
# Coordination Sequence:
#
# PCOD9353509 Si02
#       7
#     8   8   8   8   8   8   8
#     4  10  17  37  54  81 124 163 203 237 314 375
#     4  10  21  43  60  78 121 175 209 231 297 393
#     4  12  24  37  60 102 132 155 205 270 318 366
#     4  10  20  33  57  83 123 161 195 250 308 364
#     4  11  26  37  60 101 132 156 202 273 320 362
#     4  10  22  42  60  78 122 177 206 232 298 392
#     4  11  20  37  58  84 127 162 199 254 316 365
#
# _framework density 20.993642999999999
#
# number of rings (size 3 to 8) (size 9 to 14) (size 15 to 20)
#    0.000    1.429    7.143    0.429    6.000    3.429 
#    0.000    0.000    0.000    0.000    0.000    6.000 
#    0.000    0.000    0.000    0.000    0.000    0.000 
#
# Total GULP energy -156072.877793 kJ/mol
# GULP energy per Si atom -5574.031350 kJ/mol
# Density = 2.094586 g / cm^3
# Si number density = 20.993643 Si / 1000 Ang^3
#
#
#
# Elastic Constant Matrix: (Units=GPa)
#
#
# Indices 1 2 3 4 5 6 
#
# 1 93.9997 33.2762 5.8505 0.0000 0.0000 0.0000
# 2 33.2762 168.9820 24.1868 0.0000 0.0000 0.0000
# 3 5.8505 24.1868 141.8327 0.0000 0.0000 0.0000
# 4 0.0000 0.0000 0.0000 -4.0372 0.0000 0.0000
# 5 0.0000 0.0000 0.0000 0.0000 9.3320 0.0000
# 6 0.0000 0.0000 0.0000 0.0000 0.0000 11.7806
#
#
#
# Elastic Compliance Matrix: (Units=1/GPa)
#
#
# Indices 1 2 3 4 5 6 
#
# 1 0.011437 -0.002239 -0.000090 0.000000 0.000000 0.000000
# 2 -0.002239 0.006504 -0.001017 0.000000 0.000000 0.000000
# 3 -0.000090 -0.001017 0.007228 0.000000 0.000000 0.000000
# 4 0.000000 0.000000 0.000000 -0.247699 0.000000 0.000000
# 5 0.000000 0.000000 0.000000 0.000000 0.107158 0.000000
# 6 0.000000 0.000000 0.000000 0.000000 0.000000 0.084885
#
#
# Mechanical properties :
#
#
# Convention : Reuss Voigt Hill
#
# Bulk Modulus (GPa) = 54.12232 59.04906 56.58569
# Shear Modulus (GPa) = -283.50543 26.18181 -128.66181
#
# Velocity S-wave (km/s) = -11.63343 3.53530 -7.83704
# Velocity P-wave (km/s) = 12.43433 6.69721 7.40810
#
# Compressibility (1/GPa) = 0.01847666
#
# Stress axis : x y z
#
# Youngs Moduli (GPa) = 87.43838 153.74474 138.35725
#
# Poissons Ratio (x) = 0.34427 0.01244
# Poissons Ratio (y) = 0.19580 0.14068
# Poissons Ratio (z) = 0.00786 0.15633
#
# Static dielectric constant tensor:
#      x y z
#    x 1.779020 0.000000 0.000000 
#    y 0.000000 1.878040 0.000000 
#    z 0.000000 0.000000 1.758890 
# 
# From -- ./inp_files/19029.got.cif
#   From: 2010.05.17/outbox.cif.g08.bks.cpg/sg37_10_cif.got.tgz:19029.got - 2010.06.03 17:53:42.
