data_PCOD9353630
_publ_section_title
;
Structure prediction by ZEFSAII (Michael W. Deem and Ramdas Pophale) SiO2 
 PCOD9353630
Probable space group: C C C 2
;
_chemical_formula_sum "Si O2"
_cell_formula_units_Z 52
_cell_length_a 10.156671
_cell_length_b 9.238820
_cell_length_c 25.772321
_cell_angle_alpha 90.000000
_cell_angle_beta 90.000000
_cell_angle_gamma 90.000000
_cell_volume 2418.362626
_symmetry_space_group_name_H-M "C C C 2"
_symmetry_group_IT_number 37
_symmetry_cell_setting 'orthorhombic'
loop_
_space_group_symop_operation_xyz
x,y,z
-x,-y,z
-x,y,1/2+z
x,-y,1/2+z
1/2+x,1/2+y,z
1/2-x,1/2-y,z
1/2-x,1/2+y,1/2+z
1/2+x,1/2-y,1/2+z
loop_
_atom_site_type_symbol
_atom_site_label
_atom_site_fract_x
_atom_site_fract_y
_atom_site_fract_z
Si Si1 0.750000 0.750000 0.250000
Si Si2 0.638219 0.580745 0.580583
Si Si3 0.000000 0.000000 0.369196
Si Si4 0.445284 0.729707 0.287143
Si Si5 0.899933 0.609561 0.537624
Si Si6 0.000000 0.500000 0.344364
Si Si7 0.654562 0.459568 0.197739
Si Si8 0.100748 0.279100 0.427939
O O1 0.606377 0.742882 0.278796
O O2 0.738130 0.596724 0.219198
O O3 0.500000 0.500000 0.574000
O O4 0.753034 0.542518 0.539389
O O5 0.607114 0.746934 0.570796
O O6 0.694939 0.565423 0.638538
O O7 0.081109 0.898729 0.328737
O O8 0.946931 0.874496 0.406441
O O9 0.414771 0.888241 0.309938
O O10 0.367761 0.676442 0.236483
O O11 0.955125 0.657004 0.481279
O O12 0.000000 0.500000 0.562271
O O13 0.083239 0.396737 0.382555
O O14 0.500000 0.500000 0.193353
O O15 0.250000 0.250000 0.441478
#
# Coordination Sequence:
#
# PCOD9353630 Si02
#       8
#     4   8   4   8   8   4   8   8
#     4  10  18  36  68  86 132 182 210 272 336 378
#     4  10  23  44  70  97 131 177 226 281 343 405
#     4  10  22  36  68  92 124 172 218 260 330 400
#     4  10  20  40  59  99 133 170 219 269 324 416
#     4  11  24  44  67 100 134 169 224 291 341 402
#     4  10  24  38  64  98 130 168 218 266 336 402
#     4   9  19  38  66  96 130 173 228 265 332 411
#     4  11  23  44  68  89 130 172 218 280 335 396
#
# _framework density 21.502151999999999
#
# number of rings (size 3 to 8) (size 9 to 14) (size 15 to 20)
#    0.000    1.846    4.615    0.000    5.385    4.308 
#    6.923    6.154    0.000    0.000    0.000    0.000 
#    0.000    0.000    0.000    0.000    0.000    0.000 
#
# Total GULP energy -144758.115553 kJ/mol
# GULP energy per Si atom -5567.619829 kJ/mol
# Density = 2.145321 g / cm^3
# Si number density = 21.502152 Si / 1000 Ang^3
#
#
#
# Elastic Constant Matrix: (Units=GPa)
#
#
# Indices 1 2 3 4 5 6 
#
# 1 80.5762 32.0642 13.4854 0.0000 0.0000 0.0000
# 2 32.0642 135.6123 44.6520 0.0000 0.0000 0.0000
# 3 13.4854 44.6520 103.7787 0.0000 0.0000 0.0000
# 4 0.0000 0.0000 0.0000 73.9387 0.0000 0.0000
# 5 0.0000 0.0000 0.0000 0.0000 -31.5133 0.0000
# 6 0.0000 0.0000 0.0000 0.0000 0.0000 28.8366
#
#
#
# Elastic Compliance Matrix: (Units=1/GPa)
#
#
# Indices 1 2 3 4 5 6 
#
# 1 0.013718 -0.003095 -0.000451 0.000000 0.000000 0.000000
# 2 -0.003095 0.009289 -0.003595 0.000000 0.000000 0.000000
# 3 -0.000451 -0.003595 0.011241 0.000000 0.000000 0.000000
# 4 0.000000 0.000000 0.000000 0.013525 0.000000 0.000000
# 5 0.000000 0.000000 0.000000 0.000000 -0.031733 0.000000
# 6 0.000000 0.000000 0.000000 0.000000 0.000000 0.034678
#
#
# Mechanical properties :
#
#
# Convention : Reuss Voigt Hill
#
# Bulk Modulus (GPa) = 50.08238 55.59672 52.83955
# Shear Modulus (GPa) = 69.77883 29.57013 49.67448
#
# Velocity S-wave (km/s) = 5.70285 3.71242 4.81168
# Velocity P-wave (km/s) = 8.16735 6.65496 7.44964
#
# Compressibility (1/GPa) = 0.01996710
#
# Stress axis : x y z
#
# Youngs Moduli (GPa) = 72.89874 107.65053 88.95903
#
# Poissons Ratio (x) = 0.33317 0.04011
# Poissons Ratio (y) = 0.22562 0.31978
# Poissons Ratio (z) = 0.03287 0.38697
#
# Static dielectric constant tensor:
#      x y z
#    x 1.866100 0.000000 0.000000 
#    y 0.000000 1.780950 0.000000 
#    z 0.000000 0.000000 1.835690 
# 
# From -- ./inp_files/19767.got.cif
#   From: 2010.05.17/outbox.cif.g08.bks.cpg/sg37_10_cif.got.tgz:19767.got - 2010.06.03 17:53:42.
