data_PCOD9353520
_publ_section_title
;
Structure prediction by ZEFSAII (Michael W. Deem and Ramdas Pophale) SiO2 
 PCOD9353520
Probable space group: C C C 2
;
_chemical_formula_sum "Si O2"
_cell_formula_units_Z 64
_cell_length_a 15.056896
_cell_length_b 15.490918
_cell_length_c 11.040848
_cell_angle_alpha 90.000000
_cell_angle_beta 90.000000
_cell_angle_gamma 90.000000
_cell_volume 2575.224152
_symmetry_space_group_name_H-M "C C C 2"
_symmetry_group_IT_number 37
_symmetry_cell_setting 'orthorhombic'
loop_
_space_group_symop_operation_xyz
x,y,z
-x,-y,z
-x,y,1/2+z
x,-y,1/2+z
1/2+x,1/2+y,z
1/2-x,1/2-y,z
1/2-x,1/2+y,1/2+z
1/2+x,1/2-y,1/2+z
loop_
_atom_site_type_symbol
_atom_site_label
_atom_site_fract_x
_atom_site_fract_y
_atom_site_fract_z
Si Si1 0.593466 0.270499 0.163140
Si Si2 0.914440 0.202232 0.761614
Si Si3 0.397920 0.977350 0.765912
Si Si4 0.598470 0.453996 0.090644
Si Si5 0.679544 0.183212 0.616010
Si Si6 0.653626 0.153343 0.355247
Si Si7 0.447970 0.154768 0.447086
Si Si8 0.892403 0.985780 0.337718
O O1 0.519553 0.310523 0.252971
O O2 0.602750 0.350931 0.071387
O O3 0.660732 0.230634 0.259847
O O4 0.568617 0.186755 0.082027
O O5 0.898899 0.245951 0.630287
O O6 0.899771 0.275429 0.860446
O O7 0.873365 0.111809 0.794127
O O8 0.352153 0.904568 0.681213
O O9 0.409229 0.935462 0.900311
O O10 0.500000 0.000000 0.724450
O O11 0.341615 0.063324 0.784381
O O12 0.500000 0.500000 0.100533
O O13 0.640610 0.462229 0.222704
O O14 0.642018 0.497933 0.973542
O O15 0.750000 0.250000 0.677948
O O16 0.707395 0.162741 0.479559
O O17 0.551198 0.153278 0.407634
O O18 0.000000 0.000000 0.349401
#
# Coordination Sequence:
#
# PCOD9353520 Si02
#       8
#     8   8   8   8   8   8   8   8
#     4  11  18  31  55  92 125 157 201 285 358 405
#     4  10  18  33  54  83 119 160 213 258 334 413
#     4   9  21  39  66 102 129 165 221 296 353 408
#     4  10  19  28  47  77 125 165 201 254 332 394
#     4  11  24  42  66  90 135 183 220 276 352 450
#     4  10  22  33  61  91 125 166 212 283 343 421
#     4   9  18  32  55  91 130 151 200 281 360 401
#     4  10  18  28  46  76 114 164 200 261 316 389
#
# _framework density 24.852205000000001
#
# number of rings (size 3 to 8) (size 9 to 14) (size 15 to 20)
#    0.000    2.000    5.000    0.750    1.750    1.500 
#    0.000    0.000    5.500    3.000    0.000    0.000 
#    0.000    0.000    0.000    0.000    0.000    0.000 
#
# Total GULP energy -178154.065407 kJ/mol
# GULP energy per Si atom -5567.314544 kJ/mol
# Density = 2.479564 g / cm^3
# Si number density = 24.852205 Si / 1000 Ang^3
#
#
#
# Elastic Constant Matrix: (Units=GPa)
#
#
# Indices 1 2 3 4 5 6 
#
# 1 48.5790 29.6089 18.7652 0.0000 0.0000 0.0000
# 2 29.6089 129.8535 21.7106 0.0000 0.0000 0.0000
# 3 18.7652 21.7106 122.9307 0.0000 0.0000 0.0000
# 4 0.0000 0.0000 0.0000 34.1670 0.0000 0.0000
# 5 0.0000 0.0000 0.0000 0.0000 -0.6166 0.0000
# 6 0.0000 0.0000 0.0000 0.0000 0.0000 11.1708
#
#
#
# Elastic Compliance Matrix: (Units=1/GPa)
#
#
# Indices 1 2 3 4 5 6 
#
# 1 0.024858 -0.005187 -0.002879 0.000000 0.000000 0.000000
# 2 -0.005187 0.009018 -0.000801 0.000000 0.000000 0.000000
# 3 -0.002879 -0.000801 0.008715 0.000000 0.000000 0.000000
# 4 0.000000 0.000000 0.000000 0.029268 0.000000 0.000000
# 5 0.000000 0.000000 0.000000 0.000000 -1.621713 0.000000
# 6 0.000000 0.000000 0.000000 0.000000 0.000000 0.089519
#
#
# Mechanical properties :
#
#
# Convention : Reuss Voigt Hill
#
# Bulk Modulus (GPa) = 40.22693 49.05918 44.64305
# Shear Modulus (GPa) = -3.48598 24.36281 10.43842
#
# Velocity S-wave (km/s) = -1.18563 3.13438 2.05166
# Velocity P-wave (km/s) = 3.78778 5.73432 4.85951
#
# Compressibility (1/GPa) = 0.02485897
#
# Stress axis : x y z
#
# Youngs Moduli (GPa) = 40.22796 110.89464 114.73815
#
# Poissons Ratio (x) = 0.57519 0.33028
# Poissons Ratio (y) = 0.20866 0.09188
# Poissons Ratio (z) = 0.11580 0.08881
#
# Static dielectric constant tensor:
#      x y z
#    x 2.342640 0.000000 0.000000 
#    y 0.000000 2.028750 0.000000 
#    z 0.000000 0.000000 2.012980 
# 
# From -- ./inp_files/8351.got.cif
#   From: 2010.05.17/outbox.cif.g08.bks.cpg/sg37_5_cif.got.tgz:8351.got - 2010.06.03 17:53:42.
