data_PCOD9353575
_publ_section_title
;
Structure prediction by ZEFSAII (Michael W. Deem and Ramdas Pophale) SiO2 
 PCOD9353575
Probable space group: C C C 2
;
_chemical_formula_sum "Si O2"
_cell_formula_units_Z 64
_cell_length_a 8.802799
_cell_length_b 16.131423
_cell_length_c 24.146907
_cell_angle_alpha 90.000000
_cell_angle_beta 90.000000
_cell_angle_gamma 90.000000
_cell_volume 3428.901222
_symmetry_space_group_name_H-M "C C C 2"
_symmetry_group_IT_number 37
_symmetry_cell_setting 'orthorhombic'
loop_
_space_group_symop_operation_xyz
x,y,z
-x,-y,z
-x,y,1/2+z
x,-y,1/2+z
1/2+x,1/2+y,z
1/2-x,1/2-y,z
1/2-x,1/2+y,1/2+z
1/2+x,1/2-y,1/2+z
loop_
_atom_site_type_symbol
_atom_site_label
_atom_site_fract_x
_atom_site_fract_y
_atom_site_fract_z
Si Si1 0.818753 0.496501 0.296460
Si Si2 0.191534 0.592964 0.609772
Si Si3 0.185985 0.339994 0.988671
Si Si4 0.304390 0.340837 0.733690
Si Si5 0.338712 0.105720 0.616946
Si Si6 0.896652 0.916561 0.211705
Si Si7 0.820116 0.662941 0.494959
Si Si8 0.184548 0.503420 0.924418
O O1 0.764244 0.406688 0.276263
O O2 0.732345 0.558931 0.255531
O O3 0.776193 0.512145 0.360071
O O4 0.000000 0.500000 0.290135
O O5 0.230243 0.632996 0.550977
O O6 0.185143 0.492611 0.607192
O O7 0.314707 0.612461 0.656176
O O8 0.019507 0.619450 0.624867
O O9 0.250000 0.250000 0.974472
O O10 0.002605 0.335152 0.988336
O O11 0.236848 0.415544 0.949324
O O12 0.250000 0.250000 0.746799
O O13 0.247535 0.365375 0.671808
O O14 0.485345 0.349839 0.733865
O O15 0.288242 0.149336 0.560238
O O16 0.000000 0.000000 0.202390
O O17 0.750000 0.750000 0.476539
O O18 0.765394 0.582449 0.460672
O O19 0.000000 0.500000 0.927923
#
# Coordination Sequence:
#
# PCOD9353575 Si02
#       8
#     8   8   8   8   8   8   8   8
#     4  10  20  39  62  81 105 153 198 230 281 351
#     4  10  18  33  58  84 113 153 190 226 276 346
#     4  10  21  37  56  86 119 150 190 233 279 338
#     4  11  23  37  56  86 118 146 182 239 293 338
#     4  10  18  33  59  84 114 154 187 223 283 349
#     4  10  20  35  56  82 113 145 185 236 281 342
#     4  10  20  37  59  87 116 149 189 234 281 340
#     4   9  19  38  62  81 109 155 195 229 284 339
#
# _framework density 18.664870000000001
#
# number of rings (size 3 to 8) (size 9 to 14) (size 15 to 20)
#    0.000    2.000    3.750    1.125    0.000    3.500 
#    0.000   10.000    0.000    0.000    0.000    0.000 
#    0.000    0.000    0.000    0.000    0.000    0.000 
#
# Total GULP energy -178619.974639 kJ/mol
# GULP energy per Si atom -5581.874207 kJ/mol
# Density = 1.862239 g / cm^3
# Si number density = 18.664870 Si / 1000 Ang^3
#
#
#
# Elastic Constant Matrix: (Units=GPa)
#
#
# Indices 1 2 3 4 5 6 
#
# 1 58.6246 26.8846 41.2857 0.0000 0.0000 0.0000
# 2 26.8846 88.5639 23.9844 0.0000 0.0000 0.0000
# 3 41.2857 23.9844 85.5395 0.0000 0.0000 0.0000
# 4 0.0000 0.0000 0.0000 5.0844 0.0000 0.0000
# 5 0.0000 0.0000 0.0000 0.0000 0.3680 0.0000
# 6 0.0000 0.0000 0.0000 0.0000 0.0000 26.2783
#
#
#
# Elastic Compliance Matrix: (Units=1/GPa)
#
#
# Indices 1 2 3 4 5 6 
#
# 1 0.027906 -0.005220 -0.012005 0.000000 0.000000 0.000000
# 2 -0.005220 0.013196 -0.001180 0.000000 0.000000 0.000000
# 3 -0.012005 -0.001180 0.017816 0.000000 0.000000 0.000000
# 4 0.000000 0.000000 0.000000 0.196680 0.000000 0.000000
# 5 0.000000 0.000000 0.000000 0.000000 2.717616 0.000000
# 6 0.000000 0.000000 0.000000 0.000000 0.000000 0.038054
#
#
# Mechanical properties :
#
#
# Convention : Reuss Voigt Hill
#
# Bulk Modulus (GPa) = 45.23653 46.33751 45.78702
# Shear Modulus (GPa) = 1.63642 15.71770 8.67706
#
# Velocity S-wave (km/s) = 0.93736 2.90505 2.15846
# Velocity P-wave (km/s) = 5.04582 6.01102 5.54944
#
# Compressibility (1/GPa) = 0.02210603
#
# Stress axis : x y z
#
# Youngs Moduli (GPa) = 35.83452 75.78302 56.12987
#
# Poissons Ratio (x) = 0.39559 0.67385
# Poissons Ratio (y) = 0.18706 0.06626
# Poissons Ratio (z) = 0.43020 0.08946
#
# Static dielectric constant tensor:
#      x y z
#    x 1.647850 0.000000 0.000000 
#    y 0.000000 1.646190 0.000000 
#    z 0.000000 0.000000 1.629120 
# 
# From -- ./inp_files/18457.got.cif
#   From: 2010.05.17/outbox.cif.g08.bks.cpg/sg37_10_cif.got.tgz:18457.got - 2010.06.03 17:53:42.
