data_PCOD9353451
_publ_section_title
;
Structure prediction by ZEFSAII (Michael W. Deem and Ramdas Pophale) SiO2 
 PCOD9353451
Probable space group: C C C 2
;
_chemical_formula_sum "Si O2"
_cell_formula_units_Z 60
_cell_length_a 10.547881
_cell_length_b 20.947874
_cell_length_c 12.097320
_cell_angle_alpha 90.000000
_cell_angle_beta 90.000000
_cell_angle_gamma 90.000000
_cell_volume 2672.971593
_symmetry_space_group_name_H-M "C C C 2"
_symmetry_group_IT_number 37
_symmetry_cell_setting 'orthorhombic'
loop_
_space_group_symop_operation_xyz
x,y,z
-x,-y,z
-x,y,1/2+z
x,-y,1/2+z
1/2+x,1/2+y,z
1/2-x,1/2-y,z
1/2-x,1/2+y,1/2+z
1/2+x,1/2-y,1/2+z
loop_
_atom_site_type_symbol
_atom_site_label
_atom_site_fract_x
_atom_site_fract_y
_atom_site_fract_z
Si Si1 0.613780 0.713806 0.671850
Si Si2 0.901302 0.412411 0.053341
Si Si3 0.767422 0.632455 0.234603
Si Si4 0.250000 0.750000 0.564830
Si Si5 0.805104 0.448066 0.534067
Si Si6 0.701183 0.655538 0.887800
Si Si7 0.456745 0.841472 0.265100
Si Si8 0.797634 0.820296 0.448768
O O1 0.750000 0.750000 0.667802
O O2 0.625154 0.665130 0.773977
O O3 0.524972 0.773068 0.703444
O O4 0.602919 0.684229 0.549953
O O5 0.827215 0.476913 0.024058
O O6 0.901674 0.395288 0.183069
O O7 0.050219 0.419879 0.024624
O O8 0.822930 0.354626 0.003508
O O9 0.773488 0.690952 0.147902
O O10 0.756618 0.571183 0.156434
O O11 0.670306 0.644319 0.334349
O O12 0.905363 0.632509 0.292580
O O13 0.335758 0.710184 0.476017
O O14 0.713467 0.412932 0.446985
O O15 0.849281 0.669176 0.855452
O O16 0.750000 0.750000 0.416054
#
# Coordination Sequence:
#
# PCOD9353451 Si02
#       8
#     8   8   8   4   8   8   8   8
#     4   9  16  30  49  69  88 135 171 215 245 286
#     4  10  18  33  48  73 104 143 179 201 243 315
#     4  10  21  31  47  74 106 136 161 211 266 305
#     4  10  18  32  46  68 102 130 158 214 266 300
#     4   9  21  31  47  74 107 143 170 202 254 314
#     4  10  16  32  49  68  97 135 170 207 248 295
#     4  10  17  31  51  72  97 136 176 207 243 306
#     4  11  18  32  50  68 101 137 170 216 255 289
#
# _framework density 22.446926999999999
#
# number of rings (size 3 to 8) (size 9 to 14) (size 15 to 20)
#    0.000    2.133    6.667    0.800    0.000    1.067 
#    0.000    2.667    0.000    0.000    0.000    0.000 
#    0.000   13.867    0.000    0.000    0.000    0.000 
#
# Total GULP energy -167064.545187 kJ/mol
# GULP energy per Si atom -5568.818173 kJ/mol
# Density = 2.239584 g / cm^3
# Si number density = 22.446927 Si / 1000 Ang^3
#
#
#
# Elastic Constant Matrix: (Units=GPa)
#
#
# Indices 1 2 3 4 5 6 
#
# 1 29.5558 -0.9195 22.2990 0.0000 0.0000 0.0000
# 2 -0.9195 75.0302 14.1966 0.0000 0.0000 0.0000
# 3 22.2990 14.1966 115.8505 0.0000 0.0000 0.0000
# 4 0.0000 0.0000 0.0000 19.3260 0.0000 0.0000
# 5 0.0000 0.0000 0.0000 0.0000 9.9055 0.0000
# 6 0.0000 0.0000 0.0000 0.0000 0.0000 18.9884
#
#
#
# Elastic Compliance Matrix: (Units=1/GPa)
#
#
# Indices 1 2 3 4 5 6 
#
# 1 0.039870 0.001987 -0.007918 0.000000 0.000000 0.000000
# 2 0.001987 0.013743 -0.002067 0.000000 0.000000 0.000000
# 3 -0.007918 -0.002067 0.010409 0.000000 0.000000 0.000000
# 4 0.000000 0.000000 0.000000 0.051744 0.000000 0.000000
# 5 0.000000 0.000000 0.000000 0.000000 0.100954 0.000000
# 6 0.000000 0.000000 0.000000 0.000000 0.000000 0.052664
#
#
# Mechanical properties :
#
#
# Convention : Reuss Voigt Hill
#
# Bulk Modulus (GPa) = 20.82152 32.39875 26.61014
# Shear Modulus (GPa) = 16.58991 21.96800 19.27895
#
# Velocity S-wave (km/s) = 2.72154 3.13175 2.93382
# Velocity P-wave (km/s) = 4.37855 5.24805 4.83289
#
# Compressibility (1/GPa) = 0.04802722
#
# Stress axis : x y z
#
# Youngs Moduli (GPa) = 25.08167 72.76252 96.07032
#
# Poissons Ratio (x) = -0.14456 0.76065
# Poissons Ratio (y) = -0.04983 0.19853
# Poissons Ratio (z) = 0.19859 0.15037
#
# Static dielectric constant tensor:
#      x y z
#    x 1.854790 0.000000 0.000000 
#    y 0.000000 1.816850 0.000000 
#    z 0.000000 0.000000 1.925640 
# 
# From -- ./inp_files/7344.got.cif
#   From: 2010.05.17/outbox.cif.g08.bks.cpg/sg37_4_cif.got.tgz:7344.got - 2010.06.03 17:53:42.
