data_PCOD9353469
_publ_section_title
;
Structure prediction by ZEFSAII (Michael W. Deem and Ramdas Pophale) SiO2 
 PCOD9353469
Probable space group: C C C 2
;
_chemical_formula_sum "Si O2"
_cell_formula_units_Z 44
_cell_length_a 9.216496
_cell_length_b 15.668950
_cell_length_c 16.437867
_cell_angle_alpha 90.000000
_cell_angle_beta 90.000000
_cell_angle_gamma 90.000000
_cell_volume 2373.838646
_symmetry_space_group_name_H-M "C C C 2"
_symmetry_group_IT_number 37
_symmetry_cell_setting 'orthorhombic'
loop_
_space_group_symop_operation_xyz
x,y,z
-x,-y,z
-x,y,1/2+z
x,-y,1/2+z
1/2+x,1/2+y,z
1/2-x,1/2-y,z
1/2-x,1/2+y,1/2+z
1/2+x,1/2-y,1/2+z
loop_
_atom_site_type_symbol
_atom_site_label
_atom_site_fract_x
_atom_site_fract_y
_atom_site_fract_z
Si Si1 0.500000 0.500000 0.767441
Si Si2 0.122264 0.841698 0.853048
Si Si3 0.470598 0.865006 0.611655
Si Si4 0.000000 0.500000 0.833555
Si Si5 0.930638 0.662842 0.428816
Si Si6 0.250000 0.750000 0.702590
Si Si7 0.699598 0.983794 0.685635
O O1 0.525057 0.421411 0.829656
O O2 0.367392 0.479306 0.706087
O O3 0.046701 0.755517 0.887181
O O4 0.258611 0.856236 0.913819
O O5 0.191530 0.820011 0.765182
O O6 0.521249 0.841031 0.521827
O O7 0.382429 0.787566 0.651436
O O8 0.613439 0.898094 0.659862
O O9 0.357344 0.945027 0.621187
O O10 0.013503 0.414407 0.884958
O O11 0.866783 0.489034 0.772499
#
# Coordination Sequence:
#
# PCOD9353469 Si02
#       7
#     4   8   8   4   8   4   8
#     4  12  20  42  66  96 132 166 232 286 314 392
#     4  10  21  41  63  92 127 176 218 272 329 396
#     4  10  20  39  64  94 124 171 216 269 342 405
#     4  10  16  38  64  90 118 176 222 264 312 414
#     4  10  20  39  65  88 131 171 212 272 332 400
#     4  10  18  42  64  88 126 172 216 284 316 416
#     4  10  20  37  65  95 120 172 227 261 332 406
#
# _framework density 18.535378999999999
#
# number of rings (size 3 to 8) (size 9 to 14) (size 15 to 20)
#    0.000    2.182    3.636    4.364    0.000    0.000 
#    9.818    2.727    0.000    0.000    0.000    0.000 
#    0.000    0.000    0.000    0.000    0.000    0.000 
#
# Total GULP energy -122492.447047 kJ/mol
# GULP energy per Si atom -5567.838502 kJ/mol
# Density = 1.849319 g / cm^3
# Si number density = 18.535379 Si / 1000 Ang^3
#
#
#
# Elastic Constant Matrix: (Units=GPa)
#
#
# Indices 1 2 3 4 5 6 
#
# 1 115.2177 52.3050 56.6373 0.0000 0.0000 0.0000
# 2 52.3050 115.7277 56.5482 0.0000 0.0000 0.0000
# 3 56.6373 56.5482 140.0166 0.0000 0.0000 0.0000
# 4 0.0000 0.0000 0.0000 16.2592 0.0000 0.0000
# 5 0.0000 0.0000 0.0000 0.0000 31.4409 0.0000
# 6 0.0000 0.0000 0.0000 0.0000 0.0000 31.4221
#
#
#
# Elastic Compliance Matrix: (Units=1/GPa)
#
#
# Indices 1 2 3 4 5 6 
#
# 1 0.012051 -0.003818 -0.003333 0.000000 0.000000 0.000000
# 2 -0.003818 0.011975 -0.003292 0.000000 0.000000 0.000000
# 3 -0.003333 -0.003292 0.009820 0.000000 0.000000 0.000000
# 4 0.000000 0.000000 0.000000 0.061504 0.000000 0.000000
# 5 0.000000 0.000000 0.000000 0.000000 0.031806 0.000000
# 6 0.000000 0.000000 0.000000 0.000000 0.000000 0.031825
#
#
# Mechanical properties :
#
#
# Convention : Reuss Voigt Hill
#
# Bulk Modulus (GPa) = 77.15926 77.99368 77.57647
# Shear Modulus (GPa) = 27.14666 29.52254 28.33460
#
# Velocity S-wave (km/s) = 3.83114 3.99528 3.91407
# Velocity P-wave (km/s) = 7.82871 7.96572 7.89751
#
# Compressibility (1/GPa) = 0.01296021
#
# Stress axis : x y z
#
# Youngs Moduli (GPa) = 82.98283 83.50604 101.83765
#
# Poissons Ratio (x) = 0.31884 0.33938
# Poissons Ratio (y) = 0.31684 0.33524
# Poissons Ratio (z) = 0.27654 0.27490
#
# Static dielectric constant tensor:
#      x y z
#    x 1.702370 0.000000 0.000000 
#    y 0.000000 1.743970 0.000000 
#    z 0.000000 0.000000 1.616470 
# 
# From -- ./inp_files/10546.got.cif
#   From: 2010.05.17/outbox.cif.g08.bks.cpg/sg37_6_cif.got.tgz:10546.got - 2010.06.03 17:53:42.
