data_PCOD9353098
_publ_section_title
;
Structure prediction by ZEFSAII (Michael W. Deem and Ramdas Pophale) SiO2 
 PCOD9353098
Probable space group: C M C 21
;
_chemical_formula_sum "Si O2"
_cell_formula_units_Z 48
_cell_length_a 32.956672
_cell_length_b 7.895913
_cell_length_c 7.679282
_cell_angle_alpha 90.000000
_cell_angle_beta 90.000000
_cell_angle_gamma 90.000000
_cell_volume 1998.325914
_symmetry_space_group_name_H-M "C M C 21"
_symmetry_group_IT_number 36
_symmetry_cell_setting 'orthorhombic'
loop_
_space_group_symop_operation_xyz
x,y,z
-x,-y,1/2+z
x,-y,1/2+z
-x,y,z
1/2+x,1/2+y,z
1/2-x,1/2-y,1/2+z
1/2+x,1/2-y,1/2+z
1/2-x,1/2+y,z
loop_
_atom_site_type_symbol
_atom_site_label
_atom_site_fract_x
_atom_site_fract_y
_atom_site_fract_z
Si Si1 0.544285 0.380097 0.301980
Si Si2 0.128871 0.267532 0.362271
Si Si3 0.790049 0.572383 0.001914
Si Si4 0.543640 0.762032 0.409453
Si Si5 0.290012 0.270727 0.363616
Si Si6 0.872729 0.903037 0.487419
O O1 0.500000 0.338428 0.383549
O O2 0.545450 0.586611 0.297832
O O3 0.585517 0.336364 0.402503
O O4 0.543928 0.300702 0.110050
O O5 0.167986 0.374739 0.410083
O O6 0.085266 0.360310 0.372864
O O7 0.125117 0.107048 0.493240
O O8 0.132500 0.183912 0.173124
O O9 0.788173 0.672184 0.182203
O O10 0.749399 0.617319 0.895815
O O11 0.790329 0.371160 0.013971
O O12 0.500000 0.845840 0.374770
O O13 0.332173 0.367806 0.378021
#
# Coordination Sequence:
#
# PCOD9353098 Si02
#       6
#     8   8   8   8   8   8
#     4   9  16  27  46  75 110 147 187 232 279 326
#     4  11  21  35  56  84 116 152 191 233 281 331
#     4  12  25  43  63  86 114 146 185 229 279 334
#     4   9  16  27  46  75 110 147 187 232 279 326
#     4  12  25  43  63  86 114 146 185 229 279 334
#     4  11  21  35  56  84 116 152 191 233 281 331
#
# _framework density 24.020106999999999
#
# number of rings (size 3 to 8) (size 9 to 14) (size 15 to 20)
#    0.000    1.333    0.000   10.000    0.000    2.000 
#    0.000    0.000    0.000    1.000    0.000    0.000 
#    0.000    0.000    0.000    0.000    0.000    0.000 
#
# Total GULP energy -134279.769948 kJ/mol
# GULP energy per Si atom -5594.990414 kJ/mol
# Density = 2.396544 g / cm^3
# Si number density = 24.020107 Si / 1000 Ang^3
#
#
#
# Elastic Constant Matrix: (Units=GPa)
#
#
# Indices 1 2 3 4 5 6 
#
# 1 259.8268 35.7642 33.3247 0.0000 0.0000 0.0000
# 2 35.7642 27.8963 -15.8903 0.0000 0.0000 0.0000
# 3 33.3247 -15.8903 64.8275 0.0000 0.0000 0.0000
# 4 0.0000 0.0000 0.0000 20.9682 0.0000 0.0000
# 5 0.0000 0.0000 0.0000 0.0000 35.8205 0.0000
# 6 0.0000 0.0000 0.0000 0.0000 0.0000 20.8998
#
#
#
# Elastic Compliance Matrix: (Units=1/GPa)
#
#
# Indices 1 2 3 4 5 6 
#
# 1 0.006162 -0.011279 -0.005932 0.000000 0.000000 0.000000
# 2 -0.011279 0.062310 0.021072 0.000000 0.000000 0.000000
# 3 -0.005932 0.021072 0.023640 0.000000 0.000000 0.000000
# 4 0.000000 0.000000 0.000000 0.047691 0.000000 0.000000
# 5 0.000000 0.000000 0.000000 0.000000 0.027917 0.000000
# 6 0.000000 0.000000 0.000000 0.000000 0.000000 0.047847
#
#
# Mechanical properties :
#
#
# Convention : Reuss Voigt Hill
#
# Bulk Modulus (GPa) = 10.01681 50.99420 30.50550
# Shear Modulus (GPa) = 20.73603 35.49452 28.11527
#
# Velocity S-wave (km/s) = 2.94135 3.84826 3.42495
# Velocity P-wave (km/s) = 3.96416 6.40479 5.32616
#
# Compressibility (1/GPa) = 0.09983223
#
# Stress axis : x y z
#
# Youngs Moduli (GPa) = 162.28060 16.04866 42.30095
#
# Poissons Ratio (x) = 0.18102 0.25095
# Poissons Ratio (y) = 1.83043 -0.89135
# Poissons Ratio (z) = 0.96272 -0.33817
#
# Static dielectric constant tensor:
#      x y z
#    x 1.982320 0.000000 0.000000 
#    y 0.000000 1.875440 0.000000 
#    z 0.000000 0.000000 1.950190 
# 
# From -- ./inp_files/5985.got.cif
#   From: 2010.05.17/outbox.cif.g08.bks.cpg/sg36_3_cif.got.tgz:5985.got - 2010.06.03 17:41:39.
