data_PCOD9353489
_publ_section_title
;
Structure prediction by ZEFSAII (Michael W. Deem and Ramdas Pophale) SiO2 
 PCOD9353489
Probable space group: C C C 2
;
_chemical_formula_sum "Si O2"
_cell_formula_units_Z 28
_cell_length_a 6.909853
_cell_length_b 16.748788
_cell_length_c 9.390914
_cell_angle_alpha 90.000000
_cell_angle_beta 90.000000
_cell_angle_gamma 90.000000
_cell_volume 1086.826094
_symmetry_space_group_name_H-M "C C C 2"
_symmetry_group_IT_number 37
_symmetry_cell_setting 'orthorhombic'
loop_
_space_group_symop_operation_xyz
x,y,z
-x,-y,z
-x,y,1/2+z
x,-y,1/2+z
1/2+x,1/2+y,z
1/2-x,1/2-y,z
1/2-x,1/2+y,1/2+z
1/2+x,1/2-y,1/2+z
loop_
_atom_site_type_symbol
_atom_site_label
_atom_site_fract_x
_atom_site_fract_y
_atom_site_fract_z
Si Si1 0.768699 0.481911 0.180850
Si Si2 0.750000 0.750000 0.817704
Si Si3 0.358178 0.826291 0.041993
Si Si4 0.776671 0.105696 0.467650
O O1 0.736768 0.406775 0.074566
O O2 0.710733 0.456665 0.338515
O O3 0.000000 0.500000 0.183112
O O4 0.677628 0.561197 0.113459
O O5 0.609872 0.793984 0.704060
O O6 0.868439 0.812556 0.912972
O O7 0.250000 0.750000 0.974049
O O8 0.555475 0.860554 0.978957
#
# Coordination Sequence:
#
# PCOD9353489 Si02
#       4
#     8   4   8   8
#     4   9  16  27  52  80 104 132 181 233 269 310
#     4   8  18  32  52  80 114 146 176 230 280 336
#     4   8  16  30  50  79 110 139 174 230 278 327
#     4  10  17  31  56  82 104 140 182 232 277 322
#
# _framework density 25.763092
#
# number of rings (size 3 to 8) (size 9 to 14) (size 15 to 20)
#    0.857    2.286    0.000    2.571    0.000    0.000 
#    0.000    0.000   50.286    1.714    7.429    0.000 
#    0.000    0.000    0.000    0.000    0.000    0.000 
#
# Total GULP energy -78040.875757 kJ/mol
# GULP energy per Si atom -5574.348268 kJ/mol
# Density = 2.570445 g / cm^3
# Si number density = 25.763092 Si / 1000 Ang^3
#
#
#
# Elastic Constant Matrix: (Units=GPa)
#
#
# Indices 1 2 3 4 5 6 
#
# 1 107.5007 24.9153 15.9974 0.0000 0.0000 0.0000
# 2 24.9153 149.9806 67.4224 0.0000 0.0000 0.0000
# 3 15.9974 67.4224 99.0998 0.0000 0.0000 0.0000
# 4 0.0000 0.0000 0.0000 -7.3765 0.0000 0.0000
# 5 0.0000 0.0000 0.0000 0.0000 7.7685 0.0000
# 6 0.0000 0.0000 0.0000 0.0000 0.0000 29.2871
#
#
#
# Elastic Compliance Matrix: (Units=1/GPa)
#
#
# Indices 1 2 3 4 5 6 
#
# 1 0.009706 -0.001308 -0.000677 0.000000 0.000000 0.000000
# 2 -0.001308 0.009782 -0.006444 0.000000 0.000000 0.000000
# 3 -0.000677 -0.006444 0.014584 0.000000 0.000000 0.000000
# 4 0.000000 0.000000 0.000000 -0.135565 0.000000 0.000000
# 5 0.000000 0.000000 0.000000 0.000000 0.128725 0.000000
# 6 0.000000 0.000000 0.000000 0.000000 0.000000 0.034145
#
#
# Mechanical properties :
#
#
# Convention : Reuss Voigt Hill
#
# Bulk Modulus (GPa) = 58.09086 63.69458 60.89272
# Shear Modulus (GPa) = 59.54379 22.48555 41.01467
#
# Velocity S-wave (km/s) = 4.81272 2.95749 3.99431
# Velocity P-wave (km/s) = 7.31300 6.03649 6.70519
#
# Compressibility (1/GPa) = 0.01721441
#
# Stress axis : x y z
#
# Youngs Moduli (GPa) = 103.02721 102.23339 68.56809
#
# Poissons Ratio (x) = 0.13374 0.04641
# Poissons Ratio (y) = 0.13478 0.44183
# Poissons Ratio (z) = 0.06973 0.65876
#
# Static dielectric constant tensor:
#      x y z
#    x 2.088990 0.000000 0.000000 
#    y 0.000000 2.157130 0.000000 
#    z 0.000000 0.000000 1.979760 
# 
# From -- ./inp_files/2012.got.cif
#   From: 2010.05.17/outbox.cif.g08.bks.cpg/sg37_2_cif.got.tgz:2012.got - 2010.06.03 17:53:42.
