data_PCOD9353320
_publ_section_title
;
Structure prediction by ZEFSAII (Michael W. Deem and Ramdas Pophale) SiO2 
 PCOD9353320
Probable space group: C M C 21
;
_chemical_formula_sum "Si O2"
_cell_formula_units_Z 32
_cell_length_a 9.000000
_cell_length_b 21.000000
_cell_length_c 18.000000
_cell_angle_alpha 90.000000
_cell_angle_beta 90.000000
_cell_angle_gamma 90.000000
_cell_volume 3402.000000
_symmetry_space_group_name_H-M "C M C 21"
_symmetry_group_IT_number 36
_symmetry_cell_setting 'orthorhombic'
loop_
_space_group_symop_operation_xyz
x,y,z
-x,-y,1/2+z
x,-y,1/2+z
-x,y,z
1/2+x,1/2+y,z
1/2-x,1/2-y,1/2+z
1/2+x,1/2-y,1/2+z
1/2-x,1/2+y,z
loop_
_atom_site_type_symbol
_atom_site_label
_atom_site_fract_x
_atom_site_fract_y
_atom_site_fract_z
Si Si1 0.829560 0.900058 0.363740
Si Si2 0.324701 0.940351 0.016913
Si Si3 0.675553 0.302722 0.030960
Si Si4 0.325465 0.817659 0.630846
Si Si5 0.171579 0.071896 0.040098
Si Si6 0.174525 0.848208 0.781793
Si Si7 0.173138 0.471175 0.840317
Si Si8 0.678527 0.743868 0.886040
O O1 0.832287 0.914996 0.451818
O O2 0.777456 0.826754 0.357619
O O3 0.000000 0.904199 0.336229
O O4 0.731259 0.956765 0.330242
O O5 0.500000 0.940972 0.035498
O O6 0.253218 0.871826 0.036413
O O7 0.313016 0.951292 0.927516
O O8 0.240708 0.001488 0.051791
O O9 0.500000 0.312619 0.016654
O O10 0.748700 0.262662 0.964084
O O11 0.690234 0.253999 0.099580
O O12 0.500000 0.826873 0.649590
O O13 0.273625 0.872529 0.573761
O O14 0.217508 0.828120 0.699489
O O15 0.000000 0.075078 0.066919
O O16 0.230109 0.919862 0.796336
O O17 0.267025 0.799841 0.832825
O O18 0.000000 0.843085 0.797356
O O19 0.000000 0.466342 0.820188
O O20 0.500000 0.743554 0.893158
#
# Coordination Sequence:
#
# PCOD9353320 Si02
#       8
#     8   8   8   8   8   8   8   8
#     4   9  19  34  57  87 118 150 189 240 291 345
#     4  10  20  34  57  87 119 153 192 243 293 342
#     4  11  22  36  59  89 119 154 197 248 296 351
#     4  11  24  41  60  85 120 158 199 244 299 359
#     4  10  19  35  58  86 118 151 193 241 291 349
#     4  12  25  40  60  85 118 159 202 244 297 358
#     4  10  20  35  57  85 117 152 192 241 292 344
#     4  11  21  37  60  88 121 155 194 243 297 352
#
# _framework density 9.4062319999999993
#
# number of rings (size 3 to 8) (size 9 to 14) (size 15 to 20)
#    0.000    1.500    2.500    3.375    0.000    4.000 
#    0.000    1.250    0.000    4.500    0.000    0.000 
#    0.000    0.000    0.000    0.000    0.000    0.000 
#
# Total GULP energy -178657.340499 kJ/mol
# GULP energy per Si atom -5583.041891 kJ/mol
# Density = 0.938482 g / cm^3
# Si number density = 9.406232 Si / 1000 Ang^3
#
#
#
# Elastic Constant Matrix: (Units=GPa)
#
#
# Indices 1 2 3 4 5 6 
#
# 1 54.1351 -18.0535 -26.5237 0.0000 0.0000 0.0000
# 2 -18.0535 31.3836 -47.7558 0.0000 0.0000 0.0000
# 3 -26.5237 -47.7558 -4.6430 0.0000 0.0000 0.0000
# 4 0.0000 0.0000 0.0000 -3.2105 0.0000 0.0000
# 5 0.0000 0.0000 0.0000 0.0000 22.8009 0.0000
# 6 0.0000 0.0000 0.0000 0.0000 0.0000 38.3178
#
#
#
# Elastic Compliance Matrix: (Units=1/GPa)
#
#
# Indices 1 2 3 4 5 6 
#
# 1 0.012276 -0.005984 -0.008574 0.000000 0.000000 0.000000
# 2 -0.005984 0.004831 -0.015503 0.000000 0.000000 0.000000
# 3 -0.008574 -0.015503 -0.006947 0.000000 0.000000 0.000000
# 4 0.000000 0.000000 0.000000 -0.311479 0.000000 0.000000
# 5 0.000000 0.000000 0.000000 0.000000 0.043858 0.000000
# 6 0.000000 0.000000 0.000000 0.000000 0.000000 0.026098
#
#
# Mechanical properties :
#
#
# Convention : Reuss Voigt Hill
#
# Bulk Modulus (GPa) = -20.01547 -11.53225 -15.77386
# Shear Modulus (GPa) = -26.61052 23.12889 -1.74082
#
# Velocity S-wave (km/s) = -3.76508 3.51015 -0.96300
# Velocity P-wave (km/s) = 5.43725 3.20699 3.10475
#
# Compressibility (1/GPa) = -0.04996136
#
# Stress axis : x y z
#
# Youngs Moduli (GPa) = 81.46060 206.99478 -143.95246
#
# Poissons Ratio (x) = 1.23876 -1.23419
# Poissons Ratio (y) = 0.48750 -2.23165
# Poissons Ratio (z) = 0.69841 3.20898
#
# Static dielectric constant tensor:
#      x y z
#    x 1.631100 0.000000 0.000000 
#    y 0.000000 1.655920 0.000000 
#    z 0.000000 0.000000 1.704300 
# 
# From -- ./inp_files/13889.got.cif
#   From: 2010.05.17/outbox.ucp.g08.bks.cvg/sg36_7_cif.got.tgz:13889.got - 2010.06.11 10:37:26.
