data_PCOD9353394
_publ_section_title
;
Structure prediction by ZEFSAII (Michael W. Deem and Ramdas Pophale) SiO2 
 PCOD9353394
Probable space group: C M C 21
;
_chemical_formula_sum "Si O2"
_cell_formula_units_Z 28
_cell_length_a 15.000000
_cell_length_b 12.000000
_cell_length_c 15.000000
_cell_angle_alpha 90.000000
_cell_angle_beta 90.000000
_cell_angle_gamma 90.000000
_cell_volume 2700.000000
_symmetry_space_group_name_H-M "C M C 21"
_symmetry_group_IT_number 36
_symmetry_cell_setting 'orthorhombic'
loop_
_space_group_symop_operation_xyz
x,y,z
-x,-y,1/2+z
x,-y,1/2+z
-x,y,z
1/2+x,1/2+y,z
1/2-x,1/2-y,1/2+z
1/2+x,1/2-y,1/2+z
1/2-x,1/2+y,z
loop_
_atom_site_type_symbol
_atom_site_label
_atom_site_fract_x
_atom_site_fract_y
_atom_site_fract_z
Si Si1 0.793254 0.307586 0.941850
Si Si2 0.300960 0.474175 0.234021
Si Si3 0.400370 0.997068 0.722666
Si Si4 0.102387 0.490866 0.515273
Si Si5 0.395223 0.262208 0.268629
Si Si6 0.207672 0.896581 0.548804
Si Si7 0.890059 0.936977 0.914677
O O1 0.831929 0.243361 0.855897
O O2 0.688820 0.343213 0.932561
O O3 0.860498 0.412041 0.951777
O O4 0.809428 0.232090 0.028810
O O5 0.195481 0.461070 0.260238
O O6 0.348303 0.357206 0.209189
O O7 0.300710 0.557057 0.149067
O O8 0.360161 0.520420 0.316184
O O9 0.500000 0.027718 0.759785
O O10 0.401203 0.029933 0.618520
O O11 0.394935 0.861955 0.727877
O O12 0.188922 0.410631 0.516798
O O13 0.000000 0.455406 0.493162
O O14 0.500000 0.289101 0.287318
O O15 0.140595 0.969663 0.487065
O O16 0.000000 0.916161 0.918898
#
# Coordination Sequence:
#
# PCOD9353394 Si02
#       7
#     8   8   8   8   8   8   8
#     4  11  22  42  64  92 128 173 213 270 326 396
#     4  11  22  41  67  97 132 169 219 276 328 391
#     4   9  20  39  63  91 125 167 215 264 322 393
#     4   9  20  39  63  92 122 158 210 265 319 383
#     4  11  22  39  67  92 123 174 219 256 321 402
#     4  10  24  41  66  92 132 172 214 267 333 397
#     4  11  24  43  64  96 134 169 220 280 331 392
#
# _framework density 10.370369999999999
#
# number of rings (size 3 to 8) (size 9 to 14) (size 15 to 20)
#    0.000    1.714    2.857    0.857    0.000    9.143 
#    0.000    3.571    0.000    0.000    0.000    0.000 
#    0.000    0.000    0.000    0.000    0.000    0.000 
#
# Total GULP energy -156059.148347 kJ/mol
# GULP energy per Si atom -5573.541012 kJ/mol
# Density = 1.034677 g / cm^3
# Si number density = 10.370370 Si / 1000 Ang^3
#
#
#
# Elastic Constant Matrix: (Units=GPa)
#
#
# Indices 1 2 3 4 5 6 
#
# 1 205.1620 27.8370 17.9233 0.0000 0.0000 0.0000
# 2 27.8370 42.0726 9.4787 0.0000 0.0000 0.0000
# 3 17.9233 9.4787 73.8302 0.0000 0.0000 0.0000
# 4 0.0000 0.0000 0.0000 35.0077 0.0000 0.0000
# 5 0.0000 0.0000 0.0000 0.0000 35.8043 0.0000
# 6 0.0000 0.0000 0.0000 0.0000 0.0000 29.9397
#
#
#
# Elastic Compliance Matrix: (Units=1/GPa)
#
#
# Indices 1 2 3 4 5 6 
#
# 1 0.005410 -0.003381 -0.000879 0.000000 0.000000 0.000000
# 2 -0.003381 0.026590 -0.002593 0.000000 0.000000 0.000000
# 3 -0.000879 -0.002593 0.014091 0.000000 0.000000 0.000000
# 4 0.000000 0.000000 0.000000 0.028565 0.000000 0.000000
# 5 0.000000 0.000000 0.000000 0.000000 0.027930 0.000000
# 6 0.000000 0.000000 0.000000 0.000000 0.000000 0.033400
#
#
# Mechanical properties :
#
#
# Convention : Reuss Voigt Hill
#
# Bulk Modulus (GPa) = 30.87963 47.94919 39.41441
# Shear Modulus (GPa) = 31.15517 37.87204 34.51361
#
# Velocity S-wave (km/s) = 3.87993 4.27778 4.08370
# Velocity P-wave (km/s) = 5.91545 6.89694 6.42496
#
# Compressibility (1/GPa) = 0.03238380
#
# Stress axis : x y z
#
# Youngs Moduli (GPa) = 184.85028 37.60847 70.96768
#
# Poissons Ratio (x) = 0.12716 0.06239
# Poissons Ratio (y) = 0.62503 0.18401
# Poissons Ratio (z) = 0.16252 0.09751
#
# Static dielectric constant tensor:
#      x y z
#    x 1.747520 0.000000 0.000000 
#    y 0.000000 1.791500 0.000000 
#    z 0.000000 0.000000 1.762310 
# 
# From -- ./inp_files/12146.got.cif
#   From: 2010.05.17/outbox.ucp.g08.bks.cvg/sg36_7_cif.got.tgz:12146.got - 2010.06.11 10:37:26.
