data_PCOD9353596
_publ_section_title
;
Structure prediction by ZEFSAII (Michael W. Deem and Ramdas Pophale) SiO2 
 PCOD9353596
Probable space group: C C C 2
;
_chemical_formula_sum "Si O2"
_cell_formula_units_Z 40
_cell_length_a 10.849196
_cell_length_b 11.449895
_cell_length_c 14.967695
_cell_angle_alpha 90.000000
_cell_angle_beta 90.000000
_cell_angle_gamma 90.000000
_cell_volume 1859.319329
_symmetry_space_group_name_H-M "C C C 2"
_symmetry_group_IT_number 37
_symmetry_cell_setting 'orthorhombic'
loop_
_space_group_symop_operation_xyz
x,y,z
-x,-y,z
-x,y,1/2+z
x,-y,1/2+z
1/2+x,1/2+y,z
1/2-x,1/2-y,z
1/2-x,1/2+y,1/2+z
1/2+x,1/2-y,1/2+z
loop_
_atom_site_type_symbol
_atom_site_label
_atom_site_fract_x
_atom_site_fract_y
_atom_site_fract_z
Si Si1 0.975956 0.720208 0.074030
Si Si2 0.079095 0.879665 0.407320
Si Si3 0.000000 0.500000 0.470080
Si Si4 0.250000 0.750000 0.027589
Si Si5 0.738169 0.939217 0.381292
Si Si6 0.566568 0.374676 0.740092
O O1 0.126229 0.719436 0.080918
O O2 0.924181 0.781783 0.161726
O O3 0.939114 0.592674 0.038355
O O4 0.936819 0.802950 0.992887
O O5 0.023039 0.825294 0.317702
O O6 0.215817 0.928353 0.393834
O O7 0.000000 0.000000 0.416134
O O8 0.905286 0.563496 0.403590
O O9 0.213904 0.855385 0.960911
O O10 0.802698 0.898926 0.289522
O O11 0.500000 0.500000 0.713337
#
# Coordination Sequence:
#
# PCOD9353596 Si02
#       6
#     8   8   4   4   8   8
#     4  11  20  38  66  94 133 174 225 275 347 401
#     4   9  17  36  66  93 117 168 226 276 318 395
#     4  10  24  38  64 100 136 186 206 288 370 404
#     4  10  18  34  66  86 128 172 204 280 344 400
#     4   9  19  39  62  95 127 171 224 272 345 402
#     4   9  19  36  68 101 117 173 237 277 320 401
#
# _framework density 21.513249999999999
#
# number of rings (size 3 to 8) (size 9 to 14) (size 15 to 20)
#    0.000    2.800    4.000    0.600    0.000    0.800 
#    0.000    7.000    4.400    0.000    0.000    0.000 
#    0.000    0.000    0.000    0.000    0.000    0.000 
#
# Total GULP energy -111420.065581 kJ/mol
# GULP energy per Si atom -5571.003279 kJ/mol
# Density = 2.146429 g / cm^3
# Si number density = 21.513250 Si / 1000 Ang^3
#
#
#
# Elastic Constant Matrix: (Units=GPa)
#
#
# Indices 1 2 3 4 5 6 
#
# 1 45.7152 9.4497 24.4014 0.0000 0.0000 0.0000
# 2 9.4497 64.3762 59.1550 0.0000 0.0000 0.0000
# 3 24.4014 59.1550 126.0050 0.0000 0.0000 0.0000
# 4 0.0000 0.0000 0.0000 -24.3340 0.0000 0.0000
# 5 0.0000 0.0000 0.0000 0.0000 23.1916 0.0000
# 6 0.0000 0.0000 0.0000 0.0000 0.0000 20.6513
#
#
#
# Elastic Compliance Matrix: (Units=1/GPa)
#
#
# Indices 1 2 3 4 5 6 
#
# 1 0.024462 0.001340 -0.005366 0.000000 0.000000 0.000000
# 2 0.001340 0.027392 -0.013119 0.000000 0.000000 0.000000
# 3 -0.005366 -0.013119 0.015134 0.000000 0.000000 0.000000
# 4 0.000000 0.000000 0.000000 -0.041095 0.000000 0.000000
# 5 0.000000 0.000000 0.000000 0.000000 0.043119 0.000000
# 6 0.000000 0.000000 0.000000 0.000000 0.000000 0.048423
#
#
# Mechanical properties :
#
#
# Convention : Reuss Voigt Hill
#
# Bulk Modulus (GPa) = 30.58286 46.90098 38.74192
# Shear Modulus (GPa) = 30.74542 13.44114 22.09328
#
# Velocity S-wave (km/s) = 3.78450 2.50228 3.20810
# Velocity P-wave (km/s) = 5.77436 5.49517 5.63649
#
# Compressibility (1/GPa) = 0.03269805
#
# Stress axis : x y z
#
# Youngs Moduli (GPa) = 40.87987 36.50676 66.07425
#
# Poissons Ratio (x) = -0.04894 0.35459
# Poissons Ratio (y) = -0.05480 0.86685
# Poissons Ratio (z) = 0.21938 0.47894
#
# Static dielectric constant tensor:
#      x y z
#    x 1.927540 0.000000 0.000000 
#    y 0.000000 1.827250 0.000000 
#    z 0.000000 0.000000 1.746720 
# 
# From -- ./inp_files/11349.got.cif
#   From: 2010.05.17/outbox.cif.g08.bks.cpg/sg37_6_cif.got.tgz:11349.got - 2010.06.03 17:53:42.
