data_PCOD9353059
_publ_section_title
;
Structure prediction by ZEFSAII (Michael W. Deem and Ramdas Pophale) SiO2 
 PCOD9353059
Probable space group: C M C 21
;
_chemical_formula_sum "Si O2"
_cell_formula_units_Z 32
_cell_length_a 18.177789
_cell_length_b 7.769770
_cell_length_c 8.554627
_cell_angle_alpha 90.000000
_cell_angle_beta 90.000000
_cell_angle_gamma 90.000000
_cell_volume 1208.231904
_symmetry_space_group_name_H-M "C M C 21"
_symmetry_group_IT_number 36
_symmetry_cell_setting 'orthorhombic'
loop_
_space_group_symop_operation_xyz
x,y,z
-x,-y,1/2+z
x,-y,1/2+z
-x,y,z
1/2+x,1/2+y,z
1/2-x,1/2-y,1/2+z
1/2+x,1/2-y,1/2+z
1/2-x,1/2+y,z
loop_
_atom_site_type_symbol
_atom_site_label
_atom_site_fract_x
_atom_site_fract_y
_atom_site_fract_z
Si Si1 0.000000 0.417559 0.673370
Si Si2 0.828358 0.434642 0.654209
Si Si3 0.146153 0.813752 0.714138
Si Si4 0.000000 0.722854 0.890796
Si Si5 0.202085 0.867550 0.399340
O O1 0.915523 0.459212 0.617368
O O2 0.000000 0.515358 0.840420
O O3 0.000000 0.237391 0.576079
O O4 0.810942 0.631047 0.704208
O O5 0.776033 0.376289 0.510389
O O6 0.691495 0.458376 0.803549
O O7 0.139621 0.869390 0.535571
O O8 0.071397 0.792133 0.805851
O O9 0.321807 0.792934 0.790411
#
# Coordination Sequence:
#
# PCOD9353059 Si02
#       5
#     4   8   8   4   8
#     4  10  26  49  85 118 169 222 279 345 425 508
#     4  11  31  54  87 123 173 223 288 350 432 506
#     4  11  31  51  82 121 170 220 284 350 427 502
#     4  10  26  49  81 120 165 224 281 347 427 510
#     4  12  32  50  86 123 170 225 282 357 424 511
#
# _framework density 26.484984000000001
#
# number of rings (size 3 to 8) (size 9 to 14) (size 15 to 20)
#    0.000    1.000    0.000    0.000   28.000    4.000 
#    0.000    0.000    0.000    0.000    0.000    1.750 
#    0.000    0.000    0.000    0.000    0.000    0.000 
#
# Total GULP energy -89251.254887 kJ/mol
# GULP energy per Si atom -5578.203430 kJ/mol
# Density = 2.642470 g / cm^3
# Si number density = 26.484984 Si / 1000 Ang^3
#
#
#
# Elastic Constant Matrix: (Units=GPa)
#
#
# Indices 1 2 3 4 5 6 
#
# 1 140.9346 64.3041 24.5417 0.0000 0.0000 0.0000
# 2 64.3041 168.5029 86.3101 0.0000 0.0000 0.0000
# 3 24.5417 86.3101 193.1530 0.0000 0.0000 0.0000
# 4 0.0000 0.0000 0.0000 63.0820 0.0000 0.0000
# 5 0.0000 0.0000 0.0000 0.0000 29.5784 0.0000
# 6 0.0000 0.0000 0.0000 0.0000 0.0000 22.4102
#
#
#
# Elastic Compliance Matrix: (Units=1/GPa)
#
#
# Indices 1 2 3 4 5 6 
#
# 1 0.008627 -0.003541 0.000486 0.000000 0.000000 0.000000
# 2 -0.003541 0.009150 -0.003639 0.000000 0.000000 0.000000
# 3 0.000486 -0.003639 0.006741 0.000000 0.000000 0.000000
# 4 0.000000 0.000000 0.000000 0.015852 0.000000 0.000000
# 5 0.000000 0.000000 0.000000 0.000000 0.033808 0.000000
# 6 0.000000 0.000000 0.000000 0.000000 0.000000 0.044623
#
#
# Mechanical properties :
#
#
# Convention : Reuss Voigt Hill
#
# Bulk Modulus (GPa) = 89.84171 94.76692 92.30431
# Shear Modulus (GPa) = 36.79224 44.84309 40.81767
#
# Velocity S-wave (km/s) = 3.73121 4.11926 3.93002
# Velocity P-wave (km/s) = 7.24968 7.64745 7.45122
#
# Compressibility (1/GPa) = 0.01113069
#
# Stress axis : x y z
#
# Youngs Moduli (GPa) = 115.92163 109.29262 148.33778
#
# Poissons Ratio (x) = 0.38702 -0.07213
# Poissons Ratio (y) = 0.41049 0.53975
# Poissons Ratio (z) = -0.05637 0.39767
#
# Static dielectric constant tensor:
#      x y z
#    x 2.214250 0.000000 0.000000 
#    y 0.000000 2.082770 0.000000 
#    z 0.000000 0.000000 2.333500 
# 
# From -- ./inp_files/4503.got.cif
#   From: 2010.05.17/outbox.cif.g08.bks.cpg/sg36_3_cif.got.tgz:4503.got - 2010.06.03 17:41:39.
