data_PCOD9353706
_publ_section_title
;
Structure prediction by ZEFSAII (Michael W. Deem and Ramdas Pophale) SiO2 
 PCOD9353706
Probable space group: C C C 2
;
_chemical_formula_sum "Si O2"
_cell_formula_units_Z 48
_cell_length_a 14.452667
_cell_length_b 5.083992
_cell_length_c 30.211733
_cell_angle_alpha 90.000000
_cell_angle_beta 90.000000
_cell_angle_gamma 90.000000
_cell_volume 2219.874859
_symmetry_space_group_name_H-M "C C C 2"
_symmetry_group_IT_number 37
_symmetry_cell_setting 'orthorhombic'
loop_
_space_group_symop_operation_xyz
x,y,z
-x,-y,z
-x,y,1/2+z
x,-y,1/2+z
1/2+x,1/2+y,z
1/2-x,1/2-y,z
1/2-x,1/2+y,1/2+z
1/2+x,1/2-y,1/2+z
loop_
_atom_site_type_symbol
_atom_site_label
_atom_site_fract_x
_atom_site_fract_y
_atom_site_fract_z
Si Si1 0.939832 0.741384 0.259730
Si Si2 0.682783 0.998585 0.336266
Si Si3 0.183659 0.497643 0.527783
Si Si4 0.113188 0.003741 0.175923
Si Si5 0.682263 0.998309 0.932955
Si Si6 0.610079 0.001404 0.624728
O O1 0.889283 0.582375 0.298581
O O2 0.000000 0.500000 0.238158
O O3 0.869347 0.874175 0.224387
O O4 0.000000 0.000000 0.274503
O O5 0.750000 0.750000 0.338703
O O6 0.635153 0.022484 0.384833
O O7 0.750000 0.250000 0.327769
O O8 0.250000 0.750000 0.531597
O O9 0.130707 0.507179 0.480342
O O10 0.129721 0.460563 0.573252
O O11 0.250000 0.250000 0.524464
O O12 0.145096 0.722024 0.158583
O O13 0.144328 0.215288 0.140057
O O14 0.000000 0.000000 0.176129
O O15 0.750000 0.250000 0.932117
O O16 0.750000 0.750000 0.934198
O O17 0.500000 0.000000 0.629264
#
# Coordination Sequence:
#
# PCOD9353706 Si02
#       6
#     8   8   8   8   8   8
#     4  11  21  36  58  82 106 141 185 228 272 327
#     4  10  20  36  57  82 111 145 183 226 274 330
#     4  10  19  33  53  78 105 137 175 217 262 315
#     4   9  18  33  52  72  99 138 176 208 258 328
#     4   8  16  31  52  74 103 142 176 205 259 332
#     4  10  19  33  53  74  99 135 176 214 257 314
#
# _framework density 21.622841000000001
#
# number of rings (size 3 to 8) (size 9 to 14) (size 15 to 20)
#    0.000    2.333    0.000    4.500    0.000    0.000 
#    0.000    4.167    0.000    3.000    0.000    0.000 
#    0.000    0.000    0.000    0.000    0.000    0.000 
#
# Total GULP energy -133685.187381 kJ/mol
# GULP energy per Si atom -5570.216141 kJ/mol
# Density = 2.157363 g / cm^3
# Si number density = 21.622841 Si / 1000 Ang^3
#
#
#
# Elastic Constant Matrix: (Units=GPa)
#
#
# Indices 1 2 3 4 5 6 
#
# 1 41.4703 9.2983 24.8215 0.0000 0.0000 0.0000
# 2 9.2983 161.0074 28.7680 0.0000 0.0000 0.0000
# 3 24.8215 28.7680 194.9468 0.0000 0.0000 0.0000
# 4 0.0000 0.0000 0.0000 29.2120 0.0000 0.0000
# 5 0.0000 0.0000 0.0000 0.0000 42.6932 0.0000
# 6 0.0000 0.0000 0.0000 0.0000 0.0000 10.2239
#
#
#
# Elastic Compliance Matrix: (Units=1/GPa)
#
#
# Indices 1 2 3 4 5 6 
#
# 1 0.026242 -0.000943 -0.003202 0.000000 0.000000 0.000000
# 2 -0.000943 0.006413 -0.000826 0.000000 0.000000 0.000000
# 3 -0.003202 -0.000826 0.005659 0.000000 0.000000 0.000000
# 4 0.000000 0.000000 0.000000 0.034232 0.000000 0.000000
# 5 0.000000 0.000000 0.000000 0.000000 0.023423 0.000000
# 6 0.000000 0.000000 0.000000 0.000000 0.000000 0.097810
#
#
# Mechanical properties :
#
#
# Convention : Reuss Voigt Hill
#
# Bulk Modulus (GPa) = 35.24762 58.13335 46.69049
# Shear Modulus (GPa) = 23.45440 38.72827 31.09133
#
# Velocity S-wave (km/s) = 3.29706 4.23671 3.79607
# Velocity P-wave (km/s) = 5.55253 7.13277 6.39168
#
# Compressibility (1/GPa) = 0.02837071
#
# Stress axis : x y z
#
# Youngs Moduli (GPa) = 38.10728 155.93322 176.70266
#
# Poissons Ratio (x) = 0.14710 0.56580
# Poissons Ratio (y) = 0.03595 0.14600
# Poissons Ratio (z) = 0.12202 0.12884
#
# Static dielectric constant tensor:
#      x y z
#    x 1.750660 0.000000 0.000000 
#    y 0.000000 1.761300 0.000000 
#    z 0.000000 0.000000 1.924300 
# 
# From -- ./inp_files/18966.got.cif
#   From: 2010.05.17/outbox.cif.g08.bks.cpg/sg37_10_cif.got.tgz:18966.got - 2010.06.03 17:53:42.
