data_PCOD9353979
_publ_section_title
;
Structure prediction by ZEFSAII (Michael W. Deem and Ramdas Pophale) SiO2 
 PCOD9353979
Probable space group: C C C 2
;
_chemical_formula_sum "Si O2"
_cell_formula_units_Z 64
_cell_length_a 7.834584
_cell_length_b 31.221173
_cell_length_c 11.241173
_cell_angle_alpha 90.000000
_cell_angle_beta 90.000000
_cell_angle_gamma 90.000000
_cell_volume 2749.646025
_symmetry_space_group_name_H-M "C C C 2"
_symmetry_group_IT_number 37
_symmetry_cell_setting 'orthorhombic'
loop_
_space_group_symop_operation_xyz
x,y,z
-x,-y,z
-x,y,1/2+z
x,-y,1/2+z
1/2+x,1/2+y,z
1/2-x,1/2-y,z
1/2-x,1/2+y,1/2+z
1/2+x,1/2-y,1/2+z
loop_
_atom_site_type_symbol
_atom_site_label
_atom_site_fract_x
_atom_site_fract_y
_atom_site_fract_z
Si Si1 0.351894 0.610308 0.635350
Si Si2 0.914166 0.587682 0.813953
Si Si3 0.717674 0.699964 0.836937
Si Si4 0.593055 0.169500 0.864364
Si Si5 0.037434 0.122560 0.886824
Si Si6 0.186433 0.296008 0.141829
Si Si7 0.467841 0.050560 0.074604
Si Si8 0.210684 0.298373 0.580411
O O1 0.423020 0.610723 0.771402
O O2 0.483018 0.605550 0.522277
O O3 0.271975 0.658238 0.612191
O O4 0.213604 0.572220 0.614233
O O5 0.726822 0.605389 0.847211
O O6 0.049191 0.626190 0.798321
O O7 0.911665 0.565879 0.684686
O O8 0.981229 0.564796 0.935264
O O9 0.750000 0.750000 0.837624
O O10 0.564314 0.674338 0.895330
O O11 0.687009 0.689888 0.697326
O O12 0.900093 0.685065 0.889578
O O13 0.692631 0.203049 0.784683
O O14 0.702835 0.165340 0.981785
O O15 0.250000 0.250000 0.095497
O O16 0.984621 0.296846 0.123003
O O17 0.500000 0.000000 0.073574
O O18 0.250000 0.250000 0.539994
#
# Coordination Sequence:
#
# PCOD9353979 Si02
#       8
#     8   8   8   8   8   8   8   8
#     4  11  25  45  66 103 139 190 234 293 358 425
#     4  10  22  42  71 102 134 178 224 288 354 428
#     4   9  20  36  53  82 125 176 234 287 337 395
#     4  10  20  35  59  84 127 172 228 277 343 405
#     4  10  24  41  65  93 139 180 236 286 357 420
#     4  11  23  39  56  91 136 183 236 292 339 410
#     4  11  23  45  74 106 137 172 228 289 360 435
#     4  10  21  35  54  84 123 177 241 287 340 405
#
# _framework density 23.275724
#
# number of rings (size 3 to 8) (size 9 to 14) (size 15 to 20)
#    0.000    1.750    1.250    3.000    8.750    4.000 
#    0.000    0.625    0.000    3.000    0.000    0.000 
#    0.000    0.000    0.000    0.000    0.000    0.000 
#
# Total GULP energy -178192.424217 kJ/mol
# GULP energy per Si atom -5568.513257 kJ/mol
# Density = 2.322275 g / cm^3
# Si number density = 23.275724 Si / 1000 Ang^3
#
#
#
# Elastic Constant Matrix: (Units=GPa)
#
#
# Indices 1 2 3 4 5 6 
#
# 1 67.2819 26.3637 18.3632 0.0000 0.0000 0.0000
# 2 26.3637 105.3268 17.0159 0.0000 0.0000 0.0000
# 3 18.3632 17.0159 95.3005 0.0000 0.0000 0.0000
# 4 0.0000 0.0000 0.0000 25.9571 0.0000 0.0000
# 5 0.0000 0.0000 0.0000 0.0000 35.1722 0.0000
# 6 0.0000 0.0000 0.0000 0.0000 0.0000 21.0334
#
#
#
# Elastic Compliance Matrix: (Units=1/GPa)
#
#
# Indices 1 2 3 4 5 6 
#
# 1 0.017084 -0.003856 -0.002603 0.000000 0.000000 0.000000
# 2 -0.003856 0.010646 -0.001158 0.000000 0.000000 0.000000
# 3 -0.002603 -0.001158 0.011202 0.000000 0.000000 0.000000
# 4 0.000000 0.000000 0.000000 0.038525 0.000000 0.000000
# 5 0.000000 0.000000 0.000000 0.000000 0.028432 0.000000
# 6 0.000000 0.000000 0.000000 0.000000 0.000000 0.047543
#
#
# Mechanical properties :
#
#
# Convention : Reuss Voigt Hill
#
# Bulk Modulus (GPa) = 42.19778 43.48833 42.84305
# Shear Modulus (GPa) = 28.31808 30.17699 29.24753
#
# Velocity S-wave (km/s) = 3.49181 3.60460 3.54866
# Velocity P-wave (km/s) = 5.86736 6.00406 5.93610
#
# Compressibility (1/GPa) = 0.02369793
#
# Stress axis : x y z
#
# Youngs Moduli (GPa) = 58.53362 93.92837 89.27346
#
# Poissons Ratio (x) = 0.36215 0.23242
# Poissons Ratio (y) = 0.22568 0.10338
# Poissons Ratio (z) = 0.15239 0.10877
#
# Static dielectric constant tensor:
#      x y z
#    x 1.912790 0.000000 0.000000 
#    y 0.000000 1.894150 0.000000 
#    z 0.000000 0.000000 2.044070 
# 
# From -- ./inp_files/6610.got.cif
#   From: 2010.05.17/outbox.cif.g08.bks.cpg/sg37_4_cif.got.tgz:6610.got - 2010.06.03 17:53:42.
