data_PCOD9353252
_publ_section_title
;
Structure prediction by ZEFSAII (Michael W. Deem and Ramdas Pophale) SiO2 
 PCOD9353252
Probable space group: C M C 21
;
_chemical_formula_sum "Si O2"
_cell_formula_units_Z 56
_cell_length_a 21.926990
_cell_length_b 13.678981
_cell_length_c 9.908850
_cell_angle_alpha 90.000000
_cell_angle_beta 90.000000
_cell_angle_gamma 90.000000
_cell_volume 2972.049367
_symmetry_space_group_name_H-M "C M C 21"
_symmetry_group_IT_number 36
_symmetry_cell_setting 'orthorhombic'
loop_
_space_group_symop_operation_xyz
x,y,z
-x,-y,1/2+z
x,-y,1/2+z
-x,y,z
1/2+x,1/2+y,z
1/2-x,1/2-y,1/2+z
1/2+x,1/2-y,1/2+z
1/2-x,1/2+y,z
loop_
_atom_site_type_symbol
_atom_site_label
_atom_site_fract_x
_atom_site_fract_y
_atom_site_fract_z
Si Si1 0.500000 0.399849 0.919540
Si Si2 0.663534 0.794835 0.073734
Si Si3 0.781066 0.493081 0.155755
Si Si4 0.627314 0.305496 0.843437
Si Si5 0.000000 0.905406 0.236319
Si Si6 0.301775 0.785218 0.583580
Si Si7 0.299728 0.500265 0.904719
Si Si8 0.873915 0.812871 0.323847
O O1 0.560193 0.336769 0.888899
O O2 0.500000 0.495710 0.824874
O O3 0.500000 0.429179 0.077107
O O4 0.630245 0.740194 0.195841
O O5 0.731916 0.748708 0.062219
O O6 0.673388 0.907945 0.110512
O O7 0.629211 0.772267 0.934996
O O8 0.803681 0.602839 0.131145
O O9 0.758329 0.479933 0.308672
O O10 0.722580 0.483463 0.056405
O O11 0.667730 0.403925 0.849158
O O12 0.660022 0.232745 0.948233
O O13 0.940130 0.842972 0.272086
O O14 0.331609 0.719156 0.699754
O O15 0.344644 0.591364 0.893003
#
# Coordination Sequence:
#
# PCOD9353252 Si02
#       8
#     4   8   8   8   4   8   8   8
#     4  12  28  44  70  97 129 176 218 265 327 387
#     4  12  24  39  63  97 127 175 210 269 329 384
#     4  12  24  36  62  94 134 164 216 250 330 390
#     4  12  24  41  64  95 137 167 215 266 330 387
#     4  12  28  44  70  97 129 176 218 265 327 387
#     4  12  22  41  63  93 135 175 208 273 327 390
#     4  12  20  35  62  96 126 167 204 262 310 412
#     4  12  24  41  64  95 137 167 215 266 330 387
#
# _framework density 18.842219
#
# number of rings (size 3 to 8) (size 9 to 14) (size 15 to 20)
#    0.000    0.000    8.571    2.571    2.000    0.000 
#    0.000    0.000    0.000    5.143    0.000    0.000 
#    0.000    0.000    0.000    0.000    0.000    0.000 
#
# Total GULP energy -156699.157713 kJ/mol
# GULP energy per Si atom -5596.398490 kJ/mol
# Density = 1.879933 g / cm^3
# Si number density = 18.842219 Si / 1000 Ang^3
#
#
#
# Elastic Constant Matrix: (Units=GPa)
#
#
# Indices 1 2 3 4 5 6 
#
# 1 74.2479 36.3979 45.2407 0.0000 0.0000 0.0000
# 2 36.3979 78.6691 -12.3797 0.0000 0.0000 0.0000
# 3 45.2407 -12.3797 89.5204 0.0000 0.0000 0.0000
# 4 0.0000 0.0000 0.0000 32.4918 0.0000 0.0000
# 5 0.0000 0.0000 0.0000 0.0000 26.9844 0.0000
# 6 0.0000 0.0000 0.0000 0.0000 0.0000 20.4124
#
#
#
# Elastic Compliance Matrix: (Units=1/GPa)
#
#
# Indices 1 2 3 4 5 6 
#
# 1 0.036045 -0.019978 -0.020979 0.000000 0.000000 0.000000
# 2 -0.019978 0.024067 0.013425 0.000000 0.000000 0.000000
# 3 -0.020979 0.013425 0.023629 0.000000 0.000000 0.000000
# 4 0.000000 0.000000 0.000000 0.030777 0.000000 0.000000
# 5 0.000000 0.000000 0.000000 0.000000 0.037058 0.000000
# 6 0.000000 0.000000 0.000000 0.000000 0.000000 0.048990
#
#
# Mechanical properties :
#
#
# Convention : Reuss Voigt Hill
#
# Bulk Modulus (GPa) = 34.87153 42.32834 38.59993
# Shear Modulus (GPa) = 18.85444 27.52294 23.18869
#
# Velocity S-wave (km/s) = 3.16673 3.82606 3.51191
# Velocity P-wave (km/s) = 5.64962 6.48319 6.08071
#
# Compressibility (1/GPa) = 0.02867669
#
# Stress axis : x y z
#
# Youngs Moduli (GPa) = 27.74332 41.55015 42.32090
#
# Poissons Ratio (x) = 0.83009 0.88783
# Poissons Ratio (y) = 0.55426 -0.56814
# Poissons Ratio (z) = 0.58202 -0.55779
#
# Static dielectric constant tensor:
#      x y z
#    x 1.626270 0.000000 0.000000 
#    y 0.000000 1.657080 0.000000 
#    z 0.000000 0.000000 1.652470 
# 
# From -- ./inp_files/5238.got.cif
#   From: 2010.05.17/outbox.cif.g08.bks.cpg/sg36_3_cif.got.tgz:5238.got - 2010.06.03 17:41:39.
