data_PCOD9353350
_publ_section_title
;
Structure prediction by ZEFSAII (Michael W. Deem and Ramdas Pophale) SiO2 
 PCOD9353350
Probable space group: C M C 21
;
_chemical_formula_sum "Si O2"
_cell_formula_units_Z 32
_cell_length_a 9.000000
_cell_length_b 24.000000
_cell_length_c 15.000000
_cell_angle_alpha 90.000000
_cell_angle_beta 90.000000
_cell_angle_gamma 90.000000
_cell_volume 3240.000000
_symmetry_space_group_name_H-M "C M C 21"
_symmetry_group_IT_number 36
_symmetry_cell_setting 'orthorhombic'
loop_
_space_group_symop_operation_xyz
x,y,z
-x,-y,1/2+z
x,-y,1/2+z
-x,y,z
1/2+x,1/2+y,z
1/2-x,1/2-y,1/2+z
1/2+x,1/2-y,1/2+z
1/2-x,1/2+y,z
loop_
_atom_site_type_symbol
_atom_site_label
_atom_site_fract_x
_atom_site_fract_y
_atom_site_fract_z
Si Si1 0.171541 0.145318 0.912650
Si Si2 0.172262 0.263148 0.853550
Si Si3 0.823923 0.418524 0.257778
Si Si4 0.676251 0.624072 0.406484
Si Si5 0.676586 0.148602 0.585509
Si Si6 0.677866 0.537794 0.254792
Si Si7 0.327884 0.370990 0.615359
Si Si8 0.170974 0.744532 0.146389
O O1 0.212711 0.210553 0.914283
O O2 0.274908 0.112749 0.846266
O O3 0.000000 0.143208 0.880853
O O4 0.177288 0.120106 0.010370
O O5 0.272826 0.316720 0.866835
O O6 0.182654 0.242526 0.751747
O O7 0.000000 0.278802 0.871045
O O8 0.770517 0.382556 0.173890
O O9 0.754737 0.479075 0.255173
O O10 0.000000 0.422160 0.252851
O O11 0.500000 0.623718 0.416944
O O12 0.755358 0.619035 0.500464
O O13 0.719327 0.575072 0.339722
O O14 0.500000 0.148059 0.581340
O O15 0.731986 0.211888 0.591806
O O16 0.500000 0.530315 0.255264
O O17 0.718397 0.574998 0.169606
O O18 0.500000 0.358151 0.640601
O O19 0.228408 0.317992 0.636847
O O20 0.000000 0.749446 0.119181
#
# Coordination Sequence:
#
# PCOD9353350 Si02
#       8
#     8   8   8   8   8   8   8   8
#     4  10  21  39  63  89 121 157 196 241 297 358
#     4  10  20  35  59  92 127 161 194 240 300 357
#     4  11  25  42  62  86 115 156 203 252 304 352
#     4  11  23  39  63  92 121 159 203 246 297 359
#     4  11  24  41  61  88 123 161 200 249 306 356
#     4  10  23  42  62  86 119 158 202 247 298 359
#     4  10  21  39  63  91 122 160 198 242 300 357
#     4  11  21  35  61  94 124 160 200 243 296 354
#
# _framework density 9.8765429999999999
#
# number of rings (size 3 to 8) (size 9 to 14) (size 15 to 20)
#    0.000    1.500    2.500    2.250    0.000    6.500 
#    0.000    3.750    0.000    0.000    0.000    0.000 
#    0.000    0.000    0.000    0.000    0.000    0.000 
#
# Total GULP energy -178787.786524 kJ/mol
# GULP energy per Si atom -5587.118329 kJ/mol
# Density = 0.985406 g / cm^3
# Si number density = 9.876543 Si / 1000 Ang^3
#
#
#
# Elastic Constant Matrix: (Units=GPa)
#
#
# Indices 1 2 3 4 5 6 
#
# 1 27.7939 40.6889 36.0966 0.0000 0.0000 0.0000
# 2 40.6889 104.4736 37.1985 0.0000 0.0000 0.0000
# 3 36.0966 37.1985 73.1491 0.0000 0.0000 0.0000
# 4 0.0000 0.0000 0.0000 -5.9857 0.0000 0.0000
# 5 0.0000 0.0000 0.0000 0.0000 25.1798 0.0000
# 6 0.0000 0.0000 0.0000 0.0000 0.0000 66.1456
#
#
#
# Elastic Compliance Matrix: (Units=1/GPa)
#
#
# Indices 1 2 3 4 5 6 
#
# 1 0.240850 -0.062868 -0.086881 0.000000 0.000000 0.000000
# 2 -0.062868 0.028098 0.016735 0.000000 0.000000 0.000000
# 3 -0.086881 0.016735 0.048034 0.000000 0.000000 0.000000
# 4 0.000000 0.000000 0.000000 -0.167064 0.000000 0.000000
# 5 0.000000 0.000000 0.000000 0.000000 0.039714 0.000000
# 6 0.000000 0.000000 0.000000 0.000000 0.000000 0.015118
#
#
# Mechanical properties :
#
#
# Convention : Reuss Voigt Hill
#
# Bulk Modulus (GPa) = 19.62614 48.15385 33.88999
# Shear Modulus (GPa) = 10.25084 23.16343 16.70714
#
# Velocity S-wave (km/s) = 2.28052 3.42811 2.91142
# Velocity P-wave (km/s) = 4.10994 6.33246 5.33815
#
# Compressibility (1/GPa) = 0.05095246
#
# Stress axis : x y z
#
# Youngs Moduli (GPa) = 4.15196 35.58927 20.81872
#
# Poissons Ratio (x) = 2.23743 1.80876
# Poissons Ratio (y) = 0.26103 -0.34839
# Poissons Ratio (z) = 0.36073 -0.59557
#
# Static dielectric constant tensor:
#      x y z
#    x 1.660660 0.000000 0.000000 
#    y 0.000000 1.646240 0.000000 
#    z 0.000000 0.000000 1.719940 
# 
# From -- ./inp_files/10897.got.cif
#   From: 2010.05.17/outbox.ucp.g08.bks.cvg/sg36_6_cif.got.tgz:10897.got - 2010.06.11 10:37:26.
