data_PCOD9353145
_publ_section_title
;
Structure prediction by ZEFSAII (Michael W. Deem and Ramdas Pophale) SiO2 
 PCOD9353145
Probable space group: C M C 21
;
_chemical_formula_sum "Si O2"
_cell_formula_units_Z 48
_cell_length_a 17.218076
_cell_length_b 14.583119
_cell_length_c 8.078397
_cell_angle_alpha 90.000000
_cell_angle_beta 90.000000
_cell_angle_gamma 90.000000
_cell_volume 2028.430968
_symmetry_space_group_name_H-M "C M C 21"
_symmetry_group_IT_number 36
_symmetry_cell_setting 'orthorhombic'
loop_
_space_group_symop_operation_xyz
x,y,z
-x,-y,1/2+z
x,-y,1/2+z
-x,y,z
1/2+x,1/2+y,z
1/2-x,1/2-y,1/2+z
1/2+x,1/2-y,1/2+z
1/2-x,1/2+y,z
loop_
_atom_site_type_symbol
_atom_site_label
_atom_site_fract_x
_atom_site_fract_y
_atom_site_fract_z
Si Si1 0.587717 0.468918 0.231620
Si Si2 0.683378 0.210215 0.736009
Si Si3 0.172620 0.108709 0.424690
Si Si4 0.912903 0.387203 0.733769
Si Si5 0.351377 0.701887 0.878198
Si Si6 0.841864 0.458111 0.053871
O O1 0.500000 0.502158 0.230413
O O2 0.648606 0.548827 0.266416
O O3 0.600138 0.391204 0.372289
O O4 0.610713 0.418536 0.063195
O O5 0.664959 0.284988 0.876197
O O6 0.669522 0.261938 0.560824
O O7 0.772091 0.185421 0.777807
O O8 0.642548 0.112534 0.706098
O O9 0.258194 0.074206 0.480939
O O10 0.894071 0.282672 0.778300
O O11 0.850971 0.438457 0.616292
O O12 0.000000 0.397131 0.669355
O O13 0.902877 0.437097 0.910519
#
# Coordination Sequence:
#
# PCOD9353145 Si02
#       6
#     8   8   8   8   8   8
#     4  12  26  44  67 102 141 184 230 287 355 412
#     4  11  22  42  69 106 129 179 237 285 335 408
#     4  12  24  45  70 101 135 183 232 290 339 415
#     4  11  24  43  66 100 139 180 223 277 344 406
#     4  11  23  41  69  97 143 177 231 282 342 405
#     4  11  24  43  69 100 134 179 227 281 334 406
#
# _framework density 23.663609000000001
#
# number of rings (size 3 to 8) (size 9 to 14) (size 15 to 20)
#    0.000    0.667    5.000    3.500    2.333    1.333 
#    0.000   10.833    0.000    0.000    0.000    0.000 
#    0.000    0.000    0.000    0.000    0.000    0.000 
#
# Total GULP energy -134241.297275 kJ/mol
# GULP energy per Si atom -5593.387386 kJ/mol
# Density = 2.360975 g / cm^3
# Si number density = 23.663609 Si / 1000 Ang^3
#
#
#
# Elastic Constant Matrix: (Units=GPa)
#
#
# Indices 1 2 3 4 5 6 
#
# 1 63.9352 10.2631 16.5354 0.0000 0.0000 0.0000
# 2 10.2631 90.1991 3.4910 0.0000 0.0000 0.0000
# 3 16.5354 3.4910 62.0212 0.0000 0.0000 0.0000
# 4 0.0000 0.0000 0.0000 42.2502 0.0000 0.0000
# 5 0.0000 0.0000 0.0000 0.0000 27.4637 0.0000
# 6 0.0000 0.0000 0.0000 0.0000 0.0000 15.4284
#
#
#
# Elastic Compliance Matrix: (Units=1/GPa)
#
#
# Indices 1 2 3 4 5 6 
#
# 1 0.017077 -0.001771 -0.004453 0.000000 0.000000 0.000000
# 2 -0.001771 0.011294 -0.000164 0.000000 0.000000 0.000000
# 3 -0.004453 -0.000164 0.017320 0.000000 0.000000 0.000000
# 4 0.000000 0.000000 0.000000 0.023669 0.000000 0.000000
# 5 0.000000 0.000000 0.000000 0.000000 0.036412 0.000000
# 6 0.000000 0.000000 0.000000 0.000000 0.000000 0.064816
#
#
# Mechanical properties :
#
#
# Convention : Reuss Voigt Hill
#
# Bulk Modulus (GPa) = 30.38021 30.74828 30.56424
# Shear Modulus (GPa) = 25.72891 29.41954 27.57422
#
# Velocity S-wave (km/s) = 3.30097 3.52979 3.41729
# Velocity P-wave (km/s) = 5.23400 5.44377 5.33991
#
# Compressibility (1/GPa) = 0.03291616
#
# Stress axis : x y z
#
# Youngs Moduli (GPa) = 58.55901 88.53954 57.73681
#
# Poissons Ratio (x) = 0.15678 0.25711
# Poissons Ratio (y) = 0.10369 0.00945
# Poissons Ratio (z) = 0.26077 0.01449
#
# Static dielectric constant tensor:
#      x y z
#    x 1.837800 0.000000 0.000000 
#    y 0.000000 1.901450 0.000000 
#    z 0.000000 0.000000 1.982280 
# 
# From -- ./inp_files/4643.got.cif
#   From: 2010.05.17/outbox.cif.g08.bks.cpg/sg36_3_cif.got.tgz:4643.got - 2010.06.03 17:41:39.
