data_PCOD9353189
_publ_section_title
;
Structure prediction by ZEFSAII (Michael W. Deem and Ramdas Pophale) SiO2 
 PCOD9353189
Probable space group: C M C 21
;
_chemical_formula_sum "Si O2"
_cell_formula_units_Z 48
_cell_length_a 10.769880
_cell_length_b 22.035907
_cell_length_c 9.378083
_cell_angle_alpha 90.000000
_cell_angle_beta 90.000000
_cell_angle_gamma 90.000000
_cell_volume 2225.644865
_symmetry_space_group_name_H-M "C M C 21"
_symmetry_group_IT_number 36
_symmetry_cell_setting 'orthorhombic'
loop_
_space_group_symop_operation_xyz
x,y,z
-x,-y,1/2+z
x,-y,1/2+z
-x,y,z
1/2+x,1/2+y,z
1/2-x,1/2-y,1/2+z
1/2+x,1/2-y,1/2+z
1/2-x,1/2+y,z
loop_
_atom_site_type_symbol
_atom_site_label
_atom_site_fract_x
_atom_site_fract_y
_atom_site_fract_z
Si Si1 0.000000 0.113155 0.758991
Si Si2 0.647368 0.808149 0.943560
Si Si3 0.249015 0.255138 0.682324
Si Si4 0.000000 0.069623 0.069256
Si Si5 0.790860 0.979232 0.152992
Si Si6 0.353200 0.942192 0.882954
Si Si7 0.500000 0.679437 0.246951
Si Si8 0.500000 0.733429 0.566683
O O1 0.880291 0.074221 0.708750
O O2 0.000000 0.178052 0.681034
O O3 0.000000 0.112685 0.930952
O O4 0.500000 0.802629 0.953398
O O5 0.705996 0.755401 0.846069
O O6 0.677100 0.870846 0.863969
O O7 0.707984 0.805130 0.099298
O O8 0.373521 0.295081 0.677200
O O9 0.122908 0.272411 0.598889
O O10 0.000000 0.108209 0.215618
O O11 0.119099 0.026302 0.070953
O O12 0.724644 0.015624 0.278951
O O13 0.687834 0.956176 0.043659
O O14 0.500000 0.950440 0.863151
O O15 0.500000 0.702803 0.410523
#
# Coordination Sequence:
#
# PCOD9353189 Si02
#       8
#     4   8   8   4   8   8   4   4
#     4  11  25  41  70 100 136 174 226 287 331 407
#     4  11  24  43  67  99 134 181 223 283 339 408
#     4  12  24  44  64  98 138 176 232 270 338 400
#     4  11  25  41  70 100 136 174 226 287 331 407
#     4  11  23  44  66 102 131 175 232 278 346 401
#     4  11  24  45  69  95 138 180 226 280 350 407
#     4  12  27  43  72 101 140 186 227 284 340 406
#     4  12  27  43  72 101 140 186 227 284 340 406
#
# _framework density 21.566783000000001
#
# number of rings (size 3 to 8) (size 9 to 14) (size 15 to 20)
#    0.000    0.667    5.000    2.500    4.667    0.000 
#    0.000    0.000    0.000    4.000    0.000    0.000 
#    0.000    0.000    0.000    0.000    0.000    0.000 
#
# Total GULP energy -134068.399231 kJ/mol
# GULP energy per Si atom -5586.183301 kJ/mol
# Density = 2.151770 g / cm^3
# Si number density = 21.566783 Si / 1000 Ang^3
#
#
#
# Elastic Constant Matrix: (Units=GPa)
#
#
# Indices 1 2 3 4 5 6 
#
# 1 133.9426 36.7473 29.2206 0.0000 0.0000 0.0000
# 2 36.7473 53.1706 31.3220 0.0000 0.0000 0.0000
# 3 29.2206 31.3220 98.9592 0.0000 0.0000 0.0000
# 4 0.0000 0.0000 0.0000 37.5930 0.0000 0.0000
# 5 0.0000 0.0000 0.0000 0.0000 31.7925 0.0000
# 6 0.0000 0.0000 0.0000 0.0000 0.0000 22.8534
#
#
#
# Elastic Compliance Matrix: (Units=1/GPa)
#
#
# Indices 1 2 3 4 5 6 
#
# 1 0.009274 -0.005895 -0.000872 0.000000 0.000000 0.000000
# 2 -0.005895 0.026865 -0.006763 0.000000 0.000000 0.000000
# 3 -0.000872 -0.006763 0.012503 0.000000 0.000000 0.000000
# 4 0.000000 0.000000 0.000000 0.026601 0.000000 0.000000
# 5 0.000000 0.000000 0.000000 0.000000 0.031454 0.000000
# 6 0.000000 0.000000 0.000000 0.000000 0.000000 0.043757
#
#
# Mechanical properties :
#
#
# Convention : Reuss Voigt Hill
#
# Bulk Modulus (GPa) = 46.33516 53.40578 49.87047
# Shear Modulus (GPa) = 27.06972 31.03329 29.05150
#
# Velocity S-wave (km/s) = 3.54666 3.79745 3.67420
# Velocity P-wave (km/s) = 6.18893 6.63658 6.41666
#
# Compressibility (1/GPa) = 0.02158188
#
# Stress axis : x y z
#
# Youngs Moduli (GPa) = 107.83340 37.22260 79.97950
#
# Poissons Ratio (x) = 0.21944 0.06977
# Poissons Ratio (y) = 0.63570 0.54086
# Poissons Ratio (z) = 0.09407 0.25172
#
# Static dielectric constant tensor:
#      x y z
#    x 1.776870 0.000000 0.000000 
#    y 0.000000 1.765020 0.000000 
#    z 0.000000 0.000000 1.779870 
# 
# From -- ./inp_files/3363.got.cif
#   From: 2010.05.17/outbox.cif.g08.bks.cpg/sg36_2_cif.got.tgz:3363.got - 2010.06.03 17:41:39.
