data_PCOD9353653
_publ_section_title
;
Structure prediction by ZEFSAII (Michael W. Deem and Ramdas Pophale) SiO2 
 PCOD9353653
Probable space group: C C C 2
;
_chemical_formula_sum "Si O2"
_cell_formula_units_Z 60
_cell_length_a 9.829490
_cell_length_b 11.167573
_cell_length_c 22.591119
_cell_angle_alpha 90.000000
_cell_angle_beta 90.000000
_cell_angle_gamma 90.000000
_cell_volume 2479.862084
_symmetry_space_group_name_H-M "C C C 2"
_symmetry_group_IT_number 37
_symmetry_cell_setting 'orthorhombic'
loop_
_space_group_symop_operation_xyz
x,y,z
-x,-y,z
-x,y,1/2+z
x,-y,1/2+z
1/2+x,1/2+y,z
1/2-x,1/2-y,z
1/2-x,1/2+y,1/2+z
1/2+x,1/2-y,1/2+z
loop_
_atom_site_type_symbol
_atom_site_label
_atom_site_fract_x
_atom_site_fract_y
_atom_site_fract_z
Si Si1 0.459629 0.868409 0.083220
Si Si2 0.721433 0.475193 0.313426
Si Si3 0.865202 0.966969 0.464758
Si Si4 0.250000 0.250000 0.491376
Si Si5 0.379473 0.839611 0.217197
Si Si6 0.539623 0.299950 0.805604
Si Si7 0.412795 0.306787 0.014533
Si Si8 0.930742 0.624429 0.905286
O O1 0.409369 0.873078 0.150084
O O2 0.582461 0.773143 0.072378
O O3 0.500000 0.000000 0.065112
O O4 0.346506 0.822273 0.037402
O O5 0.828717 0.445018 0.261116
O O6 0.590568 0.389761 0.306576
O O7 0.668845 0.611898 0.310444
O O8 0.792182 0.423004 0.373286
O O9 0.812268 0.084707 0.497310
O O10 0.947581 0.885098 0.513516
O O11 0.000000 0.000000 0.425884
O O12 0.584417 0.217554 0.458885
O O13 0.273434 0.360023 0.444834
O O14 0.250000 0.750000 0.216441
O O15 0.510611 0.774037 0.245491
O O16 0.514297 0.201665 0.856823
O O17 0.000000 0.500000 0.922709
#
# Coordination Sequence:
#
# PCOD9353653 Si02
#       8
#     8   8   8   4   8   8   8   8
#     4  11  21  37  61  91 129 169 223 267 318 401
#     4   9  20  40  65  95 121 172 219 272 338 387
#     4   7  17  36  63  84 116 162 214 259 317 381
#     4  10  18  40  64  86 122 172 206 272 322 374
#     4   9  18  36  62  91 125 172 213 271 342 383
#     4   9  20  41  63  92 128 161 228 276 320 402
#     4   8  19  39  56  87 127 164 217 268 314 389
#     4  11  21  36  61  89 132 174 212 271 336 390
#
# _framework density 24.194894000000001
#
# number of rings (size 3 to 8) (size 9 to 14) (size 15 to 20)
#    0.800    1.867    0.667    1.600    0.000    4.800 
#    2.400   19.333    0.000    0.000    0.000    0.000 
#    0.000    0.000    0.000    0.000    0.000    0.000 
#
# Total GULP energy -167129.063360 kJ/mol
# GULP energy per Si atom -5570.968779 kJ/mol
# Density = 2.413983 g / cm^3
# Si number density = 24.194894 Si / 1000 Ang^3
#
#
#
# Elastic Constant Matrix: (Units=GPa)
#
#
# Indices 1 2 3 4 5 6 
#
# 1 73.6128 55.9399 38.5323 0.0000 0.0000 0.0000
# 2 55.9399 217.1872 56.6504 0.0000 0.0000 0.0000
# 3 38.5323 56.6504 107.5870 0.0000 0.0000 0.0000
# 4 0.0000 0.0000 0.0000 16.4828 0.0000 0.0000
# 5 0.0000 0.0000 0.0000 0.0000 33.0126 0.0000
# 6 0.0000 0.0000 0.0000 0.0000 0.0000 34.0581
#
#
#
# Elastic Compliance Matrix: (Units=1/GPa)
#
#
# Indices 1 2 3 4 5 6 
#
# 1 0.018858 -0.003588 -0.004864 0.000000 0.000000 0.000000
# 2 -0.003588 0.006020 -0.001885 0.000000 0.000000 0.000000
# 3 -0.004864 -0.001885 0.012029 0.000000 0.000000 0.000000
# 4 0.000000 0.000000 0.000000 0.060669 0.000000 0.000000
# 5 0.000000 0.000000 0.000000 0.000000 0.030291 0.000000
# 6 0.000000 0.000000 0.000000 0.000000 0.000000 0.029362
#
#
# Mechanical properties :
#
#
# Convention : Reuss Voigt Hill
#
# Bulk Modulus (GPa) = 61.60580 77.84803 69.72691
# Shear Modulus (GPa) = 27.27538 33.19499 30.23519
#
# Velocity S-wave (km/s) = 3.36120 3.70805 3.53888
# Velocity P-wave (km/s) = 6.37033 7.11183 6.75127
#
# Compressibility (1/GPa) = 0.01623224
#
# Stress axis : x y z
#
# Youngs Moduli (GPa) = 53.02888 166.10859 83.12917
#
# Poissons Ratio (x) = 0.59604 0.40438
# Poissons Ratio (y) = 0.19028 0.15668
# Poissons Ratio (z) = 0.25796 0.31308
#
# Static dielectric constant tensor:
#      x y z
#    x 0.664320 0.000000 0.000000 
#    y 0.000000 0.683640 0.000000 
#    z 0.000000 0.000000 1.880060 
# 
# From -- ./inp_files/19673.got.cif
#   From: 2010.05.17/outbox.cif.g08.bks.cpg/sg37_10_cif.got.tgz:19673.got - 2010.06.03 17:53:42.
