data_PCOD9353667
_publ_section_title
;
Structure prediction by ZEFSAII (Michael W. Deem and Ramdas Pophale) SiO2 
 PCOD9353667
Probable space group: C C C 2
;
_chemical_formula_sum "Si O2"
_cell_formula_units_Z 28
_cell_length_a 21.227803
_cell_length_b 4.786158
_cell_length_c 11.833825
_cell_angle_alpha 90.000000
_cell_angle_beta 90.000000
_cell_angle_gamma 90.000000
_cell_volume 1202.312113
_symmetry_space_group_name_H-M "C C C 2"
_symmetry_group_IT_number 37
_symmetry_cell_setting 'orthorhombic'
loop_
_space_group_symop_operation_xyz
x,y,z
-x,-y,z
-x,y,1/2+z
x,-y,1/2+z
1/2+x,1/2+y,z
1/2-x,1/2-y,z
1/2-x,1/2+y,1/2+z
1/2+x,1/2-y,1/2+z
loop_
_atom_site_type_symbol
_atom_site_label
_atom_site_fract_x
_atom_site_fract_y
_atom_site_fract_z
Si Si1 0.335763 0.433951 0.367740
Si Si2 0.956946 0.748497 0.292591
Si Si3 0.663434 0.042220 0.218465
Si Si4 0.750000 0.250000 0.541488
O O1 0.410305 0.382451 0.386069
O O2 0.312154 0.131416 0.328101
O O3 0.298832 0.572798 0.467613
O O4 0.334592 0.639234 0.257942
O O5 0.906975 0.589939 0.209334
O O6 0.000000 0.500000 0.837757
O O7 0.000000 0.000000 0.246641
O O8 0.707676 0.956972 0.117074
#
# Coordination Sequence:
#
# PCOD9353667 Si02
#       4
#     8   8   8   4
#     4  10  23  40  65  99 131 180 214 284 336 395
#     4  10  18  42  68  86 129 176 223 273 338 390
#     4  10  23  40  65  97 129 182 214 282 337 396
#     4  12  24  42  66 102 142 170 232 272 358 406
#
# _framework density 23.288464999999999
#
# number of rings (size 3 to 8) (size 9 to 14) (size 15 to 20)
#    1.714    0.000    2.857    1.714    0.000    4.571 
#    0.000    1.429    6.286    0.000    0.000    0.000 
#    0.000    0.000    0.000    0.000    0.000    0.000 
#
# Total GULP energy -78120.930551 kJ/mol
# GULP energy per Si atom -5580.066468 kJ/mol
# Density = 2.323546 g / cm^3
# Si number density = 23.288465 Si / 1000 Ang^3
#
#
#
# Elastic Constant Matrix: (Units=GPa)
#
#
# Indices 1 2 3 4 5 6 
#
# 1 165.1120 45.6521 51.8437 0.0000 0.0000 0.0000
# 2 45.6521 136.1013 30.8057 0.0000 0.0000 0.0000
# 3 51.8437 30.8057 66.9272 0.0000 0.0000 0.0000
# 4 0.0000 0.0000 0.0000 15.2125 0.0000 0.0000
# 5 0.0000 0.0000 0.0000 0.0000 7.6994 0.0000
# 6 0.0000 0.0000 0.0000 0.0000 0.0000 56.3435
#
#
#
# Elastic Compliance Matrix: (Units=1/GPa)
#
#
# Indices 1 2 3 4 5 6 
#
# 1 0.008260 -0.001476 -0.005719 0.000000 0.000000 0.000000
# 2 -0.001476 0.008466 -0.002753 0.000000 0.000000 0.000000
# 3 -0.005719 -0.002753 0.020639 0.000000 0.000000 0.000000
# 4 0.000000 0.000000 0.000000 0.065735 0.000000 0.000000
# 5 0.000000 0.000000 0.000000 0.000000 0.129880 0.000000
# 6 0.000000 0.000000 0.000000 0.000000 0.000000 0.017748
#
#
# Mechanical properties :
#
#
# Convention : Reuss Voigt Hill
#
# Bulk Modulus (GPa) = 57.24737 69.41596 63.33166
# Shear Modulus (GPa) = 18.08653 31.84035 24.96344
#
# Velocity S-wave (km/s) = 2.78983 3.70160 3.27758
# Velocity P-wave (km/s) = 5.91716 6.93836 6.44801
#
# Compressibility (1/GPa) = 0.01746805
#
# Stress axis : x y z
#
# Youngs Moduli (GPa) = 121.05839 118.12222 48.45155
#
# Poissons Ratio (x) = 0.17438 0.27711
# Poissons Ratio (y) = 0.17871 0.13339
# Poissons Ratio (z) = 0.69237 0.32521
#
# Static dielectric constant tensor:
#      x y z
#    x 1.995520 0.000000 0.000000 
#    y 0.000000 1.852420 0.000000 
#    z 0.000000 0.000000 1.863660 
# 
# From -- ./inp_files/5288.got.cif
#   From: 2010.05.17/outbox.cif.g08.bks.cpg/sg37_3_cif.got.tgz:5288.got - 2010.06.03 17:53:42.
