data_PCOD9353932
_publ_section_title
;
Structure prediction by ZEFSAII (Michael W. Deem and Ramdas Pophale) SiO2 
 PCOD9353932
Probable space group: C C C 2
;
_chemical_formula_sum "Si O2"
_cell_formula_units_Z 48
_cell_length_a 18.779662
_cell_length_b 11.985484
_cell_length_c 8.789361
_cell_angle_alpha 90.000000
_cell_angle_beta 90.000000
_cell_angle_gamma 90.000000
_cell_volume 1978.338717
_symmetry_space_group_name_H-M "C C C 2"
_symmetry_group_IT_number 37
_symmetry_cell_setting 'orthorhombic'
loop_
_space_group_symop_operation_xyz
x,y,z
-x,-y,z
-x,y,1/2+z
x,-y,1/2+z
1/2+x,1/2+y,z
1/2-x,1/2-y,z
1/2-x,1/2+y,1/2+z
1/2+x,1/2-y,1/2+z
loop_
_atom_site_type_symbol
_atom_site_label
_atom_site_fract_x
_atom_site_fract_y
_atom_site_fract_z
Si Si1 0.108834 0.409794 0.834870
Si Si2 0.315450 0.314036 0.202602
Si Si3 0.906114 0.839255 0.720755
Si Si4 0.767400 0.881005 0.887365
Si Si5 0.546881 0.665738 0.372733
Si Si6 0.924059 0.369895 0.659568
O O1 0.108991 0.292034 0.749206
O O2 0.192178 0.442149 0.866429
O O3 0.081933 0.510878 0.734489
O O4 0.059718 0.394102 0.984251
O O5 0.250000 0.250000 0.286239
O O6 0.377277 0.370182 0.300835
O O7 0.352976 0.204044 0.131159
O O8 0.294033 0.390937 0.061346
O O9 0.831974 0.897470 0.768712
O O10 0.938229 0.843585 0.551202
O O11 0.969498 0.882449 0.831505
O O12 0.750000 0.750000 0.872477
O O13 0.540767 0.785832 0.281940
#
# Coordination Sequence:
#
# PCOD9353932 Si02
#       6
#     8   8   8   8   8   8
#     4  11  20  34  52  77 112 143 173 217 266 314
#     4   9  16  35  53  72 101 139 173 216 258 313
#     4  11  19  34  51  76 107 140 186 212 260 316
#     4   9  16  33  54  71 104 144 176 216 258 308
#     4  10  21  32  52  76 105 140 179 220 260 317
#     4  10  20  34  49  78 107 136 178 209 267 312
#
# _framework density 24.262781
#
# number of rings (size 3 to 8) (size 9 to 14) (size 15 to 20)
#    1.000    1.000    5.000    3.000    0.000    2.667 
#    0.000    3.333    0.000    0.000    0.000    1.167 
#    0.000    0.000    0.000    0.000    0.000    0.000 
#
# Total GULP energy -133609.260127 kJ/mol
# GULP energy per Si atom -5567.052505 kJ/mol
# Density = 2.420756 g / cm^3
# Si number density = 24.262781 Si / 1000 Ang^3
#
#
#
# Elastic Constant Matrix: (Units=GPa)
#
#
# Indices 1 2 3 4 5 6 
#
# 1 160.1851 -5.6706 68.3577 0.0000 0.0000 0.0000
# 2 -5.6706 72.7818 -0.3076 0.0000 0.0000 0.0000
# 3 68.3577 -0.3076 148.3063 0.0000 0.0000 0.0000
# 4 0.0000 0.0000 0.0000 -1.1317 0.0000 0.0000
# 5 0.0000 0.0000 0.0000 0.0000 37.7814 0.0000
# 6 0.0000 0.0000 0.0000 0.0000 0.0000 3.8804
#
#
#
# Elastic Compliance Matrix: (Units=1/GPa)
#
#
# Indices 1 2 3 4 5 6 
#
# 1 0.007797 0.000592 -0.003592 0.000000 0.000000 0.000000
# 2 0.000592 0.013785 -0.000244 0.000000 0.000000 0.000000
# 3 -0.003592 -0.000244 0.008398 0.000000 0.000000 0.000000
# 4 0.000000 0.000000 0.000000 -0.883609 0.000000 0.000000
# 5 0.000000 0.000000 0.000000 0.000000 0.026468 0.000000
# 6 0.000000 0.000000 0.000000 0.000000 0.000000 0.257706
#
#
# Mechanical properties :
#
#
# Convention : Reuss Voigt Hill
#
# Bulk Modulus (GPa) = 42.57032 56.22579 49.39806
# Shear Modulus (GPa) = -9.00680 29.36560 10.17940
#
# Velocity S-wave (km/s) = -1.92879 3.48273 2.05051
# Velocity P-wave (km/s) = 3.55293 6.27667 5.09999
#
# Compressibility (1/GPa) = 0.02349055
#
# Stress axis : x y z
#
# Youngs Moduli (GPa) = 128.25747 72.54363 119.07375
#
# Poissons Ratio (x) = -0.04297 0.42777
# Poissons Ratio (y) = -0.07596 0.02910
# Poissons Ratio (z) = 0.46076 0.01773
#
# Static dielectric constant tensor:
#      x y z
#    x 2.071640 0.000000 0.000000 
#    y 0.000000 1.932670 0.000000 
#    z 0.000000 0.000000 1.910740 
# 
# From -- ./inp_files/4406.got.cif
#   From: 2010.05.17/outbox.cif.g08.bks.cpg/sg37_3_cif.got.tgz:4406.got - 2010.06.03 17:53:42.
