data_PCOD9353860
_publ_section_title
;
Structure prediction by ZEFSAII (Michael W. Deem and Ramdas Pophale) SiO2 
 PCOD9353860
Probable space group: C C C 2
;
_chemical_formula_sum "Si O2"
_cell_formula_units_Z 48
_cell_length_a 7.953289
_cell_length_b 18.847689
_cell_length_c 14.213184
_cell_angle_alpha 90.000000
_cell_angle_beta 90.000000
_cell_angle_gamma 90.000000
_cell_volume 2130.572166
_symmetry_space_group_name_H-M "C C C 2"
_symmetry_group_IT_number 37
_symmetry_cell_setting 'orthorhombic'
loop_
_space_group_symop_operation_xyz
x,y,z
-x,-y,z
-x,y,1/2+z
x,-y,1/2+z
1/2+x,1/2+y,z
1/2-x,1/2-y,z
1/2-x,1/2+y,1/2+z
1/2+x,1/2-y,1/2+z
loop_
_atom_site_type_symbol
_atom_site_label
_atom_site_fract_x
_atom_site_fract_y
_atom_site_fract_z
Si Si1 0.287522 0.976902 0.006040
Si Si2 0.010927 0.859039 0.952009
Si Si3 0.250000 0.250000 0.531679
Si Si4 0.000000 0.000000 0.222118
Si Si5 0.050431 0.368894 0.648773
Si Si6 0.736345 0.069994 0.330019
Si Si7 0.674104 0.393254 0.626955
O O1 0.413781 0.928574 0.067503
O O2 0.136852 0.926021 0.968738
O O3 0.207427 0.028368 0.083774
O O4 0.340423 0.031386 0.922640
O O5 0.892369 0.847113 0.042297
O O6 0.131498 0.792613 0.959517
O O7 0.880308 0.877486 0.870364
O O8 0.143315 0.301537 0.601333
O O9 0.987801 0.918220 0.185269
O O10 0.170543 0.995700 0.280929
O O11 0.123445 0.393614 0.750006
O O12 0.849387 0.363320 0.662777
#
# Coordination Sequence:
#
# PCOD9353860 Si02
#       7
#     8   8   4   4   8   8   8
#     4  10  19  39  63  99 135 169 217 285 353 415
#     4  10  20  42  68  96 133 185 232 283 348 414
#     4  10  24  48  70  86 136 194 240 286 332 432
#     4  12  18  34  64  94 134 166 210 280 366 414
#     4  11  24  42  65  97 141 182 229 280 348 415
#     4  11  21  38  64 101 133 170 224 285 350 415
#     4  11  20  38  65  98 133 174 218 289 354 419
#
# _framework density 22.529159
#
# number of rings (size 3 to 8) (size 9 to 14) (size 15 to 20)
#    0.000    1.333    5.000    2.500    0.000    0.667 
#   12.000    5.000    0.000    0.000    0.000    0.000 
#    0.000    0.000    0.000    0.000    0.000    0.000 
#
# Total GULP energy -133602.951081 kJ/mol
# GULP energy per Si atom -5566.789628 kJ/mol
# Density = 2.247788 g / cm^3
# Si number density = 22.529159 Si / 1000 Ang^3
#
#
#
# Elastic Constant Matrix: (Units=GPa)
#
#
# Indices 1 2 3 4 5 6 
#
# 1 112.8371 30.7646 40.7028 0.0000 0.0000 0.0000
# 2 30.7646 83.8133 26.7128 0.0000 0.0000 0.0000
# 3 40.7028 26.7128 128.1535 0.0000 0.0000 0.0000
# 4 0.0000 0.0000 0.0000 16.3376 0.0000 0.0000
# 5 0.0000 0.0000 0.0000 0.0000 135.1741 0.0000
# 6 0.0000 0.0000 0.0000 0.0000 0.0000 25.0676
#
#
#
# Elastic Compliance Matrix: (Units=1/GPa)
#
#
# Indices 1 2 3 4 5 6 
#
# 1 0.010688 -0.003043 -0.002760 0.000000 0.000000 0.000000
# 2 -0.003043 0.013647 -0.001878 0.000000 0.000000 0.000000
# 3 -0.002760 -0.001878 0.009071 0.000000 0.000000 0.000000
# 4 0.000000 0.000000 0.000000 0.061208 0.000000 0.000000
# 5 0.000000 0.000000 0.000000 0.000000 0.007398 0.000000
# 6 0.000000 0.000000 0.000000 0.000000 0.000000 0.039892
#
#
# Mechanical properties :
#
#
# Convention : Reuss Voigt Hill
#
# Bulk Modulus (GPa) = 55.42354 57.90714 56.66534
# Shear Modulus (GPa) = 30.62192 50.42410 40.52301
#
# Velocity S-wave (km/s) = 3.69075 4.73606 4.24570
# Velocity P-wave (km/s) = 6.54342 7.46097 7.01721
#
# Compressibility (1/GPa) = 0.01804288
#
# Stress axis : x y z
#
# Youngs Moduli (GPa) = 93.56508 73.27653 110.23822
#
# Poissons Ratio (x) = 0.22301 0.30428
# Poissons Ratio (y) = 0.28475 0.20703
# Poissons Ratio (z) = 0.25826 0.13761
#
# Static dielectric constant tensor:
#      x y z
#    x 1.323620 0.000000 0.000000 
#    y 0.000000 1.875010 0.000000 
#    z 0.000000 0.000000 1.959850 
# 
# From -- ./inp_files/10719.got.cif
#   From: 2010.05.17/outbox.cif.g08.bks.cpg/sg37_6_cif.got.tgz:10719.got - 2010.06.03 17:53:42.
