data_PCOD9353776
_publ_section_title
;
Structure prediction by ZEFSAII (Michael W. Deem and Ramdas Pophale) SiO2 
 PCOD9353776
Probable space group: C C C 2
;
_chemical_formula_sum "Si O2"
_cell_formula_units_Z 56
_cell_length_a 13.914753
_cell_length_b 21.351904
_cell_length_c 9.867667
_cell_angle_alpha 90.000000
_cell_angle_beta 90.000000
_cell_angle_gamma 90.000000
_cell_volume 2931.747712
_symmetry_space_group_name_H-M "C C C 2"
_symmetry_group_IT_number 37
_symmetry_cell_setting 'orthorhombic'
loop_
_space_group_symop_operation_xyz
x,y,z
-x,-y,z
-x,y,1/2+z
x,-y,1/2+z
1/2+x,1/2+y,z
1/2-x,1/2-y,z
1/2-x,1/2+y,1/2+z
1/2+x,1/2-y,1/2+z
loop_
_atom_site_type_symbol
_atom_site_label
_atom_site_fract_x
_atom_site_fract_y
_atom_site_fract_z
Si Si1 0.084057 0.957500 0.331260
Si Si2 0.064102 0.562335 0.792370
Si Si3 0.053590 0.150466 0.330672
Si Si4 0.217530 0.065840 0.279291
Si Si5 0.440252 0.866751 0.504718
Si Si6 0.570308 0.720193 0.051932
Si Si7 0.272810 0.628706 0.492547
O O1 0.157500 0.922556 0.428189
O O2 0.021561 0.901044 0.269181
O O3 0.151396 0.005147 0.248092
O O4 0.000000 0.000000 0.398098
O O5 0.175992 0.548649 0.827827
O O6 0.055885 0.591700 0.641553
O O7 0.000000 0.500000 0.799400
O O8 0.020788 0.610620 0.900917
O O9 0.149306 0.111174 0.368258
O O10 0.069365 0.198708 0.208307
O O11 0.008051 0.183648 0.460733
O O12 0.234845 0.107717 0.147609
O O13 0.446184 0.793696 0.541192
O O14 0.334511 0.873397 0.436820
O O15 0.671281 0.694580 0.990683
#
# Coordination Sequence:
#
# PCOD9353776 Si02
#       7
#     8   8   8   8   8   8   8
#     4   9  17  30  52  82 110 138 173 224 273 311
#     4  11  23  39  57  79 106 141 182 222 262 315
#     4   9  19  34  56  83 110 138 176 220 266 319
#     4   9  19  34  53  77 108 145 178 214 267 322
#     4  11  22  38  58  78 106 145 181 220 266 313
#     4  10  19  36  56  81 109 140 177 219 264 319
#     4   9  19  33  53  78 107 143 182 217 262 323
#
# _framework density 19.101234000000002
#
# number of rings (size 3 to 8) (size 9 to 14) (size 15 to 20)
#    0.000    2.286    0.000    2.571    0.000    6.286 
#    0.000    5.000    0.000    0.000    0.000    0.000 
#    0.000    0.000    0.000    0.000    0.000    0.000 
#
# Total GULP energy -155916.120919 kJ/mol
# GULP energy per Si atom -5568.432890 kJ/mol
# Density = 1.905776 g / cm^3
# Si number density = 19.101234 Si / 1000 Ang^3
#
#
#
# Elastic Constant Matrix: (Units=GPa)
#
#
# Indices 1 2 3 4 5 6 
#
# 1 132.0588 39.8434 11.9444 0.0000 0.0000 0.0000
# 2 39.8434 107.7383 2.7924 0.0000 0.0000 0.0000
# 3 11.9444 2.7924 26.3018 0.0000 0.0000 0.0000
# 4 0.0000 0.0000 0.0000 17.5626 0.0000 0.0000
# 5 0.0000 0.0000 0.0000 0.0000 22.2443 0.0000
# 6 0.0000 0.0000 0.0000 0.0000 0.0000 23.4642
#
#
#
# Elastic Compliance Matrix: (Units=1/GPa)
#
#
# Indices 1 2 3 4 5 6 
#
# 1 0.008866 -0.003183 -0.003689 0.000000 0.000000 0.000000
# 2 -0.003183 0.010450 0.000336 0.000000 0.000000 0.000000
# 3 -0.003689 0.000336 0.039660 0.000000 0.000000 0.000000
# 4 0.000000 0.000000 0.000000 0.056939 0.000000 0.000000
# 5 0.000000 0.000000 0.000000 0.000000 0.044955 0.000000
# 6 0.000000 0.000000 0.000000 0.000000 0.000000 0.042618
#
#
# Mechanical properties :
#
#
# Convention : Reuss Voigt Hill
#
# Bulk Modulus (GPa) = 21.78417 41.69546 31.73981
# Shear Modulus (GPa) = 21.56455 26.75547 24.16001
#
# Velocity S-wave (km/s) = 3.36365 3.74668 3.56032
# Velocity P-wave (km/s) = 5.14926 6.37125 5.79257
#
# Compressibility (1/GPa) = 0.04590490
#
# Stress axis : x y z
#
# Youngs Moduli (GPa) = 112.78470 95.69105 25.21458
#
# Poissons Ratio (x) = 0.30462 0.09300
# Poissons Ratio (y) = 0.35903 -0.00848
# Poissons Ratio (z) = 0.41601 -0.03217
#
# Static dielectric constant tensor:
#      x y z
#    x 1.713970 0.000000 0.000000 
#    y 0.000000 1.689810 0.000000 
#    z 0.000000 0.000000 1.639210 
# 
# From -- ./inp_files/3642.got.cif
#   From: 2010.05.17/outbox.cif.g08.bks.cpg/sg37_2_cif.got.tgz:3642.got - 2010.06.03 17:53:42.
