data_PCOD9353843
_publ_section_title
;
Structure prediction by ZEFSAII (Michael W. Deem and Ramdas Pophale) SiO2 
 PCOD9353843
Probable space group: C C C 2
;
_chemical_formula_sum "Si O2"
_cell_formula_units_Z 64
_cell_length_a 24.221508
_cell_length_b 15.761157
_cell_length_c 8.737044
_cell_angle_alpha 90.000000
_cell_angle_beta 90.000000
_cell_angle_gamma 90.000000
_cell_volume 3335.445096
_symmetry_space_group_name_H-M "C C C 2"
_symmetry_group_IT_number 37
_symmetry_cell_setting 'orthorhombic'
loop_
_space_group_symop_operation_xyz
x,y,z
-x,-y,z
-x,y,1/2+z
x,-y,1/2+z
1/2+x,1/2+y,z
1/2-x,1/2-y,z
1/2-x,1/2+y,1/2+z
1/2+x,1/2-y,1/2+z
loop_
_atom_site_type_symbol
_atom_site_label
_atom_site_fract_x
_atom_site_fract_y
_atom_site_fract_z
Si Si1 0.061341 0.243190 0.498230
Si Si2 0.061341 0.756810 0.366760
Si Si3 0.370839 0.909767 0.366653
Si Si4 0.251307 0.648402 0.364985
Si Si5 0.248694 0.148402 0.500005
Si Si6 0.865837 0.909133 0.364305
Si Si7 0.870839 0.590233 0.498337
Si Si8 0.865837 0.909133 0.000684
O O1 0.060441 0.239873 0.682495
O O2 0.097644 0.165559 0.436335
O O3 0.090758 0.331297 0.451098
O O4 1.000000 0.238940 0.432495
O O5 0.090758 0.668704 0.413892
O O6 0.097644 0.834442 0.428654
O O7 0.307648 0.889449 0.412722
O O8 0.388364 1.000000 0.432495
O O9 0.371603 0.913257 0.182495
O O10 0.250000 0.750000 0.387320
O O11 0.259074 0.633510 0.182495
O O12 0.302454 0.608929 0.454089
O O13 0.250000 0.250000 0.477669
O O14 0.197547 0.108929 0.410900
O O15 0.307649 0.110551 0.452268
O O16 0.871635 0.909480 0.182495
O O17 0.882200 1.000000 0.432495
#
# Coordination Sequence:
#
# PCOD9353843 Si02
#       8
#     8   8   8   8   8   8   8   8
#     4  11  24  45  66  90 122 163 209 261 313 365
#     4  11  24  45  66  90 122 163 209 261 313 365
#     4  10  22  39  63  91 126 165 204 252 308 366
#     4  10  19  38  64  92 128 167 202 251 312 368
#     4  10  19  38  64  92 128 167 202 251 312 368
#     4  12  25  41  64  95 127 165 207 255 308 372
#     4  10  22  39  63  91 126 165 204 252 308 366
#     4  12  25  41  64  95 127 165 207 255 308 372
#
# _framework density 19.187844999999999
#
# number of rings (size 3 to 8) (size 9 to 14) (size 15 to 20)
#    0.000    1.250    2.500    3.750    0.000    6.500 
#    0.000    5.000    0.000    0.000    0.000    0.000 
#    0.000    0.000    0.000    0.000    0.000    0.000 
#
# Total GULP energy -179002.614946 kJ/mol
# GULP energy per Si atom -5593.831717 kJ/mol
# Density = 1.914417 g / cm^3
# Si number density = 19.187845 Si / 1000 Ang^3
#
#
#
# Elastic Constant Matrix: (Units=GPa)
#
#
# Indices 1 2 3 4 5 6 
#
# 1 105.9483 49.5441 39.6437 0.0000 0.0000 0.0000
# 2 49.5441 153.2638 53.4115 0.0000 0.0000 0.0000
# 3 39.6437 53.4115 76.5836 0.0000 0.0000 0.0000
# 4 0.0000 0.0000 0.0000 33.5459 0.0000 0.0000
# 5 0.0000 0.0000 0.0000 0.0000 66.1871 0.0000
# 6 0.0000 0.0000 0.0000 0.0000 0.0000 -8.5366
#
#
#
# Elastic Compliance Matrix: (Units=1/GPa)
#
#
# Indices 1 2 3 4 5 6 
#
# 1 0.012301 -0.002322 -0.004748 0.000000 0.000000 0.000000
# 2 -0.002322 0.009058 -0.005115 0.000000 0.000000 0.000000
# 3 -0.004748 -0.005115 0.019083 0.000000 0.000000 0.000000
# 4 0.000000 0.000000 0.000000 0.029810 0.000000 0.000000
# 5 0.000000 0.000000 0.000000 0.000000 0.015109 0.000000
# 6 0.000000 0.000000 0.000000 0.000000 0.000000 -0.117143
#
#
# Mechanical properties :
#
#
# Convention : Reuss Voigt Hill
#
# Bulk Modulus (GPa) = 62.22323 68.99934 65.61129
# Shear Modulus (GPa) = -2434.50853 31.11904 -1201.69474
#
# Velocity S-wave (km/s) = -35.65853 4.03154 -25.05272
# Velocity P-wave (km/s) = 40.77837 7.59665 28.32990
#
# Compressibility (1/GPa) = 0.01607117
#
# Stress axis : x y z
#
# Youngs Moduli (GPa) = 81.29431 110.40118 52.40177
#
# Poissons Ratio (x) = 0.25631 0.24883
# Poissons Ratio (y) = 0.18873 0.26806
# Poissons Ratio (z) = 0.38602 0.56475
#
# Static dielectric constant tensor:
#      x y z
#    x 1.641500 0.000000 0.000000 
#    y 0.000000 1.652080 0.000000 
#    z 0.000000 0.000000 1.642400 
# 
# From -- ./inp_files/4659.got.cif
#   From: 2010.05.17/outbox.cif.g08.bks.cpg/sg37_3_cif.got.tgz:4659.got - 2010.06.03 17:53:42.
