data_PCOD9353945
_publ_section_title
;
Structure prediction by ZEFSAII (Michael W. Deem and Ramdas Pophale) SiO2 
 PCOD9353945
Probable space group: C C C 2
;
_chemical_formula_sum "Si O2"
_cell_formula_units_Z 64
_cell_length_a 15.078892
_cell_length_b 14.823294
_cell_length_c 11.451793
_cell_angle_alpha 90.000000
_cell_angle_beta 90.000000
_cell_angle_gamma 90.000000
_cell_volume 2559.691594
_symmetry_space_group_name_H-M "C C C 2"
_symmetry_group_IT_number 37
_symmetry_cell_setting 'orthorhombic'
loop_
_space_group_symop_operation_xyz
x,y,z
-x,-y,z
-x,y,1/2+z
x,-y,1/2+z
1/2+x,1/2+y,z
1/2-x,1/2-y,z
1/2-x,1/2+y,1/2+z
1/2+x,1/2-y,1/2+z
loop_
_atom_site_type_symbol
_atom_site_label
_atom_site_fract_x
_atom_site_fract_y
_atom_site_fract_z
Si Si1 0.588077 0.755722 0.013070
Si Si2 0.032632 0.091690 0.271957
Si Si3 0.149237 0.483293 0.374349
Si Si4 0.325110 0.826636 0.293361
Si Si5 0.870019 0.561493 0.125050
Si Si6 0.908587 0.784717 0.624740
Si Si7 0.684014 0.389624 0.938729
Si Si8 0.666142 0.430631 0.569109
O O1 0.606642 0.834236 0.105443
O O2 0.489490 0.723336 0.035935
O O3 0.653933 0.671150 0.024373
O O4 0.602528 0.801036 0.889811
O O5 0.111002 0.139848 0.344305
O O6 0.086052 0.057202 0.158680
O O7 0.951856 0.154710 0.229010
O O8 0.000000 0.000000 0.332257
O O9 0.202546 0.574336 0.333103
O O10 0.096226 0.466420 0.253616
O O11 0.108140 0.507899 0.502504
O O12 0.215854 0.399306 0.394024
O O13 0.250000 0.750000 0.296728
O O14 0.374400 0.811016 0.171399
O O15 0.762446 0.556637 0.126526
O O16 0.829721 0.834387 0.557346
O O17 0.660119 0.491923 0.974014
#
# Coordination Sequence:
#
# PCOD9353945 Si02
#       8
#     8   8   8   8   8   8   8   8
#     4  10  22  41  65  94 136 182 227 284 344 439
#     4  11  22  32  54  91 132 177 209 278 355 432
#     4  10  23  40  70  95 132 175 241 288 345 416
#     4  11  24  42  68  97 135 188 235 289 364 439
#     4  10  20  42  66  97 127 177 236 287 341 421
#     4  11  25  40  62  98 140 174 228 286 367 416
#     4  11  22  36  60  94 137 173 221 285 344 439
#     4  10  20  34  57  88 127 171 225 264 344 412
#
# _framework density 25.003012999999999
#
# number of rings (size 3 to 8) (size 9 to 14) (size 15 to 20)
#    0.000    1.500    2.500    3.375   10.500    0.000 
#    0.000    4.375    0.000    3.000    0.000    0.000 
#    0.000    0.000    0.000    0.000    0.000    0.000 
#
# Total GULP energy -178736.294506 kJ/mol
# GULP energy per Si atom -5585.509203 kJ/mol
# Density = 2.494610 g / cm^3
# Si number density = 25.003013 Si / 1000 Ang^3
#
#
#
# Elastic Constant Matrix: (Units=GPa)
#
#
# Indices 1 2 3 4 5 6 
#
# 1 73.4342 7.0972 17.9248 0.0000 0.0000 0.0000
# 2 7.0972 55.5572 36.1217 0.0000 0.0000 0.0000
# 3 17.9248 36.1217 112.0269 0.0000 0.0000 0.0000
# 4 0.0000 0.0000 0.0000 34.0606 0.0000 0.0000
# 5 0.0000 0.0000 0.0000 0.0000 5.5104 0.0000
# 6 0.0000 0.0000 0.0000 0.0000 0.0000 17.2988
#
#
#
# Elastic Compliance Matrix: (Units=1/GPa)
#
#
# Indices 1 2 3 4 5 6 
#
# 1 0.014179 -0.000425 -0.002132 0.000000 0.000000 0.000000
# 2 -0.000425 0.022786 -0.007279 0.000000 0.000000 0.000000
# 3 -0.002132 -0.007279 0.011615 0.000000 0.000000 0.000000
# 4 0.000000 0.000000 0.000000 0.029359 0.000000 0.000000
# 5 0.000000 0.000000 0.000000 0.000000 0.181475 0.000000
# 6 0.000000 0.000000 0.000000 0.000000 0.000000 0.057808
#
#
# Mechanical properties :
#
#
# Convention : Reuss Voigt Hill
#
# Bulk Modulus (GPa) = 34.59269 40.36730 37.47999
# Shear Modulus (GPa) = 14.42877 23.36561 18.89719
#
# Velocity S-wave (km/s) = 2.40486 3.06029 2.75216
# Velocity P-wave (km/s) = 4.64506 5.35418 5.01217
#
# Compressibility (1/GPa) = 0.02890784
#
# Stress axis : x y z
#
# Youngs Moduli (GPa) = 70.52664 43.88563 86.09886
#
# Poissons Ratio (x) = 0.01867 0.18352
# Poissons Ratio (y) = 0.03001 0.62673
# Poissons Ratio (z) = 0.15033 0.31945
#
# Static dielectric constant tensor:
#      x y z
#    x 2.035330 0.000000 0.000000 
#    y 0.000000 2.007360 0.000000 
#    z 0.000000 0.000000 2.029160 
# 
# From -- ./inp_files/8376.got.cif
#   From: 2010.05.17/outbox.cif.g08.bks.cpg/sg37_5_cif.got.tgz:8376.got - 2010.06.03 17:53:42.
