data_PCOD9353847
_publ_section_title
;
Structure prediction by ZEFSAII (Michael W. Deem and Ramdas Pophale) SiO2 
 PCOD9353847
Probable space group: C C C 2
;
_chemical_formula_sum "Si O2"
_cell_formula_units_Z 40
_cell_length_a 9.843399
_cell_length_b 10.672493
_cell_length_c 16.116607
_cell_angle_alpha 90.000000
_cell_angle_beta 90.000000
_cell_angle_gamma 90.000000
_cell_volume 1693.107697
_symmetry_space_group_name_H-M "C C C 2"
_symmetry_group_IT_number 37
_symmetry_cell_setting 'orthorhombic'
loop_
_space_group_symop_operation_xyz
x,y,z
-x,-y,z
-x,y,1/2+z
x,-y,1/2+z
1/2+x,1/2+y,z
1/2-x,1/2-y,z
1/2-x,1/2+y,1/2+z
1/2+x,1/2-y,1/2+z
loop_
_atom_site_type_symbol
_atom_site_label
_atom_site_fract_x
_atom_site_fract_y
_atom_site_fract_z
Si Si1 0.125665 0.905287 0.365650
Si Si2 0.219647 0.611945 0.790740
Si Si3 0.487796 0.870138 0.155071
Si Si4 0.891150 0.893880 0.125104
Si Si5 0.750000 0.750000 0.003073
Si Si6 0.750000 0.250000 0.227974
O O1 0.137634 0.802394 0.438049
O O2 0.138072 0.820670 0.283379
O O3 0.255614 0.999240 0.354931
O O4 0.000000 0.000000 0.373218
O O5 0.250000 0.750000 0.827025
O O6 0.333388 0.595012 0.717955
O O7 0.079737 0.614489 0.738943
O O8 0.532992 0.739474 0.116139
O O9 0.330112 0.851545 0.176182
O O10 0.500000 0.000000 0.107405
O O11 0.761853 0.869543 0.065517
O O12 0.000000 0.000000 0.105518
#
# Coordination Sequence:
#
# PCOD9353847 Si02
#       6
#     8   8   8   8   4   4
#     4  11  22  39  64  98 138 182 236 286 357 426
#     4  10  19  38  67  99 127 171 237 288 343 408
#     4  11  21  36  65 103 134 168 230 298 346 400
#     4  11  22  41  69  95 135 187 237 286 349 425
#     4  11  24  42  66  96 140 193 232 283 356 436
#     4  11  22  36  64 102 138 177 226 305 352 414
#
# _framework density 23.625195000000001
#
# number of rings (size 3 to 8) (size 9 to 14) (size 15 to 20)
#    0.000    1.200    5.000    4.800    0.000    0.000 
#    0.000    0.000   17.600    0.000    0.000    0.000 
#    0.000    0.000    0.000    0.000    0.000    0.000 
#
# Total GULP energy -111466.456204 kJ/mol
# GULP energy per Si atom -5573.322810 kJ/mol
# Density = 2.357142 g / cm^3
# Si number density = 23.625195 Si / 1000 Ang^3
#
#
#
# Elastic Constant Matrix: (Units=GPa)
#
#
# Indices 1 2 3 4 5 6 
#
# 1 104.4748 58.1980 17.2467 0.0000 0.0000 0.0000
# 2 58.1980 189.3849 28.2755 0.0000 0.0000 0.0000
# 3 17.2467 28.2755 51.9654 0.0000 0.0000 0.0000
# 4 0.0000 0.0000 0.0000 17.8713 0.0000 0.0000
# 5 0.0000 0.0000 0.0000 0.0000 4.0445 0.0000
# 6 0.0000 0.0000 0.0000 0.0000 0.0000 69.9268
#
#
#
# Elastic Compliance Matrix: (Units=1/GPa)
#
#
# Indices 1 2 3 4 5 6 
#
# 1 0.011757 -0.003298 -0.002107 0.000000 0.000000 0.000000
# 2 -0.003298 0.006672 -0.002536 0.000000 0.000000 0.000000
# 3 -0.002107 -0.002536 0.021323 0.000000 0.000000 0.000000
# 4 0.000000 0.000000 0.000000 0.055956 0.000000 0.000000
# 5 0.000000 0.000000 0.000000 0.000000 0.247248 0.000000
# 6 0.000000 0.000000 0.000000 0.000000 0.000000 0.014301
#
#
# Mechanical properties :
#
#
# Convention : Reuss Voigt Hill
#
# Bulk Modulus (GPa) = 41.89524 61.47395 51.68459
# Shear Modulus (GPa) = 13.12005 34.50885 23.81445
#
# Velocity S-wave (km/s) = 2.35912 3.82603 3.17836
# Velocity P-wave (km/s) = 5.01920 6.75241 5.94926
#
# Compressibility (1/GPa) = 0.02386906
#
# Stress axis : x y z
#
# Youngs Moduli (GPa) = 85.05675 149.87043 46.89810
#
# Poissons Ratio (x) = 0.49431 0.09883
# Poissons Ratio (y) = 0.28054 0.11893
# Poissons Ratio (z) = 0.17924 0.38007
#
# Static dielectric constant tensor:
#      x y z
#    x 2.069400 0.000000 0.000000 
#    y 0.000000 1.949580 0.000000 
#    z 0.000000 0.000000 1.982080 
# 
# From -- ./inp_files/14256.got.cif
#   From: 2010.05.17/outbox.cif.g08.bks.cpg/sg37_8_cif.got.tgz:14256.got - 2010.06.03 17:53:42.
