data_PCOD9353143
_publ_section_title
;
Structure prediction by ZEFSAII (Michael W. Deem and Ramdas Pophale) SiO2 
 PCOD9353143
Probable space group: C M C 21
;
_chemical_formula_sum "Si O2"
_cell_formula_units_Z 64
_cell_length_a 26.599122
_cell_length_b 9.662680
_cell_length_c 11.062210
_cell_angle_alpha 90.000000
_cell_angle_beta 90.000000
_cell_angle_gamma 90.000000
_cell_volume 2843.195986
_symmetry_space_group_name_H-M "C M C 21"
_symmetry_group_IT_number 36
_symmetry_cell_setting 'orthorhombic'
loop_
_space_group_symop_operation_xyz
x,y,z
-x,-y,1/2+z
x,-y,1/2+z
-x,y,z
1/2+x,1/2+y,z
1/2-x,1/2-y,1/2+z
1/2+x,1/2-y,1/2+z
1/2-x,1/2+y,z
loop_
_atom_site_type_symbol
_atom_site_label
_atom_site_fract_x
_atom_site_fract_y
_atom_site_fract_z
Si Si1 0.610430 0.457143 0.364990
Si Si2 0.724570 0.830392 0.954756
Si Si3 0.886399 0.713639 0.169888
Si Si4 0.199680 0.891261 0.766646
Si Si5 0.941836 0.773853 0.922712
Si Si6 0.872792 0.234515 0.063980
Si Si7 0.441553 0.062491 0.706376
Si Si8 0.720980 0.900590 0.595484
O O1 0.610027 0.346446 0.256689
O O2 0.666506 0.522836 0.360843
O O3 0.572637 0.585676 0.352280
O O4 0.599196 0.388184 0.494742
O O5 0.759650 0.802741 0.840253
O O6 0.667620 0.778796 0.962036
O O7 0.753203 0.741533 0.055869
O O8 0.718519 0.992468 0.984770
O O9 0.922929 0.593529 0.217676
O O10 0.831885 0.640019 0.154843
O O11 0.905242 0.756864 0.036573
O O12 0.159490 0.816343 0.679652
O O13 0.238254 0.974406 0.682567
O O14 0.935057 0.646556 0.830857
O O15 0.000000 0.777239 0.961474
O O16 0.908113 0.357674 0.106986
O O17 0.500000 0.067226 0.672586
#
# Coordination Sequence:
#
# PCOD9353143 Si02
#       8
#     8   8   8   8   8   8   8   8
#     4  12  25  46  75 107 150 191 255 310 370 454
#     4  11  23  40  63  97 141 189 244 287 362 436
#     4  12  26  47  75 110 149 194 251 317 382 454
#     4  11  22  42  67 102 145 192 237 299 361 437
#     4  11  27  49  75 107 145 194 251 318 383 448
#     4  11  24  45  69 109 145 192 247 309 374 445
#     4  11  26  50  76 104 147 197 251 317 388 451
#     4  11  24  39  65  98 141 187 245 297 360 439
#
# _framework density 22.509879000000002
#
# number of rings (size 3 to 8) (size 9 to 14) (size 15 to 20)
#    0.000    0.750    2.500    4.875    1.750    5.500 
#    0.000    0.000    0.000    0.000    0.000    0.000 
#    0.000    0.000    0.000    0.000    0.000    0.000 
#
# Total GULP energy -178802.365366 kJ/mol
# GULP energy per Si atom -5587.573918 kJ/mol
# Density = 2.245865 g / cm^3
# Si number density = 22.509879 Si / 1000 Ang^3
#
#
#
# Elastic Constant Matrix: (Units=GPa)
#
#
# Indices 1 2 3 4 5 6 
#
# 1 78.0675 25.4729 18.4707 0.0000 0.0000 0.0000
# 2 25.4729 105.3635 16.5127 0.0000 0.0000 0.0000
# 3 18.4707 16.5127 40.6324 0.0000 0.0000 0.0000
# 4 0.0000 0.0000 0.0000 39.0557 0.0000 0.0000
# 5 0.0000 0.0000 0.0000 0.0000 21.9586 0.0000
# 6 0.0000 0.0000 0.0000 0.0000 0.0000 17.9051
#
#
#
# Elastic Compliance Matrix: (Units=1/GPa)
#
#
# Indices 1 2 3 4 5 6 
#
# 1 0.015060 -0.002743 -0.005732 0.000000 0.000000 0.000000
# 2 -0.002743 0.010636 -0.003076 0.000000 0.000000 0.000000
# 3 -0.005732 -0.003076 0.028466 0.000000 0.000000 0.000000
# 4 0.000000 0.000000 0.000000 0.025604 0.000000 0.000000
# 5 0.000000 0.000000 0.000000 0.000000 0.045540 0.000000
# 6 0.000000 0.000000 0.000000 0.000000 0.000000 0.055850
#
#
# Mechanical properties :
#
#
# Convention : Reuss Voigt Hill
#
# Bulk Modulus (GPa) = 32.19273 38.33067 35.26170
# Shear Modulus (GPa) = 23.29792 26.69104 24.99448
#
# Velocity S-wave (km/s) = 3.22065 3.44720 3.33585
# Velocity P-wave (km/s) = 5.30686 5.73669 5.52596
#
# Compressibility (1/GPa) = 0.03106291
#
# Stress axis : x y z
#
# Youngs Moduli (GPa) = 66.39898 94.01977 35.12933
#
# Poissons Ratio (x) = 0.25788 0.20135
# Poissons Ratio (y) = 0.18212 0.10804
# Poissons Ratio (z) = 0.38057 0.28917
#
# Static dielectric constant tensor:
#      x y z
#    x 1.822520 0.000000 0.000000 
#    y 0.000000 1.837450 0.000000 
#    z 0.000000 0.000000 1.965980 
# 
# From -- ./inp_files/9753.got.cif
#   From: 2010.05.17/outbox.cif.g08.bks.cpg/sg36_5_cif.got.tgz:9753.got - 2010.06.03 17:41:39.
