data_PCOD9353382
_publ_section_title
;
Structure prediction by ZEFSAII (Michael W. Deem and Ramdas Pophale) SiO2 
 PCOD9353382
Probable space group: C M C 21
;
_chemical_formula_sum "Si O2"
_cell_formula_units_Z 24
_cell_length_a 9.000000
_cell_length_b 18.000000
_cell_length_c 15.000000
_cell_angle_alpha 90.000000
_cell_angle_beta 90.000000
_cell_angle_gamma 90.000000
_cell_volume 2430.000000
_symmetry_space_group_name_H-M "C M C 21"
_symmetry_group_IT_number 36
_symmetry_cell_setting 'orthorhombic'
loop_
_space_group_symop_operation_xyz
x,y,z
-x,-y,1/2+z
x,-y,1/2+z
-x,y,z
1/2+x,1/2+y,z
1/2-x,1/2-y,1/2+z
1/2+x,1/2-y,1/2+z
1/2-x,1/2+y,z
loop_
_atom_site_type_symbol
_atom_site_label
_atom_site_fract_x
_atom_site_fract_y
_atom_site_fract_z
Si Si1 0.823425 0.041667 0.166500
Si Si2 0.822338 0.201597 0.876164
Si Si3 0.823577 0.698923 0.208932
Si Si4 0.323089 0.541941 0.483987
Si Si5 0.823554 0.211649 0.533207
Si Si6 0.822873 0.455490 0.325546
O O1 0.763286 0.124086 0.185519
O O2 0.000000 0.038801 0.182403
O O3 0.742797 0.984586 0.232624
O O4 0.796424 0.014524 0.065684
O O5 0.783478 0.264483 0.803055
O O6 0.745217 0.124172 0.851594
O O7 0.000000 0.191072 0.875408
O O8 0.766713 0.233447 0.969659
O O9 0.798251 0.761794 0.134029
O O10 0.000000 0.681613 0.209630
O O11 0.500000 0.539998 0.463224
O O12 0.285721 0.625760 0.514509
O O13 0.230720 0.514690 0.399651
O O14 0.000000 0.220119 0.515069
O O15 0.000000 0.451526 0.322562
#
# Coordination Sequence:
#
# PCOD9353382 Si02
#       6
#     8   8   8   8   8   8
#     4  11  23  40  63  90 121 158 199 244 296 353
#     4  11  23  40  61  86 118 156 199 245 295 352
#     4  10  22  40  61  87 120 156 195 242 296 353
#     4  10  22  41  64  90 121 158 199 244 296 353
#     4  10  21  39  62  88 119 154 194 242 295 351
#     4  12  25  40  61  89 121 158 200 247 298 352
#
# _framework density 9.8765429999999999
#
# number of rings (size 3 to 8) (size 9 to 14) (size 15 to 20)
#    0.000    1.333    0.000    5.500    0.000   12.000 
#    0.000    1.667    0.000    0.000    0.000    0.000 
#    0.000    0.000    0.000    0.000    0.000    0.000 
#
# Total GULP energy -134277.730128 kJ/mol
# GULP energy per Si atom -5594.905422 kJ/mol
# Density = 0.985406 g / cm^3
# Si number density = 9.876543 Si / 1000 Ang^3
#
#
#
# Elastic Constant Matrix: (Units=GPa)
#
#
# Indices 1 2 3 4 5 6 
#
# 1 44.7919 3.1849 12.8372 0.0000 0.0000 0.0000
# 2 3.1849 50.5481 -30.8396 0.0000 0.0000 0.0000
# 3 12.8372 -30.8396 43.7735 0.0000 0.0000 0.0000
# 4 0.0000 0.0000 0.0000 37.1893 0.0000 0.0000
# 5 0.0000 0.0000 0.0000 0.0000 27.6111 0.0000
# 6 0.0000 0.0000 0.0000 0.0000 0.0000 37.2088
#
#
#
# Elastic Compliance Matrix: (Units=1/GPa)
#
#
# Indices 1 2 3 4 5 6 
#
# 1 0.027903 -0.011840 -0.016524 0.000000 0.000000 0.000000
# 2 -0.011840 0.039721 0.031457 0.000000 0.000000 0.000000
# 3 -0.016524 0.031457 0.049853 0.000000 0.000000 0.000000
# 4 0.000000 0.000000 0.000000 0.026889 0.000000 0.000000
# 5 0.000000 0.000000 0.000000 0.000000 0.036217 0.000000
# 6 0.000000 0.000000 0.000000 0.000000 0.000000 0.026875
#
#
# Mechanical properties :
#
#
# Convention : Reuss Voigt Hill
#
# Bulk Modulus (GPa) = 8.08653 12.16427 10.12540
# Shear Modulus (GPa) = 20.61898 30.66391 25.64144
#
# Velocity S-wave (km/s) = 3.23435 3.94427 3.60682
# Velocity P-wave (km/s) = 4.24861 5.18793 4.74159
#
# Compressibility (1/GPa) = 0.12366241
#
# Stress axis : x y z
#
# Youngs Moduli (GPa) = 35.83821 25.17556 20.05896
#
# Poissons Ratio (x) = 0.29807 0.33146
# Poissons Ratio (y) = 0.42431 -0.63099
# Poissons Ratio (z) = 0.59221 -0.79194
#
# Static dielectric constant tensor:
#      x y z
#    x 1.659580 0.000000 0.000000 
#    y 0.000000 1.658550 0.000000 
#    z 0.000000 0.000000 1.678510 
# 
# From -- ./inp_files/10356.got.cif
#   From: 2010.05.17/outbox.ucp.g08.bks.cvg/sg36_6_cif.got.tgz:10356.got - 2010.06.11 10:37:26.
