data_PCOD9353919
_publ_section_title
;
Structure prediction by ZEFSAII (Michael W. Deem and Ramdas Pophale) SiO2 
 PCOD9353919
Probable space group: C C C 2
;
_chemical_formula_sum "Si O2"
_cell_formula_units_Z 40
_cell_length_a 9.924072
_cell_length_b 20.651170
_cell_length_c 9.046374
_cell_angle_alpha 90.000000
_cell_angle_beta 90.000000
_cell_angle_gamma 90.000000
_cell_volume 1853.997341
_symmetry_space_group_name_H-M "C C C 2"
_symmetry_group_IT_number 37
_symmetry_cell_setting 'orthorhombic'
loop_
_space_group_symop_operation_xyz
x,y,z
-x,-y,z
-x,y,1/2+z
x,-y,1/2+z
1/2+x,1/2+y,z
1/2-x,1/2-y,z
1/2-x,1/2+y,1/2+z
1/2+x,1/2-y,1/2+z
loop_
_atom_site_type_symbol
_atom_site_label
_atom_site_fract_x
_atom_site_fract_y
_atom_site_fract_z
Si Si1 0.154622 0.688583 0.576730
Si Si2 0.500000 0.500000 0.369045
Si Si3 0.658202 0.058924 0.118300
Si Si4 0.000000 0.500000 0.384948
Si Si5 0.666312 0.439931 0.604465
Si Si6 0.355988 0.806128 0.221558
O O1 0.250000 0.750000 0.615324
O O2 0.238078 0.622577 0.614577
O O3 0.134673 0.689821 0.399196
O O4 0.008698 0.695451 0.656229
O O5 0.556735 0.442202 0.473858
O O6 0.400236 0.461938 0.257877
O O7 0.709362 0.129041 0.153394
O O8 0.606113 0.029784 0.271989
O O9 0.753427 0.004179 0.056763
O O10 0.542782 0.057777 0.994112
O O11 0.250000 0.750000 0.184426
#
# Coordination Sequence:
#
# PCOD9353919 Si02
#       6
#     8   4   8   4   8   8
#     4  11  26  45  66  95 133 176 220 269 328 395
#     4  10  24  40  64  98 132 172 218 276 332 386
#     4  11  20  37  62  92 124 163 211 267 324 385
#     4  10  20  32  62  96 124 156 210 270 324 384
#     4  11  23  41  65  95 131 171 219 269 328 392
#     4  11  25  44  66  97 133 172 220 273 329 388
#
# _framework density 21.575002999999999
#
# number of rings (size 3 to 8) (size 9 to 14) (size 15 to 20)
#    0.000    1.200    0.000    7.200    0.000    8.800 
#    0.000    0.000    0.000    0.000    0.000    0.000 
#    0.000    0.000    0.000    0.000    0.000    0.000 
#
# Total GULP energy -111611.341095 kJ/mol
# GULP energy per Si atom -5580.567055 kJ/mol
# Density = 2.152590 g / cm^3
# Si number density = 21.575003 Si / 1000 Ang^3
#
#
#
# Elastic Constant Matrix: (Units=GPa)
#
#
# Indices 1 2 3 4 5 6 
#
# 1 97.0660 64.1618 33.3912 0.0000 0.0000 0.0000
# 2 64.1618 167.1354 27.4810 0.0000 0.0000 0.0000
# 3 33.3912 27.4810 111.0444 0.0000 0.0000 0.0000
# 4 0.0000 0.0000 0.0000 13.8799 0.0000 0.0000
# 5 0.0000 0.0000 0.0000 0.0000 32.9482 0.0000
# 6 0.0000 0.0000 0.0000 0.0000 0.0000 44.0246
#
#
#
# Elastic Compliance Matrix: (Units=1/GPa)
#
#
# Indices 1 2 3 4 5 6 
#
# 1 0.014807 -0.005162 -0.003175 0.000000 0.000000 0.000000
# 2 -0.005162 0.008037 -0.000437 0.000000 0.000000 0.000000
# 3 -0.003175 -0.000437 0.010068 0.000000 0.000000 0.000000
# 4 0.000000 0.000000 0.000000 0.072046 0.000000 0.000000
# 5 0.000000 0.000000 0.000000 0.000000 0.030351 0.000000
# 6 0.000000 0.000000 0.000000 0.000000 0.000000 0.022715
#
#
# Mechanical properties :
#
#
# Convention : Reuss Voigt Hill
#
# Bulk Modulus (GPa) = 65.08631 69.47930 67.28281
# Shear Modulus (GPa) = 27.67143 34.85134 31.26138
#
# Velocity S-wave (km/s) = 3.58518 4.02351 3.81065
# Velocity P-wave (km/s) = 6.88266 7.33883 7.11440
#
# Compressibility (1/GPa) = 0.01536421
#
# Stress axis : x y z
#
# Youngs Moduli (GPa) = 67.53717 124.42990 99.32302
#
# Poissons Ratio (x) = 0.64232 0.31534
# Poissons Ratio (y) = 0.34863 0.04337
# Poissons Ratio (z) = 0.21442 0.05433
#
# Static dielectric constant tensor:
#      x y z
#    x 2.472720 0.000000 0.000000 
#    y 0.000000 1.888390 0.000000 
#    z 0.000000 0.000000 1.748170 
# 
# From -- ./inp_files/2749.got.cif
#   From: 2010.05.17/outbox.cif.g08.bks.cpg/sg37_2_cif.got.tgz:2749.got - 2010.06.03 17:53:42.
