data_PCOD9353428
_publ_section_title
;
Structure prediction by ZEFSAII (Michael W. Deem and Ramdas Pophale) SiO2 
 PCOD9353428
Probable space group: C C C 2
;
_chemical_formula_sum "Si O2"
_cell_formula_units_Z 48
_cell_length_a 19.660743
_cell_length_b 6.878739
_cell_length_c 13.932015
_cell_angle_alpha 90.000000
_cell_angle_beta 90.000000
_cell_angle_gamma 90.000000
_cell_volume 1884.181307
_symmetry_space_group_name_H-M "C C C 2"
_symmetry_group_IT_number 37
_symmetry_cell_setting 'orthorhombic'
loop_
_space_group_symop_operation_xyz
x,y,z
-x,-y,z
-x,y,1/2+z
x,-y,1/2+z
1/2+x,1/2+y,z
1/2-x,1/2-y,z
1/2-x,1/2+y,1/2+z
1/2+x,1/2-y,1/2+z
loop_
_atom_site_type_symbol
_atom_site_label
_atom_site_fract_x
_atom_site_fract_y
_atom_site_fract_z
Si Si1 0.250000 0.250000 0.823540
Si Si2 0.144370 0.180320 0.985094
Si Si3 0.006607 0.764639 0.574884
Si Si4 0.250000 0.750000 0.034798
Si Si5 0.619619 0.780988 0.456653
Si Si6 0.947648 0.166066 0.776284
Si Si7 0.812771 0.022385 0.678024
O O1 0.241036 0.049620 0.759690
O O2 0.185919 0.257078 0.894947
O O3 0.071312 0.272619 0.006770
O O4 0.182495 0.183271 0.090611
O O5 0.132187 0.954045 0.956993
O O6 0.020340 0.723606 0.685827
O O7 0.936668 0.679246 0.536995
O O8 0.000000 0.000000 0.572745
O O9 0.196592 0.840663 0.108489
O O10 0.304368 0.865735 0.970894
O O11 0.581872 0.809125 0.356007
O O12 0.883130 0.051960 0.731471
O O13 0.000000 0.000000 0.813072
#
# Coordination Sequence:
#
# PCOD9353428 Si02
#       7
#     4   8   8   4   8   8   8
#     4  11  18  30  53  70 104 149 170 202 279 318
#     4   9  17  30  47  74 105 129 169 214 255 324
#     4   8  16  28  44  71 104 127 152 213 275 308
#     4   9  18  30  43  68 106 133 164 206 255 316
#     4  10  17  29  47  72 104 134 166 207 268 319
#     4  10  16  27  49  72 102 136 150 213 277 322
#     4   9  19  31  46  73 106 133 173 210 257 330
#
# _framework density 25.475256999999999
#
# number of rings (size 3 to 8) (size 9 to 14) (size 15 to 20)
#    0.000    2.667    1.667    4.500    0.000    0.000 
#    0.000    3.333    0.000    0.000    0.000    4.667 
#    5.000    0.000    0.000    0.000    0.000    0.000 
#
# Total GULP energy -133614.422190 kJ/mol
# GULP energy per Si atom -5567.267591 kJ/mol
# Density = 2.541727 g / cm^3
# Si number density = 25.475257 Si / 1000 Ang^3
#
#
#
# Elastic Constant Matrix: (Units=GPa)
#
#
# Indices 1 2 3 4 5 6 
#
# 1 113.2982 -2.7441 69.0395 0.0000 0.0000 0.0000
# 2 -2.7441 69.2238 3.1534 0.0000 0.0000 0.0000
# 3 69.0395 3.1534 177.3914 0.0000 0.0000 0.0000
# 4 0.0000 0.0000 0.0000 7.9706 0.0000 0.0000
# 5 0.0000 0.0000 0.0000 0.0000 36.3343 0.0000
# 6 0.0000 0.0000 0.0000 0.0000 0.0000 -0.2384
#
#
#
# Elastic Compliance Matrix: (Units=1/GPa)
#
#
# Indices 1 2 3 4 5 6 
#
# 1 0.011601 0.000666 -0.004527 0.000000 0.000000 0.000000
# 2 0.000666 0.014496 -0.000517 0.000000 0.000000 0.000000
# 3 -0.004527 -0.000517 0.007408 0.000000 0.000000 0.000000
# 4 0.000000 0.000000 0.000000 0.125461 0.000000 0.000000
# 5 0.000000 0.000000 0.000000 0.000000 0.027522 0.000000
# 6 0.000000 0.000000 0.000000 0.000000 0.000000 -4.194522
#
#
# Mechanical properties :
#
#
# Convention : Reuss Voigt Hill
#
# Bulk Modulus (GPa) = 40.40461 55.42344 47.91403
# Shear Modulus (GPa) = -1.25281 28.17762 13.46241
#
# Velocity S-wave (km/s) = -0.70203 3.32938 2.30130
# Velocity P-wave (km/s) = 3.90354 6.04837 5.09021
#
# Compressibility (1/GPa) = 0.02474965
#
# Stress axis : x y z
#
# Youngs Moduli (GPa) = 86.20049 68.98527 134.98471
#
# Poissons Ratio (x) = -0.04595 0.61105
# Poissons Ratio (y) = -0.05742 0.06978
# Poissons Ratio (z) = 0.39021 0.03566
#
# Static dielectric constant tensor:
#      x y z
#    x 2.327730 0.000000 0.000000 
#    y 0.000000 2.150990 0.000000 
#    z 0.000000 0.000000 2.085730 
# 
# From -- ./inp_files/11687.got.cif
#   From: 2010.05.17/outbox.cif.g08.bks.cpg/sg37_6_cif.got.tgz:11687.got - 2010.06.03 17:53:42.
