data_PCOD9353257
_publ_section_title
;
Structure prediction by ZEFSAII (Michael W. Deem and Ramdas Pophale) SiO2 
 PCOD9353257
Probable space group: C M C 21
;
_chemical_formula_sum "Si O2"
_cell_formula_units_Z 64
_cell_length_a 8.811304
_cell_length_b 20.333618
_cell_length_c 20.101439
_cell_angle_alpha 90.000000
_cell_angle_beta 90.000000
_cell_angle_gamma 90.000000
_cell_volume 3601.488181
_symmetry_space_group_name_H-M "C M C 21"
_symmetry_group_IT_number 36
_symmetry_cell_setting 'orthorhombic'
loop_
_space_group_symop_operation_xyz
x,y,z
-x,-y,1/2+z
x,-y,1/2+z
-x,y,z
1/2+x,1/2+y,z
1/2-x,1/2-y,1/2+z
1/2+x,1/2-y,1/2+z
1/2-x,1/2+y,z
loop_
_atom_site_type_symbol
_atom_site_label
_atom_site_fract_x
_atom_site_fract_y
_atom_site_fract_z
Si Si1 0.180877 0.195645 0.679010
Si Si2 0.319142 0.195478 0.988661
Si Si3 0.819126 0.342265 0.642488
Si Si4 0.319112 0.342099 0.025197
Si Si5 0.680426 0.480360 0.655135
Si Si6 0.180431 0.519797 0.512413
Si Si7 0.319558 0.418831 0.406712
Si Si8 0.180447 0.581298 0.760875
O O1 0.217621 0.273087 0.677678
O O2 0.209046 0.169036 0.604060
O O3 0.272021 0.151813 0.730542
O O4 0.000000 0.188766 0.691027
O O5 0.500000 0.188589 0.976595
O O6 0.227919 0.151645 0.937157
O O7 0.291070 0.168881 0.063620
O O8 0.282403 0.272920 0.990001
O O9 0.726795 0.404780 0.666993
O O10 0.000000 0.354043 0.649890
O O11 0.500000 0.353865 0.017837
O O12 0.226841 0.404613 0.000647
O O13 0.500000 0.488528 0.652933
O O14 0.750040 0.500045 0.583774
O O15 0.750070 0.527307 0.711066
O O16 0.250118 0.472888 0.456459
O O17 0.000000 0.511639 0.514569
O O18 0.500000 0.425098 0.404650
O O19 0.249961 0.426379 0.333794
O O20 0.000000 0.575038 0.762888
#
# Coordination Sequence:
#
# PCOD9353257 Si02
#       8
#     8   8   8   8   8   8   8   8
#     4   9  18  35  59  87 119 153 191 240 292 348
#     4   9  18  35  59  87 119 153 191 240 292 348
#     4   9  18  34  59  89 120 152 191 242 295 342
#     4   9  18  34  59  89 120 152 191 242 295 342
#     4  12  23  37  59  89 122 157 200 249 298 353
#     4  12  23  37  59  89 122 157 200 249 298 353
#     4  12  25  41  61  86 119 160 201 247 300 361
#     4  12  25  41  61  86 119 160 201 247 300 361
#
# _framework density 17.770430999999999
#
# number of rings (size 3 to 8) (size 9 to 14) (size 15 to 20)
#    0.000    1.500    2.500    6.000    0.000    1.000 
#    0.000    3.750    0.000    6.000    0.000    0.000 
#    0.000    0.000    0.000    0.000    0.000    0.000 
#
# Total GULP energy -178826.661864 kJ/mol
# GULP energy per Si atom -5588.333183 kJ/mol
# Density = 1.772998 g / cm^3
# Si number density = 17.770431 Si / 1000 Ang^3
#
#
#
# Elastic Constant Matrix: (Units=GPa)
#
#
# Indices 1 2 3 4 5 6 
#
# 1 142.8836 85.4444 82.9229 0.0000 0.0000 0.0000
# 2 85.4444 130.3489 74.2925 0.0000 0.0000 0.0000
# 3 82.9229 74.2925 126.9155 0.0000 0.0000 0.0000
# 4 0.0000 0.0000 0.0000 22.2293 0.0000 0.0000
# 5 0.0000 0.0000 0.0000 0.0000 25.0644 0.0000
# 6 0.0000 0.0000 0.0000 0.0000 0.0000 36.7286
#
#
#
# Elastic Compliance Matrix: (Units=1/GPa)
#
#
# Indices 1 2 3 4 5 6 
#
# 1 0.013694 -0.005818 -0.005542 0.000000 0.000000 0.000000
# 2 -0.005818 0.013985 -0.004385 0.000000 0.000000 0.000000
# 3 -0.005542 -0.004385 0.014067 0.000000 0.000000 0.000000
# 4 0.000000 0.000000 0.000000 0.044986 0.000000 0.000000
# 5 0.000000 0.000000 0.000000 0.000000 0.039897 0.000000
# 6 0.000000 0.000000 0.000000 0.000000 0.000000 0.027227
#
#
# Mechanical properties :
#
#
# Convention : Reuss Voigt Hill
#
# Bulk Modulus (GPa) = 97.49969 98.38527 97.94248
# Shear Modulus (GPa) = 26.48829 27.30365 26.89597
#
# Velocity S-wave (km/s) = 3.86499 3.92403 3.89462
# Velocity P-wave (km/s) = 8.65465 8.71868 8.68673
#
# Compressibility (1/GPa) = 0.01025644
#
# Stress axis : x y z
#
# Youngs Moduli (GPa) = 73.02504 71.50710 71.09003
#
# Poissons Ratio (x) = 0.41603 0.39395
# Poissons Ratio (y) = 0.42486 0.31172
# Poissons Ratio (z) = 0.40467 0.31355
#
# Static dielectric constant tensor:
#      x y z
#    x 1.590180 0.000000 0.000000 
#    y 0.000000 1.618310 0.000000 
#    z 0.000000 0.000000 1.574430 
# 
# From -- ./inp_files/13860.got.cif
#   From: 2010.05.17/outbox.cif.g08.bks.cpg/sg36_7_cif.got.tgz:13860.got - 2010.06.03 17:41:39.
