data_PCOD9353142
_publ_section_title
;
Structure prediction by ZEFSAII (Michael W. Deem and Ramdas Pophale) SiO2 
 PCOD9353142
Probable space group: C M C 21
;
_chemical_formula_sum "Si O2"
_cell_formula_units_Z 48
_cell_length_a 17.827195
_cell_length_b 9.218214
_cell_length_c 13.345213
_cell_angle_alpha 90.000000
_cell_angle_beta 90.000000
_cell_angle_gamma 90.000000
_cell_volume 2193.084224
_symmetry_space_group_name_H-M "C M C 21"
_symmetry_group_IT_number 36
_symmetry_cell_setting 'orthorhombic'
loop_
_space_group_symop_operation_xyz
x,y,z
-x,-y,1/2+z
x,-y,1/2+z
-x,y,z
1/2+x,1/2+y,z
1/2-x,1/2-y,1/2+z
1/2+x,1/2-y,1/2+z
1/2-x,1/2+y,z
loop_
_atom_site_type_symbol
_atom_site_label
_atom_site_fract_x
_atom_site_fract_y
_atom_site_fract_z
Si Si1 0.000000 0.185282 0.147780
Si Si2 0.500000 0.159268 0.956309
Si Si3 0.500000 0.978590 0.237655
Si Si4 0.500000 0.496040 0.445324
Si Si5 0.247744 0.133885 0.386379
Si Si6 0.115241 0.001621 0.269710
Si Si7 0.639164 0.194654 0.219317
Si Si8 0.669319 0.111433 0.007703
O O1 0.000000 0.358652 0.150201
O O2 0.072013 0.127374 0.209829
O O3 0.000000 0.109301 0.039954
O O4 0.500000 0.115095 0.839639
O O5 0.500000 0.333087 0.972053
O O6 0.578896 0.100960 0.998759
O O7 0.572041 0.081925 0.235118
O O8 0.570275 0.470399 0.372227
O O9 0.312671 0.204257 0.319897
O O10 0.196826 0.252527 0.441377
O O11 0.196634 0.048402 0.306435
O O12 0.287028 0.026643 0.465001
O O13 0.111468 0.858263 0.201842
O O14 0.685723 0.142050 0.123624
#
# Coordination Sequence:
#
# PCOD9353142 Si02
#       8
#     4   4   4   4   8   8   8   8
#     4  11  24  42  75 103 142 193 249 288 369 447
#     4  12  21  47  76 102 143 187 248 303 360 428
#     4  12  23  48  73 108 142 190 248 318 357 432
#     4  11  22  41  72 101 139 192 243 295 356 441
#     4  12  26  46  71 105 146 188 241 304 364 444
#     4  11  24  45  67 103 141 190 236 303 362 434
#     4  12  28  46  74 104 152 188 242 307 375 434
#     4  12  27  48  74 107 145 198 240 302 375 437
#
# _framework density 21.886984000000002
#
# number of rings (size 3 to 8) (size 9 to 14) (size 15 to 20)
#    0.000    0.333    6.667    2.500    2.333    1.333 
#    3.000    0.000    0.000    0.000    0.000    0.000 
#    0.000    0.000    0.000    0.000    0.000    0.000 
#
# Total GULP energy -134333.557506 kJ/mol
# GULP energy per Si atom -5597.231563 kJ/mol
# Density = 2.183717 g / cm^3
# Si number density = 21.886984 Si / 1000 Ang^3
#
#
#
# Elastic Constant Matrix: (Units=GPa)
#
#
# Indices 1 2 3 4 5 6 
#
# 1 97.2804 38.5811 15.6585 0.0000 0.0000 0.0000
# 2 38.5811 89.8944 4.9510 0.0000 0.0000 0.0000
# 3 15.6585 4.9510 85.1991 0.0000 0.0000 0.0000
# 4 0.0000 0.0000 0.0000 30.4065 0.0000 0.0000
# 5 0.0000 0.0000 0.0000 0.0000 7.9279 0.0000
# 6 0.0000 0.0000 0.0000 0.0000 0.0000 2.8231
#
#
#
# Elastic Compliance Matrix: (Units=1/GPa)
#
#
# Indices 1 2 3 4 5 6 
#
# 1 0.012728 -0.005351 -0.002028 0.000000 0.000000 0.000000
# 2 -0.005351 0.013409 0.000204 0.000000 0.000000 0.000000
# 3 -0.002028 0.000204 0.012098 0.000000 0.000000 0.000000
# 4 0.000000 0.000000 0.000000 0.032888 0.000000 0.000000
# 5 0.000000 0.000000 0.000000 0.000000 0.126137 0.000000
# 6 0.000000 0.000000 0.000000 0.000000 0.000000 0.354223
#
#
# Mechanical properties :
#
#
# Convention : Reuss Voigt Hill
#
# Bulk Modulus (GPa) = 41.86632 43.41725 42.64178
# Shear Modulus (GPa) = 8.71390 22.44371 15.57880
#
# Velocity S-wave (km/s) = 1.99749 3.20572 2.67082
# Velocity P-wave (km/s) = 4.94872 5.79502 5.38851
#
# Compressibility (1/GPa) = 0.02388555
#
# Stress axis : x y z
#
# Youngs Moduli (GPa) = 78.56543 74.57409 82.65744
#
# Poissons Ratio (x) = 0.39905 0.16766
# Poissons Ratio (y) = 0.42041 -0.01688
# Poissons Ratio (z) = 0.15936 -0.01523
#
# Static dielectric constant tensor:
#      x y z
#    x 1.814360 0.000000 0.000000 
#    y 0.000000 1.783790 0.000000 
#    z 0.000000 0.000000 1.784300 
# 
# From -- ./inp_files/12526.got.cif
#   From: 2010.05.17/outbox.cif.g08.bks.cpg/sg36_7_cif.got.tgz:12526.got - 2010.06.03 17:41:39.
