data_PCOD9353171
_publ_section_title
;
Structure prediction by ZEFSAII (Michael W. Deem and Ramdas Pophale) SiO2 
 PCOD9353171
Probable space group: C M C 21
;
_chemical_formula_sum "Si O2"
_cell_formula_units_Z 56
_cell_length_a 22.621588
_cell_length_b 7.806161
_cell_length_c 17.196959
_cell_angle_alpha 90.000000
_cell_angle_beta 90.000000
_cell_angle_gamma 90.000000
_cell_volume 3036.772434
_symmetry_space_group_name_H-M "C M C 21"
_symmetry_group_IT_number 36
_symmetry_cell_setting 'orthorhombic'
loop_
_space_group_symop_operation_xyz
x,y,z
-x,-y,1/2+z
x,-y,1/2+z
-x,y,z
1/2+x,1/2+y,z
1/2-x,1/2-y,1/2+z
1/2+x,1/2-y,1/2+z
1/2-x,1/2+y,z
loop_
_atom_site_type_symbol
_atom_site_label
_atom_site_fract_x
_atom_site_fract_y
_atom_site_fract_z
Si Si1 0.728414 0.274418 0.278990
Si Si2 0.568545 0.586048 0.913689
Si Si3 0.931434 0.771940 0.791677
Si Si4 0.871646 0.572889 0.352478
Si Si5 0.674898 0.406880 0.698763
Si Si6 0.827593 0.982607 0.022859
Si Si7 0.787199 0.356708 0.443930
O O1 0.678198 0.131059 0.290509
O O2 0.694541 0.449846 0.261530
O O3 0.773265 0.232464 0.209584
O O4 0.766021 0.287562 0.358966
O O5 0.500000 0.600601 0.936093
O O6 0.574173 0.421821 0.856523
O O7 0.589786 0.760645 0.871898
O O8 0.612768 0.554327 0.984727
O O9 0.909157 0.589962 0.824819
O O10 0.887188 0.826210 0.723299
O O11 0.000000 0.761854 0.768942
O O12 0.832962 0.509082 0.426024
O O13 0.672625 0.490224 0.614606
O O14 0.818645 0.788824 0.993922
O O15 0.771421 0.080295 0.986382
#
# Coordination Sequence:
#
# PCOD9353171 Si02
#       7
#     8   8   8   8   8   8   8
#     4  12  20  37  64  92 123 164 206 252 314 377
#     4  11  23  41  65  90 119 168 219 256 301 367
#     4  11  23  41  65  90 119 168 219 256 301 367
#     4  12  21  38  68  92 123 150 216 268 298 352
#     4  12  23  38  60  94 132 162 200 260 326 376
#     4  12  23  38  60  94 132 162 200 260 326 376
#     4  12  20  37  64  92 123 164 206 252 314 377
#
# _framework density 18.440631
#
# number of rings (size 3 to 8) (size 9 to 14) (size 15 to 20)
#    0.000    0.286    8.571    1.286    0.000    0.571 
#    0.000    1.429    0.000    0.000    0.000    0.000 
#    0.000    0.000    0.000    0.000    0.000    0.000 
#
# Total GULP energy -156483.040273 kJ/mol
# GULP energy per Si atom -5588.680010 kJ/mol
# Density = 1.839866 g / cm^3
# Si number density = 18.440631 Si / 1000 Ang^3
#
#
#
# Elastic Constant Matrix: (Units=GPa)
#
#
# Indices 1 2 3 4 5 6 
#
# 1 135.5899 35.2637 13.6846 0.0000 0.0000 0.0000
# 2 35.2637 92.6021 -4.0263 0.0000 0.0000 0.0000
# 3 13.6846 -4.0263 31.6434 0.0000 0.0000 0.0000
# 4 0.0000 0.0000 0.0000 19.7866 0.0000 0.0000
# 5 0.0000 0.0000 0.0000 0.0000 13.5900 0.0000
# 6 0.0000 0.0000 0.0000 0.0000 0.0000 32.9816
#
#
#
# Elastic Compliance Matrix: (Units=1/GPa)
#
#
# Indices 1 2 3 4 5 6 
#
# 1 0.008711 -0.003500 -0.004212 0.000000 0.000000 0.000000
# 2 -0.003500 0.012265 0.003074 0.000000 0.000000 0.000000
# 3 -0.004212 0.003074 0.033815 0.000000 0.000000 0.000000
# 4 0.000000 0.000000 0.000000 0.050539 0.000000 0.000000
# 5 0.000000 0.000000 0.000000 0.000000 0.073584 0.000000
# 6 0.000000 0.000000 0.000000 0.000000 0.000000 0.030320
#
#
# Mechanical properties :
#
#
# Convention : Reuss Voigt Hill
#
# Bulk Modulus (GPa) = 21.97096 38.85326 30.41211
# Shear Modulus (GPa) = 21.39659 27.59919 24.49789
#
# Velocity S-wave (km/s) = 3.41001 3.87285 3.64878
# Velocity P-wave (km/s) = 5.23875 6.41200 5.85484
#
# Compressibility (1/GPa) = 0.04551463
#
# Stress axis : x y z
#
# Youngs Moduli (GPa) = 114.80197 81.52960 29.57264
#
# Poissons Ratio (x) = 0.28537 0.12457
# Poissons Ratio (y) = 0.40183 -0.09092
# Poissons Ratio (z) = 0.48359 -0.25065
#
# Static dielectric constant tensor:
#      x y z
#    x 1.633110 0.000000 0.000000 
#    y 0.000000 1.678240 0.000000 
#    z 0.000000 0.000000 1.608350 
# 
# From -- ./inp_files/14990.got.cif
#   From: 2010.05.17/outbox.cif.g08.bks.cpg/sg36_8_cif.got.tgz:14990.got - 2010.06.03 17:41:39.
