data_PCOD9353679
_publ_section_title
;
Structure prediction by ZEFSAII (Michael W. Deem and Ramdas Pophale) SiO2 
 PCOD9353679
Probable space group: C C C 2
;
_chemical_formula_sum "Si O2"
_cell_formula_units_Z 48
_cell_length_a 5.227652
_cell_length_b 14.704206
_cell_length_c 28.411339
_cell_angle_alpha 90.000000
_cell_angle_beta 90.000000
_cell_angle_gamma 90.000000
_cell_volume 2183.936214
_symmetry_space_group_name_H-M "C C C 2"
_symmetry_group_IT_number 37
_symmetry_cell_setting 'orthorhombic'
loop_
_space_group_symop_operation_xyz
x,y,z
-x,-y,z
-x,y,1/2+z
x,-y,1/2+z
1/2+x,1/2+y,z
1/2-x,1/2-y,z
1/2-x,1/2+y,1/2+z
1/2+x,1/2-y,1/2+z
loop_
_atom_site_type_symbol
_atom_site_label
_atom_site_fract_x
_atom_site_fract_y
_atom_site_fract_z
Si Si1 0.504266 0.110525 0.470460
Si Si2 0.304383 0.359546 0.115837
Si Si3 0.197746 0.645193 0.073552
Si Si4 0.998147 0.186963 0.314781
Si Si5 0.993134 0.891792 0.416810
Si Si6 0.999205 0.185737 0.712201
O O1 0.426987 0.142637 0.522201
O O2 0.774134 0.142135 0.449385
O O3 0.279421 0.140954 0.435521
O O4 0.500000 0.000000 0.472219
O O5 0.250000 0.250000 0.111321
O O6 0.515072 0.393040 0.078156
O O7 0.439339 0.373597 0.166219
O O8 0.019771 0.396202 0.107341
O O9 0.250000 0.750000 0.086735
O O10 0.750000 0.250000 0.314482
O O11 0.980190 0.129061 0.361914
O O12 0.250000 0.250000 0.317657
O O13 0.990136 0.139014 0.263468
O O14 0.000000 0.000000 0.422308
O O15 0.750000 0.250000 0.715054
O O16 0.250000 0.250000 0.705482
#
# Coordination Sequence:
#
# PCOD9353679 Si02
#       6
#     8   8   8   8   8   8
#     4  10  21  36  52  70  97 136 173 203 247 305
#     4   9  16  28  46  71 100 127 156 194 243 296
#     4  10  19  30  48  73  97 124 162 205 244 281
#     4  10  20  33  53  80 103 128 167 213 253 290
#     4  10  21  37  54  72 100 138 171 203 253 310
#     4   9  16  28  47  72 101 129 158 196 246 300
#
# _framework density 21.978662
#
# number of rings (size 3 to 8) (size 9 to 14) (size 15 to 20)
#    0.000    2.333    0.000    4.500    0.000    2.000 
#    0.000    0.000    0.000    2.000    0.000    0.000 
#    0.000    0.000    0.000    0.000    0.000    0.000 
#
# Total GULP energy -133865.865816 kJ/mol
# GULP energy per Si atom -5577.744409 kJ/mol
# Density = 2.192864 g / cm^3
# Si number density = 21.978662 Si / 1000 Ang^3
#
#
#
# Elastic Constant Matrix: (Units=GPa)
#
#
# Indices 1 2 3 4 5 6 
#
# 1 168.5601 14.8046 53.6153 0.0000 0.0000 0.0000
# 2 14.8046 46.3995 -0.9913 0.0000 0.0000 0.0000
# 3 53.6153 -0.9913 149.4679 0.0000 0.0000 0.0000
# 4 0.0000 0.0000 0.0000 96.0944 0.0000 0.0000
# 5 0.0000 0.0000 0.0000 0.0000 35.6417 0.0000
# 6 0.0000 0.0000 0.0000 0.0000 0.0000 -8.1121
#
#
#
# Elastic Compliance Matrix: (Units=1/GPa)
#
#
# Indices 1 2 3 4 5 6 
#
# 1 0.006926 -0.002263 -0.002500 0.000000 0.000000 0.000000
# 2 -0.002263 0.022295 0.000960 0.000000 0.000000 0.000000
# 3 -0.002500 0.000960 0.007593 0.000000 0.000000 0.000000
# 4 0.000000 0.000000 0.000000 0.010406 0.000000 0.000000
# 5 0.000000 0.000000 0.000000 0.000000 0.028057 0.000000
# 6 0.000000 0.000000 0.000000 0.000000 0.000000 -0.123272
#
#
# Mechanical properties :
#
#
# Convention : Reuss Voigt Hill
#
# Bulk Modulus (GPa) = 34.23718 55.47609 44.85663
# Shear Modulus (GPa) = -163.12295 44.52473 -59.29911
#
# Velocity S-wave (km/s) = -8.62438 4.50579 -5.19989
# Velocity P-wave (km/s) = 9.14122 7.23638 3.94948
#
# Compressibility (1/GPa) = 0.02920802
#
# Stress axis : x y z
#
# Youngs Moduli (GPa) = 144.37384 44.85381 131.69359
#
# Poissons Ratio (x) = 0.10152 0.32918
# Poissons Ratio (y) = 0.32678 -0.12640
# Poissons Ratio (z) = 0.36087 -0.04305
#
# Static dielectric constant tensor:
#      x y z
#    x 1.840820 0.000000 0.000000 
#    y 0.000000 1.794200 0.000000 
#    z 0.000000 0.000000 1.862400 
# 
# From -- ./inp_files/19321.got.cif
#   From: 2010.05.17/outbox.cif.g08.bks.cpg/sg37_10_cif.got.tgz:19321.got - 2010.06.03 17:53:42.
