data_PCOD9353135
_publ_section_title
;
Structure prediction by ZEFSAII (Michael W. Deem and Ramdas Pophale) SiO2 
 PCOD9353135
Probable space group: C M C 21
;
_chemical_formula_sum "Si O2"
_cell_formula_units_Z 64
_cell_length_a 14.422823
_cell_length_b 16.463992
_cell_length_c 12.716395
_cell_angle_alpha 90.000000
_cell_angle_beta 90.000000
_cell_angle_gamma 90.000000
_cell_volume 3019.600091
_symmetry_space_group_name_H-M "C M C 21"
_symmetry_group_IT_number 36
_symmetry_cell_setting 'orthorhombic'
loop_
_space_group_symop_operation_xyz
x,y,z
-x,-y,1/2+z
x,-y,1/2+z
-x,y,z
1/2+x,1/2+y,z
1/2-x,1/2-y,1/2+z
1/2+x,1/2-y,1/2+z
1/2-x,1/2+y,z
loop_
_atom_site_type_symbol
_atom_site_label
_atom_site_fract_x
_atom_site_fract_y
_atom_site_fract_z
Si Si1 0.822425 0.886367 0.457130
Si Si2 0.171187 0.674728 0.814158
Si Si3 0.891900 0.514227 0.321368
Si Si4 0.600482 0.320210 0.938944
Si Si5 0.201533 0.618673 0.500582
Si Si6 0.724490 0.971770 0.639715
Si Si7 0.103717 0.752795 0.606097
Si Si8 0.603434 0.478108 0.798869
O O1 0.772752 0.832803 0.367278
O O2 0.743720 0.920682 0.535626
O O3 0.881808 0.835710 0.541707
O O4 0.872116 0.959579 0.394361
O O5 0.132959 0.582076 0.813135
O O6 0.111157 0.730934 0.891629
O O7 0.168102 0.724721 0.704010
O O8 0.826880 0.561341 0.403954
O O9 0.861322 0.554182 0.210932
O O10 0.000000 0.523089 0.345308
O O11 0.500000 0.328927 0.993718
O O12 0.696915 0.341194 0.995616
O O13 0.600603 0.387745 0.846616
O O14 0.202413 0.561170 0.600431
O O15 0.124097 0.685872 0.517513
O O16 0.816619 0.978174 0.711491
O O17 0.000000 0.748597 0.647923
O O18 0.500000 0.497670 0.758414
#
# Coordination Sequence:
#
# PCOD9353135 Si02
#       8
#     8   8   8   8   8   8   8   8
#     4  12  24  44  71  99 139 182 225 284 345 404
#     4  12  23  44  66  99 134 176 225 284 331 399
#     4  12  25  43  67  96 133 175 225 277 337 406
#     4  11  22  40  65  92 128 170 215 270 331 391
#     4  12  23  43  65  93 134 172 219 279 339 399
#     4  12  22  42  66  98 127 178 219 271 342 403
#     4  12  26  42  69 101 134 181 231 275 340 413
#     4  11  23  42  67  98 135 172 223 282 335 403
#
# _framework density 21.194858
#
# number of rings (size 3 to 8) (size 9 to 14) (size 15 to 20)
#    0.000    0.250    7.500    2.625    0.000    3.000 
#    0.000    0.000    0.000    0.000    0.000    0.000 
#    0.000    0.000    0.000    0.000    0.000    0.000 
#
# Total GULP energy -178528.220375 kJ/mol
# GULP energy per Si atom -5579.006887 kJ/mol
# Density = 2.114662 g / cm^3
# Si number density = 21.194858 Si / 1000 Ang^3
#
#
#
# Elastic Constant Matrix: (Units=GPa)
#
#
# Indices 1 2 3 4 5 6 
#
# 1 81.7617 8.3954 19.8815 0.0000 0.0000 0.0000
# 2 8.3954 72.7943 19.4750 0.0000 0.0000 0.0000
# 3 19.8815 19.4750 77.2796 0.0000 0.0000 0.0000
# 4 0.0000 0.0000 0.0000 21.3440 0.0000 0.0000
# 5 0.0000 0.0000 0.0000 0.0000 20.1953 0.0000
# 6 0.0000 0.0000 0.0000 0.0000 0.0000 20.6337
#
#
#
# Elastic Compliance Matrix: (Units=1/GPa)
#
#
# Indices 1 2 3 4 5 6 
#
# 1 0.013076 -0.000652 -0.003200 0.000000 0.000000 0.000000
# 2 -0.000652 0.014763 -0.003553 0.000000 0.000000 0.000000
# 3 -0.003200 -0.003553 0.014658 0.000000 0.000000 0.000000
# 4 0.000000 0.000000 0.000000 0.046851 0.000000 0.000000
# 5 0.000000 0.000000 0.000000 0.000000 0.049517 0.000000
# 6 0.000000 0.000000 0.000000 0.000000 0.000000 0.048464
#
#
# Mechanical properties :
#
#
# Convention : Reuss Voigt Hill
#
# Bulk Modulus (GPa) = 36.11599 36.37105 36.24352
# Shear Modulus (GPa) = 23.65547 24.70685 24.18116
#
# Velocity S-wave (km/s) = 3.34442 3.41794 3.38138
# Velocity P-wave (km/s) = 5.65602 5.72486 5.69054
#
# Compressibility (1/GPa) = 0.02768857
#
# Stress axis : x y z
#
# Youngs Moduli (GPa) = 76.47807 67.73693 68.21992
#
# Poissons Ratio (x) = 0.04417 0.21828
# Poissons Ratio (y) = 0.04986 0.24236
# Poissons Ratio (z) = 0.24470 0.24064
#
# Static dielectric constant tensor:
#      x y z
#    x 1.779930 0.000000 0.000000 
#    y 0.000000 1.789630 0.000000 
#    z 0.000000 0.000000 1.782660 
# 
# From -- ./inp_files/8642.got.cif
#   From: 2010.05.17/outbox.cif.g08.bks.cpg/sg36_5_cif.got.tgz:8642.got - 2010.06.03 17:41:39.
