data_PCOD9353838
_publ_section_title
;
Structure prediction by ZEFSAII (Michael W. Deem and Ramdas Pophale) SiO2 
 PCOD9353838
Probable space group: C C C 2
;
_chemical_formula_sum "Si O2"
_cell_formula_units_Z 40
_cell_length_a 13.363888
_cell_length_b 15.890361
_cell_length_c 8.710496
_cell_angle_alpha 90.000000
_cell_angle_beta 90.000000
_cell_angle_gamma 90.000000
_cell_volume 1849.734840
_symmetry_space_group_name_H-M "C C C 2"
_symmetry_group_IT_number 37
_symmetry_cell_setting 'orthorhombic'
loop_
_space_group_symop_operation_xyz
x,y,z
-x,-y,z
-x,y,1/2+z
x,-y,1/2+z
1/2+x,1/2+y,z
1/2-x,1/2-y,z
1/2-x,1/2+y,1/2+z
1/2+x,1/2-y,1/2+z
loop_
_atom_site_type_symbol
_atom_site_label
_atom_site_fract_x
_atom_site_fract_y
_atom_site_fract_z
Si Si1 0.278730 0.083315 0.173410
Si Si2 0.750000 0.250000 0.483122
Si Si3 0.360028 0.448157 0.773085
Si Si4 0.815286 0.319697 0.197642
Si Si5 0.000000 0.000000 0.529902
Si Si6 0.397051 0.051134 0.475924
O O1 0.251549 0.169863 0.092816
O O2 0.181993 0.042318 0.251864
O O3 0.360460 0.083945 0.310438
O O4 0.319000 0.017332 0.045294
O O5 0.839274 0.270651 0.357370
O O6 0.265602 0.388443 0.754988
O O7 0.437167 0.436769 0.634940
O O8 0.422995 0.447862 0.926722
O O9 0.750000 0.250000 0.105355
O O10 0.894237 0.370985 0.096997
O O11 0.500000 0.000000 0.464052
#
# Coordination Sequence:
#
# PCOD9353838 Si02
#       6
#     8   4   8   8   4   8
#     4  11  22  40  68  92 134 185 230 281 362 427
#     4  10  22  38  66  96 128 182 230 284 340 436
#     4  10  19  38  61  91 120 172 214 272 333 409
#     4   9  21  41  68  92 135 182 224 283 355 416
#     4  10  20  32  62  90 116 146 220 272 312 386
#     4  11  23  42  70 100 133 183 240 295 346 436
#
# _framework density 21.624721000000001
#
# number of rings (size 3 to 8) (size 9 to 14) (size 15 to 20)
#    0.600    1.200    0.000    6.600    1.400    0.000 
#    0.000    7.000    0.000    0.000    0.000    0.000 
#    0.000    0.000    0.000    0.000    0.000    0.000 
#
# Total GULP energy -111453.467685 kJ/mol
# GULP energy per Si atom -5572.673384 kJ/mol
# Density = 2.157550 g / cm^3
# Si number density = 21.624721 Si / 1000 Ang^3
#
#
#
# Elastic Constant Matrix: (Units=GPa)
#
#
# Indices 1 2 3 4 5 6 
#
# 1 68.2697 12.8084 41.4587 0.0000 0.0000 0.0000
# 2 12.8084 119.0827 50.2045 0.0000 0.0000 0.0000
# 3 41.4587 50.2045 138.4830 0.0000 0.0000 0.0000
# 4 0.0000 0.0000 0.0000 22.4484 0.0000 0.0000
# 5 0.0000 0.0000 0.0000 0.0000 21.1400 0.0000
# 6 0.0000 0.0000 0.0000 0.0000 0.0000 16.3482
#
#
#
# Elastic Compliance Matrix: (Units=1/GPa)
#
#
# Indices 1 2 3 4 5 6 
#
# 1 0.017918 0.000395 -0.005507 0.000000 0.000000 0.000000
# 2 0.000395 0.009921 -0.003715 0.000000 0.000000 0.000000
# 3 -0.005507 -0.003715 0.010217 0.000000 0.000000 0.000000
# 4 0.000000 0.000000 0.000000 0.044547 0.000000 0.000000
# 5 0.000000 0.000000 0.000000 0.000000 0.047304 0.000000
# 6 0.000000 0.000000 0.000000 0.000000 0.000000 0.061169
#
#
# Mechanical properties :
#
#
# Convention : Reuss Voigt Hill
#
# Bulk Modulus (GPa) = 49.01763 59.41986 54.21874
# Shear Modulus (GPa) = 23.19855 26.74492 24.97174
#
# Velocity S-wave (km/s) = 3.27888 3.52060 3.40189
# Velocity P-wave (km/s) = 6.08699 6.63804 6.36847
#
# Compressibility (1/GPa) = 0.02040082
#
# Stress axis : x y z
#
# Youngs Moduli (GPa) = 55.80891 100.79361 97.87927
#
# Poissons Ratio (x) = -0.03977 0.53906
# Poissons Ratio (y) = -0.02202 0.36361
# Poissons Ratio (z) = 0.30736 0.37444
#
# Static dielectric constant tensor:
#      x y z
#    x 1.838290 0.000000 0.000000 
#    y 0.000000 1.853040 0.000000 
#    z 0.000000 0.000000 1.859580 
# 
# From -- ./inp_files/3357.got.cif
#   From: 2010.05.17/outbox.cif.g08.bks.cpg/sg37_2_cif.got.tgz:3357.got - 2010.06.03 17:53:42.
