data_PCOD9353978
_publ_section_title
;
Structure prediction by ZEFSAII (Michael W. Deem and Ramdas Pophale) SiO2 
 PCOD9353978
Probable space group: C C C 2
;
_chemical_formula_sum "Si O2"
_cell_formula_units_Z 44
_cell_length_a 15.863604
_cell_length_b 16.979142
_cell_length_c 8.425717
_cell_angle_alpha 90.000000
_cell_angle_beta 90.000000
_cell_angle_gamma 90.000000
_cell_volume 2269.470117
_symmetry_space_group_name_H-M "C C C 2"
_symmetry_group_IT_number 37
_symmetry_cell_setting 'orthorhombic'
loop_
_space_group_symop_operation_xyz
x,y,z
-x,-y,z
-x,y,1/2+z
x,-y,1/2+z
1/2+x,1/2+y,z
1/2-x,1/2-y,z
1/2-x,1/2+y,1/2+z
1/2+x,1/2-y,1/2+z
loop_
_atom_site_type_symbol
_atom_site_label
_atom_site_fract_x
_atom_site_fract_y
_atom_site_fract_z
Si Si1 0.000000 0.000000 0.109921
Si Si2 0.386899 0.586486 0.362661
Si Si3 0.466643 0.856437 0.041579
Si Si4 0.603506 0.051713 0.747513
Si Si5 0.390643 0.772968 0.335521
Si Si6 0.301840 0.919046 0.432327
O O1 0.931269 0.045956 0.213424
O O2 0.051539 0.062159 0.005326
O O3 0.382124 0.680187 0.344480
O O4 0.292541 0.555330 0.392924
O O5 0.520721 0.920732 0.144319
O O6 0.414451 0.802439 0.160255
O O7 0.409065 0.897680 0.908384
O O8 0.533936 0.802533 0.950019
O O9 0.675256 0.068826 0.616962
O O10 0.630419 0.967511 0.823989
O O11 0.313508 0.827314 0.391542
#
# Coordination Sequence:
#
# PCOD9353978 Si02
#       6
#     4   8   8   8   8   8
#     4  10  24  40  64  80 104 150 198 250 288 338
#     4  11  22  42  60  84 110 146 198 243 294 345
#     4   9  20  36  57  88 119 153 194 230 278 343
#     4  10  21  35  55  88 123 157 192 228 278 343
#     4  10  20  35  59  84 116 152 186 237 288 338
#     4  11  22  35  57  85 120 155 186 236 290 341
#
# _framework density 19.387785000000001
#
# number of rings (size 3 to 8) (size 9 to 14) (size 15 to 20)
#    0.000    1.818    0.000    3.818    0.000   12.364 
#    0.000    0.000    0.000   10.909    0.000    0.000 
#    0.000    0.000    0.000    0.000    0.000    0.000 
#
# Total GULP energy -122693.740453 kJ/mol
# GULP energy per Si atom -5576.988202 kJ/mol
# Density = 1.934366 g / cm^3
# Si number density = 19.387785 Si / 1000 Ang^3
#
#
#
# Elastic Constant Matrix: (Units=GPa)
#
#
# Indices 1 2 3 4 5 6 
#
# 1 99.7962 30.9065 53.1796 0.0000 0.0000 0.0000
# 2 30.9065 121.4794 58.7664 0.0000 0.0000 0.0000
# 3 53.1796 58.7664 144.5973 0.0000 0.0000 0.0000
# 4 0.0000 0.0000 0.0000 100.5345 0.0000 0.0000
# 5 0.0000 0.0000 0.0000 0.0000 -13.7767 0.0000
# 6 0.0000 0.0000 0.0000 0.0000 0.0000 21.2746
#
#
#
# Elastic Compliance Matrix: (Units=1/GPa)
#
#
# Indices 1 2 3 4 5 6 
#
# 1 0.012602 -0.001200 -0.004147 0.000000 0.000000 0.000000
# 2 -0.001200 0.010361 -0.003769 0.000000 0.000000 0.000000
# 3 -0.004147 -0.003769 0.009973 0.000000 0.000000 0.000000
# 4 0.000000 0.000000 0.000000 0.009947 0.000000 0.000000
# 5 0.000000 0.000000 0.000000 0.000000 -0.072586 0.000000
# 6 0.000000 0.000000 0.000000 0.000000 0.000000 0.047004
#
#
# Mechanical properties :
#
#
# Convention : Reuss Voigt Hill
#
# Bulk Modulus (GPa) = 68.01503 72.39755 70.20629
# Shear Modulus (GPa) = 123.65830 36.47450 80.06640
#
# Velocity S-wave (km/s) = 7.99500 4.34212 6.43327
# Velocity P-wave (km/s) = 10.97197 7.90958 9.56415
#
# Compressibility (1/GPa) = 0.01470263
#
# Stress axis : x y z
#
# Youngs Moduli (GPa) = 79.35297 96.51948 100.27226
#
# Poissons Ratio (x) = 0.11583 0.41583
# Poissons Ratio (y) = 0.09523 0.37796
# Poissons Ratio (z) = 0.32908 0.36382
#
# Static dielectric constant tensor:
#      x y z
#    x 1.692420 0.000000 0.000000 
#    y 0.000000 1.670880 0.000000 
#    z 0.000000 0.000000 1.676500 
# 
# From -- ./inp_files/3428.got.cif
#   From: 2010.05.17/outbox.cif.g08.bks.cpg/sg37_2_cif.got.tgz:3428.got - 2010.06.03 17:53:42.
