data_PCOD9353603
_publ_section_title
;
Structure prediction by ZEFSAII (Michael W. Deem and Ramdas Pophale) SiO2 
 PCOD9353603
Probable space group: C C C 2
;
_chemical_formula_sum "Si O2"
_cell_formula_units_Z 40
_cell_length_a 13.444459
_cell_length_b 21.729728
_cell_length_c 5.256054
_cell_angle_alpha 90.000000
_cell_angle_beta 90.000000
_cell_angle_gamma 90.000000
_cell_volume 1535.526938
_symmetry_space_group_name_H-M "C C C 2"
_symmetry_group_IT_number 37
_symmetry_cell_setting 'orthorhombic'
loop_
_space_group_symop_operation_xyz
x,y,z
-x,-y,z
-x,y,1/2+z
x,-y,1/2+z
1/2+x,1/2+y,z
1/2-x,1/2-y,z
1/2-x,1/2+y,1/2+z
1/2+x,1/2-y,1/2+z
loop_
_atom_site_type_symbol
_atom_site_label
_atom_site_fract_x
_atom_site_fract_y
_atom_site_fract_z
Si Si1 0.609252 0.841914 0.049690
Si Si2 0.125983 0.473394 0.788834
Si Si3 0.881472 0.291208 0.054050
Si Si4 0.141406 0.971813 0.179798
Si Si5 0.934747 0.846076 0.470385
O O1 0.497582 0.814131 0.082655
O O2 0.659094 0.831449 0.321534
O O3 0.608244 0.910442 0.940196
O O4 0.663481 0.804669 0.827554
O O5 0.090119 0.475518 0.494955
O O6 0.242773 0.482146 0.738914
O O7 0.880933 0.219458 0.996715
O O8 0.127520 0.905817 0.049458
O O9 0.100657 0.980306 0.467377
O O10 0.978528 0.846870 0.185997
#
# Coordination Sequence:
#
# PCOD9353603 Si02
#       5
#     8   8   8   8   8
#     4  10  18  35  59  81 114 156 187 238 297 344
#     4  10  21  39  59  82 116 159 196 240 294 349
#     4  10  19  35  54  87 116 149 190 241 292 354
#     4  10  23  40  58  85 119 153 200 245 290 354
#     4  12  21  37  62  85 119 155 191 245 305 353
#
# _framework density 26.049689000000001
#
# number of rings (size 3 to 8) (size 9 to 14) (size 15 to 20)
#    0.000    1.600    4.000    2.400    0.000    2.400 
#    0.000   13.000    0.000    2.400    0.000    0.000 
#    0.000    0.000    0.000    0.000    0.000    0.000 
#
# Total GULP energy -111785.605023 kJ/mol
# GULP energy per Si atom -5589.280251 kJ/mol
# Density = 2.599040 g / cm^3
# Si number density = 26.049689 Si / 1000 Ang^3
#
#
#
# Elastic Constant Matrix: (Units=GPa)
#
#
# Indices 1 2 3 4 5 6 
#
# 1 63.6979 -9.4472 17.4280 0.0000 0.0000 0.0000
# 2 -9.4472 114.6958 42.3432 0.0000 0.0000 0.0000
# 3 17.4280 42.3432 107.1387 0.0000 0.0000 0.0000
# 4 0.0000 0.0000 0.0000 46.3717 0.0000 0.0000
# 5 0.0000 0.0000 0.0000 0.0000 235.0693 0.0000
# 6 0.0000 0.0000 0.0000 0.0000 0.0000 12.8723
#
#
#
# Elastic Compliance Matrix: (Units=1/GPa)
#
#
# Indices 1 2 3 4 5 6 
#
# 1 0.017200 0.002868 -0.003931 0.000000 0.000000 0.000000
# 2 0.002868 0.010686 -0.004690 0.000000 0.000000 0.000000
# 3 -0.003931 -0.004690 0.011827 0.000000 0.000000 0.000000
# 4 0.000000 0.000000 0.000000 0.021565 0.000000 0.000000
# 5 0.000000 0.000000 0.000000 0.000000 0.004254 0.000000
# 6 0.000000 0.000000 0.000000 0.000000 0.000000 0.077686
#
#
# Mechanical properties :
#
#
# Convention : Reuss Voigt Hill
#
# Bulk Modulus (GPa) = 35.45260 42.90894 39.18077
# Shear Modulus (GPa) = 30.46417 74.54323 52.50370
#
# Velocity S-wave (km/s) = 3.42345 5.35518 4.49433
# Velocity P-wave (km/s) = 5.40979 7.39898 6.48116
#
# Compressibility (1/GPa) = 0.02820667
#
# Stress axis : x y z
#
# Youngs Moduli (GPa) = 58.13911 93.57690 84.55380
#
# Poissons Ratio (x) = -0.26839 0.33242
# Poissons Ratio (y) = -0.16675 0.39656
# Poissons Ratio (z) = 0.22857 0.43888
#
# Static dielectric constant tensor:
#      x y z
#    x 1.012420 0.000000 0.000000 
#    y 0.000000 2.058230 0.000000 
#    z 0.000000 0.000000 2.109850 
# 
# From -- ./inp_files/706.got.cif
#   From: 2010.05.17/outbox.cif.g08.bks.cpg/sg37_1_cif.got.tgz:706.got - 2010.06.03 17:53:42.
