data_PCOD9353312
_publ_section_title
;
Structure prediction by ZEFSAII (Michael W. Deem and Ramdas Pophale) SiO2 
 PCOD9353312
Probable space group: C M C 21
;
_chemical_formula_sum "Si O2"
_cell_formula_units_Z 32
_cell_length_a 9.000000
_cell_length_b 24.000000
_cell_length_c 15.000000
_cell_angle_alpha 90.000000
_cell_angle_beta 90.000000
_cell_angle_gamma 90.000000
_cell_volume 3240.000000
_symmetry_space_group_name_H-M "C M C 21"
_symmetry_group_IT_number 36
_symmetry_cell_setting 'orthorhombic'
loop_
_space_group_symop_operation_xyz
x,y,z
-x,-y,1/2+z
x,-y,1/2+z
-x,y,z
1/2+x,1/2+y,z
1/2-x,1/2-y,1/2+z
1/2+x,1/2-y,1/2+z
1/2-x,1/2+y,z
loop_
_atom_site_type_symbol
_atom_site_label
_atom_site_fract_x
_atom_site_fract_y
_atom_site_fract_z
Si Si1 0.668370 0.394163 0.334670
Si Si2 0.681144 0.712782 0.495018
Si Si3 0.675586 0.508547 0.406975
Si Si4 0.172445 0.123605 0.632979
Si Si5 0.321439 0.897327 0.667557
Si Si6 0.178454 0.869984 0.842239
Si Si7 0.677182 0.836629 0.491018
Si Si8 0.323237 0.991930 0.091051
O O1 0.500000 0.386550 0.368723
O O2 0.695178 0.460446 0.334141
O O3 0.678499 0.368770 0.237712
O O4 0.780522 0.365857 0.400527
O O5 0.500000 0.715059 0.494975
O O6 0.726176 0.677131 0.580254
O O7 0.726293 0.677682 0.409326
O O8 0.739358 0.774659 0.494049
O O9 0.500000 0.512533 0.427060
O O10 0.726770 0.569531 0.378432
O O11 0.761493 0.490557 0.495029
O O12 0.262184 0.068865 0.609133
O O13 0.000000 0.113347 0.606957
O O14 0.500000 0.894831 0.674609
O O15 0.248745 0.864040 0.746634
O O16 0.270392 0.871275 0.575113
O O17 0.275507 0.961992 0.663027
O O18 0.000000 0.870432 0.837138
O O19 0.500000 0.833999 0.498144
O O20 0.500000 0.991804 0.088490
#
# Coordination Sequence:
#
# PCOD9353312 Si02
#       8
#     8   8   8   8   8   8   8   8
#     4  10  21  35  58  88 111 141 186 231 277 326
#     4   9  19  37  60  81 106 147 192 229 274 330
#     4  10  19  34  56  83 113 144 180 226 281 331
#     4  10  20  38  60  83 112 146 185 229 277 331
#     4  10  22  37  54  82 115 148 181 219 278 337
#     4  10  20  36  59  85 108 141 187 230 274 324
#     4  10  21  39  58  77 111 153 187 226 279 330
#     4  11  21  34  55  85 114 146 184 222 276 337
#
# _framework density 9.8765429999999999
#
# number of rings (size 3 to 8) (size 9 to 14) (size 15 to 20)
#    0.000    2.000    2.500    1.125    0.000    4.500 
#    0.000    2.500    0.000    0.000    0.000    0.000 
#    0.000    0.000    0.000    0.000    0.000    0.000 
#
# Total GULP energy -178396.287945 kJ/mol
# GULP energy per Si atom -5574.883998 kJ/mol
# Density = 0.985406 g / cm^3
# Si number density = 9.876543 Si / 1000 Ang^3
#
#
#
# Elastic Constant Matrix: (Units=GPa)
#
#
# Indices 1 2 3 4 5 6 
#
# 1 -3.7584 25.9460 24.2627 0.0000 0.0000 0.0000
# 2 25.9460 108.0159 33.7099 0.0000 0.0000 0.0000
# 3 24.2627 33.7099 51.7462 0.0000 0.0000 0.0000
# 4 0.0000 0.0000 0.0000 6.8973 0.0000 0.0000
# 5 0.0000 0.0000 0.0000 0.0000 19.0307 0.0000
# 6 0.0000 0.0000 0.0000 0.0000 0.0000 14.1847
#
#
#
# Elastic Compliance Matrix: (Units=1/GPa)
#
#
# Indices 1 2 3 4 5 6 
#
# 1 -0.061239 0.007216 0.024013 0.000000 0.000000 0.000000
# 2 0.007216 0.010770 -0.010400 0.000000 0.000000 0.000000
# 3 0.024013 -0.010400 0.014841 0.000000 0.000000 0.000000
# 4 0.000000 0.000000 0.000000 0.144985 0.000000 0.000000
# 5 0.000000 0.000000 0.000000 0.000000 0.052547 0.000000
# 6 0.000000 0.000000 0.000000 0.000000 0.000000 0.070498
#
#
# Mechanical properties :
#
#
# Convention : Reuss Voigt Hill
#
# Bulk Modulus (GPa) = 165.82606 35.98231 100.90418
# Shear Modulus (GPa) = 25.93977 12.82820 19.38398
#
# Velocity S-wave (km/s) = 3.62774 2.55115 3.13599
# Velocity P-wave (km/s) = 10.08360 5.18974 8.01912
#
# Compressibility (1/GPa) = 0.00603042
#
# Stress axis : x y z
#
# Youngs Moduli (GPa) = -16.32952 92.84939 67.38222
#
# Poissons Ratio (x) = -0.66999 -1.61804
# Poissons Ratio (y) = 0.11783 0.70074
# Poissons Ratio (z) = 0.39212 0.96559
#
# Static dielectric constant tensor:
#      x y z
#    x 1.671140 0.000000 0.000000 
#    y 0.000000 1.690740 0.000000 
#    z 0.000000 0.000000 1.693530 
# 
# From -- ./inp_files/10923.got.cif
#   From: 2010.05.17/outbox.ucp.g08.bks.cvg/sg36_6_cif.got.tgz:10923.got - 2010.06.11 10:37:26.
