data_PCOD9353722
_publ_section_title
;
Structure prediction by ZEFSAII (Michael W. Deem and Ramdas Pophale) SiO2 
 PCOD9353722
Probable space group: C C C 2
;
_chemical_formula_sum "Si O2"
_cell_formula_units_Z 52
_cell_length_a 12.147539
_cell_length_b 9.481326
_cell_length_c 20.214054
_cell_angle_alpha 90.000000
_cell_angle_beta 90.000000
_cell_angle_gamma 90.000000
_cell_volume 2328.149169
_symmetry_space_group_name_H-M "C C C 2"
_symmetry_group_IT_number 37
_symmetry_cell_setting 'orthorhombic'
loop_
_space_group_symop_operation_xyz
x,y,z
-x,-y,z
-x,y,1/2+z
x,-y,1/2+z
1/2+x,1/2+y,z
1/2-x,1/2-y,z
1/2-x,1/2+y,1/2+z
1/2+x,1/2-y,1/2+z
loop_
_atom_site_type_symbol
_atom_site_label
_atom_site_fract_x
_atom_site_fract_y
_atom_site_fract_z
Si Si1 0.368603 0.664441 0.421310
Si Si2 0.117662 0.228868 0.778758
Si Si3 0.195785 0.099560 0.498382
Si Si4 0.690460 0.125537 0.667002
Si Si5 0.153770 0.133687 0.640148
Si Si6 0.000000 0.500000 0.755052
Si Si7 0.598572 0.109015 0.529415
O O1 0.250000 0.750000 0.417487
O O2 0.405262 0.645957 0.345537
O O3 0.364793 0.505491 0.448710
O O4 0.425923 0.773923 0.473146
O O5 0.250000 0.250000 0.773152
O O6 0.083352 0.173821 0.705274
O O7 0.056913 0.375190 0.793863
O O8 0.250000 0.250000 0.477806
O O9 0.119089 0.125379 0.563495
O O10 0.299444 0.996279 0.514600
O O11 0.750000 0.250000 0.704769
O O12 0.636502 0.179456 0.598410
O O13 0.784329 0.011091 0.654630
O O14 0.595135 0.057806 0.708635
O O15 0.250000 0.250000 0.635716
O O16 0.500000 0.000000 0.540764
#
# Coordination Sequence:
#
# PCOD9353722 Si02
#       7
#     8   8   8   8   8   4   8
#     4   9  19  36  57  89 125 172 222 263 331 404
#     4  10  20  37  64  91 131 172 219 270 330 401
#     4   9  18  33  59  85 116 169 215 266 339 379
#     4  11  21  36  61  95 128 163 223 283 329 390
#     4   9  16  34  59  84 125 167 209 274 322 377
#     4  12  22  38  66  98 126 178 222 274 340 402
#     4  10  19  33  58  90 124 166 222 272 318 393
#
# _framework density 22.335338
#
# number of rings (size 3 to 8) (size 9 to 14) (size 15 to 20)
#    0.000    2.154    3.846    2.308    1.077    0.000 
#    0.000    2.308    0.000    7.385    0.000    0.000 
#    0.000    0.000    0.000    0.000    0.000    0.000 
#
# Total GULP energy -144848.599705 kJ/mol
# GULP energy per Si atom -5571.099989 kJ/mol
# Density = 2.228450 g / cm^3
# Si number density = 22.335338 Si / 1000 Ang^3
#
#
#
# Elastic Constant Matrix: (Units=GPa)
#
#
# Indices 1 2 3 4 5 6 
#
# 1 28.3230 1.7130 8.9577 0.0000 0.0000 0.0000
# 2 1.7130 123.2934 54.9391 0.0000 0.0000 0.0000
# 3 8.9577 54.9391 138.1762 0.0000 0.0000 0.0000
# 4 0.0000 0.0000 0.0000 40.6912 0.0000 0.0000
# 5 0.0000 0.0000 0.0000 0.0000 -21.7936 0.0000
# 6 0.0000 0.0000 0.0000 0.0000 0.0000 36.4420
#
#
#
# Elastic Compliance Matrix: (Units=1/GPa)
#
#
# Indices 1 2 3 4 5 6 
#
# 1 0.036090 0.000658 -0.002601 0.000000 0.000000 0.000000
# 2 0.000658 0.009869 -0.003967 0.000000 0.000000 0.000000
# 3 -0.002601 -0.003967 0.008983 0.000000 0.000000 0.000000
# 4 0.000000 0.000000 0.000000 0.024575 0.000000 0.000000
# 5 0.000000 0.000000 0.000000 0.000000 -0.045885 0.000000
# 6 0.000000 0.000000 0.000000 0.000000 0.000000 0.027441
#
#
# Mechanical properties :
#
#
# Convention : Reuss Voigt Hill
#
# Bulk Modulus (GPa) = 23.19022 46.77915 34.98469
# Shear Modulus (GPa) = 57.29537 26.01343 41.65440
#
# Velocity S-wave (km/s) = 5.07031 3.41644 4.32320
# Velocity P-wave (km/s) = 6.68451 6.04584 6.37318
#
# Compressibility (1/GPa) = 0.04312162
#
# Stress axis : x y z
#
# Youngs Moduli (GPa) = 27.70863 101.32640 111.32280
#
# Poissons Ratio (x) = -0.06663 0.28956
# Poissons Ratio (y) = -0.01822 0.44157
# Poissons Ratio (z) = 0.07207 0.40192
#
# Static dielectric constant tensor:
#      x y z
#    x 1.878680 0.000000 0.000000 
#    y 0.000000 1.818210 0.000000 
#    z 0.000000 0.000000 1.902040 
# 
# From -- ./inp_files/17144.got.cif
#   From: 2010.05.17/outbox.cif.g08.bks.cpg/sg37_9_cif.got.tgz:17144.got - 2010.06.03 17:53:42.
