data_PCOD9353525
_publ_section_title
;
Structure prediction by ZEFSAII (Michael W. Deem and Ramdas Pophale) SiO2 
 PCOD9353525
Probable space group: C C C 2
;
_chemical_formula_sum "Si O2"
_cell_formula_units_Z 36
_cell_length_a 14.135340
_cell_length_b 12.764241
_cell_length_c 8.726565
_cell_angle_alpha 90.000000
_cell_angle_beta 90.000000
_cell_angle_gamma 90.000000
_cell_volume 1574.506952
_symmetry_space_group_name_H-M "C C C 2"
_symmetry_group_IT_number 37
_symmetry_cell_setting 'orthorhombic'
loop_
_space_group_symop_operation_xyz
x,y,z
-x,-y,z
-x,y,1/2+z
x,-y,1/2+z
1/2+x,1/2+y,z
1/2-x,1/2-y,z
1/2-x,1/2+y,1/2+z
1/2+x,1/2-y,1/2+z
loop_
_atom_site_type_symbol
_atom_site_label
_atom_site_fract_x
_atom_site_fract_y
_atom_site_fract_z
Si Si1 0.000000 0.500000 0.527971
Si Si2 0.544485 0.662176 0.665507
Si Si3 0.174178 0.634201 0.604646
Si Si4 0.369303 0.636372 0.471161
Si Si5 0.408025 0.797316 0.886485
O O1 0.909165 0.450103 0.609320
O O2 0.957802 0.596574 0.436483
O O3 0.461272 0.605321 0.569950
O O4 0.610815 0.610140 0.793777
O O5 0.481543 0.738694 0.773429
O O6 0.602906 0.725967 0.537199
O O7 0.271705 0.591556 0.536693
O O8 0.144786 0.737003 0.502311
O O9 0.179740 0.673577 0.779289
#
# Coordination Sequence:
#
# PCOD9353525 Si02
#       5
#     4   8   8   8   8
#     4  12  18  30  54  84 124 158 182 230 316 350
#     4   9  16  33  53  74 107 150 194 237 297 339
#     4  10  20  32  51  78 122 147 193 245 294 357
#     4   9  18  34  51  78 109 151 197 248 289 350
#     4  10  18  29  50  79 109 152 184 229 296 348
#
# _framework density 22.8643
#
# number of rings (size 3 to 8) (size 9 to 14) (size 15 to 20)
#    0.000    2.222    6.667    0.667    0.000    0.000 
#    0.000   13.333    0.000    0.000    0.000    4.667 
#    0.000    0.000    0.000    0.000    0.000    0.000 
#
# Total GULP energy -100333.906030 kJ/mol
# GULP energy per Si atom -5574.105891 kJ/mol
# Density = 2.281226 g / cm^3
# Si number density = 22.864300 Si / 1000 Ang^3
#
#
#
# Elastic Constant Matrix: (Units=GPa)
#
#
# Indices 1 2 3 4 5 6 
#
# 1 136.4225 38.2284 85.8226 0.0000 0.0000 0.0000
# 2 38.2284 44.9980 11.2585 0.0000 0.0000 0.0000
# 3 85.8226 11.2585 187.6705 0.0000 0.0000 0.0000
# 4 0.0000 0.0000 0.0000 -3.9087 0.0000 0.0000
# 5 0.0000 0.0000 0.0000 0.0000 21.2788 0.0000
# 6 0.0000 0.0000 0.0000 0.0000 0.0000 33.6243
#
#
#
# Elastic Compliance Matrix: (Units=1/GPa)
#
#
# Indices 1 2 3 4 5 6 
#
# 1 0.013796 -0.010296 -0.005691 0.000000 0.000000 0.000000
# 2 -0.010296 0.030246 0.002894 0.000000 0.000000 0.000000
# 3 -0.005691 0.002894 0.007757 0.000000 0.000000 0.000000
# 4 0.000000 0.000000 0.000000 -0.255838 0.000000 0.000000
# 5 0.000000 0.000000 0.000000 0.000000 0.046995 0.000000
# 6 0.000000 0.000000 0.000000 0.000000 0.000000 0.029740
#
#
# Mechanical properties :
#
#
# Convention : Reuss Voigt Hill
#
# Bulk Modulus (GPa) = 39.04304 71.07890 55.06097
# Shear Modulus (GPa) = -54.00832 25.78431 -14.11200
#
# Velocity S-wave (km/s) = -4.86544 3.36178 -2.48706
# Velocity P-wave (km/s) = 3.80136 6.79879 3.98580
#
# Compressibility (1/GPa) = 0.02561276
#
# Stress axis : x y z
#
# Youngs Moduli (GPa) = 72.48643 33.06172 128.90817
#
# Poissons Ratio (x) = 0.34041 0.73364
# Poissons Ratio (y) = 0.74634 -0.37307
# Poissons Ratio (z) = 0.41253 -0.09568
#
# Static dielectric constant tensor:
#      x y z
#    x 1.896980 0.000000 0.000000 
#    y 0.000000 1.909980 0.000000 
#    z 0.000000 0.000000 1.880420 
# 
# From -- ./inp_files/3282.got.cif
#   From: 2010.05.17/outbox.cif.g08.bks.cpg/sg37_2_cif.got.tgz:3282.got - 2010.06.03 17:53:42.
