data_PCOD9353730
_publ_section_title
;
Structure prediction by ZEFSAII (Michael W. Deem and Ramdas Pophale) SiO2 
 PCOD9353730
Probable space group: C C C 2
;
_chemical_formula_sum "Si O2"
_cell_formula_units_Z 64
_cell_length_a 27.324202
_cell_length_b 11.278029
_cell_length_c 9.811312
_cell_angle_alpha 90.000000
_cell_angle_beta 90.000000
_cell_angle_gamma 90.000000
_cell_volume 3023.484739
_symmetry_space_group_name_H-M "C C C 2"
_symmetry_group_IT_number 37
_symmetry_cell_setting 'orthorhombic'
loop_
_space_group_symop_operation_xyz
x,y,z
-x,-y,z
-x,y,1/2+z
x,-y,1/2+z
1/2+x,1/2+y,z
1/2-x,1/2-y,z
1/2-x,1/2+y,1/2+z
1/2+x,1/2-y,1/2+z
loop_
_atom_site_type_symbol
_atom_site_label
_atom_site_fract_x
_atom_site_fract_y
_atom_site_fract_z
Si Si1 0.695382 0.209287 0.605290
Si Si2 0.441442 0.670026 0.974502
Si Si3 0.189850 0.943634 0.095074
Si Si4 0.598461 0.405742 0.510666
Si Si5 0.844324 0.242988 0.317474
Si Si6 0.988793 0.139212 0.708638
Si Si7 0.304569 0.937332 0.111011
Si Si8 0.337165 0.750936 0.897996
O O1 0.750000 0.250000 0.645164
O O2 0.690327 0.249797 0.449049
O O3 0.664571 0.249248 0.736684
O O4 0.679341 0.071719 0.596705
O O5 0.425794 0.530441 0.962272
O O6 0.479811 0.694009 0.855148
O O7 0.392475 0.743217 0.952456
O O8 0.467449 0.689493 0.117860
O O9 0.167598 0.861884 0.212938
O O10 0.246324 0.956488 0.135585
O O11 0.188910 0.866360 0.956770
O O12 0.151442 0.049271 0.068167
O O13 0.606983 0.306934 0.393959
O O14 0.561910 0.356045 0.624188
O O15 0.832854 0.361216 0.227954
O O16 0.000000 0.000000 0.724732
O O17 0.311924 0.862462 0.972079
#
# Coordination Sequence:
#
# PCOD9353730 Si02
#       8
#     8   8   8   8   8   8   8   8
#     4  12  23  36  58  85 114 156 212 266 311 362
#     4  10  21  35  57  86 119 154 194 246 313 381
#     4  10  21  37  56  81 121 162 202 248 298 362
#     4  10  20  34  58  88 122 159 198 246 305 374
#     4  11  22  36  56  84 117 160 208 249 301 363
#     4  10  19  34  55  87 123 153 190 247 314 378
#     4  11  23  39  56  81 119 164 210 259 303 361
#     4  10  22  39  56  82 119 162 201 245 310 375
#
# _framework density 21.167628000000001
#
# number of rings (size 3 to 8) (size 9 to 14) (size 15 to 20)
#    0.000    1.500    0.000    7.125    0.000    8.000 
#    0.000    0.000    0.000    0.000    0.000   14.875 
#    0.000    0.000    0.000    0.000    0.000    0.000 
#
# Total GULP energy -178496.811282 kJ/mol
# GULP energy per Si atom -5578.025353 kJ/mol
# Density = 2.111945 g / cm^3
# Si number density = 21.167628 Si / 1000 Ang^3
#
#
#
# Elastic Constant Matrix: (Units=GPa)
#
#
# Indices 1 2 3 4 5 6 
#
# 1 76.7865 10.6276 19.9168 0.0000 0.0000 0.0000
# 2 10.6276 55.7162 15.0071 0.0000 0.0000 0.0000
# 3 19.9168 15.0071 79.0962 0.0000 0.0000 0.0000
# 4 0.0000 0.0000 0.0000 18.1058 0.0000 0.0000
# 5 0.0000 0.0000 0.0000 0.0000 39.0049 0.0000
# 6 0.0000 0.0000 0.0000 0.0000 0.0000 29.8971
#
#
#
# Elastic Compliance Matrix: (Units=1/GPa)
#
#
# Indices 1 2 3 4 5 6 
#
# 1 0.014108 -0.001828 -0.003206 0.000000 0.000000 0.000000
# 2 -0.001828 0.019151 -0.003173 0.000000 0.000000 0.000000
# 3 -0.003206 -0.003173 0.014052 0.000000 0.000000 0.000000
# 4 0.000000 0.000000 0.000000 0.055231 0.000000 0.000000
# 5 0.000000 0.000000 0.000000 0.000000 0.025638 0.000000
# 6 0.000000 0.000000 0.000000 0.000000 0.000000 0.033448
#
#
# Mechanical properties :
#
#
# Convention : Reuss Voigt Hill
#
# Bulk Modulus (GPa) = 32.36463 33.63355 32.99909
# Shear Modulus (GPa) = 26.54767 28.47138 27.50953
#
# Velocity S-wave (km/s) = 3.54526 3.67146 3.60891
# Velocity P-wave (km/s) = 5.66404 5.82207 5.74360
#
# Compressibility (1/GPa) = 0.03089793
#
# Stress axis : x y z
#
# Youngs Moduli (GPa) = 70.88410 52.21534 71.16356
#
# Poissons Ratio (x) = 0.09542 0.22812
# Poissons Ratio (y) = 0.12954 0.22584
# Poissons Ratio (z) = 0.22723 0.16570
#
# Static dielectric constant tensor:
#      x y z
#    x 1.826590 0.000000 0.000000 
#    y 0.000000 1.804140 0.000000 
#    z 0.000000 0.000000 1.776670 
# 
# From -- ./inp_files/5014.got.cif
#   From: 2010.05.17/outbox.cif.g08.bks.cpg/sg37_3_cif.got.tgz:5014.got - 2010.06.03 17:53:42.
