data_PCOD9353814
_publ_section_title
;
Structure prediction by ZEFSAII (Michael W. Deem and Ramdas Pophale) SiO2 
 PCOD9353814
Probable space group: C C C 2
;
_chemical_formula_sum "Si O2"
_cell_formula_units_Z 48
_cell_length_a 5.645648
_cell_length_b 26.138323
_cell_length_c 12.826889
_cell_angle_alpha 90.000000
_cell_angle_beta 90.000000
_cell_angle_gamma 90.000000
_cell_volume 1892.835418
_symmetry_space_group_name_H-M "C C C 2"
_symmetry_group_IT_number 37
_symmetry_cell_setting 'orthorhombic'
loop_
_space_group_symop_operation_xyz
x,y,z
-x,-y,z
-x,y,1/2+z
x,-y,1/2+z
1/2+x,1/2+y,z
1/2-x,1/2-y,z
1/2-x,1/2+y,1/2+z
1/2+x,1/2-y,1/2+z
loop_
_atom_site_type_symbol
_atom_site_label
_atom_site_fract_x
_atom_site_fract_y
_atom_site_fract_z
Si Si1 0.986727 0.122505 0.080010
Si Si2 0.008408 0.761730 0.651588
Si Si3 0.076795 0.943632 0.254950
Si Si4 0.225692 0.625103 0.876441
Si Si5 0.136311 0.449342 0.974631
Si Si6 0.496665 0.223250 0.923831
O O1 0.023150 0.177620 0.131840
O O2 0.817480 0.089420 0.158649
O O3 0.194998 0.081624 0.053360
O O4 0.916206 0.141627 0.963203
O O5 0.750000 0.750000 0.693811
O O6 0.021852 0.723465 0.550849
O O7 0.250000 0.750000 0.710920
O O8 0.220416 0.954533 0.363182
O O9 0.859120 0.905827 0.287058
O O10 0.000000 0.000000 0.218837
O O11 0.037706 0.670398 0.862408
O O12 0.081245 0.584773 0.942076
O O13 0.000000 0.500000 0.012580
O O14 0.750000 0.250000 0.914053
O O15 0.250000 0.250000 0.897017
#
# Coordination Sequence:
#
# PCOD9353814 Si02
#       6
#     8   8   8   8   8   8
#     4  11  25  42  74 102 138 196 243 293 378 444
#     4  10  19  39  67 103 142 181 238 309 358 442
#     4  11  26  46  65 102 152 181 242 313 361 434
#     4  11  23  44  71 102 139 191 238 297 372 440
#     4  11  24  45  71 100 138 186 245 302 367 440
#     4  10  19  36  69 104 134 181 232 295 361 436
#
# _framework density 25.358781
#
# number of rings (size 3 to 8) (size 9 to 14) (size 15 to 20)
#    0.000    1.333    5.000    2.000    4.667    1.333 
#    0.000    0.833    0.000    0.000    0.000    0.000 
#    0.000    0.000    0.000    0.000    0.000    0.000 
#
# Total GULP energy -133717.782435 kJ/mol
# GULP energy per Si atom -5571.574268 kJ/mol
# Density = 2.530106 g / cm^3
# Si number density = 25.358781 Si / 1000 Ang^3
#
#
#
# Elastic Constant Matrix: (Units=GPa)
#
#
# Indices 1 2 3 4 5 6 
#
# 1 146.0215 50.6840 20.5048 0.0000 0.0000 0.0000
# 2 50.6840 147.9841 7.0977 0.0000 0.0000 0.0000
# 3 20.5048 7.0977 95.8358 0.0000 0.0000 0.0000
# 4 0.0000 0.0000 0.0000 -23.4561 0.0000 0.0000
# 5 0.0000 0.0000 0.0000 0.0000 -106.1892 0.0000
# 6 0.0000 0.0000 0.0000 0.0000 0.0000 48.5091
#
#
#
# Elastic Compliance Matrix: (Units=1/GPa)
#
#
# Indices 1 2 3 4 5 6 
#
# 1 0.007985 -0.002662 -0.001511 0.000000 0.000000 0.000000
# 2 -0.002662 0.007669 0.000002 0.000000 0.000000 0.000000
# 3 -0.001511 0.000002 0.010758 0.000000 0.000000 0.000000
# 4 0.000000 0.000000 0.000000 -0.042633 0.000000 0.000000
# 5 0.000000 0.000000 0.000000 0.000000 -0.009417 0.000000
# 6 0.000000 0.000000 0.000000 0.000000 0.000000 0.020615
#
#
# Mechanical properties :
#
#
# Convention : Reuss Voigt Hill
#
# Bulk Modulus (GPa) = 55.34671 60.71271 58.02971
# Shear Modulus (GPa) = 535.19546 4.54309 269.86927
#
# Velocity S-wave (km/s) = 14.54330 1.33993 10.32722
# Velocity P-wave (km/s) = 17.43224 5.13686 12.85049
#
# Compressibility (1/GPa) = 0.01806792
#
# Stress axis : x y z
#
# Youngs Moduli (GPa) = 125.24165 130.39171 92.95641
#
# Poissons Ratio (x) = 0.34713 0.14048
# Poissons Ratio (y) = 0.33342 -0.00015
# Poissons Ratio (z) = 0.18926 -0.00021
#
# Static dielectric constant tensor:
#      x y z
#    x 2.298210 0.000000 0.000000 
#    y 0.000000 2.697070 0.000000 
#    z 0.000000 0.000000 2.264860 
# 
# From -- ./inp_files/9763.got.cif
#   From: 2010.05.17/outbox.cif.g08.bks.cpg/sg37_5_cif.got.tgz:9763.got - 2010.06.03 17:53:42.
