data_PCOD9353227
_publ_section_title
;
Structure prediction by ZEFSAII (Michael W. Deem and Ramdas Pophale) SiO2 
 PCOD9353227
Probable space group: C M C 21
;
_chemical_formula_sum "Si O2"
_cell_formula_units_Z 40
_cell_length_a 21.775457
_cell_length_b 7.936809
_cell_length_c 9.205591
_cell_angle_alpha 90.000000
_cell_angle_beta 90.000000
_cell_angle_gamma 90.000000
_cell_volume 1590.980596
_symmetry_space_group_name_H-M "C M C 21"
_symmetry_group_IT_number 36
_symmetry_cell_setting 'orthorhombic'
loop_
_space_group_symop_operation_xyz
x,y,z
-x,-y,1/2+z
x,-y,1/2+z
-x,y,z
1/2+x,1/2+y,z
1/2-x,1/2-y,1/2+z
1/2+x,1/2-y,1/2+z
1/2-x,1/2+y,z
loop_
_atom_site_type_symbol
_atom_site_label
_atom_site_fract_x
_atom_site_fract_y
_atom_site_fract_z
Si Si1 0.930601 0.955064 0.001290
Si Si2 0.231654 0.179312 0.752806
Si Si3 0.619186 0.871058 0.641318
Si Si4 0.686596 0.364126 0.568192
Si Si5 0.071124 0.364410 0.353260
O O1 0.916950 0.809215 0.122832
O O2 0.000000 0.013995 0.009810
O O3 0.881804 0.103442 0.012059
O O4 0.921254 0.839649 0.855139
O O5 0.183972 0.330112 0.714490
O O6 0.297389 0.218944 0.682101
O O7 0.204231 0.027855 0.659972
O O8 0.228289 0.153413 0.924308
O O9 0.620506 0.923466 0.473089
O O10 0.581386 0.015484 0.719491
O O11 0.000000 0.385760 0.402623
#
# Coordination Sequence:
#
# PCOD9353227 Si02
#       5
#     8   8   8   8   8
#     4   8  18  39  69 102 142 185 236 291 355 426
#     4  11  25  46  71 100 143 186 244 295 362 430
#     4   9  19  35  62  98 141 185 229 288 343 421
#     4  11  24  48  72 106 138 192 235 302 360 431
#     4   9  16  34  64  98 138 184 226 276 342 416
#
# _framework density 25.141726999999999
#
# number of rings (size 3 to 8) (size 9 to 14) (size 15 to 20)
#    1.200    1.200    0.000    2.400    0.000    3.200 
#    7.200    6.000    0.000    0.000    0.000    5.600 
#    0.000    0.000    0.000    0.000    0.000    0.000 
#
# Total GULP energy -111716.411438 kJ/mol
# GULP energy per Si atom -5585.820572 kJ/mol
# Density = 2.508450 g / cm^3
# Si number density = 25.141727 Si / 1000 Ang^3
#
#
#
# Elastic Constant Matrix: (Units=GPa)
#
#
# Indices 1 2 3 4 5 6 
#
# 1 52.3442 6.2347 13.0100 0.0000 0.0000 0.0000
# 2 6.2347 60.7735 29.5460 0.0000 0.0000 0.0000
# 3 13.0100 29.5460 125.9312 0.0000 0.0000 0.0000
# 4 0.0000 0.0000 0.0000 34.2742 0.0000 0.0000
# 5 0.0000 0.0000 0.0000 0.0000 27.0882 0.0000
# 6 0.0000 0.0000 0.0000 0.0000 0.0000 46.5387
#
#
#
# Elastic Compliance Matrix: (Units=1/GPa)
#
#
# Indices 1 2 3 4 5 6 
#
# 1 0.019680 -0.001163 -0.001760 0.000000 0.000000 0.000000
# 2 -0.001163 0.018642 -0.004254 0.000000 0.000000 0.000000
# 3 -0.001760 -0.004254 0.009121 0.000000 0.000000 0.000000
# 4 0.000000 0.000000 0.000000 0.029177 0.000000 0.000000
# 5 0.000000 0.000000 0.000000 0.000000 0.036916 0.000000
# 6 0.000000 0.000000 0.000000 0.000000 0.000000 0.021487
#
#
# Mechanical properties :
#
#
# Convention : Reuss Voigt Hill
#
# Bulk Modulus (GPa) = 30.22173 37.40334 33.81254
# Shear Modulus (GPa) = 31.17071 34.26409 32.71740
#
# Velocity S-wave (km/s) = 3.52490 3.69567 3.61129
# Velocity P-wave (km/s) = 5.34913 5.75499 5.55577
#
# Compressibility (1/GPa) = 0.03308878
#
# Stress axis : x y z
#
# Youngs Moduli (GPa) = 50.81203 53.64282 109.64100
#
# Poissons Ratio (x) = 0.06240 0.19300
# Poissons Ratio (y) = 0.05910 0.46637
# Poissons Ratio (z) = 0.08944 0.22817
#
# Static dielectric constant tensor:
#      x y z
#    x 2.000470 0.000000 0.000000 
#    y 0.000000 2.070470 0.000000 
#    z 0.000000 0.000000 2.019930 
# 
# From -- ./inp_files/5460.got.cif
#   From: 2010.05.17/outbox.cif.g08.bks.cpg/sg36_3_cif.got.tgz:5460.got - 2010.06.03 17:41:39.
