data_PCOD9353573
_publ_section_title
;
Structure prediction by ZEFSAII (Michael W. Deem and Ramdas Pophale) SiO2 
 PCOD9353573
Probable space group: C C C 2
;
_chemical_formula_sum "Si O2"
_cell_formula_units_Z 64
_cell_length_a 11.194079
_cell_length_b 9.634624
_cell_length_c 28.777899
_cell_angle_alpha 90.000000
_cell_angle_beta 90.000000
_cell_angle_gamma 90.000000
_cell_volume 3103.717766
_symmetry_space_group_name_H-M "C C C 2"
_symmetry_group_IT_number 37
_symmetry_cell_setting 'orthorhombic'
loop_
_space_group_symop_operation_xyz
x,y,z
-x,-y,z
-x,y,1/2+z
x,-y,1/2+z
1/2+x,1/2+y,z
1/2-x,1/2-y,z
1/2-x,1/2+y,1/2+z
1/2+x,1/2-y,1/2+z
loop_
_atom_site_type_symbol
_atom_site_label
_atom_site_fract_x
_atom_site_fract_y
_atom_site_fract_z
Si Si1 0.007256 0.731009 0.462940
Si Si2 0.884778 0.395100 0.247857
Si Si3 0.881803 0.085150 0.283668
Si Si4 0.242878 0.520370 0.567918
Si Si5 0.905395 0.627890 0.639741
Si Si6 0.805799 0.471399 0.963925
Si Si7 0.157261 0.119349 0.890074
Si Si8 0.053643 0.221373 0.067736
O O1 0.105164 0.605672 0.465039
O O2 0.047744 0.826664 0.421023
O O3 0.005639 0.790697 0.515177
O O4 0.882131 0.662104 0.453009
O O5 0.902545 0.249870 0.274850
O O6 0.750989 0.449565 0.262240
O O7 0.879153 0.352265 0.193542
O O8 0.000000 0.500000 0.254414
O O9 0.870523 0.066809 0.339052
O O10 0.000000 0.000000 0.267199
O O11 0.205379 0.419922 0.608823
O O12 0.242990 0.459311 0.516144
O O13 0.143548 0.644663 0.566654
O O14 0.367909 0.589032 0.577877
O O15 0.000000 0.500000 0.638983
O O16 0.963892 0.748705 0.609261
O O17 0.715418 0.505730 0.923509
O O18 0.250000 0.250000 0.885322
#
# Coordination Sequence:
#
# PCOD9353573 Si02
#       8
#     8   8   8   8   8   8   8   8
#     4   9  15  23  42  75 117 160 204 255 313 383
#     4  10  23  45  70  99 133 168 227 297 342 402
#     4  11  25  46  69  95 130 175 227 290 347 406
#     4   9  14  22  39  72 120 162 202 251 308 384
#     4   9  17  29  51  82 121 163 206 267 331 379
#     4   9  15  23  42  75 117 160 204 255 313 383
#     4  10  18  33  53  84 117 159 216 273 329 385
#     4   9  14  22  39  72 120 162 202 251 308 384
#
# _framework density 20.620431
#
# number of rings (size 3 to 8) (size 9 to 14) (size 15 to 20)
#    0.000    2.500    3.750    0.000    0.000    2.500 
#    0.000    2.500    0.000    0.000    6.500    0.000 
#    0.000    0.000    0.000    0.000    0.000    0.000 
#
# Total GULP energy -178577.421576 kJ/mol
# GULP energy per Si atom -5580.544424 kJ/mol
# Density = 2.057350 g / cm^3
# Si number density = 20.620431 Si / 1000 Ang^3
#
#
#
# Elastic Constant Matrix: (Units=GPa)
#
#
# Indices 1 2 3 4 5 6 
#
# 1 128.1654 53.9285 53.5765 0.0000 0.0000 0.0000
# 2 53.9285 39.0232 20.3710 0.0000 0.0000 0.0000
# 3 53.5765 20.3710 147.3913 0.0000 0.0000 0.0000
# 4 0.0000 0.0000 0.0000 -8.9418 0.0000 0.0000
# 5 0.0000 0.0000 0.0000 0.0000 -6.8448 0.0000
# 6 0.0000 0.0000 0.0000 0.0000 0.0000 44.7971
#
#
#
# Elastic Compliance Matrix: (Units=1/GPa)
#
#
# Indices 1 2 3 4 5 6 
#
# 1 0.020445 -0.026270 -0.003801 0.000000 0.000000 0.000000
# 2 -0.026270 0.061373 0.001067 0.000000 0.000000 0.000000
# 3 -0.003801 0.001067 0.008019 0.000000 0.000000 0.000000
# 4 0.000000 0.000000 0.000000 -0.111834 0.000000 0.000000
# 5 0.000000 0.000000 0.000000 0.000000 -0.146097 0.000000
# 6 0.000000 0.000000 0.000000 0.000000 0.000000 0.022323
#
#
# Mechanical properties :
#
#
# Convention : Reuss Voigt Hill
#
# Bulk Modulus (GPa) = 31.41840 63.37022 47.39431
# Shear Modulus (GPa) = -64.80633 18.24902 -23.27865
#
# Velocity S-wave (km/s) = -5.61217 2.97812 -3.36357
# Velocity P-wave (km/s) = 5.16968 6.52871 2.81943
#
# Compressibility (1/GPa) = 0.03182848
#
# Stress axis : x y z
#
# Youngs Moduli (GPa) = 48.91167 16.29377 124.70589
#
# Poissons Ratio (x) = 0.42804 0.47400
# Poissons Ratio (y) = 1.28491 -0.13302
# Poissons Ratio (z) = 0.18591 -0.01738
#
# Static dielectric constant tensor:
#      x y z
#    x 1.780570 0.000000 0.000000 
#    y 0.000000 1.746650 0.000000 
#    z 0.000000 0.000000 1.685070 
# 
# From -- ./inp_files/20490.got.cif
#   From: 2010.05.17/outbox.cif.g08.bks.cpg/sg37_11_cif.got.tgz:20490.got - 2010.06.03 17:53:42.
