data_PCOD9353625
_publ_section_title
;
Structure prediction by ZEFSAII (Michael W. Deem and Ramdas Pophale) SiO2 
 PCOD9353625
Probable space group: C C C 2
;
_chemical_formula_sum "Si O2"
_cell_formula_units_Z 60
_cell_length_a 22.467870
_cell_length_b 8.334573
_cell_length_c 13.770159
_cell_angle_alpha 90.000000
_cell_angle_beta 90.000000
_cell_angle_gamma 90.000000
_cell_volume 2578.601388
_symmetry_space_group_name_H-M "C C C 2"
_symmetry_group_IT_number 37
_symmetry_cell_setting 'orthorhombic'
loop_
_space_group_symop_operation_xyz
x,y,z
-x,-y,z
-x,y,1/2+z
x,-y,1/2+z
1/2+x,1/2+y,z
1/2-x,1/2-y,z
1/2-x,1/2+y,1/2+z
1/2+x,1/2-y,1/2+z
loop_
_atom_site_type_symbol
_atom_site_label
_atom_site_fract_x
_atom_site_fract_y
_atom_site_fract_z
Si Si1 0.216331 0.508821 0.135310
Si Si2 0.620739 0.867654 0.006529
Si Si3 0.081271 0.203661 0.721043
Si Si4 0.883104 0.032215 0.405203
Si Si5 0.668045 0.358244 0.067678
Si Si6 0.036917 0.226987 0.332735
Si Si7 0.000000 0.500000 0.984883
Si Si8 0.866262 0.474204 0.797549
O O1 0.285958 0.518684 0.116750
O O2 0.192104 0.680515 0.092969
O O3 0.197535 0.481871 0.246340
O O4 0.176543 0.382650 0.076796
O O5 0.610584 0.684876 0.975233
O O6 0.559192 0.949648 0.042313
O O7 0.635604 0.968363 0.908631
O O8 0.102769 0.143669 0.616812
O O9 0.096712 0.389030 0.740475
O O10 0.012976 0.188642 0.752896
O O11 0.123667 0.109542 0.798538
O O12 0.836776 0.911570 0.456036
O O13 0.941324 0.926789 0.390318
O O14 0.096131 0.311429 0.289752
O O15 0.011677 0.353053 0.410988
#
# Coordination Sequence:
#
# PCOD9353625 Si02
#       8
#     8   8   8   8   8   8   4   8
#     4  10  22  43  64  92 127 171 226 270 308 393
#     4  10  21  39  62  93 126 165 211 262 329 383
#     4  10  20  39  61  90 127 167 211 264 327 385
#     4  11  23  38  62  93 131 167 204 264 327 384
#     4  10  23  42  64  91 129 171 224 269 319 377
#     4  11  18  38  63  91 129 163 208 264 324 399
#     4  10  18  36  64  90 120 162 212 254 316 398
#     4   9  19  38  65  90 120 167 215 263 320 383
#
# _framework density 23.268429000000001
#
# number of rings (size 3 to 8) (size 9 to 14) (size 15 to 20)
#    0.000    1.867    4.000    2.000    0.000    2.667 
#    7.200    5.333    2.933    0.000    0.000    0.000 
#    0.000    0.000    0.000    0.000    0.000    0.000 
#
# Total GULP energy -167474.755158 kJ/mol
# GULP energy per Si atom -5582.491839 kJ/mol
# Density = 2.321547 g / cm^3
# Si number density = 23.268429 Si / 1000 Ang^3
#
#
#
# Elastic Constant Matrix: (Units=GPa)
#
#
# Indices 1 2 3 4 5 6 
#
# 1 73.4806 20.6471 10.8841 0.0000 0.0000 0.0000
# 2 20.6471 81.8563 17.2439 0.0000 0.0000 0.0000
# 3 10.8841 17.2439 53.3254 0.0000 0.0000 0.0000
# 4 0.0000 0.0000 0.0000 18.3284 0.0000 0.0000
# 5 0.0000 0.0000 0.0000 0.0000 33.4200 0.0000
# 6 0.0000 0.0000 0.0000 0.0000 0.0000 24.1215
#
#
#
# Elastic Compliance Matrix: (Units=1/GPa)
#
#
# Indices 1 2 3 4 5 6 
#
# 1 0.014834 -0.003331 -0.001951 0.000000 0.000000 0.000000
# 2 -0.003331 0.013857 -0.003801 0.000000 0.000000 0.000000
# 3 -0.001951 -0.003801 0.020380 0.000000 0.000000 0.000000
# 4 0.000000 0.000000 0.000000 0.054560 0.000000 0.000000
# 5 0.000000 0.000000 0.000000 0.000000 0.029922 0.000000
# 6 0.000000 0.000000 0.000000 0.000000 0.000000 0.041457
#
#
# Mechanical properties :
#
#
# Convention : Reuss Voigt Hill
#
# Bulk Modulus (GPa) = 32.35596 34.02361 33.18978
# Shear Modulus (GPa) = 24.57272 25.83314 25.20293
#
# Velocity S-wave (km/s) = 3.25322 3.33562 3.29468
# Velocity P-wave (km/s) = 5.29594 5.43038 5.36358
#
# Compressibility (1/GPa) = 0.03090620
#
# Stress axis : x y z
#
# Youngs Moduli (GPa) = 67.41333 72.16346 49.06731
#
# Poissons Ratio (x) = 0.24036 0.09571
# Poissons Ratio (y) = 0.22453 0.18652
# Poissons Ratio (z) = 0.13150 0.27431
#
# Static dielectric constant tensor:
#      x y z
#    x 1.907610 0.000000 0.000000 
#    y 0.000000 1.918310 0.000000 
#    z 0.000000 0.000000 1.878160 
# 
# From -- ./inp_files/13157.got.cif
#   From: 2010.05.17/outbox.cif.g08.bks.cpg/sg37_7_cif.got.tgz:13157.got - 2010.06.03 17:53:42.
