data_PCOD9353648
_publ_section_title
;
Structure prediction by ZEFSAII (Michael W. Deem and Ramdas Pophale) SiO2 
 PCOD9353648
Probable space group: C C C 2
;
_chemical_formula_sum "Si O2"
_cell_formula_units_Z 36
_cell_length_a 10.846441
_cell_length_b 9.923166
_cell_length_c 14.877596
_cell_angle_alpha 90.000000
_cell_angle_beta 90.000000
_cell_angle_gamma 90.000000
_cell_volume 1601.291049
_symmetry_space_group_name_H-M "C C C 2"
_symmetry_group_IT_number 37
_symmetry_cell_setting 'orthorhombic'
loop_
_space_group_symop_operation_xyz
x,y,z
-x,-y,z
-x,y,1/2+z
x,-y,1/2+z
1/2+x,1/2+y,z
1/2-x,1/2-y,z
1/2-x,1/2+y,1/2+z
1/2+x,1/2-y,1/2+z
loop_
_atom_site_type_symbol
_atom_site_label
_atom_site_fract_x
_atom_site_fract_y
_atom_site_fract_z
Si Si1 0.559316 0.326473 0.472030
Si Si2 0.237281 0.589428 0.255836
Si Si3 0.189500 0.458264 0.948012
Si Si4 0.000000 0.000000 0.806853
Si Si5 0.879845 0.323976 0.084368
O O1 0.670236 0.434176 0.483351
O O2 0.624684 0.184891 0.455236
O O3 0.491408 0.376037 0.380147
O O4 0.479134 0.290699 0.560032
O O5 0.250000 0.750000 0.277682
O O6 0.192151 0.510233 0.343007
O O7 0.377926 0.532333 0.247763
O O8 0.137127 0.590799 0.176102
O O9 0.122131 0.570392 0.004186
O O10 0.750000 0.250000 0.081684
#
# Coordination Sequence:
#
# PCOD9353648 Si02
#       5
#     8   8   8   4   8
#     4  10  20  39  65  89 126 174 222 268 341 396
#     4  10  20  38  62  94 129 169 226 278 334 399
#     4  10  20  42  64  88 134 175 215 282 335 402
#     4  10  18  38  72  92 128 186 220 278 346 400
#     4  11  23  35  63  98 127 169 225 275 336 408
#
# _framework density 22.481860000000001
#
# number of rings (size 3 to 8) (size 9 to 14) (size 15 to 20)
#    0.000    1.778    4.444    3.333    0.000    3.556 
#    0.000    4.444    9.778    0.000    0.000    0.000 
#    0.000    0.000    0.000    0.000    0.000    0.000 
#
# Total GULP energy -100207.255206 kJ/mol
# GULP energy per Si atom -5567.069734 kJ/mol
# Density = 2.243069 g / cm^3
# Si number density = 22.481860 Si / 1000 Ang^3
#
#
#
# Elastic Constant Matrix: (Units=GPa)
#
#
# Indices 1 2 3 4 5 6 
#
# 1 108.5428 11.5259 46.0922 0.0000 0.0000 0.0000
# 2 11.5259 55.5626 16.5063 0.0000 0.0000 0.0000
# 3 46.0922 16.5063 134.4158 0.0000 0.0000 0.0000
# 4 0.0000 0.0000 0.0000 31.9932 0.0000 0.0000
# 5 0.0000 0.0000 0.0000 0.0000 -134.1814 0.0000
# 6 0.0000 0.0000 0.0000 0.0000 0.0000 43.9606
#
#
#
# Elastic Compliance Matrix: (Units=1/GPa)
#
#
# Indices 1 2 3 4 5 6 
#
# 1 0.010858 -0.001190 -0.003577 0.000000 0.000000 0.000000
# 2 -0.001190 0.018810 -0.001902 0.000000 0.000000 0.000000
# 3 -0.003577 -0.001902 0.008900 0.000000 0.000000 0.000000
# 4 0.000000 0.000000 0.000000 0.031257 0.000000 0.000000
# 5 0.000000 0.000000 0.000000 0.000000 -0.007453 0.000000
# 6 0.000000 0.000000 0.000000 0.000000 0.000000 0.022748
#
#
# Mechanical properties :
#
#
# Convention : Reuss Voigt Hill
#
# Bulk Modulus (GPa) = 39.63546 49.64113 44.63830
# Shear Modulus (GPa) = 46.78701 3.31425 25.05063
#
# Velocity S-wave (km/s) = 4.56686 1.21548 3.34167
# Velocity P-wave (km/s) = 6.74363 4.90900 5.89808
#
# Compressibility (1/GPa) = 0.02522993
#
# Stress axis : x y z
#
# Youngs Moduli (GPa) = 92.09471 53.16456 112.36148
#
# Poissons Ratio (x) = 0.06325 0.40195
# Poissons Ratio (y) = 0.10957 0.21370
# Poissons Ratio (z) = 0.32945 0.10111
#
# Static dielectric constant tensor:
#      x y z
#    x 1.934540 0.000000 0.000000 
#    y 0.000000 1.863100 0.000000 
#    z 0.000000 0.000000 1.976230 
# 
# From -- ./inp_files/11269.got.cif
#   From: 2010.05.17/outbox.cif.g08.bks.cpg/sg37_6_cif.got.tgz:11269.got - 2010.06.03 17:53:42.
