data_PCOD9353527
_publ_section_title
;
Structure prediction by ZEFSAII (Michael W. Deem and Ramdas Pophale) SiO2 
 PCOD9353527
Probable space group: C C C 2
;
_chemical_formula_sum "Si O2"
_cell_formula_units_Z 48
_cell_length_a 15.456374
_cell_length_b 19.381443
_cell_length_c 9.326705
_cell_angle_alpha 90.000000
_cell_angle_beta 90.000000
_cell_angle_gamma 90.000000
_cell_volume 2793.971467
_symmetry_space_group_name_H-M "C C C 2"
_symmetry_group_IT_number 37
_symmetry_cell_setting 'orthorhombic'
loop_
_space_group_symop_operation_xyz
x,y,z
-x,-y,z
-x,y,1/2+z
x,-y,1/2+z
1/2+x,1/2+y,z
1/2-x,1/2-y,z
1/2-x,1/2+y,1/2+z
1/2+x,1/2-y,1/2+z
loop_
_atom_site_type_symbol
_atom_site_label
_atom_site_fract_x
_atom_site_fract_y
_atom_site_fract_z
Si Si1 0.506709 0.778612 0.556540
Si Si2 0.119743 0.695484 0.314183
Si Si3 0.310534 0.648645 0.256907
Si Si4 0.553003 0.570711 0.917407
Si Si5 0.170257 0.198215 0.445541
Si Si6 0.424882 0.353639 0.208933
O O1 0.436742 0.815166 0.456213
O O2 0.557944 0.819799 0.678887
O O3 0.583579 0.744207 0.463173
O O4 0.457305 0.716506 0.636465
O O5 0.210256 0.655862 0.299125
O O6 0.145564 0.777729 0.304854
O O7 0.358370 0.584399 0.330549
O O8 0.323740 0.649244 0.085000
O O9 0.500000 0.500000 0.911394
O O10 0.489534 0.622966 0.834236
O O11 0.571670 0.591410 0.081139
O O12 0.250000 0.250000 0.453970
O O13 0.163631 0.159381 0.294395
#
# Coordination Sequence:
#
# PCOD9353527 Si02
#       6
#     8   8   8   8   8   8
#     4  11  16  30  48  74 105 144 175 217 282 346
#     4  10  18  29  52  71 111 143 180 225 285 344
#     4  10  18  34  49  74 105 150 188 230 277 339
#     4  12  23  36  51  71 105 155 196 231 273 326
#     4  11  19  30  51  75 107 143 179 232 286 346
#     4  12  20  33  50  73 104 145 191 223 274 343
#
# _framework density 17.179846000000001
#
# number of rings (size 3 to 8) (size 9 to 14) (size 15 to 20)
#    0.000    1.000   11.667    0.500    0.000    1.333 
#    0.000    0.833    0.000    0.000    0.000    0.000 
#    0.000    1.333    7.000    0.333    0.000    0.000 
#
# Total GULP energy -133746.899147 kJ/mol
# GULP energy per Si atom -5572.787464 kJ/mol
# Density = 1.714074 g / cm^3
# Si number density = 17.179846 Si / 1000 Ang^3
#
#
#
# Elastic Constant Matrix: (Units=GPa)
#
#
# Indices 1 2 3 4 5 6 
#
# 1 99.4899 29.4331 54.7459 0.0000 0.0000 0.0000
# 2 29.4331 38.3389 35.1939 0.0000 0.0000 0.0000
# 3 54.7459 35.1939 104.6679 0.0000 0.0000 0.0000
# 4 0.0000 0.0000 0.0000 12.5111 0.0000 0.0000
# 5 0.0000 0.0000 0.0000 0.0000 31.4745 0.0000
# 6 0.0000 0.0000 0.0000 0.0000 0.0000 23.9242
#
#
#
# Elastic Compliance Matrix: (Units=1/GPa)
#
#
# Indices 1 2 3 4 5 6 
#
# 1 0.015090 -0.006277 -0.005782 0.000000 0.000000 0.000000
# 2 -0.006277 0.040339 -0.010281 0.000000 0.000000 0.000000
# 3 -0.005782 -0.010281 0.016035 0.000000 0.000000 0.000000
# 4 0.000000 0.000000 0.000000 0.079929 0.000000 0.000000
# 5 0.000000 0.000000 0.000000 0.000000 0.031772 0.000000
# 6 0.000000 0.000000 0.000000 0.000000 0.000000 0.041799
#
#
# Mechanical properties :
#
#
# Convention : Reuss Voigt Hill
#
# Bulk Modulus (GPa) = 37.33442 53.47139 45.40291
# Shear Modulus (GPa) = 17.94867 21.79020 19.86943
#
# Velocity S-wave (km/s) = 3.23577 3.56527 3.40451
# Velocity P-wave (km/s) = 5.97821 6.93831 6.47608
#
# Compressibility (1/GPa) = 0.02678494
#
# Stress axis : x y z
#
# Youngs Moduli (GPa) = 66.26936 24.78966 62.36286
#
# Poissons Ratio (x) = 0.15560 0.36059
# Poissons Ratio (y) = 0.41596 0.64114
# Poissons Ratio (z) = 0.38318 0.25486
#
# Static dielectric constant tensor:
#      x y z
#    x 1.623660 0.000000 0.000000 
#    y 0.000000 1.598410 0.000000 
#    z 0.000000 0.000000 1.645100 
# 
# From -- ./inp_files/3565.got.cif
#   From: 2010.05.17/outbox.cif.g08.bks.cpg/sg37_2_cif.got.tgz:3565.got - 2010.06.03 17:53:42.
