data_PCOD9353408
_publ_section_title
;
Structure prediction by ZEFSAII (Michael W. Deem and Ramdas Pophale) SiO2 
 PCOD9353408
Probable space group: C M C 21
;
_chemical_formula_sum "Si O2"
_cell_formula_units_Z 24
_cell_length_a 15.000000
_cell_length_b 9.000000
_cell_length_c 18.000000
_cell_angle_alpha 90.000000
_cell_angle_beta 90.000000
_cell_angle_gamma 90.000000
_cell_volume 2430.000000
_symmetry_space_group_name_H-M "C M C 21"
_symmetry_group_IT_number 36
_symmetry_cell_setting 'orthorhombic'
loop_
_space_group_symop_operation_xyz
x,y,z
-x,-y,1/2+z
x,-y,1/2+z
-x,y,z
1/2+x,1/2+y,z
1/2-x,1/2-y,1/2+z
1/2+x,1/2-y,1/2+z
1/2-x,1/2+y,z
loop_
_atom_site_type_symbol
_atom_site_label
_atom_site_fract_x
_atom_site_fract_y
_atom_site_fract_z
Si Si1 0.500000 0.571542 0.740500
Si Si2 0.500000 0.239289 0.656888
Si Si3 0.688970 0.044424 0.418588
Si Si4 0.806900 0.828976 0.314471
Si Si5 0.500000 0.972962 0.009624
Si Si6 0.313505 0.463208 0.064547
Si Si7 0.195927 0.743584 0.668586
Si Si8 0.500000 0.298891 0.083129
O O1 0.500000 0.411354 0.694524
O O2 0.595762 0.598916 0.786049
O O3 0.500000 0.689688 0.672863
O O4 0.500000 0.169547 0.569465
O O5 0.596228 0.184349 0.685455
O O6 0.678393 0.203403 0.377467
O O7 0.591027 0.021041 0.458551
O O8 0.761613 0.027805 0.485883
O O9 0.734735 0.940602 0.353948
O O10 0.755977 0.753435 0.243363
O O11 0.500000 0.128364 0.055932
O O12 0.250743 0.361490 0.114625
O O13 0.320679 0.611337 0.115889
O O14 0.410641 0.386205 0.056482
#
# Coordination Sequence:
#
# PCOD9353408 Si02
#       8
#     4   4   8   8   4   8   8   4
#     4  12  25  47  73 105 143 196 243 303 363 442
#     4  12  24  43  73 108 134 184 250 300 357 431
#     4  12  27  47  69 110 148 196 236 309 375 441
#     4  12  27  47  73 105 152 193 242 302 379 436
#     4  12  27  45  72 108 150 188 246 307 373 435
#     4  12  24  44  73 104 143 185 248 296 362 430
#     4  12  23  44  71 104 138 189 240 302 349 441
#     4  12  24  45  72 107 135 190 245 306 355 428
#
# _framework density 9.8765429999999999
#
# number of rings (size 3 to 8) (size 9 to 14) (size 15 to 20)
#    0.000    0.000    5.000    5.500    0.000    2.667 
#    0.000    3.333    0.000    0.000    0.000    0.000 
#    0.000    0.000    0.000    0.000    0.000    0.000 
#
# Total GULP energy -133714.327636 kJ/mol
# GULP energy per Si atom -5571.430318 kJ/mol
# Density = 0.985406 g / cm^3
# Si number density = 9.876543 Si / 1000 Ang^3
#
#
#
# Elastic Constant Matrix: (Units=GPa)
#
#
# Indices 1 2 3 4 5 6 
#
# 1 191.2003 27.8454 47.1166 0.0000 0.0000 0.0000
# 2 27.8454 86.2455 33.3871 0.0000 0.0000 0.0000
# 3 47.1166 33.3871 130.1908 0.0000 0.0000 0.0000
# 4 0.0000 0.0000 0.0000 52.3259 0.0000 0.0000
# 5 0.0000 0.0000 0.0000 0.0000 55.5258 0.0000
# 6 0.0000 0.0000 0.0000 0.0000 0.0000 29.7949
#
#
#
# Elastic Compliance Matrix: (Units=1/GPa)
#
#
# Indices 1 2 3 4 5 6 
#
# 1 0.005850 -0.001187 -0.001813 0.000000 0.000000 0.000000
# 2 -0.001187 0.013114 -0.002933 0.000000 0.000000 0.000000
# 3 -0.001813 -0.002933 0.009089 0.000000 0.000000 0.000000
# 4 0.000000 0.000000 0.000000 0.019111 0.000000 0.000000
# 5 0.000000 0.000000 0.000000 0.000000 0.018010 0.000000
# 6 0.000000 0.000000 0.000000 0.000000 0.000000 0.033563
#
#
# Mechanical properties :
#
#
# Convention : Reuss Voigt Hill
#
# Bulk Modulus (GPa) = 61.77938 69.37053 65.57495
# Shear Modulus (GPa) = 43.10440 47.48180 45.29310
#
# Velocity S-wave (km/s) = 4.67643 4.90814 4.79368
# Velocity P-wave (km/s) = 7.77832 8.20456 7.99429
#
# Compressibility (1/GPa) = 0.01618663
#
# Stress axis : x y z
#
# Youngs Moduli (GPa) = 170.95025 76.25675 110.01954
#
# Poissons Ratio (x) = 0.09051 0.19942
# Poissons Ratio (y) = 0.20291 0.32273
# Poissons Ratio (z) = 0.30987 0.22369
#
# Static dielectric constant tensor:
#      x y z
#    x 1.716120 0.000000 0.000000 
#    y 0.000000 1.784040 0.000000 
#    z 0.000000 0.000000 1.739600 
# 
# From -- ./inp_files/14623.got.cif
#   From: 2010.05.17/outbox.ucp.g08.bks.cvg/sg36_8_cif.got.tgz:14623.got - 2010.06.11 10:37:26.
