data_PCOD9353155
_publ_section_title
;
Structure prediction by ZEFSAII (Michael W. Deem and Ramdas Pophale) SiO2 
 PCOD9353155
Probable space group: C M C 21
;
_chemical_formula_sum "Si O2"
_cell_formula_units_Z 48
_cell_length_a 7.592169
_cell_length_b 29.302066
_cell_length_c 8.096529
_cell_angle_alpha 90.000000
_cell_angle_beta 90.000000
_cell_angle_gamma 90.000000
_cell_volume 1801.204340
_symmetry_space_group_name_H-M "C M C 21"
_symmetry_group_IT_number 36
_symmetry_cell_setting 'orthorhombic'
loop_
_space_group_symop_operation_xyz
x,y,z
-x,-y,1/2+z
x,-y,1/2+z
-x,y,z
1/2+x,1/2+y,z
1/2-x,1/2-y,1/2+z
1/2+x,1/2-y,1/2+z
1/2-x,1/2+y,z
loop_
_atom_site_type_symbol
_atom_site_label
_atom_site_fract_x
_atom_site_fract_y
_atom_site_fract_z
Si Si1 0.703847 0.179823 0.741840
Si Si2 0.205142 0.846008 0.790302
Si Si3 0.704402 0.988302 0.291232
Si Si4 0.215584 0.600156 0.958420
Si Si5 0.284043 0.734458 0.072799
Si Si6 0.701918 0.429520 0.977892
O O1 0.500000 0.172618 0.703031
O O2 0.777163 0.131819 0.804510
O O3 0.777463 0.213674 0.602934
O O4 0.715294 0.210930 0.907875
O O5 0.217360 0.876219 0.622723
O O6 0.278251 0.797777 0.725753
O O7 0.281927 0.880314 0.928405
O O8 0.000000 0.839474 0.828418
O O9 0.500000 0.997869 0.320128
O O10 0.770340 0.951378 0.425125
O O11 0.793806 0.036634 0.319421
O O12 0.715977 0.960086 0.121835
O O13 0.000000 0.601023 0.962582
O O14 0.500000 0.733438 0.069925
O O15 0.500000 0.422198 0.022469
#
# Coordination Sequence:
#
# PCOD9353155 Si02
#       6
#     8   8   8   8   8   8
#     4   9  18  33  52  75 104 136 171 211 255 304
#     4   9  19  35  54  76 103 136 172 212 257 305
#     4  11  23  38  56  79 107 138 174 215 261 311
#     4   9  19  35  54  76 103 136 172 212 257 305
#     4   9  18  33  52  75 104 136 171 211 255 304
#     4  11  23  38  56  79 107 138 174 215 261 311
#
# _framework density 26.648834000000001
#
# number of rings (size 3 to 8) (size 9 to 14) (size 15 to 20)
#    0.000    2.333    0.000    2.000    0.000    7.333 
#    0.000    0.000    0.000    0.000    0.000    0.000 
#    0.000    0.000    0.000    0.000    0.000    0.000 
#
# Total GULP energy -134240.747827 kJ/mol
# GULP energy per Si atom -5593.364493 kJ/mol
# Density = 2.658818 g / cm^3
# Si number density = 26.648834 Si / 1000 Ang^3
#
#
#
# Elastic Constant Matrix: (Units=GPa)
#
#
# Indices 1 2 3 4 5 6 
#
# 1 88.9580 22.7273 10.9370 0.0000 0.0000 0.0000
# 2 22.7273 149.1441 1.1229 0.0000 0.0000 0.0000
# 3 10.9370 1.1229 88.2684 0.0000 0.0000 0.0000
# 4 0.0000 0.0000 0.0000 57.5813 0.0000 0.0000
# 5 0.0000 0.0000 0.0000 0.0000 31.3873 0.0000
# 6 0.0000 0.0000 0.0000 0.0000 0.0000 15.5254
#
#
#
# Elastic Compliance Matrix: (Units=1/GPa)
#
#
# Indices 1 2 3 4 5 6 
#
# 1 0.011879 -0.001799 -0.001449 0.000000 0.000000 0.000000
# 2 -0.001799 0.006978 0.000134 0.000000 0.000000 0.000000
# 3 -0.001449 0.000134 0.011507 0.000000 0.000000 0.000000
# 4 0.000000 0.000000 0.000000 0.017367 0.000000 0.000000
# 5 0.000000 0.000000 0.000000 0.000000 0.031860 0.000000
# 6 0.000000 0.000000 0.000000 0.000000 0.000000 0.064410
#
#
# Mechanical properties :
#
#
# Convention : Reuss Voigt Hill
#
# Bulk Modulus (GPa) = 41.43211 43.99388 42.71299
# Shear Modulus (GPa) = 31.59061 40.33770 35.96415
#
# Velocity S-wave (km/s) = 3.44676 3.89482 3.67762
# Velocity P-wave (km/s) = 5.60548 6.06389 5.83918
#
# Compressibility (1/GPa) = 0.02413587
#
# Stress axis : x y z
#
# Youngs Moduli (GPa) = 84.18153 143.30558 86.90429
#
# Poissons Ratio (x) = 0.25785 0.12593
# Poissons Ratio (y) = 0.15147 -0.01166
# Poissons Ratio (z) = 0.12198 -0.01923
#
# Static dielectric constant tensor:
#      x y z
#    x 1.952880 0.000000 0.000000 
#    y 0.000000 2.070150 0.000000 
#    z 0.000000 0.000000 2.208800 
# 
# From -- ./inp_files/2638.got.cif
#   From: 2010.05.17/outbox.cif.g08.bks.cpg/sg36_2_cif.got.tgz:2638.got - 2010.06.03 17:41:39.
