data_PCOD9353721
_publ_section_title
;
Structure prediction by ZEFSAII (Michael W. Deem and Ramdas Pophale) SiO2 
 PCOD9353721
Probable space group: C C C 2
;
_chemical_formula_sum "Si O2"
_cell_formula_units_Z 64
_cell_length_a 19.101531
_cell_length_b 13.280625
_cell_length_c 11.623314
_cell_angle_alpha 90.000000
_cell_angle_beta 90.000000
_cell_angle_gamma 90.000000
_cell_volume 2948.605435
_symmetry_space_group_name_H-M "C C C 2"
_symmetry_group_IT_number 37
_symmetry_cell_setting 'orthorhombic'
loop_
_space_group_symop_operation_xyz
x,y,z
-x,-y,z
-x,y,1/2+z
x,-y,1/2+z
1/2+x,1/2+y,z
1/2-x,1/2-y,z
1/2-x,1/2+y,1/2+z
1/2+x,1/2-y,1/2+z
loop_
_atom_site_type_symbol
_atom_site_label
_atom_site_fract_x
_atom_site_fract_y
_atom_site_fract_z
Si Si1 0.418381 0.775488 0.126410
Si Si2 0.566713 0.683277 0.203300
Si Si3 0.674769 0.462662 0.589595
Si Si4 0.164945 0.876767 0.270095
Si Si5 0.278327 0.847208 0.463396
Si Si6 0.074706 0.639932 0.876274
Si Si7 0.073497 0.985023 0.903800
Si Si8 0.585884 0.908763 0.843189
O O1 0.492492 0.715136 0.144629
O O2 0.358060 0.706133 0.180148
O O3 0.416908 0.872349 0.211029
O O4 0.405058 0.808358 0.996325
O O5 0.622801 0.632046 0.116576
O O6 0.590024 0.784759 0.270453
O O7 0.561270 0.598751 0.305391
O O8 0.684753 0.521557 0.706133
O O9 0.750432 0.438276 0.539028
O O10 0.633191 0.532100 0.497801
O O11 0.227388 0.849046 0.352915
O O12 0.097849 0.910500 0.344883
O O13 0.250000 0.750000 0.529887
O O14 0.356609 0.850703 0.419217
O O15 0.102420 0.527056 0.855219
O O16 0.990977 0.621045 0.886731
O O17 0.000000 0.000000 0.966316
#
# Coordination Sequence:
#
# PCOD9353721 Si02
#       8
#     8   8   8   8   8   8   8   8
#     4  11  21  38  67  91 126 168 206 271 333 379
#     4  10  22  37  60  97 130 163 213 266 323 398
#     4  10  24  36  61  94 129 166 207 263 336 391
#     4  10  21  39  58  93 122 162 213 256 320 403
#     4  11  23  44  65  88 129 177 216 263 323 407
#     4  10  24  41  67  97 126 163 222 281 321 380
#     4  10  19  33  58  89 129 162 202 262 326 389
#     4  10  24  45  62  92 125 166 227 269 318 389
#
# _framework density 21.705176999999999
#
# number of rings (size 3 to 8) (size 9 to 14) (size 15 to 20)
#    0.000    1.750    2.500    0.750    5.250    5.000 
#    2.250    0.000    0.000    1.500    0.000    0.000 
#    0.000    0.000    0.000    0.000    0.000    0.000 
#
# Total GULP energy -178552.066388 kJ/mol
# GULP energy per Si atom -5579.752075 kJ/mol
# Density = 2.165578 g / cm^3
# Si number density = 21.705177 Si / 1000 Ang^3
#
#
#
# Elastic Constant Matrix: (Units=GPa)
#
#
# Indices 1 2 3 4 5 6 
#
# 1 32.0182 5.6319 -3.0573 0.0000 0.0000 0.0000
# 2 5.6319 79.4031 15.4028 0.0000 0.0000 0.0000
# 3 -3.0573 15.4028 58.3474 0.0000 0.0000 0.0000
# 4 0.0000 0.0000 0.0000 34.8408 0.0000 0.0000
# 5 0.0000 0.0000 0.0000 0.0000 13.7299 0.0000
# 6 0.0000 0.0000 0.0000 0.0000 0.0000 19.9373
#
#
#
# Elastic Compliance Matrix: (Units=1/GPa)
#
#
# Indices 1 2 3 4 5 6 
#
# 1 0.031941 -0.002730 0.002394 0.000000 0.000000 0.000000
# 2 -0.002730 0.013507 -0.003709 0.000000 0.000000 0.000000
# 3 0.002394 -0.003709 0.018243 0.000000 0.000000 0.000000
# 4 0.000000 0.000000 0.000000 0.028702 0.000000 0.000000
# 5 0.000000 0.000000 0.000000 0.000000 0.072834 0.000000
# 6 0.000000 0.000000 0.000000 0.000000 0.000000 0.050157
#
#
# Mechanical properties :
#
#
# Convention : Reuss Voigt Hill
#
# Bulk Modulus (GPa) = 17.98474 22.85814 20.42144
# Shear Modulus (GPa) = 20.66054 23.82102 22.24078
#
# Velocity S-wave (km/s) = 3.08859 3.31642 3.20453
# Velocity P-wave (km/s) = 4.58509 5.02184 4.80843
#
# Compressibility (1/GPa) = 0.05560270
#
# Stress axis : x y z
#
# Youngs Moduli (GPa) = 31.30766 74.03563 54.81485
#
# Poissons Ratio (x) = 0.20211 -0.13125
# Poissons Ratio (y) = 0.08547 0.20329
# Poissons Ratio (z) = -0.07496 0.27457
#
# Static dielectric constant tensor:
#      x y z
#    x 1.801140 0.000000 0.000000 
#    y 0.000000 1.888580 0.000000 
#    z 0.000000 0.000000 1.776530 
# 
# From -- ./inp_files/7992.got.cif
#   From: 2010.05.17/outbox.cif.g08.bks.cpg/sg37_4_cif.got.tgz:7992.got - 2010.06.03 17:53:42.
