data_PCOD9353568
_publ_section_title
;
Structure prediction by ZEFSAII (Michael W. Deem and Ramdas Pophale) SiO2 
 PCOD9353568
Probable space group: C C C 2
;
_chemical_formula_sum "Si O2"
_cell_formula_units_Z 60
_cell_length_a 11.482260
_cell_length_b 31.011758
_cell_length_c 8.824807
_cell_angle_alpha 90.000000
_cell_angle_beta 90.000000
_cell_angle_gamma 90.000000
_cell_volume 3142.382004
_symmetry_space_group_name_H-M "C C C 2"
_symmetry_group_IT_number 37
_symmetry_cell_setting 'orthorhombic'
loop_
_space_group_symop_operation_xyz
x,y,z
-x,-y,z
-x,y,1/2+z
x,-y,1/2+z
1/2+x,1/2+y,z
1/2-x,1/2-y,z
1/2-x,1/2+y,1/2+z
1/2+x,1/2-y,1/2+z
loop_
_atom_site_type_symbol
_atom_site_label
_atom_site_fract_x
_atom_site_fract_y
_atom_site_fract_z
Si Si1 0.500000 0.000000 0.596141
Si Si2 0.609620 0.943456 0.858406
Si Si3 0.968263 0.767813 0.819151
Si Si4 0.958732 0.365010 0.981428
Si Si5 0.324043 0.801816 0.803666
Si Si6 0.756574 0.628898 0.728495
Si Si7 0.882137 0.186072 0.029397
Si Si8 0.824378 0.697286 0.976928
O O1 0.556443 0.964666 0.707393
O O2 0.399258 0.980460 0.486869
O O3 0.523472 0.907688 0.929098
O O4 0.726553 0.916640 0.815258
O O5 0.919590 0.779902 0.656428
O O6 0.869832 0.742514 0.912270
O O7 0.076603 0.734671 0.805278
O O8 0.015792 0.810092 0.905728
O O9 0.885201 0.347195 0.839589
O O10 0.944168 0.328927 0.513294
O O11 0.872322 0.369142 0.122903
O O12 0.263632 0.800750 0.640054
O O13 0.233230 0.798849 0.940671
O O14 0.651281 0.641734 0.615630
O O15 0.763835 0.667917 0.849835
#
# Coordination Sequence:
#
# PCOD9353568 Si02
#       8
#     4   8   8   8   8   8   8   8
#     4  10  20  28  54  84 122 162 176 226 298 336
#     4  10  18  33  50  83 120 155 187 221 278 358
#     4  11  22  38  54  75 111 140 200 262 306 342
#     4   9  17  31  52  75 110 150 193 229 274 343
#     4  10  21  35  56  78 101 154 201 247 301 351
#     4  10  21  34  55  77 110 152 203 230 285 367
#     4  11  25  39  56  76 107 155 196 257 313 342
#     4  10  19  32  53  75 102 145 193 249 292 336
#
# _framework density 19.093796000000001
#
# number of rings (size 3 to 8) (size 9 to 14) (size 15 to 20)
#    0.000    1.867    2.667    2.800    7.467    1.067 
#    2.400    0.000    0.000    0.000    0.000    0.000 
#    0.000    3.200    0.000    0.000    0.000    0.000 
#
# Total GULP energy -167375.906525 kJ/mol
# GULP energy per Si atom -5579.196884 kJ/mol
# Density = 1.905034 g / cm^3
# Si number density = 19.093796 Si / 1000 Ang^3
#
#
#
# Elastic Constant Matrix: (Units=GPa)
#
#
# Indices 1 2 3 4 5 6 
#
# 1 50.1230 18.5926 26.7694 0.0000 0.0000 0.0000
# 2 18.5926 65.4030 24.3126 0.0000 0.0000 0.0000
# 3 26.7694 24.3126 125.7782 0.0000 0.0000 0.0000
# 4 0.0000 0.0000 0.0000 26.8173 0.0000 0.0000
# 5 0.0000 0.0000 0.0000 0.0000 32.3724 0.0000
# 6 0.0000 0.0000 0.0000 0.0000 0.0000 20.3545
#
#
#
# Elastic Compliance Matrix: (Units=1/GPa)
#
#
# Indices 1 2 3 4 5 6 
#
# 1 0.024120 -0.005332 -0.004103 0.000000 0.000000 0.000000
# 2 -0.005332 0.017652 -0.002277 0.000000 0.000000 0.000000
# 3 -0.004103 -0.002277 0.009264 0.000000 0.000000 0.000000
# 4 0.000000 0.000000 0.000000 0.037289 0.000000 0.000000
# 5 0.000000 0.000000 0.000000 0.000000 0.030890 0.000000
# 6 0.000000 0.000000 0.000000 0.000000 0.000000 0.049129
#
#
# Mechanical properties :
#
#
# Convention : Reuss Voigt Hill
#
# Bulk Modulus (GPa) = 36.21584 42.29483 39.25533
# Shear Modulus (GPa) = 24.87901 27.35081 26.11491
#
# Velocity S-wave (km/s) = 3.61361 3.78887 3.70228
# Velocity P-wave (km/s) = 6.03485 6.42961 6.23536
#
# Compressibility (1/GPa) = 0.02761223
#
# Stress axis : x y z
#
# Youngs Moduli (GPa) = 41.45963 56.65069 107.94567
#
# Poissons Ratio (x) = 0.30204 0.44288
# Poissons Ratio (y) = 0.22104 0.24583
# Poissons Ratio (z) = 0.17010 0.12901
#
# Static dielectric constant tensor:
#      x y z
#    x 1.723430 0.000000 0.000000 
#    y 0.000000 1.694420 0.000000 
#    z 0.000000 0.000000 1.729150 
# 
# From -- ./inp_files/3107.got.cif
#   From: 2010.05.17/outbox.cif.g08.bks.cpg/sg37_2_cif.got.tgz:3107.got - 2010.06.03 17:53:42.
