data_PCOD9353427
_publ_section_title
;
Structure prediction by ZEFSAII (Michael W. Deem and Ramdas Pophale) SiO2 
 PCOD9353427
Probable space group: C C C 2
;
_chemical_formula_sum "Si O2"
_cell_formula_units_Z 56
_cell_length_a 14.690855
_cell_length_b 5.481087
_cell_length_c 31.678333
_cell_angle_alpha 90.000000
_cell_angle_beta 90.000000
_cell_angle_gamma 90.000000
_cell_volume 2550.798116
_symmetry_space_group_name_H-M "C C C 2"
_symmetry_group_IT_number 37
_symmetry_cell_setting 'orthorhombic'
loop_
_space_group_symop_operation_xyz
x,y,z
-x,-y,z
-x,y,1/2+z
x,-y,1/2+z
1/2+x,1/2+y,z
1/2-x,1/2-y,z
1/2-x,1/2+y,1/2+z
1/2+x,1/2-y,1/2+z
loop_
_atom_site_type_symbol
_atom_site_label
_atom_site_fract_x
_atom_site_fract_y
_atom_site_fract_z
Si Si1 0.441844 0.750000 0.656740
Si Si2 0.395785 0.750000 0.919874
Si Si3 0.360579 0.250000 0.518299
Si Si4 0.359380 0.250000 0.064239
Si Si5 0.609234 0.750000 0.249866
Si Si6 0.899764 0.750000 0.784361
Si Si7 0.397678 0.250000 0.885060
O O1 0.500000 0.500000 0.658394
O O2 0.389258 0.749999 0.612711
O O3 0.383472 0.750000 0.699548
O O4 0.500000 0.000000 0.658394
O O5 0.354694 0.499947 0.901854
O O6 0.499925 0.750000 0.903728
O O7 0.354693 0.000053 0.901854
O O8 0.392926 0.750001 0.970199
O O9 0.250000 0.250000 0.517751
O O10 0.390099 0.499223 0.541633
O O11 0.390099 0.000777 0.541633
O O12 0.250000 0.250000 0.062223
O O13 0.645170 0.499292 0.268941
O O14 0.501509 0.750000 0.263719
O O15 0.645170 0.000708 0.268941
O O16 0.905474 0.750001 0.834735
#
# Coordination Sequence:
#
# PCOD9353427 Si02
#       7
#     8   8   8   8   8   8   8
#     4  12  21  37  54  89 117 133 184 242 280 319
#     4  10  18  32  48  75 103 133 168 226 260 309
#     4  10  21  40  59  74  99 145 197 223 260 334
#     4  10  23  42  59  77 108 153 190 220 276 350
#     4  10  16  27  46  72 108 131 172 210 259 310
#     4  10  16  28  46  70 107 150 166 197 264 334
#     4  10  19  30  48  77 115 133 171 208 277 322
#
# _framework density 21.953913
#
# number of rings (size 3 to 8) (size 9 to 14) (size 15 to 20)
#    0.000    1.714    2.857    6.000    0.000    0.000 
#   15.429    0.000    0.000    0.000    0.000   11.000 
#    0.000    0.000    0.000    0.000    0.000    0.000 
#
# Total GULP energy -156479.034560 kJ/mol
# GULP energy per Si atom -5588.536949 kJ/mol
# Density = 2.190394 g / cm^3
# Si number density = 21.953913 Si / 1000 Ang^3
#
#
#
# Elastic Constant Matrix: (Units=GPa)
#
#
# Indices 1 2 3 4 5 6 
#
# 1 70.3202 26.4368 21.1387 0.0000 0.0000 0.0000
# 2 26.4368 271.6711 102.5906 0.0000 0.0000 0.0000
# 3 21.1387 102.5906 245.4743 0.0000 0.0000 0.0000
# 4 0.0000 0.0000 0.0000 49.8679 0.0000 0.0000
# 5 0.0000 0.0000 0.0000 0.0000 121.2297 0.0000
# 6 0.0000 0.0000 0.0000 0.0000 0.0000 -17.2552
#
#
#
# Elastic Compliance Matrix: (Units=1/GPa)
#
#
# Indices 1 2 3 4 5 6 
#
# 1 0.014893 -0.001146 -0.000804 0.000000 0.000000 0.000000
# 2 -0.001146 0.004459 -0.001765 0.000000 0.000000 0.000000
# 3 -0.000804 -0.001765 0.004881 0.000000 0.000000 0.000000
# 4 0.000000 0.000000 0.000000 0.020053 0.000000 0.000000
# 5 0.000000 0.000000 0.000000 0.000000 0.008249 0.000000
# 6 0.000000 0.000000 0.000000 0.000000 0.000000 -0.057953
#
#
# Mechanical properties :
#
#
# Convention : Reuss Voigt Hill
#
# Bulk Modulus (GPa) = 59.50999 98.64418 79.07709
# Shear Modulus (GPa) = 656.98904 59.92177 358.45541
#
# Velocity S-wave (km/s) = 17.31785 5.23007 12.79182
# Velocity P-wave (km/s) = 20.66502 9.02781 15.94591
#
# Compressibility (1/GPa) = 0.01680390
#
# Stress axis : x y z
#
# Youngs Moduli (GPa) = 67.14565 224.27239 204.89640
#
# Poissons Ratio (x) = 0.25697 0.16466
# Poissons Ratio (y) = 0.07693 0.36160
# Poissons Ratio (z) = 0.05396 0.39580
#
# Static dielectric constant tensor:
#      x y z
#    x 1.768860 0.000000 0.000000 
#    y 0.000000 1.908260 0.000000 
#    z 0.000000 0.000000 1.723820 
# 
# From -- ./inp_files/20536.got.cif
#   From: 2010.05.17/outbox.cif.g08.bks.cpg/sg37_11_cif.got.tgz:20536.got - 2010.06.03 17:53:42.
