data_PCOD9353039
_publ_section_title
;
Structure prediction by ZEFSAII (Michael W. Deem and Ramdas Pophale) SiO2 
 PCOD9353039
Probable space group: C M C 21
;
_chemical_formula_sum "Si O2"
_cell_formula_units_Z 36
_cell_length_a 22.299279
_cell_length_b 9.238022
_cell_length_c 7.333256
_cell_angle_alpha 90.000000
_cell_angle_beta 90.000000
_cell_angle_gamma 90.000000
_cell_volume 1510.659756
_symmetry_space_group_name_H-M "C M C 21"
_symmetry_group_IT_number 36
_symmetry_cell_setting 'orthorhombic'
loop_
_space_group_symop_operation_xyz
x,y,z
-x,-y,1/2+z
x,-y,1/2+z
-x,y,z
1/2+x,1/2+y,z
1/2-x,1/2-y,1/2+z
1/2+x,1/2-y,1/2+z
1/2-x,1/2+y,z
loop_
_atom_site_type_symbol
_atom_site_label
_atom_site_fract_x
_atom_site_fract_y
_atom_site_fract_z
Si Si1 0.500000 0.447349 0.965370
Si Si2 0.301981 0.153613 0.855831
Si Si3 0.320170 0.814314 0.938098
Si Si4 0.500000 0.749464 0.100325
Si Si5 0.402357 0.246980 0.125770
Si Si6 0.000000 0.547452 0.957889
O O1 0.500000 0.371869 0.766985
O O2 0.500000 0.617864 0.953854
O O3 0.440855 0.384407 0.065909
O O4 0.326827 0.189949 0.655386
O O5 0.234771 0.212198 0.878784
O O6 0.305724 0.980680 0.884401
O O7 0.342049 0.765906 0.505302
O O8 0.379126 0.764029 0.831659
O O9 0.500000 0.877383 0.259422
O O10 0.500000 0.876973 0.947041
O O11 0.441311 0.110395 0.058683
#
# Coordination Sequence:
#
# PCOD9353039 Si02
#       6
#     4   8   8   4   8   4
#     4  10  26  54  70 120 154 194 250 328 394 451
#     4  12  24  45  70 106 146 197 256 312 383 454
#     4  12  24  45  71 105 148 196 256 314 380 459
#     4  10  24  50  76 108 158 200 262 310 392 468
#     4  10  24  48  72 107 151 196 257 315 386 468
#     4  10  26  48  76 108 146 210 254 308 388 475
#
# _framework density 23.830648
#
# number of rings (size 3 to 8) (size 9 to 14) (size 15 to 20)
#    0.000    1.333    4.444    0.000    6.222    2.667 
#   16.000    0.000    0.000    0.000    0.000    0.000 
#    0.000    0.000    0.000    0.000    0.000    0.000 
#
# Total GULP energy -100461.984888 kJ/mol
# GULP energy per Si atom -5581.221383 kJ/mol
# Density = 2.377641 g / cm^3
# Si number density = 23.830648 Si / 1000 Ang^3
#
#
#
# Elastic Constant Matrix: (Units=GPa)
#
#
# Indices 1 2 3 4 5 6 
#
# 1 109.2166 26.8222 -12.7392 0.0000 0.0000 0.0000
# 2 26.8222 202.1187 3.3378 0.0000 0.0000 0.0000
# 3 -12.7392 3.3378 101.5147 0.0000 0.0000 0.0000
# 4 0.0000 0.0000 0.0000 34.5876 0.0000 0.0000
# 5 0.0000 0.0000 0.0000 0.0000 32.0842 0.0000
# 6 0.0000 0.0000 0.0000 0.0000 0.0000 42.0346
#
#
#
# Elastic Compliance Matrix: (Units=1/GPa)
#
#
# Indices 1 2 3 4 5 6 
#
# 1 0.009621 -0.001297 0.001250 0.000000 0.000000 0.000000
# 2 -0.001297 0.005125 -0.000331 0.000000 0.000000 0.000000
# 3 0.001250 -0.000331 0.010019 0.000000 0.000000 0.000000
# 4 0.000000 0.000000 0.000000 0.028912 0.000000 0.000000
# 5 0.000000 0.000000 0.000000 0.000000 0.031168 0.000000
# 6 0.000000 0.000000 0.000000 0.000000 0.000000 0.023790
#
#
# Mechanical properties :
#
#
# Convention : Reuss Voigt Hill
#
# Bulk Modulus (GPa) = 41.65473 49.74350 45.69912
# Shear Modulus (GPa) = 42.59161 48.10322 45.34742
#
# Velocity S-wave (km/s) = 4.23219 4.49770 4.36696
# Velocity P-wave (km/s) = 6.43423 6.92036 6.68172
#
# Compressibility (1/GPa) = 0.02400688
#
# Stress axis : x y z
#
# Youngs Moduli (GPa) = 103.94443 195.11347 99.81488
#
# Poissons Ratio (x) = 0.25313 -0.12476
# Poissons Ratio (y) = 0.13485 0.03307
# Poissons Ratio (z) = -0.12993 0.06465
#
# Static dielectric constant tensor:
#      x y z
#    x 1.948640 0.000000 0.000000 
#    y 0.000000 1.885250 0.000000 
#    z 0.000000 0.000000 1.915570 
# 
# From -- ./inp_files/5065.got.cif
#   From: 2010.05.17/outbox.cif.g08.bks.cpg/sg36_3_cif.got.tgz:5065.got - 2010.06.03 17:41:39.
