data_PCOD9353243
_publ_section_title
;
Structure prediction by ZEFSAII (Michael W. Deem and Ramdas Pophale) SiO2 
 PCOD9353243
Probable space group: C M C 21
;
_chemical_formula_sum "Si O2"
_cell_formula_units_Z 56
_cell_length_a 16.555153
_cell_length_b 13.885817
_cell_length_c 9.535285
_cell_angle_alpha 90.000000
_cell_angle_beta 90.000000
_cell_angle_gamma 90.000000
_cell_volume 2191.988717
_symmetry_space_group_name_H-M "C M C 21"
_symmetry_group_IT_number 36
_symmetry_cell_setting 'orthorhombic'
loop_
_space_group_symop_operation_xyz
x,y,z
-x,-y,1/2+z
x,-y,1/2+z
-x,y,z
1/2+x,1/2+y,z
1/2-x,1/2-y,1/2+z
1/2+x,1/2-y,1/2+z
1/2-x,1/2+y,z
loop_
_atom_site_type_symbol
_atom_site_label
_atom_site_fract_x
_atom_site_fract_y
_atom_site_fract_z
Si Si1 0.350961 0.885512 0.491370
Si Si2 0.907371 0.495008 0.232474
Si Si3 0.912909 0.200831 0.619257
Si Si4 0.912909 0.299169 0.060622
Si Si5 0.149039 0.114488 0.188508
Si Si6 0.722020 0.250000 0.339939
Si Si7 0.407371 0.495008 0.947404
O O1 0.382525 0.969883 0.390106
O O2 0.409721 0.795991 0.523345
O O3 0.162488 0.706070 0.456362
O O4 0.278201 0.829800 0.414276
O O5 0.905655 0.391394 0.158280
O O6 0.848347 0.563086 0.143624
O O7 0.000000 0.531497 0.226190
O O8 0.837512 0.206070 0.723516
O O9 0.000000 0.195926 0.692331
O O10 0.905655 0.108606 0.521598
O O11 0.909721 0.204009 0.156533
O O12 0.000000 0.304073 0.987547
O O13 0.221799 0.170200 0.265602
O O14 0.151653 0.063086 0.036254
O O15 0.117475 0.030117 0.289772
O O16 0.500000 0.531497 0.953688
#
# Coordination Sequence:
#
# PCOD9353243 Si02
#       7
#     8   8   8   8   8   8   8
#     4  12  26  50  81 113 162 202 265 330 396 464
#     4  11  25  47  78 116 152 208 267 318 391 475
#     4  11  25  50  78 108 159 212 261 324 389 474
#     4  11  25  50  78 108 159 212 261 324 389 474
#     4  12  26  50  81 113 162 202 265 330 396 464
#     4  12  27  50  73 118 158 204 256 330 407 464
#     4  11  25  47  78 116 152 208 267 318 391 475
#
# _framework density 25.547578000000001
#
# number of rings (size 3 to 8) (size 9 to 14) (size 15 to 20)
#    0.000    0.571    2.857    3.857    4.000    3.429 
#    5.143    0.000    0.000    0.000    0.000    0.000 
#    0.000    0.000    0.000    0.000    0.000    0.000 
#
# Total GULP energy -156856.026626 kJ/mol
# GULP energy per Si atom -5602.000951 kJ/mol
# Density = 2.548943 g / cm^3
# Si number density = 25.547578 Si / 1000 Ang^3
#
#
#
# Elastic Constant Matrix: (Units=GPa)
#
#
# Indices 1 2 3 4 5 6 
#
# 1 127.0708 42.6010 46.9184 0.0000 0.0000 0.0000
# 2 42.6010 117.3982 52.9131 0.0000 0.0000 0.0000
# 3 46.9184 52.9131 97.6971 0.0000 0.0000 0.0000
# 4 0.0000 0.0000 0.0000 65.7015 0.0000 0.0000
# 5 0.0000 0.0000 0.0000 0.0000 59.3913 0.0000
# 6 0.0000 0.0000 0.0000 0.0000 0.0000 30.4564
#
#
#
# Elastic Compliance Matrix: (Units=1/GPa)
#
#
# Indices 1 2 3 4 5 6 
#
# 1 0.009881 -0.001914 -0.003708 0.000000 0.000000 0.000000
# 2 -0.001914 0.011640 -0.005385 0.000000 0.000000 0.000000
# 3 -0.003708 -0.005385 0.014933 0.000000 0.000000 0.000000
# 4 0.000000 0.000000 0.000000 0.015220 0.000000 0.000000
# 5 0.000000 0.000000 0.000000 0.000000 0.016837 0.000000
# 6 0.000000 0.000000 0.000000 0.000000 0.000000 0.032834
#
#
# Mechanical properties :
#
#
# Convention : Reuss Voigt Hill
#
# Bulk Modulus (GPa) = 69.25831 69.67012 69.46422
# Shear Modulus (GPa) = 39.00993 44.42542 41.71768
#
# Velocity S-wave (km/s) = 3.91186 4.17457 4.04535
# Velocity P-wave (km/s) = 6.89724 7.11098 7.00492
#
# Compressibility (1/GPa) = 0.01443870
#
# Stress axis : x y z
#
# Youngs Moduli (GPa) = 101.20871 85.91362 66.96506
#
# Poissons Ratio (x) = 0.16444 0.24834
# Poissons Ratio (y) = 0.19371 0.36060
# Poissons Ratio (z) = 0.37533 0.46263
#
# Static dielectric constant tensor:
#      x y z
#    x 2.014010 0.000000 0.000000 
#    y 0.000000 1.956150 0.000000 
#    z 0.000000 0.000000 2.029510 
# 
# From -- ./inp_files/8487.got.cif
#   From: 2010.05.17/outbox.cif.g08.bks.cpg/sg36_5_cif.got.tgz:8487.got - 2010.06.03 17:41:39.
