data_PCOD9353462
_publ_section_title
;
Structure prediction by ZEFSAII (Michael W. Deem and Ramdas Pophale) SiO2 
 PCOD9353462
Probable space group: C C C 2
;
_chemical_formula_sum "Si O2"
_cell_formula_units_Z 56
_cell_length_a 18.112692
_cell_length_b 25.454347
_cell_length_c 5.577277
_cell_angle_alpha 90.000000
_cell_angle_beta 90.000000
_cell_angle_gamma 90.000000
_cell_volume 2571.385419
_symmetry_space_group_name_H-M "C C C 2"
_symmetry_group_IT_number 37
_symmetry_cell_setting 'orthorhombic'
loop_
_space_group_symop_operation_xyz
x,y,z
-x,-y,z
-x,y,1/2+z
x,-y,1/2+z
1/2+x,1/2+y,z
1/2-x,1/2-y,z
1/2-x,1/2+y,1/2+z
1/2+x,1/2-y,1/2+z
loop_
_atom_site_type_symbol
_atom_site_label
_atom_site_fract_x
_atom_site_fract_y
_atom_site_fract_z
Si Si1 0.473661 0.425951 0.782420
Si Si2 0.172641 0.224259 0.594986
Si Si3 0.300283 0.033091 0.947561
Si Si4 0.934126 0.173919 0.715485
Si Si5 0.973833 0.722511 0.663786
Si Si6 0.970611 0.439515 0.419210
Si Si7 0.672765 0.384439 0.360671
O O1 0.515329 0.448676 0.549921
O O2 0.509238 0.367851 0.828166
O O3 0.387674 0.419204 0.715698
O O4 0.250000 0.250000 0.534445
O O5 0.124201 0.205257 0.374731
O O6 0.112724 0.264212 0.714955
O O7 0.191223 0.170387 0.733641
O O8 0.382687 0.056876 0.942051
O O9 0.240408 0.079469 0.932558
O O10 0.292460 0.998450 0.701104
O O11 0.878012 0.136273 0.574719
O O12 0.984418 0.221227 0.615685
O O13 0.989157 0.697412 0.401210
O O14 0.000000 0.500000 0.409756
O O15 0.005470 0.416355 0.662441
#
# Coordination Sequence:
#
# PCOD9353462 Si02
#       7
#     8   8   8   8   8   8   8
#     4  10  17  32  60  84 103 157 219 239 266 352
#     4  11  21  35  58  94 123 153 202 262 304 350
#     4  12  25  39  62  97 124 157 196 259 313 359
#     4  10  18  36  59  86 108 168 213 248 269 376
#     4  10  17  34  58  83 105 153 216 242 269 351
#     4  10  16  35  63  86 106 147 209 243 270 358
#     4  11  22  37  60  88 128 154 200 257 309 357
#
# _framework density 21.778144000000001
#
# number of rings (size 3 to 8) (size 9 to 14) (size 15 to 20)
#    0.000    1.429    7.143    1.714    2.000    0.571 
#    0.000    0.000    0.000   13.714    0.000    0.000 
#    0.000    0.000    0.000    0.000    0.000    0.000 
#
# Total GULP energy -155925.411779 kJ/mol
# GULP energy per Si atom -5568.764706 kJ/mol
# Density = 2.172858 g / cm^3
# Si number density = 21.778144 Si / 1000 Ang^3
#
#
#
# Elastic Constant Matrix: (Units=GPa)
#
#
# Indices 1 2 3 4 5 6 
#
# 1 172.6167 33.7377 29.0195 0.0000 0.0000 0.0000
# 2 33.7377 40.8408 21.1873 0.0000 0.0000 0.0000
# 3 29.0195 21.1873 136.4132 0.0000 0.0000 0.0000
# 4 0.0000 0.0000 0.0000 58.6312 0.0000 0.0000
# 5 0.0000 0.0000 0.0000 0.0000 23.5301 0.0000
# 6 0.0000 0.0000 0.0000 0.0000 0.0000 22.2509
#
#
#
# Elastic Compliance Matrix: (Units=1/GPa)
#
#
# Indices 1 2 3 4 5 6 
#
# 1 0.006959 -0.005418 -0.000639 0.000000 0.000000 0.000000
# 2 -0.005418 0.030848 -0.003639 0.000000 0.000000 0.000000
# 3 -0.000639 -0.003639 0.008032 0.000000 0.000000 0.000000
# 4 0.000000 0.000000 0.000000 0.017056 0.000000 0.000000
# 5 0.000000 0.000000 0.000000 0.000000 0.042499 0.000000
# 6 0.000000 0.000000 0.000000 0.000000 0.000000 0.044942
#
#
# Mechanical properties :
#
#
# Convention : Reuss Voigt Hill
#
# Bulk Modulus (GPa) = 37.80888 57.52887 47.66887
# Shear Modulus (GPa) = 28.00443 38.61085 33.30764
#
# Velocity S-wave (km/s) = 3.58983 4.21517 3.91501
# Velocity P-wave (km/s) = 5.88057 7.08262 6.50940
#
# Compressibility (1/GPa) = 0.02644882
#
# Stress axis : x y z
#
# Youngs Moduli (GPa) = 143.68923 32.41664 124.50529
#
# Poissons Ratio (x) = 0.17562 0.07957
# Poissons Ratio (y) = 0.77844 0.45305
# Poissons Ratio (z) = 0.09183 0.11796
#
# Static dielectric constant tensor:
#      x y z
#    x 1.756490 0.000000 0.000000 
#    y 0.000000 1.934410 0.000000 
#    z 0.000000 0.000000 2.036590 
# 
# From -- ./inp_files/626.got.cif
#   From: 2010.05.17/outbox.cif.g08.bks.cpg/sg37_1_cif.got.tgz:626.got - 2010.06.03 17:53:42.
