data_PCOD9353210
_publ_section_title
;
Structure prediction by ZEFSAII (Michael W. Deem and Ramdas Pophale) SiO2 
 PCOD9353210
Probable space group: C M C 21
;
_chemical_formula_sum "Si O2"
_cell_formula_units_Z 40
_cell_length_a 25.108476
_cell_length_b 6.907475
_cell_length_c 9.378117
_cell_angle_alpha 90.000000
_cell_angle_beta 90.000000
_cell_angle_gamma 90.000000
_cell_volume 1626.504697
_symmetry_space_group_name_H-M "C M C 21"
_symmetry_group_IT_number 36
_symmetry_cell_setting 'orthorhombic'
loop_
_space_group_symop_operation_xyz
x,y,z
-x,-y,1/2+z
x,-y,1/2+z
-x,y,z
1/2+x,1/2+y,z
1/2-x,1/2-y,1/2+z
1/2+x,1/2-y,1/2+z
1/2-x,1/2+y,z
loop_
_atom_site_type_symbol
_atom_site_label
_atom_site_fract_x
_atom_site_fract_y
_atom_site_fract_z
Si Si1 0.061694 0.402616 0.688090
Si Si2 0.824645 0.661292 0.250728
Si Si3 0.058633 0.231612 0.999586
Si Si4 0.839885 0.959257 0.494337
Si Si5 0.295362 0.280915 0.764263
O O1 0.120780 0.305226 0.659794
O O2 0.068915 0.621080 0.630053
O O3 0.000000 0.347232 0.640874
O O4 0.060290 0.367266 0.858474
O O5 0.828273 0.761045 0.405755
O O6 0.764989 0.723679 0.207781
O O7 0.819164 0.431404 0.266147
O O8 0.000000 0.153673 0.017252
O O9 0.096746 0.048199 0.981012
O O10 0.826125 0.920509 0.656493
O O11 0.805200 0.120881 0.417073
#
# Coordination Sequence:
#
# PCOD9353210 Si02
#       5
#     8   8   8   8   8
#     4   9  18  36  65  94 124 168 215 267 324 386
#     4  11  24  42  66  97 133 175 218 272 330 394
#     4   9  18  38  64  93 130 170 220 271 326 392
#     4  11  26  44  64 100 134 176 221 274 333 399
#     4  12  26  42  67  98 135 177 220 272 337 395
#
# _framework density 24.592614999999999
#
# number of rings (size 3 to 8) (size 9 to 14) (size 15 to 20)
#    0.000    1.600    4.000    0.000    2.800    1.600 
#    3.600    2.000    0.000    0.000    0.000    0.000 
#    0.000    0.000    0.000    0.000    0.000    0.000 
#
# Total GULP energy -111510.742242 kJ/mol
# GULP energy per Si atom -5575.537112 kJ/mol
# Density = 2.453664 g / cm^3
# Si number density = 24.592615 Si / 1000 Ang^3
#
#
#
# Elastic Constant Matrix: (Units=GPa)
#
#
# Indices 1 2 3 4 5 6 
#
# 1 187.2332 30.8121 14.3655 0.0000 0.0000 0.0000
# 2 30.8121 96.0349 23.5561 0.0000 0.0000 0.0000
# 3 14.3655 23.5561 61.7701 0.0000 0.0000 0.0000
# 4 0.0000 0.0000 0.0000 27.2044 0.0000 0.0000
# 5 0.0000 0.0000 0.0000 0.0000 27.0690 0.0000
# 6 0.0000 0.0000 0.0000 0.0000 0.0000 20.0425
#
#
#
# Elastic Compliance Matrix: (Units=1/GPa)
#
#
# Indices 1 2 3 4 5 6 
#
# 1 0.005665 -0.001649 -0.000689 0.000000 0.000000 0.000000
# 2 -0.001649 0.011967 -0.004180 0.000000 0.000000 0.000000
# 3 -0.000689 -0.004180 0.017943 0.000000 0.000000 0.000000
# 4 0.000000 0.000000 0.000000 0.036759 0.000000 0.000000
# 5 0.000000 0.000000 0.000000 0.000000 0.036943 0.000000
# 6 0.000000 0.000000 0.000000 0.000000 0.000000 0.049894
#
#
# Mechanical properties :
#
#
# Convention : Reuss Voigt Hill
#
# Bulk Modulus (GPa) = 44.36506 53.61172 48.98839
# Shear Modulus (GPa) = 27.82106 33.28348 30.55227
#
# Velocity S-wave (km/s) = 3.36710 3.68284 3.52850
# Velocity P-wave (km/s) = 5.76156 6.31915 6.04679
#
# Compressibility (1/GPa) = 0.02254026
#
# Stress axis : x y z
#
# Youngs Moduli (GPa) = 176.51966 83.56163 55.73079
#
# Poissons Ratio (x) = 0.13776 0.03839
# Poissons Ratio (y) = 0.29102 0.23297
# Poissons Ratio (z) = 0.12158 0.34931
#
# Static dielectric constant tensor:
#      x y z
#    x 2.125760 0.000000 0.000000 
#    y 0.000000 1.958090 0.000000 
#    z 0.000000 0.000000 1.899330 
# 
# From -- ./inp_files/5746.got.cif
#   From: 2010.05.17/outbox.cif.g08.bks.cpg/sg36_3_cif.got.tgz:5746.got - 2010.06.03 17:41:39.
