data_PCOD9353299
_publ_section_title
;
Structure prediction by ZEFSAII (Michael W. Deem and Ramdas Pophale) SiO2 
 PCOD9353299
Probable space group: C M C 21
;
_chemical_formula_sum "Si O2"
_cell_formula_units_Z 32
_cell_length_a 9.000000
_cell_length_b 21.000000
_cell_length_c 21.000000
_cell_angle_alpha 90.000000
_cell_angle_beta 90.000000
_cell_angle_gamma 90.000000
_cell_volume 3969.000000
_symmetry_space_group_name_H-M "C M C 21"
_symmetry_group_IT_number 36
_symmetry_cell_setting 'orthorhombic'
loop_
_space_group_symop_operation_xyz
x,y,z
-x,-y,1/2+z
x,-y,1/2+z
-x,y,z
1/2+x,1/2+y,z
1/2-x,1/2-y,1/2+z
1/2+x,1/2-y,1/2+z
1/2-x,1/2+y,z
loop_
_atom_site_type_symbol
_atom_site_label
_atom_site_fract_x
_atom_site_fract_y
_atom_site_fract_z
Si Si1 0.819721 0.697416 0.772460
Si Si2 0.819930 0.797107 0.941168
Si Si3 0.680381 0.419586 0.031040
Si Si4 0.318160 0.662441 0.910264
Si Si5 0.679151 0.023028 0.284769
Si Si6 0.680081 0.080977 0.675646
Si Si7 0.180941 0.669907 0.303961
Si Si8 0.817920 0.476775 0.429835
O O1 0.744740 0.670611 0.837690
O O2 0.790184 0.647551 0.714493
O O3 0.751588 0.769144 0.766698
O O4 0.000000 0.700711 0.780499
O O5 0.746086 0.726069 0.946397
O O6 0.748772 0.824098 0.875373
O O7 0.000000 0.790575 0.934939
O O8 0.791442 0.850197 0.996577
O O9 0.500000 0.428108 0.033019
O O10 0.745362 0.421842 0.104400
O O11 0.752668 0.473840 0.983502
O O12 0.500000 0.662565 0.910913
O O13 0.252131 0.594773 0.935579
O O14 0.500000 0.019827 0.283925
O O15 0.718194 0.098487 0.278539
O O16 0.726436 0.975806 0.226307
O O17 0.721066 0.000068 0.356942
O O18 0.500000 0.076581 0.667379
O O19 0.000000 0.675966 0.306072
O O20 0.000000 0.474789 0.434612
#
# Coordination Sequence:
#
# PCOD9353299 Si02
#       8
#     8   8   8   8   8   8   8   8
#     4  10  19  34  55  81 112 147 187 229 280 341
#     4  10  20  35  54  79 113 149 186 229 281 339
#     4  11  24  39  56  85 118 150 194 241 289 345
#     4  11  21  33  55  87 116 142 185 238 286 331
#     4   9  18  34  57  84 111 145 192 234 276 339
#     4  10  21  39  59  79 109 155 199 232 282 349
#     4  10  18  31  55  85 112 139 181 234 283 328
#     4  11  20  37  61  84 115 153 192 235 287 344
#
# _framework density 8.0624839999999995
#
# number of rings (size 3 to 8) (size 9 to 14) (size 15 to 20)
#    0.000    1.750    2.500    4.500    0.000    2.500 
#    0.000    2.500    0.000    4.500    0.000    0.000 
#    0.000    0.000    0.000    0.000    0.000    0.000 
#
# Total GULP energy -178325.653078 kJ/mol
# GULP energy per Si atom -5572.676659 kJ/mol
# Density = 0.804413 g / cm^3
# Si number density = 8.062484 Si / 1000 Ang^3
#
#
#
# Elastic Constant Matrix: (Units=GPa)
#
#
# Indices 1 2 3 4 5 6 
#
# 1 111.7239 54.3366 42.9025 0.0000 0.0000 0.0000
# 2 54.3366 177.5355 74.4085 0.0000 0.0000 0.0000
# 3 42.9025 74.4085 127.7157 0.0000 0.0000 0.0000
# 4 0.0000 0.0000 0.0000 35.3221 0.0000 0.0000
# 5 0.0000 0.0000 0.0000 0.0000 32.6770 0.0000
# 6 0.0000 0.0000 0.0000 0.0000 0.0000 34.9156
#
#
#
# Elastic Compliance Matrix: (Units=1/GPa)
#
#
# Indices 1 2 3 4 5 6 
#
# 1 0.011002 -0.002406 -0.002294 0.000000 0.000000 0.000000
# 2 -0.002406 0.007978 -0.003840 0.000000 0.000000 0.000000
# 3 -0.002294 -0.003840 0.010838 0.000000 0.000000 0.000000
# 4 0.000000 0.000000 0.000000 0.028311 0.000000 0.000000
# 5 0.000000 0.000000 0.000000 0.000000 0.030603 0.000000
# 6 0.000000 0.000000 0.000000 0.000000 0.000000 0.028641
#
#
# Mechanical properties :
#
#
# Convention : Reuss Voigt Hill
#
# Bulk Modulus (GPa) = 78.50554 84.47447 81.49001
# Shear Modulus (GPa) = 36.04958 36.93809 36.49383
#
# Velocity S-wave (km/s) = 4.73338 4.79136 4.76246
# Velocity P-wave (km/s) = 8.86931 9.11650 8.99375
#
# Compressibility (1/GPa) = 0.01273795
#
# Stress axis : x y z
#
# Youngs Moduli (GPa) = 90.89612 125.33753 92.26892
#
# Poissons Ratio (x) = 0.30152 0.21168
# Poissons Ratio (y) = 0.21866 0.35433
# Poissons Ratio (z) = 0.20853 0.48132
#
# Static dielectric constant tensor:
#      x y z
#    x 1.547930 0.000000 0.000000 
#    y 0.000000 1.577160 0.000000 
#    z 0.000000 0.000000 1.531540 
# 
# From -- ./inp_files/15804.got.cif
#   From: 2010.05.17/outbox.ucp.g08.bks.cvg/sg36_8_cif.got.tgz:15804.got - 2010.06.11 10:37:26.
