data_PCOD9353264
_publ_section_title
;
Structure prediction by ZEFSAII (Michael W. Deem and Ramdas Pophale) SiO2 
 PCOD9353264
Probable space group: C M C 21
;
_chemical_formula_sum "Si O2"
_cell_formula_units_Z 64
_cell_length_a 20.204094
_cell_length_b 8.999579
_cell_length_c 18.242686
_cell_angle_alpha 90.000000
_cell_angle_beta 90.000000
_cell_angle_gamma 90.000000
_cell_volume 3317.037314
_symmetry_space_group_name_H-M "C M C 21"
_symmetry_group_IT_number 36
_symmetry_cell_setting 'orthorhombic'
loop_
_space_group_symop_operation_xyz
x,y,z
-x,-y,1/2+z
x,-y,1/2+z
-x,y,z
1/2+x,1/2+y,z
1/2-x,1/2-y,1/2+z
1/2+x,1/2-y,1/2+z
1/2-x,1/2+y,z
loop_
_atom_site_type_symbol
_atom_site_label
_atom_site_fract_x
_atom_site_fract_y
_atom_site_fract_z
Si Si1 0.697872 0.440043 0.132760
Si Si2 0.075933 0.271549 0.604043
Si Si3 0.075779 0.592472 0.940341
Si Si4 0.699132 0.741020 0.220669
Si Si5 0.697872 0.440046 0.475400
Si Si6 0.575779 0.092474 0.667819
Si Si7 0.575933 0.771547 0.004117
Si Si8 0.300868 0.258977 0.887490
O O1 0.629351 0.354145 0.118864
O O2 0.688816 0.578935 0.186472
O O3 0.749495 0.327821 0.169159
O O4 0.722653 0.499999 0.054080
O O5 0.080798 0.328646 0.520219
O O6 0.088405 0.417809 0.653516
O O7 0.000000 0.222856 0.616073
O O8 0.088405 0.417807 0.954644
O O9 0.130810 0.667792 0.891069
O O10 0.000000 0.609508 0.914935
O O11 0.630810 0.832205 0.217090
O O12 0.723215 0.731762 0.304080
O O13 0.629351 0.354147 0.489296
O O14 0.688816 0.578938 0.421689
O O15 0.749495 0.327823 0.439001
O O16 0.500000 0.109510 0.693225
O O17 0.580798 0.171356 0.587941
O O18 0.500000 0.722853 0.992086
#
# Coordination Sequence:
#
# PCOD9353264 Si02
#       8
#     8   8   8   8   8   8   8   8
#     4  12  24  40  64  91 122 161 212 255 303 365
#     4   9  19  37  64  96 122 152 201 256 299 354
#     4   9  19  38  64  92 124 159 198 247 305 365
#     4  12  26  41  60  89 127 164 203 257 313 363
#     4  12  24  40  64  91 122 161 212 255 303 365
#     4   9  19  38  64  92 124 159 198 247 305 365
#     4   9  19  37  64  96 122 152 201 256 299 354
#     4  12  26  41  60  89 127 164 203 257 313 363
#
# _framework density 19.294326000000002
#
# number of rings (size 3 to 8) (size 9 to 14) (size 15 to 20)
#    0.000    1.500    2.500    4.500    3.500    2.000 
#    0.000    1.250    0.000    5.250    0.000    0.000 
#    0.000    0.000    0.000    0.000    0.000    0.000 
#
# Total GULP energy -178912.138164 kJ/mol
# GULP energy per Si atom -5591.004318 kJ/mol
# Density = 1.925041 g / cm^3
# Si number density = 19.294326 Si / 1000 Ang^3
#
#
#
# Elastic Constant Matrix: (Units=GPa)
#
#
# Indices 1 2 3 4 5 6 
#
# 1 79.3119 61.4626 40.2451 0.0000 0.0000 0.0000
# 2 61.4626 98.1981 51.2643 0.0000 0.0000 0.0000
# 3 40.2451 51.2643 84.0827 0.0000 0.0000 0.0000
# 4 0.0000 0.0000 0.0000 5.6549 0.0000 0.0000
# 5 0.0000 0.0000 0.0000 0.0000 -3.5352 0.0000
# 6 0.0000 0.0000 0.0000 0.0000 0.0000 27.5635
#
#
#
# Elastic Compliance Matrix: (Units=1/GPa)
#
#
# Indices 1 2 3 4 5 6 
#
# 1 0.025201 -0.013901 -0.003587 0.000000 0.000000 0.000000
# 2 -0.013901 0.022606 -0.007129 0.000000 0.000000 0.000000
# 3 -0.003587 -0.007129 0.017956 0.000000 0.000000 0.000000
# 4 0.000000 0.000000 0.000000 0.176839 0.000000 0.000000
# 5 0.000000 0.000000 0.000000 0.000000 -0.282873 0.000000
# 6 0.000000 0.000000 0.000000 0.000000 0.000000 0.036280
#
#
# Mechanical properties :
#
#
# Convention : Reuss Voigt Hill
#
# Bulk Modulus (GPa) = 60.49780 63.05964 61.77872
# Shear Modulus (GPa) = 98.51709 13.17803 55.84756
#
# Velocity S-wave (km/s) = 7.15339 2.61626 5.38590
# Velocity P-wave (km/s) = 9.98255 6.47151 8.41224
#
# Compressibility (1/GPa) = 0.01652953
#
# Stress axis : x y z
#
# Youngs Moduli (GPa) = 39.68098 44.23642 55.69041
#
# Poissons Ratio (x) = 0.61492 0.19976
# Poissons Ratio (y) = 0.55160 0.39702
# Poissons Ratio (z) = 0.14233 0.31536
#
# Static dielectric constant tensor:
#      x y z
#    x 1.666140 0.000000 0.000000 
#    y 0.000000 1.656910 0.000000 
#    z 0.000000 0.000000 1.664260 
# 
# From -- ./inp_files/15043.got.cif
#   From: 2010.05.17/outbox.cif.g08.bks.cpg/sg36_8_cif.got.tgz:15043.got - 2010.06.03 17:41:39.
