data_PCOD9353324
_publ_section_title
;
Structure prediction by ZEFSAII (Michael W. Deem and Ramdas Pophale) SiO2 
 PCOD9353324
Probable space group: C M C 21
;
_chemical_formula_sum "Si O2"
_cell_formula_units_Z 32
_cell_length_a 30.000000
_cell_length_b 6.000000
_cell_length_c 18.000000
_cell_angle_alpha 90.000000
_cell_angle_beta 90.000000
_cell_angle_gamma 90.000000
_cell_volume 3240.000000
_symmetry_space_group_name_H-M "C M C 21"
_symmetry_group_IT_number 36
_symmetry_cell_setting 'orthorhombic'
loop_
_space_group_symop_operation_xyz
x,y,z
-x,-y,1/2+z
x,-y,1/2+z
-x,y,z
1/2+x,1/2+y,z
1/2-x,1/2-y,1/2+z
1/2+x,1/2-y,1/2+z
1/2-x,1/2+y,z
loop_
_atom_site_type_symbol
_atom_site_label
_atom_site_fract_x
_atom_site_fract_y
_atom_site_fract_z
Si Si1 0.899793 0.331004 0.543020
Si Si2 0.859807 0.240985 0.775597
Si Si3 0.727926 0.545304 0.708611
Si Si4 0.950565 0.985863 0.944555
Si Si5 0.948105 0.949591 0.773230
Si Si6 0.363155 0.789592 0.947109
Si Si7 0.609316 0.874546 0.175497
Si Si8 0.329550 0.543919 0.080483
O O1 0.939920 0.202176 0.504516
O O2 0.873375 0.470865 0.481062
O O3 0.914226 0.486693 0.610260
O O4 0.863577 0.161059 0.575441
O O5 0.820392 0.078913 0.748142
O O6 0.909834 0.139349 0.766952
O O7 0.851033 0.292167 0.861470
O O8 0.861870 0.464337 0.727682
O O9 0.748203 0.291943 0.724576
O O10 0.715426 0.530319 0.620911
O O11 0.000000 0.081984 0.953981
O O12 0.947882 0.889832 0.860878
O O13 0.910551 0.160362 0.953047
O O14 0.000000 0.004936 0.754663
O O15 0.927450 0.756126 0.722733
O O16 0.328525 0.657399 0.999466
O O17 0.644349 0.720188 0.132133
#
# Coordination Sequence:
#
# PCOD9353324 Si02
#       8
#     8   8   8   8   8   8   8   8
#     4  10  19  35  60  86 114 170 216 259 340 399
#     4  11  22  42  65  94 135 175 219 288 336 404
#     4  12  26  44  73 104 132 179 229 279 351 418
#     4   9  19  35  52  84 127 165 216 272 325 397
#     4  10  21  36  59  91 129 174 222 272 333 399
#     4   9  21  37  64  89 121 178 218 269 342 396
#     4  11  19  35  63  88 129 171 219 273 339 397
#     4  10  21  42  62  92 126 168 215 274 336 410
#
# _framework density 9.8765429999999999
#
# number of rings (size 3 to 8) (size 9 to 14) (size 15 to 20)
#    0.000    1.750    2.500    1.500    1.750    1.500 
#    0.000   12.500    0.000    0.000    0.000    0.000 
#    0.000    0.000    0.000    0.000    0.000    0.000 
#
# Total GULP energy -178346.882476 kJ/mol
# GULP energy per Si atom -5573.340077 kJ/mol
# Density = 0.985406 g / cm^3
# Si number density = 9.876543 Si / 1000 Ang^3
#
#
#
# Elastic Constant Matrix: (Units=GPa)
#
#
# Indices 1 2 3 4 5 6 
#
# 1 41.6140 20.7974 18.8368 0.0000 0.0000 0.0000
# 2 20.7974 92.6438 52.5265 0.0000 0.0000 0.0000
# 3 18.8368 52.5265 101.3851 0.0000 0.0000 0.0000
# 4 0.0000 0.0000 0.0000 33.4859 0.0000 0.0000
# 5 0.0000 0.0000 0.0000 0.0000 26.4527 0.0000
# 6 0.0000 0.0000 0.0000 0.0000 0.0000 18.4909
#
#
#
# Elastic Compliance Matrix: (Units=1/GPa)
#
#
# Indices 1 2 3 4 5 6 
#
# 1 0.027585 -0.004654 -0.002714 0.000000 0.000000 0.000000
# 2 -0.004654 0.016068 -0.007460 0.000000 0.000000 0.000000
# 3 -0.002714 -0.007460 0.014233 0.000000 0.000000 0.000000
# 4 0.000000 0.000000 0.000000 0.029863 0.000000 0.000000
# 5 0.000000 0.000000 0.000000 0.000000 0.037803 0.000000
# 6 0.000000 0.000000 0.000000 0.000000 0.000000 0.054081
#
#
# Mechanical properties :
#
#
# Convention : Reuss Voigt Hill
#
# Bulk Modulus (GPa) = 35.42344 46.66269 41.04307
# Shear Modulus (GPa) = 22.86247 25.25139 24.05693
#
# Velocity S-wave (km/s) = 3.40577 3.57928 3.49360
# Velocity P-wave (km/s) = 5.78254 6.38404 6.09072
#
# Compressibility (1/GPa) = 0.02822989
#
# Stress axis : x y z
#
# Youngs Moduli (GPa) = 36.25210 62.23363 70.26056
#
# Poissons Ratio (x) = 0.28961 0.19069
# Poissons Ratio (y) = 0.16870 0.52416
# Poissons Ratio (z) = 0.09839 0.46428
#
# Static dielectric constant tensor:
#      x y z
#    x 1.682370 0.000000 0.000000 
#    y 0.000000 1.751690 0.000000 
#    z 0.000000 0.000000 1.717760 
# 
# From -- ./inp_files/15199.got.cif
#   From: 2010.05.17/outbox.ucp.g08.bks.cvg/sg36_8_cif.got.tgz:15199.got - 2010.06.11 10:37:26.
