data_PCOD9353808
_publ_section_title
;
Structure prediction by ZEFSAII (Michael W. Deem and Ramdas Pophale) SiO2 
 PCOD9353808
Probable space group: C C C 2
;
_chemical_formula_sum "Si O2"
_cell_formula_units_Z 56
_cell_length_a 13.993017
_cell_length_b 11.067807
_cell_length_c 17.408582
_cell_angle_alpha 90.000000
_cell_angle_beta 90.000000
_cell_angle_gamma 90.000000
_cell_volume 2696.102112
_symmetry_space_group_name_H-M "C C C 2"
_symmetry_group_IT_number 37
_symmetry_cell_setting 'orthorhombic'
loop_
_space_group_symop_operation_xyz
x,y,z
-x,-y,z
-x,y,1/2+z
x,-y,1/2+z
1/2+x,1/2+y,z
1/2-x,1/2-y,z
1/2-x,1/2+y,1/2+z
1/2+x,1/2-y,1/2+z
loop_
_atom_site_type_symbol
_atom_site_label
_atom_site_fract_x
_atom_site_fract_y
_atom_site_fract_z
Si Si1 0.840282 0.666649 0.717080
Si Si2 0.858232 0.285531 0.518644
Si Si3 0.099195 0.437147 0.162245
Si Si4 0.977318 0.136097 0.262495
Si Si5 0.854810 0.296367 0.813652
Si Si6 0.102793 0.935104 0.415372
Si Si7 0.318964 0.968518 0.383213
O O1 0.750000 0.750000 0.706545
O O2 0.838044 0.558432 0.655082
O O3 0.932527 0.756248 0.711705
O O4 0.831373 0.601273 0.801132
O O5 0.750000 0.250000 0.542731
O O6 0.908522 0.353874 0.588227
O O7 0.898275 0.162306 0.483445
O O8 0.855543 0.378830 0.448101
O O9 0.143184 0.358150 0.229994
O O10 0.000000 0.500000 0.187296
O O11 0.900971 0.123546 0.330610
O O12 0.070823 0.188449 0.304780
O O13 0.000000 0.000000 0.231860
O O14 0.750000 0.250000 0.830349
O O15 0.875129 0.405457 0.872488
O O16 0.208421 0.994907 0.409474
O O17 0.000000 0.000000 0.420929
#
# Coordination Sequence:
#
# PCOD9353808 Si02
#       7
#     8   8   8   8   8   8   8
#     4  11  20  40  63  91 121 161 198 259 310 366
#     4  10  21  41  61  85 123 169 202 247 309 369
#     4  11  24  40  59  86 125 162 212 247 299 371
#     4  11  21  35  61  95 122 150 201 263 308 359
#     4  11  23  38  59  92 122 157 202 261 303 364
#     4  10  19  36  63  95 122 156 203 256 307 370
#     4  10  20  38  65  89 122 157 199 254 314 360
#
# _framework density 20.770727000000001
#
# number of rings (size 3 to 8) (size 9 to 14) (size 15 to 20)
#    0.000    1.429    4.286    2.571    2.000    1.143 
#    0.000    4.286    0.000    0.000    0.000    0.000 
#    0.000    0.000    0.000    0.000    0.000    0.000 
#
# Total GULP energy -155989.897439 kJ/mol
# GULP energy per Si atom -5571.067766 kJ/mol
# Density = 2.072345 g / cm^3
# Si number density = 20.770727 Si / 1000 Ang^3
#
#
#
# Elastic Constant Matrix: (Units=GPa)
#
#
# Indices 1 2 3 4 5 6 
#
# 1 47.6794 32.2776 -7.0354 0.0000 0.0000 0.0000
# 2 32.2776 119.4522 21.2715 0.0000 0.0000 0.0000
# 3 -7.0354 21.2715 40.5756 0.0000 0.0000 0.0000
# 4 0.0000 0.0000 0.0000 31.3668 0.0000 0.0000
# 5 0.0000 0.0000 0.0000 0.0000 7.3021 0.0000
# 6 0.0000 0.0000 0.0000 0.0000 0.0000 33.8811
#
#
#
# Elastic Compliance Matrix: (Units=1/GPa)
#
#
# Indices 1 2 3 4 5 6 
#
# 1 0.028972 -0.009622 0.010068 0.000000 0.000000 0.000000
# 2 -0.009622 0.012429 -0.008184 0.000000 0.000000 0.000000
# 3 0.010068 -0.008184 0.030681 0.000000 0.000000 0.000000
# 4 0.000000 0.000000 0.000000 0.031881 0.000000 0.000000
# 5 0.000000 0.000000 0.000000 0.000000 0.136947 0.000000
# 6 0.000000 0.000000 0.000000 0.000000 0.000000 0.029515
#
#
# Mechanical properties :
#
#
# Convention : Reuss Voigt Hill
#
# Bulk Modulus (GPa) = 17.66574 33.41493 25.54033
# Shear Modulus (GPa) = 16.40581 25.25623 20.83102
#
# Velocity S-wave (km/s) = 2.81348 3.49084 3.17030
# Velocity P-wave (km/s) = 4.36781 5.68949 5.07189
#
# Compressibility (1/GPa) = 0.05660675
#
# Stress axis : x y z
#
# Youngs Moduli (GPa) = 34.51552 80.45840 32.59306
#
# Poissons Ratio (x) = 0.77413 -0.32813
# Poissons Ratio (y) = 0.33209 0.26674
# Poissons Ratio (z) = -0.34749 0.65847
#
# Static dielectric constant tensor:
#      x y z
#    x 1.806760 0.000000 0.000000 
#    y 0.000000 1.808580 0.000000 
#    z 0.000000 0.000000 1.730440 
# 
# From -- ./inp_files/12146.got.cif
#   From: 2010.05.17/outbox.cif.g08.bks.cpg/sg37_7_cif.got.tgz:12146.got - 2010.06.03 17:53:42.
