data_PCOD9353977
_publ_section_title
;
Structure prediction by ZEFSAII (Michael W. Deem and Ramdas Pophale) SiO2 
 PCOD9353977
Probable space group: C C C 2
;
_chemical_formula_sum "Si O2"
_cell_formula_units_Z 44
_cell_length_a 11.999988
_cell_length_b 14.641413
_cell_length_c 11.506909
_cell_angle_alpha 90.000000
_cell_angle_beta 90.000000
_cell_angle_gamma 90.000000
_cell_volume 2021.726863
_symmetry_space_group_name_H-M "C C C 2"
_symmetry_group_IT_number 37
_symmetry_cell_setting 'orthorhombic'
loop_
_space_group_symop_operation_xyz
x,y,z
-x,-y,z
-x,y,1/2+z
x,-y,1/2+z
1/2+x,1/2+y,z
1/2-x,1/2-y,z
1/2-x,1/2+y,1/2+z
1/2+x,1/2-y,1/2+z
loop_
_atom_site_type_symbol
_atom_site_label
_atom_site_fract_x
_atom_site_fract_y
_atom_site_fract_z
Si Si1 0.413072 0.419650 0.474710
Si Si2 0.682123 0.872710 0.817882
Si Si3 0.209073 0.653009 0.064293
Si Si4 0.250000 0.750000 0.670987
Si Si5 0.300902 0.918439 0.832966
Si Si6 0.391943 0.289358 0.952394
O O1 0.500000 0.500000 0.492867
O O2 0.323002 0.406756 0.577565
O O3 0.330459 0.431057 0.365915
O O4 0.487176 0.331234 0.454483
O O5 0.659490 0.833425 0.689768
O O6 0.609263 0.814248 0.907233
O O7 0.806245 0.846401 0.868178
O O8 0.660628 0.979998 0.803300
O O9 0.250000 0.750000 0.017547
O O10 0.145538 0.606797 0.958254
O O11 0.303179 0.832906 0.745808
O O12 0.340455 0.708195 0.581537
#
# Coordination Sequence:
#
# PCOD9353977 Si02
#       6
#     8   8   8   4   8   8
#     4  10  21  37  59  96 121 139 202 258 294 340
#     4  10  20  35  59  79 126 157 194 227 308 364
#     4  10  20  38  56  84 118 159 191 236 295 358
#     4  10  22  36  58  80 130 158 194 240 306 368
#     4  10  21  36  59  88 113 158 199 240 291 352
#     4  10  21  38  51  94 119 160 184 254 307 350
#
# _framework density 21.763573000000001
#
# number of rings (size 3 to 8) (size 9 to 14) (size 15 to 20)
#    1.091    1.091    4.545    0.000    7.636    1.455 
#    0.000    0.000    0.000    4.364    0.000    0.000 
#    0.000    0.000    0.000    0.000    0.000    0.000 
#
# Total GULP energy -122477.378877 kJ/mol
# GULP energy per Si atom -5567.153585 kJ/mol
# Density = 2.171404 g / cm^3
# Si number density = 21.763573 Si / 1000 Ang^3
#
#
#
# Elastic Constant Matrix: (Units=GPa)
#
#
# Indices 1 2 3 4 5 6 
#
# 1 37.5230 -8.8514 -7.3599 0.0000 0.0000 0.0000
# 2 -8.8514 102.1173 22.5952 0.0000 0.0000 0.0000
# 3 -7.3599 22.5952 90.6289 0.0000 0.0000 0.0000
# 4 0.0000 0.0000 0.0000 24.0835 0.0000 0.0000
# 5 0.0000 0.0000 0.0000 0.0000 -1.9486 0.0000
# 6 0.0000 0.0000 0.0000 0.0000 0.0000 28.3909
#
#
#
# Elastic Compliance Matrix: (Units=1/GPa)
#
#
# Indices 1 2 3 4 5 6 
#
# 1 0.027461 0.001997 0.001732 0.000000 0.000000 0.000000
# 2 0.001997 0.010510 -0.002458 0.000000 0.000000 0.000000
# 3 0.001732 -0.002458 0.011788 0.000000 0.000000 0.000000
# 4 0.000000 0.000000 0.000000 0.041522 0.000000 0.000000
# 5 0.000000 0.000000 0.000000 0.000000 -0.513179 0.000000
# 6 0.000000 0.000000 0.000000 0.000000 0.000000 0.035223
#
#
# Mechanical properties :
#
#
# Convention : Reuss Voigt Hill
#
# Bulk Modulus (GPa) = 19.12022 27.00412 23.06217
# Shear Modulus (GPa) = -13.44866 25.03083 5.79108
#
# Velocity S-wave (km/s) = -2.48854 3.39503 1.63300
# Velocity P-wave (km/s) = 0.73984 5.27287 3.76501
#
# Compressibility (1/GPa) = 0.05230065
#
# Stress axis : x y z
#
# Youngs Moduli (GPa) = 36.41510 95.15066 84.83559
#
# Poissons Ratio (x) = -0.19002 -0.14695
# Poissons Ratio (y) = -0.07272 0.20853
# Poissons Ratio (z) = -0.06308 0.23388
#
# Static dielectric constant tensor:
#      x y z
#    x 1.833900 0.000000 0.000000 
#    y 0.000000 1.844170 0.000000 
#    z 0.000000 0.000000 1.758300 
# 
# From -- ./inp_files/7754.got.cif
#   From: 2010.05.17/outbox.cif.g08.bks.cpg/sg37_4_cif.got.tgz:7754.got - 2010.06.03 17:53:42.
