data_PCOD9353316
_publ_section_title
;
Structure prediction by ZEFSAII (Michael W. Deem and Ramdas Pophale) SiO2 
 PCOD9353316
Probable space group: C M C 21
;
_chemical_formula_sum "Si O2"
_cell_formula_units_Z 32
_cell_length_a 9.000000
_cell_length_b 15.000000
_cell_length_c 24.000000
_cell_angle_alpha 90.000000
_cell_angle_beta 90.000000
_cell_angle_gamma 90.000000
_cell_volume 3240.000000
_symmetry_space_group_name_H-M "C M C 21"
_symmetry_group_IT_number 36
_symmetry_cell_setting 'orthorhombic'
loop_
_space_group_symop_operation_xyz
x,y,z
-x,-y,1/2+z
x,-y,1/2+z
-x,y,z
1/2+x,1/2+y,z
1/2-x,1/2-y,1/2+z
1/2+x,1/2-y,1/2+z
1/2-x,1/2+y,z
loop_
_atom_site_type_symbol
_atom_site_label
_atom_site_fract_x
_atom_site_fract_y
_atom_site_fract_z
Si Si1 0.825236 0.900134 0.720810
Si Si2 0.326913 0.443633 0.294544
Si Si3 0.822087 0.871476 0.600176
Si Si4 0.323035 0.776460 0.016411
Si Si5 0.670504 0.698233 0.405890
Si Si6 0.325195 0.986413 0.027132
Si Si7 0.675622 0.990886 0.900795
Si Si8 0.835684 0.281236 0.287274
O O1 0.757601 0.879039 0.661544
O O2 0.823038 0.812467 0.757428
O O3 0.000000 0.923332 0.711652
O O4 0.758888 0.981091 0.755046
O O5 0.500000 0.459812 0.301757
O O6 0.252900 0.450928 0.354473
O O7 0.290593 0.348419 0.269476
O O8 0.768995 0.786713 0.565443
O O9 0.000000 0.861755 0.603385
O O10 0.778024 0.960016 0.568048
O O11 0.500000 0.764315 0.007509
O O12 0.300426 0.880545 0.029310
O O13 0.237035 0.755701 0.959951
O O14 0.500000 0.671151 0.415695
O O15 0.765404 0.609845 0.394303
O O16 0.674405 0.759911 0.352343
O O17 0.500000 0.002785 0.038219
O O18 0.291705 0.016890 0.964170
O O19 0.500000 0.992621 0.893459
O O20 0.000000 0.319117 0.275356
#
# Coordination Sequence:
#
# PCOD9353316 Si02
#       8
#     8   8   8   8   8   8   8   8
#     4   9  20  41  60  79 115 153 189 238 288 338
#     4  11  22  37  58  86 116 151 193 240 289 340
#     4  10  21  38  62  84 108 151 199 234 277 340
#     4   9  20  37  55  82 115 151 188 229 282 341
#     4  10  19  34  58  85 116 152 187 232 289 341
#     4   9  20  37  55  81 117 148 181 233 287 334
#     4  10  20  36  58  84 119 155 188 233 290 346
#     4  10  21  38  58  83 114 153 191 231 290 346
#
# _framework density 9.8765429999999999
#
# number of rings (size 3 to 8) (size 9 to 14) (size 15 to 20)
#    0.000    2.250    1.250    1.875    1.750    5.000 
#    0.000    3.125    0.000    0.000    0.000    0.000 
#    0.000    0.000    0.000    0.000    0.000    0.000 
#
# Total GULP energy -178375.925518 kJ/mol
# GULP energy per Si atom -5574.247672 kJ/mol
# Density = 0.985406 g / cm^3
# Si number density = 9.876543 Si / 1000 Ang^3
#
#
#
# Elastic Constant Matrix: (Units=GPa)
#
#
# Indices 1 2 3 4 5 6 
#
# 1 -1.6248 6.4829 52.5224 0.0000 0.0000 0.0000
# 2 6.4829 8.4052 21.6753 0.0000 0.0000 0.0000
# 3 52.5224 21.6753 65.6245 0.0000 0.0000 0.0000
# 4 0.0000 0.0000 0.0000 -11.4658 0.0000 0.0000
# 5 0.0000 0.0000 0.0000 0.0000 -8.4209 0.0000
# 6 0.0000 0.0000 0.0000 0.0000 0.0000 11.9019
#
#
#
# Elastic Compliance Matrix: (Units=1/GPa)
#
#
# Indices 1 2 3 4 5 6 
#
# 1 -0.007225 -0.063004 0.026593 0.000000 0.000000 0.000000
# 2 -0.063004 0.253182 -0.033199 0.000000 0.000000 0.000000
# 3 0.026593 -0.033199 0.004920 0.000000 0.000000 0.000000
# 4 0.000000 0.000000 0.000000 -0.087216 0.000000 0.000000
# 5 0.000000 0.000000 0.000000 0.000000 -0.118752 0.000000
# 6 0.000000 0.000000 0.000000 0.000000 0.000000 0.084020
#
#
# Mechanical properties :
#
#
# Convention : Reuss Voigt Hill
#
# Bulk Modulus (GPa) = 8.95607 25.97400 17.46504
# Shear Modulus (GPa) = 16.37360 -2.14867 7.11247
#
# Velocity S-wave (km/s) = 2.88221 -1.04409 1.89961
# Velocity P-wave (km/s) = 3.95222 3.42409 3.69759
#
# Compressibility (1/GPa) = 0.11165616
#
# Stress axis : x y z
#
# Youngs Moduli (GPa) = -138.39963 3.94972 203.23225
#
# Poissons Ratio (x) = 0.24885 -5.40446
# Poissons Ratio (y) = -8.71969 6.74721
# Poissons Ratio (z) = 3.68040 0.13113
#
# Static dielectric constant tensor:
#      x y z
#    x 1.722810 0.000000 0.000000 
#    y 0.000000 1.793980 0.000000 
#    z 0.000000 0.000000 1.722260 
# 
# From -- ./inp_files/16553.got.cif
#   From: 2010.05.17/outbox.ucp.g08.bks.cvg/sg36_9_cif.got.tgz:16553.got - 2010.06.11 10:37:26.
