data_PCOD9353743
_publ_section_title
;
Structure prediction by ZEFSAII (Michael W. Deem and Ramdas Pophale) SiO2 
 PCOD9353743
Probable space group: C C C 2
;
_chemical_formula_sum "Si O2"
_cell_formula_units_Z 44
_cell_length_a 21.513743
_cell_length_b 8.728346
_cell_length_c 10.086058
_cell_angle_alpha 90.000000
_cell_angle_beta 90.000000
_cell_angle_gamma 90.000000
_cell_volume 1893.953846
_symmetry_space_group_name_H-M "C C C 2"
_symmetry_group_IT_number 37
_symmetry_cell_setting 'orthorhombic'
loop_
_space_group_symop_operation_xyz
x,y,z
-x,-y,z
-x,y,1/2+z
x,-y,1/2+z
1/2+x,1/2+y,z
1/2-x,1/2-y,z
1/2-x,1/2+y,1/2+z
1/2+x,1/2-y,1/2+z
loop_
_atom_site_type_symbol
_atom_site_label
_atom_site_fract_x
_atom_site_fract_y
_atom_site_fract_z
Si Si1 0.148015 0.234867 0.452360
Si Si2 0.264360 0.538118 0.520277
Si Si3 0.250000 0.250000 0.259641
Si Si4 0.646145 0.784854 0.951923
Si Si5 0.926742 0.850973 0.200659
Si Si6 0.569890 0.281595 0.193782
O O1 0.193731 0.313824 0.346082
O O2 0.099118 0.161642 0.349794
O O3 0.106322 0.297208 0.571656
O O4 0.199667 0.120857 0.516330
O O5 0.271543 0.612847 0.665672
O O6 0.305758 0.645348 0.424776
O O7 0.192494 0.574884 0.486141
O O8 0.599991 0.785691 0.827912
O O9 0.609805 0.737477 0.084953
O O10 0.995475 0.777378 0.197960
O O11 0.921937 0.033553 0.172762
#
# Coordination Sequence:
#
# PCOD9353743 Si02
#       6
#     8   8   4   8   8   8
#     4  12  20  37  58  86 114 157 195 235 304 352
#     4  10  20  35  57  73 120 160 187 241 295 351
#     4  10  22  38  56  84 124 156 200 256 292 354
#     4  10  19  35  49  77 114 155 186 232 293 345
#     4  11  19  34  53  80 124 157 182 242 305 366
#     4  11  21  30  53  87 116 150 200 237 293 377
#
# _framework density 23.231819999999999
#
# number of rings (size 3 to 8) (size 9 to 14) (size 15 to 20)
#    0.000    1.455    7.273    1.091    0.000    4.364 
#    0.000    0.000    0.000    0.000    0.000    7.636 
#    0.000    0.000    0.000    0.000    0.000    0.000 
#
# Total GULP energy -122616.697611 kJ/mol
# GULP energy per Si atom -5573.486255 kJ/mol
# Density = 2.317894 g / cm^3
# Si number density = 23.231820 Si / 1000 Ang^3
#
#
#
# Elastic Constant Matrix: (Units=GPa)
#
#
# Indices 1 2 3 4 5 6 
#
# 1 189.0967 22.8336 77.6784 0.0000 0.0000 0.0000
# 2 22.8336 14.5103 28.7954 0.0000 0.0000 0.0000
# 3 77.6784 28.7954 158.9152 0.0000 0.0000 0.0000
# 4 0.0000 0.0000 0.0000 -3.2246 0.0000 0.0000
# 5 0.0000 0.0000 0.0000 0.0000 41.7060 0.0000
# 6 0.0000 0.0000 0.0000 0.0000 0.0000 23.5743
#
#
#
# Elastic Compliance Matrix: (Units=1/GPa)
#
#
# Indices 1 2 3 4 5 6 
#
# 1 0.006999 -0.006597 -0.002226 0.000000 0.000000 0.000000
# 2 -0.006597 0.113830 -0.017401 0.000000 0.000000 0.000000
# 3 -0.002226 -0.017401 0.010534 0.000000 0.000000 0.000000
# 4 0.000000 0.000000 0.000000 -0.310116 0.000000 0.000000
# 5 0.000000 0.000000 0.000000 0.000000 0.023977 0.000000
# 6 0.000000 0.000000 0.000000 0.000000 0.000000 0.042419
#
#
# Mechanical properties :
#
#
# Convention : Reuss Voigt Hill
#
# Bulk Modulus (GPa) = 12.67187 69.01523 40.84355
# Shear Modulus (GPa) = -148.79621 27.95878 -60.41871
#
# Velocity S-wave (km/s) = -8.01171 3.47287 -5.10523
# Velocity P-wave (km/s) = 8.95081 6.77147 4.13909
#
# Compressibility (1/GPa) = 0.07891496
#
# Stress axis : x y z
#
# Youngs Moduli (GPa) = 142.87237 8.78501 94.93213
#
# Poissons Ratio (x) = 0.05795 0.21131
# Poissons Ratio (y) = 0.94251 1.65196
# Poissons Ratio (z) = 0.31802 0.15287
#
# Static dielectric constant tensor:
#      x y z
#    x 1.935960 0.000000 0.000000 
#    y 0.000000 2.002870 0.000000 
#    z 0.000000 0.000000 1.879510 
# 
# From -- ./inp_files/3963.got.cif
#   From: 2010.05.17/outbox.cif.g08.bks.cpg/sg37_2_cif.got.tgz:3963.got - 2010.06.03 17:53:42.
