data_PCOD9353012
_publ_section_title
;
Structure prediction by ZEFSAII (Michael W. Deem and Ramdas Pophale) SiO2 
 PCOD9353012
Probable space group: C M C 21
;
_chemical_formula_sum "Si O2"
_cell_formula_units_Z 64
_cell_length_a 15.665430
_cell_length_b 7.032562
_cell_length_c 25.765758
_cell_angle_alpha 90.000000
_cell_angle_beta 90.000000
_cell_angle_gamma 90.000000
_cell_volume 2838.564803
_symmetry_space_group_name_H-M "C M C 21"
_symmetry_group_IT_number 36
_symmetry_cell_setting 'orthorhombic'
loop_
_space_group_symop_operation_xyz
x,y,z
-x,-y,1/2+z
x,-y,1/2+z
-x,y,z
1/2+x,1/2+y,z
1/2-x,1/2-y,1/2+z
1/2+x,1/2-y,1/2+z
1/2-x,1/2+y,z
loop_
_atom_site_type_symbol
_atom_site_label
_atom_site_fract_x
_atom_site_fract_y
_atom_site_fract_z
Si Si1 0.758930 0.934151 0.911070
Si Si2 0.172978 0.011740 0.219865
Si Si3 0.396708 0.931852 0.036378
Si Si4 0.907661 0.300381 0.152474
Si Si5 0.247522 0.685324 0.990184
Si Si6 0.136731 0.396728 0.733714
Si Si7 0.909457 0.558786 0.347359
Si Si8 0.405696 0.391107 0.828960
O O1 0.764543 0.679958 0.925756
O O2 0.668187 0.899943 0.883880
O O3 0.834347 0.959348 0.869335
O O4 0.776406 0.937817 0.975890
O O5 0.161779 0.149918 0.171331
O O6 0.269082 0.015798 0.240818
O O7 0.117146 0.074730 0.269044
O O8 0.146423 0.801555 0.204763
O O9 0.500000 0.938040 0.022930
O O10 0.391274 0.901312 0.098154
O O11 0.339936 0.755001 0.013127
O O12 0.339458 0.116900 0.019853
O O13 0.910640 0.454779 0.198111
O O14 0.000000 0.202282 0.149331
O O15 0.100439 0.352713 0.790343
O O16 0.908133 0.335073 0.335654
O O17 0.000000 0.607614 0.371719
O O18 0.500000 0.466523 0.840870
#
# Coordination Sequence:
#
# PCOD9353012 Si02
#       8
#     8   8   8   8   8   8   8   8
#     4  11  22  41  63  98 127 172 230 276 342 416
#     4  12  24  40  66 100 138 186 226 281 334 421
#     4  10  25  49  74 102 135 178 234 299 365 425
#     4  11  25  46  70 102 139 177 229 290 351 421
#     4  10  24  43  72  94 134 174 228 301 353 413
#     4  12  24  40  67  99 139 187 232 274 340 418
#     4  11  23  40  63  93 139 186 227 277 343 417
#     4  11  23  39  60  92 137 180 219 272 337 411
#
# _framework density 22.546605
#
# number of rings (size 3 to 8) (size 9 to 14) (size 15 to 20)
#    0.000    1.000    5.000    0.750    3.500    5.000 
#    2.250    1.875    0.000    0.000    0.000    0.000 
#    0.000    0.000    0.000    0.000    0.000    0.000 
#
# Total GULP energy -178331.799608 kJ/mol
# GULP energy per Si atom -5572.868738 kJ/mol
# Density = 2.249529 g / cm^3
# Si number density = 22.546605 Si / 1000 Ang^3
#
#
#
# Elastic Constant Matrix: (Units=GPa)
#
#
# Indices 1 2 3 4 5 6 
#
# 1 168.2353 17.1105 46.4403 0.0000 0.0000 0.0000
# 2 17.1105 110.7158 10.5671 0.0000 0.0000 0.0000
# 3 46.4403 10.5671 77.8218 0.0000 0.0000 0.0000
# 4 0.0000 0.0000 0.0000 23.8153 0.0000 0.0000
# 5 0.0000 0.0000 0.0000 0.0000 61.5356 0.0000
# 6 0.0000 0.0000 0.0000 0.0000 0.0000 -52.3408
#
#
#
# Elastic Compliance Matrix: (Units=1/GPa)
#
#
# Indices 1 2 3 4 5 6 
#
# 1 0.007171 -0.000709 -0.004183 0.000000 0.000000 0.000000
# 2 -0.000709 0.009221 -0.000829 0.000000 0.000000 0.000000
# 3 -0.004183 -0.000829 0.015459 0.000000 0.000000 0.000000
# 4 0.000000 0.000000 0.000000 0.041990 0.000000 0.000000
# 5 0.000000 0.000000 0.000000 0.000000 0.016251 0.000000
# 6 0.000000 0.000000 0.000000 0.000000 0.000000 -0.019106
#
#
# Mechanical properties :
#
#
# Convention : Reuss Voigt Hill
#
# Bulk Modulus (GPa) = 48.99923 56.11209 52.55566
# Shear Modulus (GPa) = 56.03504 25.44569 40.74036
#
# Velocity S-wave (km/s) = 4.99068 3.36308 4.25542
# Velocity P-wave (km/s) = 7.41545 6.32626 6.89240
#
# Compressibility (1/GPa) = 0.02040849
#
# Stress axis : x y z
#
# Youngs Moduli (GPa) = 139.45373 108.45018 64.68885
#
# Poissons Ratio (x) = 0.07689 0.27059
# Poissons Ratio (y) = 0.09887 0.05363
# Poissons Ratio (z) = 0.58333 0.08990
#
# Static dielectric constant tensor:
#      x y z
#    x 1.797150 0.000000 0.000000 
#    y 0.000000 2.494940 0.000000 
#    z 0.000000 0.000000 1.786620 
# 
# From -- ./inp_files/16987.got.cif
#   From: 2010.05.17/outbox.cif.g08.bks.cpg/sg36_9_cif.got.tgz:16987.got - 2010.06.03 17:41:39.
