data_PCOD9353670
_publ_section_title
;
Structure prediction by ZEFSAII (Michael W. Deem and Ramdas Pophale) SiO2 
 PCOD9353670
Probable space group: C C C 2
;
_chemical_formula_sum "Si O2"
_cell_formula_units_Z 48
_cell_length_a 9.356039
_cell_length_b 16.575054
_cell_length_c 12.737275
_cell_angle_alpha 90.000000
_cell_angle_beta 90.000000
_cell_angle_gamma 90.000000
_cell_volume 1975.256506
_symmetry_space_group_name_H-M "C C C 2"
_symmetry_group_IT_number 37
_symmetry_cell_setting 'orthorhombic'
loop_
_space_group_symop_operation_xyz
x,y,z
-x,-y,z
-x,y,1/2+z
x,-y,1/2+z
1/2+x,1/2+y,z
1/2-x,1/2-y,z
1/2-x,1/2+y,1/2+z
1/2+x,1/2-y,1/2+z
loop_
_atom_site_type_symbol
_atom_site_label
_atom_site_fract_x
_atom_site_fract_y
_atom_site_fract_z
Si Si1 0.063971 0.621347 0.425470
Si Si2 0.500000 0.000000 0.108892
Si Si3 0.941373 0.076837 0.662070
Si Si4 0.310763 0.832563 0.772241
Si Si5 0.250000 0.250000 0.642489
Si Si6 0.941386 0.757416 0.065467
Si Si7 0.243388 0.580532 0.249280
O O1 0.026721 0.574242 0.531114
O O2 0.103940 0.710995 0.462141
O O3 0.188693 0.574403 0.366647
O O4 0.931354 0.627912 0.345052
O O5 0.361092 0.974575 0.176892
O O6 0.812675 0.102131 0.742970
O O7 0.908782 0.148976 0.581014
O O8 0.912605 0.925841 0.732090
O O9 0.000000 0.000000 0.594656
O O10 0.250000 0.750000 0.823892
O O11 0.382663 0.792986 0.666736
O O12 0.388425 0.259042 0.572367
O O13 0.219073 0.327526 0.712887
#
# Coordination Sequence:
#
# PCOD9353670 Si02
#       7
#     8   4   8   8   4   8   8
#     4  12  24  42  80 104 140 191 259 298 357 460
#     4  12  26  42  74 110 144 186 246 312 370 440
#     4  10  25  45  75 100 157 201 228 314 396 431
#     4  10  23  46  71 108 150 197 248 308 373 446
#     4  10  18  44  66 100 136 180 232 308 348 422
#     4  10  22  44  72 105 140 195 253 298 363 444
#     4  11  25  46  73 101 146 190 247 302 371 436
#
# _framework density 24.300642
#
# number of rings (size 3 to 8) (size 9 to 14) (size 15 to 20)
#    0.000    1.333    3.333    0.500    8.167    0.000 
#    4.500    1.667    0.000    0.000    0.000    0.000 
#    0.000    0.000    0.000    0.000    0.000    0.000 
#
# Total GULP energy -133822.075248 kJ/mol
# GULP energy per Si atom -5575.919802 kJ/mol
# Density = 2.424533 g / cm^3
# Si number density = 24.300642 Si / 1000 Ang^3
#
#
#
# Elastic Constant Matrix: (Units=GPa)
#
#
# Indices 1 2 3 4 5 6 
#
# 1 134.2520 50.2045 36.7643 0.0000 0.0000 0.0000
# 2 50.2045 115.5987 38.5488 0.0000 0.0000 0.0000
# 3 36.7643 38.5488 87.6569 0.0000 0.0000 0.0000
# 4 0.0000 0.0000 0.0000 72.4391 0.0000 0.0000
# 5 0.0000 0.0000 0.0000 0.0000 -15.6909 0.0000
# 6 0.0000 0.0000 0.0000 0.0000 0.0000 45.4227
#
#
#
# Elastic Compliance Matrix: (Units=1/GPa)
#
#
# Indices 1 2 3 4 5 6 
#
# 1 0.009338 -0.003222 -0.002500 0.000000 0.000000 0.000000
# 2 -0.003222 0.011249 -0.003596 0.000000 0.000000 0.000000
# 3 -0.002500 -0.003596 0.014038 0.000000 0.000000 0.000000
# 4 0.000000 0.000000 0.000000 0.013805 0.000000 0.000000
# 5 0.000000 0.000000 0.000000 0.000000 -0.063731 0.000000
# 6 0.000000 0.000000 0.000000 0.000000 0.000000 0.022015
#
#
# Mechanical properties :
#
#
# Convention : Reuss Voigt Hill
#
# Bulk Modulus (GPa) = 62.53749 65.39365 63.96557
# Shear Modulus (GPa) = 162.98244 34.56685 98.77464
#
# Velocity S-wave (km/s) = 8.19846 3.77565 6.38241
# Velocity P-wave (km/s) = 10.74293 6.78057 8.98294
#
# Compressibility (1/GPa) = 0.01599041
#
# Stress axis : x y z
#
# Youngs Moduli (GPa) = 107.08864 88.89719 71.23676
#
# Poissons Ratio (x) = 0.28643 0.17806
# Poissons Ratio (y) = 0.34504 0.25614
# Poissons Ratio (z) = 0.26767 0.31964
#
# Static dielectric constant tensor:
#      x y z
#    x 1.975380 0.000000 0.000000 
#    y 0.000000 1.130740 0.000000 
#    z 0.000000 0.000000 1.944460 
# 
# From -- ./inp_files/7210.got.cif
#   From: 2010.05.17/outbox.cif.g08.bks.cpg/sg37_4_cif.got.tgz:7210.got - 2010.06.03 17:53:42.
