data_PCOD9353861
_publ_section_title
;
Structure prediction by ZEFSAII (Michael W. Deem and Ramdas Pophale) SiO2 
 PCOD9353861
Probable space group: C C C 2
;
_chemical_formula_sum "Si O2"
_cell_formula_units_Z 48
_cell_length_a 8.708292
_cell_length_b 18.006240
_cell_length_c 15.640114
_cell_angle_alpha 90.000000
_cell_angle_beta 90.000000
_cell_angle_gamma 90.000000
_cell_volume 2452.426113
_symmetry_space_group_name_H-M "C C C 2"
_symmetry_group_IT_number 37
_symmetry_cell_setting 'orthorhombic'
loop_
_space_group_symop_operation_xyz
x,y,z
-x,-y,z
-x,y,1/2+z
x,-y,1/2+z
1/2+x,1/2+y,z
1/2-x,1/2-y,z
1/2-x,1/2+y,1/2+z
1/2+x,1/2-y,1/2+z
loop_
_atom_site_type_symbol
_atom_site_label
_atom_site_fract_x
_atom_site_fract_y
_atom_site_fract_z
Si Si1 0.417001 0.215088 0.439570
Si Si2 0.324815 0.910147 0.835699
Si Si3 0.449890 0.922916 0.176660
Si Si4 0.848697 0.044848 0.272664
Si Si5 0.028985 0.184858 0.284971
Si Si6 0.931119 0.734951 0.113905
O O1 0.250000 0.250000 0.455240
O O2 0.389178 0.127664 0.421431
O O3 0.478431 0.246975 0.349754
O O4 0.519743 0.244568 0.516272
O O5 0.458974 0.919852 0.767011
O O6 0.197974 0.852353 0.796859
O O7 0.236758 0.988732 0.837555
O O8 0.271198 0.932614 0.199139
O O9 0.505998 0.848031 0.132378
O O10 0.500000 0.000000 0.132685
O O11 0.910751 0.120997 0.311259
O O12 0.000000 0.000000 0.240843
O O13 0.001202 0.212243 0.188486
O O14 0.750000 0.750000 0.121713
#
# Coordination Sequence:
#
# PCOD9353861 Si02
#       6
#     8   8   8   8   8   8
#     4  10  22  38  60  90 127 167 212 260 325 392
#     4   9  17  40  62  85 122 169 205 254 321 389
#     4  10  20  37  61  88 119 165 208 252 324 388
#     4   9  20  34  65  92 119 162 215 262 321 383
#     4  10  19  39  64  89 124 165 207 269 322 378
#     4  12  23  39  63  93 128 169 216 273 328 392
#
# _framework density 19.572454
#
# number of rings (size 3 to 8) (size 9 to 14) (size 15 to 20)
#    0.000    2.000    3.333    0.500    2.333    1.333 
#    0.000    4.167    0.000    0.000    0.000    0.000 
#    0.000    0.000    0.000    0.000    0.000    0.000 
#
# Total GULP energy -133682.647926 kJ/mol
# GULP energy per Si atom -5570.110330 kJ/mol
# Density = 1.952791 g / cm^3
# Si number density = 19.572454 Si / 1000 Ang^3
#
#
#
# Elastic Constant Matrix: (Units=GPa)
#
#
# Indices 1 2 3 4 5 6 
#
# 1 68.3426 26.6682 8.8959 0.0000 0.0000 0.0000
# 2 26.6682 106.1718 19.4529 0.0000 0.0000 0.0000
# 3 8.8959 19.4529 62.1565 0.0000 0.0000 0.0000
# 4 0.0000 0.0000 0.0000 6.2585 0.0000 0.0000
# 5 0.0000 0.0000 0.0000 0.0000 15.0697 0.0000
# 6 0.0000 0.0000 0.0000 0.0000 0.0000 20.6072
#
#
#
# Elastic Compliance Matrix: (Units=1/GPa)
#
#
# Indices 1 2 3 4 5 6 
#
# 1 0.016295 -0.003889 -0.001115 0.000000 0.000000 0.000000
# 2 -0.003889 0.010920 -0.002861 0.000000 0.000000 0.000000
# 3 -0.001115 -0.002861 0.017143 0.000000 0.000000 0.000000
# 4 0.000000 0.000000 0.000000 0.159783 0.000000 0.000000
# 5 0.000000 0.000000 0.000000 0.000000 0.066358 0.000000
# 6 0.000000 0.000000 0.000000 0.000000 0.000000 0.048527
#
#
# Mechanical properties :
#
#
# Convention : Reuss Voigt Hill
#
# Bulk Modulus (GPa) = 34.93031 38.52277 36.72654
# Shear Modulus (GPa) = 14.52230 20.49733 17.50981
#
# Velocity S-wave (km/s) = 2.72688 3.23964 2.99426
# Velocity P-wave (km/s) = 5.27256 5.80677 5.54610
#
# Compressibility (1/GPa) = 0.02862843
#
# Stress axis : x y z
#
# Youngs Moduli (GPa) = 61.36967 91.57829 58.33147
#
# Poissons Ratio (x) = 0.35611 0.06505
# Poissons Ratio (y) = 0.23864 0.16688
# Poissons Ratio (z) = 0.06843 0.26200
#
# Static dielectric constant tensor:
#      x y z
#    x 1.727800 0.000000 0.000000 
#    y 0.000000 1.743690 0.000000 
#    z 0.000000 0.000000 1.678420 
# 
# From -- ./inp_files/10596.got.cif
#   From: 2010.05.17/outbox.cif.g08.bks.cpg/sg37_6_cif.got.tgz:10596.got - 2010.06.03 17:53:42.
