data_PCOD9353325
_publ_section_title
;
Structure prediction by ZEFSAII (Michael W. Deem and Ramdas Pophale) SiO2 
 PCOD9353325
Probable space group: C M C 21
;
_chemical_formula_sum "Si O2"
_cell_formula_units_Z 32
_cell_length_a 9.000000
_cell_length_b 30.000000
_cell_length_c 12.000000
_cell_angle_alpha 90.000000
_cell_angle_beta 90.000000
_cell_angle_gamma 90.000000
_cell_volume 3240.000000
_symmetry_space_group_name_H-M "C M C 21"
_symmetry_group_IT_number 36
_symmetry_cell_setting 'orthorhombic'
loop_
_space_group_symop_operation_xyz
x,y,z
-x,-y,1/2+z
x,-y,1/2+z
-x,y,z
1/2+x,1/2+y,z
1/2-x,1/2-y,1/2+z
1/2+x,1/2-y,1/2+z
1/2-x,1/2+y,z
loop_
_atom_site_type_symbol
_atom_site_label
_atom_site_fract_x
_atom_site_fract_y
_atom_site_fract_z
Si Si1 0.823147 0.224127 0.251290
Si Si2 0.678576 0.027396 0.528830
Si Si3 0.832006 0.320939 0.956607
Si Si4 0.177139 0.569444 0.961901
Si Si5 0.322122 0.417269 0.229273
Si Si6 0.169171 0.586859 0.328079
Si Si7 0.175548 0.134538 0.124715
Si Si8 0.174388 0.815017 0.182627
O O1 0.724002 0.208561 0.354730
O O2 0.792571 0.186214 0.156489
O O3 0.772762 0.273970 0.224526
O O4 0.000000 0.221733 0.273840
O O5 0.500000 0.032897 0.540008
O O6 0.757430 0.056582 0.623016
O O7 0.717096 0.045750 0.405005
O O8 0.713725 0.974938 0.533451
O O9 0.837215 0.371482 0.912973
O O10 0.000000 0.308618 0.992838
O O11 0.711414 0.317172 0.052286
O O12 0.251046 0.564249 0.841757
O O13 0.000000 0.571484 0.950895
O O14 0.238150 0.613771 0.020925
O O15 0.500000 0.421277 0.229640
O O16 0.285838 0.364347 0.225819
O O17 0.273246 0.604035 0.229393
O O18 0.000000 0.579197 0.285395
O O19 0.000000 0.130474 0.106827
O O20 0.000000 0.806894 0.204053
#
# Coordination Sequence:
#
# PCOD9353325 Si02
#       8
#     8   8   8   8   8   8   8   8
#     4  10  22  39  61  89 122 163 209 258 312 371
#     4  10  22  41  64  91 121 159 207 253 301 367
#     4  10  19  35  60  87 116 155 201 252 308 364
#     4  11  25  42  64  91 126 170 211 254 307 371
#     4  11  25  43  64  93 128 162 204 258 314 370
#     4   9  18  35  61  88 116 153 199 252 303 361
#     4  10  22  40  61  89 125 161 205 258 311 366
#     4  11  23  39  61  90 124 161 204 255 310 372
#
# _framework density 9.8765429999999999
#
# number of rings (size 3 to 8) (size 9 to 14) (size 15 to 20)
#    0.000    1.750    1.250    2.250    1.750    6.000 
#    0.000    1.250    0.000    0.000    0.000    0.000 
#    0.000    0.000    0.000    0.000    0.000    0.000 
#
# Total GULP energy -178675.572649 kJ/mol
# GULP energy per Si atom -5583.611645 kJ/mol
# Density = 0.985406 g / cm^3
# Si number density = 9.876543 Si / 1000 Ang^3
#
#
#
# Elastic Constant Matrix: (Units=GPa)
#
#
# Indices 1 2 3 4 5 6 
#
# 1 56.3845 46.4122 16.3443 0.0000 0.0000 0.0000
# 2 46.4122 103.6549 27.3009 0.0000 0.0000 0.0000
# 3 16.3443 27.3009 45.8953 0.0000 0.0000 0.0000
# 4 0.0000 0.0000 0.0000 13.1190 0.0000 0.0000
# 5 0.0000 0.0000 0.0000 0.0000 30.9453 0.0000
# 6 0.0000 0.0000 0.0000 0.0000 0.0000 24.2795
#
#
#
# Elastic Compliance Matrix: (Units=1/GPa)
#
#
# Indices 1 2 3 4 5 6 
#
# 1 0.028438 -0.011936 -0.003027 0.000000 0.000000 0.000000
# 2 -0.011936 0.016449 -0.005534 0.000000 0.000000 0.000000
# 3 -0.003027 -0.005534 0.026159 0.000000 0.000000 0.000000
# 4 0.000000 0.000000 0.000000 0.076225 0.000000 0.000000
# 5 0.000000 0.000000 0.000000 0.000000 0.032315 0.000000
# 6 0.000000 0.000000 0.000000 0.000000 0.000000 0.041187
#
#
# Mechanical properties :
#
#
# Convention : Reuss Voigt Hill
#
# Bulk Modulus (GPa) = 33.27652 42.89438 38.08545
# Shear Modulus (GPa) = 18.39688 21.39392 19.89540
#
# Velocity S-wave (km/s) = 3.05510 3.29457 3.17709
# Velocity P-wave (km/s) = 5.41550 6.01952 5.72548
#
# Compressibility (1/GPa) = 0.03005122
#
# Stress axis : x y z
#
# Youngs Moduli (GPa) = 35.16446 60.79232 38.22790
#
# Poissons Ratio (x) = 0.72561 0.11572
# Poissons Ratio (y) = 0.41972 0.21157
# Poissons Ratio (z) = 0.10645 0.33645
#
# Static dielectric constant tensor:
#      x y z
#    x 1.655380 0.000000 0.000000 
#    y 0.000000 1.709920 0.000000 
#    z 0.000000 0.000000 1.705290 
# 
# From -- ./inp_files/7155.got.cif
#   From: 2010.05.17/outbox.ucp.g08.bks.cvg/sg36_4_cif.got.tgz:7155.got - 2010.06.11 10:37:26.
