data_PCOD9353391
_publ_section_title
;
Structure prediction by ZEFSAII (Michael W. Deem and Ramdas Pophale) SiO2 
 PCOD9353391
Probable space group: C M C 21
;
_chemical_formula_sum "Si O2"
_cell_formula_units_Z 24
_cell_length_a 9.000000
_cell_length_b 18.000000
_cell_length_c 15.000000
_cell_angle_alpha 90.000000
_cell_angle_beta 90.000000
_cell_angle_gamma 90.000000
_cell_volume 2430.000000
_symmetry_space_group_name_H-M "C M C 21"
_symmetry_group_IT_number 36
_symmetry_cell_setting 'orthorhombic'
loop_
_space_group_symop_operation_xyz
x,y,z
-x,-y,1/2+z
x,-y,1/2+z
-x,y,z
1/2+x,1/2+y,z
1/2-x,1/2-y,1/2+z
1/2+x,1/2-y,1/2+z
1/2-x,1/2+y,z
loop_
_atom_site_type_symbol
_atom_site_label
_atom_site_fract_x
_atom_site_fract_y
_atom_site_fract_z
Si Si1 0.832608 0.304597 0.022950
Si Si2 0.676336 0.955566 0.511739
Si Si3 0.179392 0.606238 0.813578
Si Si4 0.325635 0.423810 0.129009
Si Si5 0.329481 0.341442 0.640992
Si Si6 0.820693 0.729100 0.316047
O O1 0.716115 0.344460 0.087503
O O2 0.842551 0.224579 0.068917
O O3 0.000000 0.338280 0.030363
O O4 0.794384 0.300686 0.917644
O O5 0.500000 0.968062 0.513365
O O6 0.714175 0.931274 0.409945
O O7 0.722542 0.896822 0.587842
O O8 0.766090 0.025431 0.548449
O O9 0.241413 0.566438 0.723960
O O10 0.254519 0.687592 0.813540
O O11 0.000000 0.612554 0.806860
O O12 0.500000 0.432828 0.143503
O O13 0.500000 0.369419 0.655315
O O14 0.259281 0.315490 0.735452
O O15 0.000000 0.730082 0.303050
#
# Coordination Sequence:
#
# PCOD9353391 Si02
#       6
#     8   8   8   8   8   8
#     4  10  22  40  63  92 128 166 208 261 313 368
#     4  11  25  44  67  93 128 170 213 262 319 380
#     4  11  23  41  66  93 125 167 211 260 320 381
#     4  12  26  42  66  95 129 169 213 262 317 382
#     4  11  22  39  64  95 129 164 209 262 313 371
#     4  11  22  38  64  96 129 168 214 263 314 372
#
# _framework density 9.8765429999999999
#
# number of rings (size 3 to 8) (size 9 to 14) (size 15 to 20)
#    0.000    1.000    3.333    3.500    0.000    5.333 
#    0.000    1.667    0.000    0.000    0.000    0.000 
#    0.000    0.000    0.000    0.000    0.000    0.000 
#
# Total GULP energy -133934.317005 kJ/mol
# GULP energy per Si atom -5580.596542 kJ/mol
# Density = 0.985406 g / cm^3
# Si number density = 9.876543 Si / 1000 Ang^3
#
#
#
# Elastic Constant Matrix: (Units=GPa)
#
#
# Indices 1 2 3 4 5 6 
#
# 1 101.3961 1.9321 38.5897 0.0000 0.0000 0.0000
# 2 1.9321 18.9968 -16.3475 0.0000 0.0000 0.0000
# 3 38.5897 -16.3475 131.7724 0.0000 0.0000 0.0000
# 4 0.0000 0.0000 0.0000 30.9727 0.0000 0.0000
# 5 0.0000 0.0000 0.0000 0.0000 28.0238 0.0000
# 6 0.0000 0.0000 0.0000 0.0000 0.0000 28.3061
#
#
#
# Elastic Compliance Matrix: (Units=1/GPa)
#
#
# Indices 1 2 3 4 5 6 
#
# 1 0.011437 -0.004529 -0.003911 0.000000 0.000000 0.000000
# 2 -0.004529 0.060725 0.008860 0.000000 0.000000 0.000000
# 3 -0.003911 0.008860 0.009833 0.000000 0.000000 0.000000
# 4 0.000000 0.000000 0.000000 0.032287 0.000000 0.000000
# 5 0.000000 0.000000 0.000000 0.000000 0.035684 0.000000
# 6 0.000000 0.000000 0.000000 0.000000 0.000000 0.035328
#
#
# Mechanical properties :
#
#
# Convention : Reuss Voigt Hill
#
# Bulk Modulus (GPa) = 12.07219 33.39042 22.73131
# Shear Modulus (GPa) = 23.57746 32.65992 28.11869
#
# Velocity S-wave (km/s) = 3.45861 4.07062 3.77703
# Velocity P-wave (km/s) = 4.69831 6.24771 5.52757
#
# Compressibility (1/GPa) = 0.08283500
#
# Stress axis : x y z
#
# Youngs Moduli (GPa) = 87.43429 16.46760 101.69429
#
# Poissons Ratio (x) = 0.07458 0.39775
# Poissons Ratio (y) = 0.39599 -0.90099
# Poissons Ratio (z) = 0.34198 -0.14590
#
# Static dielectric constant tensor:
#      x y z
#    x 1.697150 0.000000 0.000000 
#    y 0.000000 1.873340 0.000000 
#    z 0.000000 0.000000 1.647110 
# 
# From -- ./inp_files/10341.got.cif
#   From: 2010.05.17/outbox.ucp.g08.bks.cvg/sg36_6_cif.got.tgz:10341.got - 2010.06.11 10:37:26.
