data_PCOD9353330
_publ_section_title
;
Structure prediction by ZEFSAII (Michael W. Deem and Ramdas Pophale) SiO2 
 PCOD9353330
Probable space group: C M C 21
;
_chemical_formula_sum "Si O2"
_cell_formula_units_Z 32
_cell_length_a 9.000000
_cell_length_b 24.000000
_cell_length_c 15.000000
_cell_angle_alpha 90.000000
_cell_angle_beta 90.000000
_cell_angle_gamma 90.000000
_cell_volume 3240.000000
_symmetry_space_group_name_H-M "C M C 21"
_symmetry_group_IT_number 36
_symmetry_cell_setting 'orthorhombic'
loop_
_space_group_symop_operation_xyz
x,y,z
-x,-y,1/2+z
x,-y,1/2+z
-x,y,z
1/2+x,1/2+y,z
1/2-x,1/2-y,1/2+z
1/2+x,1/2-y,1/2+z
1/2-x,1/2+y,z
loop_
_atom_site_type_symbol
_atom_site_label
_atom_site_fract_x
_atom_site_fract_y
_atom_site_fract_z
Si Si1 0.679696 0.778531 0.462160
Si Si2 0.678681 0.076476 0.300002
Si Si3 0.824418 0.994396 0.435116
Si Si4 0.328981 0.111091 0.866348
Si Si5 0.175974 0.235653 0.650938
Si Si6 0.177817 0.495611 0.623725
Si Si7 0.821502 0.197552 0.308597
Si Si8 0.667713 0.125167 0.657412
O O1 0.500000 0.779904 0.455451
O O2 0.730203 0.837113 0.422728
O O3 0.717344 0.771377 0.564468
O O4 0.725997 0.726434 0.401528
O O5 0.500000 0.077523 0.305644
O O6 0.743990 0.138362 0.293558
O O7 0.744695 0.046576 0.387630
O O8 0.718292 0.040183 0.211458
O O9 0.775225 0.941658 0.376636
O O10 0.000000 0.002808 0.436415
O O11 0.763142 0.980979 0.533580
O O12 0.500000 0.096606 0.893262
O O13 0.336138 0.129157 0.764270
O O14 0.268971 0.259316 0.733012
O O15 0.218880 0.172264 0.627447
O O16 0.000000 0.240212 0.668414
O O17 0.206265 0.561388 0.637409
O O18 0.000000 0.488575 0.611276
O O19 0.000000 0.191335 0.307148
O O20 0.500000 0.136190 0.623467
#
# Coordination Sequence:
#
# PCOD9353330 Si02
#       8
#     8   8   8   8   8   8   8   8
#     4   9  21  40  63  87 121 165 204 244 305 370
#     4  11  24  45  67  91 123 168 214 257 312 376
#     4  12  26  41  62  96 130 162 203 258 320 372
#     4  10  19  41  68  87 116 164 213 254 306 371
#     4  11  23  39  61  94 126 163 208 254 309 373
#     4  10  23  43  66  90 123 167 214 255 307 377
#     4  11  23  43  64  90 127 166 206 258 316 370
#     4  10  20  40  67  91 116 159 210 262 311 357
#
# _framework density 9.8765429999999999
#
# number of rings (size 3 to 8) (size 9 to 14) (size 15 to 20)
#    0.000    1.500    2.500    2.250    3.500    2.000 
#    0.000    2.500    0.000    0.000    0.000    0.000 
#    0.000    0.000    0.000    0.000    0.000    0.000 
#
# Total GULP energy -178709.888180 kJ/mol
# GULP energy per Si atom -5584.684006 kJ/mol
# Density = 0.985406 g / cm^3
# Si number density = 9.876543 Si / 1000 Ang^3
#
#
#
# Elastic Constant Matrix: (Units=GPa)
#
#
# Indices 1 2 3 4 5 6 
#
# 1 48.5378 14.9481 10.4774 0.0000 0.0000 0.0000
# 2 14.9481 64.0402 -10.4728 0.0000 0.0000 0.0000
# 3 10.4774 -10.4728 38.2762 0.0000 0.0000 0.0000
# 4 0.0000 0.0000 0.0000 19.9190 0.0000 0.0000
# 5 0.0000 0.0000 0.0000 0.0000 13.3442 0.0000
# 6 0.0000 0.0000 0.0000 0.0000 0.0000 32.2456
#
#
#
# Elastic Compliance Matrix: (Units=1/GPa)
#
#
# Indices 1 2 3 4 5 6 
#
# 1 0.024702 -0.007194 -0.008730 0.000000 0.000000 0.000000
# 2 -0.007194 0.018442 0.007015 0.000000 0.000000 0.000000
# 3 -0.008730 0.007015 0.030435 0.000000 0.000000 0.000000
# 4 0.000000 0.000000 0.000000 0.050203 0.000000 0.000000
# 5 0.000000 0.000000 0.000000 0.000000 0.074939 0.000000
# 6 0.000000 0.000000 0.000000 0.000000 0.000000 0.031012
#
#
# Mechanical properties :
#
#
# Convention : Reuss Voigt Hill
#
# Bulk Modulus (GPa) = 17.93361 20.08440 19.00901
# Shear Modulus (GPa) = 18.78725 22.16184 20.47455
#
# Velocity S-wave (km/s) = 3.08734 3.35318 3.22300
# Velocity P-wave (km/s) = 4.66985 5.01812 4.84711
#
# Compressibility (1/GPa) = 0.05576123
#
# Stress axis : x y z
#
# Youngs Moduli (GPa) = 40.48193 54.22550 32.85701
#
# Poissons Ratio (x) = 0.39008 0.28684
# Poissons Ratio (y) = 0.29121 -0.23049
# Poissons Ratio (z) = 0.35341 -0.38039
#
# Static dielectric constant tensor:
#      x y z
#    x 1.676110 0.000000 0.000000 
#    y 0.000000 1.696630 0.000000 
#    z 0.000000 0.000000 1.702780 
# 
# From -- ./inp_files/10991.got.cif
#   From: 2010.05.17/outbox.ucp.g08.bks.cvg/sg36_6_cif.got.tgz:10991.got - 2010.06.11 10:37:26.
