data_PCOD9353471
_publ_section_title
;
Structure prediction by ZEFSAII (Michael W. Deem and Ramdas Pophale) SiO2 
 PCOD9353471
Probable space group: C C C 2
;
_chemical_formula_sum "Si O2"
_cell_formula_units_Z 48
_cell_length_a 23.162055
_cell_length_b 7.181259
_cell_length_c 11.521289
_cell_angle_alpha 90.000000
_cell_angle_beta 90.000000
_cell_angle_gamma 90.000000
_cell_volume 1916.367290
_symmetry_space_group_name_H-M "C C C 2"
_symmetry_group_IT_number 37
_symmetry_cell_setting 'orthorhombic'
loop_
_space_group_symop_operation_xyz
x,y,z
-x,-y,z
-x,y,1/2+z
x,-y,1/2+z
1/2+x,1/2+y,z
1/2-x,1/2-y,z
1/2-x,1/2+y,1/2+z
1/2+x,1/2-y,1/2+z
loop_
_atom_site_type_symbol
_atom_site_label
_atom_site_fract_x
_atom_site_fract_y
_atom_site_fract_z
Si Si1 0.672481 0.631898 0.797410
Si Si2 0.623360 0.847052 0.423860
Si Si3 0.441998 0.216847 0.202513
Si Si4 0.349579 0.228995 0.031407
Si Si5 0.573687 0.767599 0.664402
Si Si6 0.784708 0.454628 0.740487
O O1 0.606258 0.644142 0.759965
O O2 0.715906 0.478716 0.747852
O O3 0.693849 0.833047 0.751551
O O4 0.677815 0.635916 0.936714
O O5 0.576046 0.764592 0.335988
O O6 0.610707 0.748999 0.546075
O O7 0.618567 0.066126 0.456752
O O8 0.683149 0.853484 0.349502
O O9 0.397537 0.312557 0.115023
O O10 0.505835 0.272995 0.166607
O O11 0.429005 0.992539 0.188260
O O12 0.305170 0.126604 0.117867
#
# Coordination Sequence:
#
# PCOD9353471 Si02
#       6
#     8   8   8   8   8   8
#     4  10  17  27  45  64  89 130 170 196 235 289
#     4   9  15  28  38  60  92 128 162 179 242 292
#     4   9  17  23  38  62  94 126 155 179 237 313
#     4   9  15  29  41  64  92 126 161 192 243 292
#     4  10  17  23  40  66  92 128 159 183 236 307
#     4   9  17  29  43  62  87 130 168 200 231 290
#
# _framework density 25.04739
#
# number of rings (size 3 to 8) (size 9 to 14) (size 15 to 20)
#    0.000    2.667    6.667    0.000    2.333    1.333 
#    0.000    0.000    0.000    4.000   30.333    0.000 
#    0.000    0.000   11.333   41.333    5.000    0.000 
#
# Total GULP energy -133987.754013 kJ/mol
# GULP energy per Si atom -5582.823084 kJ/mol
# Density = 2.499038 g / cm^3
# Si number density = 25.047390 Si / 1000 Ang^3
#
#
#
# Elastic Constant Matrix: (Units=GPa)
#
#
# Indices 1 2 3 4 5 6 
#
# 1 173.3115 30.8731 67.6787 0.0000 0.0000 0.0000
# 2 30.8731 75.8529 30.3355 0.0000 0.0000 0.0000
# 3 67.6787 30.3355 173.7398 0.0000 0.0000 0.0000
# 4 0.0000 0.0000 0.0000 27.3561 0.0000 0.0000
# 5 0.0000 0.0000 0.0000 0.0000 16.1304 0.0000
# 6 0.0000 0.0000 0.0000 0.0000 0.0000 -5.4621
#
#
#
# Elastic Compliance Matrix: (Units=1/GPa)
#
#
# Indices 1 2 3 4 5 6 
#
# 1 0.007052 -0.001905 -0.002415 0.000000 0.000000 0.000000
# 2 -0.001905 0.014688 -0.001823 0.000000 0.000000 0.000000
# 3 -0.002415 -0.001823 0.007015 0.000000 0.000000 0.000000
# 4 0.000000 0.000000 0.000000 0.036555 0.000000 0.000000
# 5 0.000000 0.000000 0.000000 0.000000 0.061995 0.000000
# 6 0.000000 0.000000 0.000000 0.000000 0.000000 -0.183079
#
#
# Mechanical properties :
#
#
# Convention : Reuss Voigt Hill
#
# Bulk Modulus (GPa) = 60.71397 75.63099 68.17248
# Shear Modulus (GPa) = -131.57442 27.20599 -52.18421
#
# Velocity S-wave (km/s) = -7.25563 3.29930 -4.56940
# Velocity P-wave (km/s) = 6.77496 6.69138 0.75016
#
# Compressibility (1/GPa) = 0.01647067
#
# Stress axis : x y z
#
# Youngs Moduli (GPa) = 141.80106 68.08504 142.56162
#
# Poissons Ratio (x) = 0.12968 0.34422
# Poissons Ratio (y) = 0.27009 0.25982
# Poissons Ratio (z) = 0.34238 0.12409
#
# Static dielectric constant tensor:
#      x y z
#    x 2.020600 0.000000 0.000000 
#    y 0.000000 2.024000 0.000000 
#    z 0.000000 0.000000 1.978360 
# 
# From -- ./inp_files/8565.got.cif
#   From: 2010.05.17/outbox.cif.g08.bks.cpg/sg37_5_cif.got.tgz:8565.got - 2010.06.03 17:53:42.
