data_PCOD9353675
_publ_section_title
;
Structure prediction by ZEFSAII (Michael W. Deem and Ramdas Pophale) SiO2 
 PCOD9353675
Probable space group: C C C 2
;
_chemical_formula_sum "Si O2"
_cell_formula_units_Z 64
_cell_length_a 18.687106
_cell_length_b 27.290103
_cell_length_c 8.884981
_cell_angle_alpha 90.000000
_cell_angle_beta 90.000000
_cell_angle_gamma 90.000000
_cell_volume 4531.100838
_symmetry_space_group_name_H-M "C C C 2"
_symmetry_group_IT_number 37
_symmetry_cell_setting 'orthorhombic'
loop_
_space_group_symop_operation_xyz
x,y,z
-x,-y,z
-x,y,1/2+z
x,-y,1/2+z
1/2+x,1/2+y,z
1/2-x,1/2-y,z
1/2-x,1/2+y,1/2+z
1/2+x,1/2-y,1/2+z
loop_
_atom_site_type_symbol
_atom_site_label
_atom_site_fract_x
_atom_site_fract_y
_atom_site_fract_z
Si Si1 0.421586 0.551668 0.604100
Si Si2 0.339362 0.650449 0.605023
Si Si3 0.578414 0.448332 0.242954
Si Si4 0.799490 0.298934 0.596649
Si Si5 0.660638 0.349551 0.242030
Si Si6 0.700510 0.798934 0.750404
Si Si7 0.922216 0.757459 0.602196
Si Si8 0.577784 0.257459 0.744858
O O1 0.369897 0.597012 0.639597
O O2 0.427780 0.547392 0.423527
O O3 0.397258 0.500000 0.673527
O O4 0.500000 0.561673 0.673527
O O5 0.256471 0.659580 0.647856
O O6 0.343321 0.657850 0.423527
O O7 0.387828 0.692107 0.681645
O O8 0.630104 0.402988 0.207457
O O9 0.750000 0.250000 0.597250
O O10 0.821278 0.307717 0.423527
O O11 0.867879 0.285607 0.695084
O O12 0.743529 0.340420 0.199198
O O13 0.612172 0.307893 0.165409
O O14 0.750000 0.750000 0.749803
O O15 0.632121 0.785607 0.651969
O O16 0.927235 0.760228 0.423527
O O17 1.000000 0.750724 0.673527
#
# Coordination Sequence:
#
# PCOD9353675 Si02
#       8
#     8   8   8   8   8   8   8   8
#     4  10  19  30  43  60  82 109 140 173 207 239
#     4   9  18  31  45  60  81 110 140 170 207 246
#     4  10  19  30  43  60  82 109 140 173 207 239
#     4   8  15  29  44  58  80 107 134 167 205 243
#     4   9  18  31  45  60  81 110 140 170 207 246
#     4   8  15  29  44  58  80 107 134 167 205 243
#     4  11  20  28  41  61  84 110 140 171 203 241
#     4  11  20  28  41  61  84 110 140 171 203 241
#
# _framework density 14.124603
#
# number of rings (size 3 to 8) (size 9 to 14) (size 15 to 20)
#    0.000    2.500    0.000    6.000    0.000    8.500 
#    0.000    0.000    0.000    0.000    0.000    0.000 
#    0.000    1.000    0.000   11.500    0.000    3.500 
#
# Total GULP energy -178328.733171 kJ/mol
# GULP energy per Si atom -5572.772912 kJ/mol
# Density = 1.409245 g / cm^3
# Si number density = 14.124603 Si / 1000 Ang^3
#
#
#
# Elastic Constant Matrix: (Units=GPa)
#
#
# Indices 1 2 3 4 5 6 
#
# 1 110.8422 63.3999 56.9760 0.0000 0.0000 0.0000
# 2 63.3999 95.9631 41.0612 0.0000 0.0000 0.0000
# 3 56.9760 41.0612 68.7357 0.0000 0.0000 0.0000
# 4 0.0000 0.0000 0.0000 -84.1260 0.0000 0.0000
# 5 0.0000 0.0000 0.0000 0.0000 20.5667 0.0000
# 6 0.0000 0.0000 0.0000 0.0000 0.0000 27.3064
#
#
#
# Elastic Compliance Matrix: (Units=1/GPa)
#
#
# Indices 1 2 3 4 5 6 
#
# 1 0.019401 -0.007975 -0.011318 0.000000 0.000000 0.000000
# 2 -0.007975 0.017277 -0.003710 0.000000 0.000000 0.000000
# 3 -0.011318 -0.003710 0.026146 0.000000 0.000000 0.000000
# 4 0.000000 0.000000 0.000000 -0.011887 0.000000 0.000000
# 5 0.000000 0.000000 0.000000 0.000000 0.048622 0.000000
# 6 0.000000 0.000000 0.000000 0.000000 0.000000 0.036621
#
#
# Mechanical properties :
#
#
# Convention : Reuss Voigt Hill
#
# Bulk Modulus (GPa) = 59.45882 66.49059 62.97470
# Shear Modulus (GPa) = 26.62499 0.35635 13.49067
#
# Velocity S-wave (km/s) = 4.34638 0.50283 3.09385
# Velocity P-wave (km/s) = 8.20825 6.89301 7.57921
#
# Compressibility (1/GPa) = 0.01681836
#
# Stress axis : x y z
#
# Youngs Moduli (GPa) = 51.54375 57.87996 38.24625
#
# Poissons Ratio (x) = 0.46159 0.43286
# Poissons Ratio (y) = 0.41106 0.14191
# Poissons Ratio (z) = 0.58335 0.21476
#
# Static dielectric constant tensor:
#      x y z
#    x 1.466810 0.000000 0.000000 
#    y 0.000000 1.463170 0.000000 
#    z 0.000000 0.000000 1.472930 
# 
# From -- ./inp_files/3814.got.cif
#   From: 2010.05.17/outbox.cif.g08.bks.cpg/sg37_2_cif.got.tgz:3814.got - 2010.06.03 17:53:42.
