data_PCOD9353519
_publ_section_title
;
Structure prediction by ZEFSAII (Michael W. Deem and Ramdas Pophale) SiO2 
 PCOD9353519
Probable space group: C C C 2
;
_chemical_formula_sum "Si O2"
_cell_formula_units_Z 52
_cell_length_a 21.565197
_cell_length_b 16.189692
_cell_length_c 5.670543
_cell_angle_alpha 90.000000
_cell_angle_beta 90.000000
_cell_angle_gamma 90.000000
_cell_volume 1979.778778
_symmetry_space_group_name_H-M "C C C 2"
_symmetry_group_IT_number 37
_symmetry_cell_setting 'orthorhombic'
loop_
_space_group_symop_operation_xyz
x,y,z
-x,-y,z
-x,y,1/2+z
x,-y,1/2+z
1/2+x,1/2+y,z
1/2-x,1/2-y,z
1/2-x,1/2+y,1/2+z
1/2+x,1/2-y,1/2+z
loop_
_atom_site_type_symbol
_atom_site_label
_atom_site_fract_x
_atom_site_fract_y
_atom_site_fract_z
Si Si1 0.048263 0.217438 0.432150
Si Si2 0.346221 0.322228 0.112893
Si Si3 0.471943 0.876705 0.384363
Si Si4 0.284536 0.501699 0.563778
Si Si5 0.419846 0.546662 0.094753
Si Si6 0.750000 0.250000 0.979937
Si Si7 0.145922 0.316392 0.725290
O O1 0.083861 0.179546 0.206398
O O2 0.046800 0.135785 0.593933
O O3 0.098700 0.284939 0.524489
O O4 0.990822 0.278022 0.381809
O O5 0.320865 0.411280 0.053882
O O6 0.300916 0.288937 0.313191
O O7 0.343055 0.259979 0.898227
O O8 0.495579 0.907314 0.640765
O O9 0.397294 0.882484 0.358960
O O10 0.250178 0.495844 0.314448
O O11 0.344789 0.441302 0.574812
O O12 0.433224 0.502030 0.346744
O O13 0.785320 0.323983 0.119548
#
# Coordination Sequence:
#
# PCOD9353519 Si02
#       7
#     8   8   8   8   8   4   8
#     4  10  19  30  51  72  97 130 178 221 276 335
#     4  11  19  34  53  71 105 134 185 233 283 339
#     4  10  20  33  52  73  93 130 171 218 277 331
#     4  10  19  30  50  74  96 136 174 223 280 331
#     4  10  18  28  45  70  95 131 170 217 273 316
#     4  10  24  34  52  78  96 146 186 248 292 336
#     4  10  20  35  51  71 100 132 182 234 285 341
#
# _framework density 26.265563
#
# number of rings (size 3 to 8) (size 9 to 14) (size 15 to 20)
#    0.000    1.846    4.615    2.308    2.154    0.000 
#    0.000    0.000    0.000   21.231    0.000    0.000 
#    0.000    0.000    0.000    0.000    0.000   41.538 
#
# Total GULP energy -145130.820068 kJ/mol
# GULP energy per Si atom -5581.954618 kJ/mol
# Density = 2.620578 g / cm^3
# Si number density = 26.265563 Si / 1000 Ang^3
#
#
#
# Elastic Constant Matrix: (Units=GPa)
#
#
# Indices 1 2 3 4 5 6 
#
# 1 109.1678 -8.0022 16.6242 0.0000 0.0000 0.0000
# 2 -8.0022 61.2122 9.6927 0.0000 0.0000 0.0000
# 3 16.6242 9.6927 172.6063 0.0000 0.0000 0.0000
# 4 0.0000 0.0000 0.0000 -5.0088 0.0000 0.0000
# 5 0.0000 0.0000 0.0000 0.0000 24.5060 0.0000
# 6 0.0000 0.0000 0.0000 0.0000 0.0000 10.0682
#
#
#
# Elastic Compliance Matrix: (Units=1/GPa)
#
#
# Indices 1 2 3 4 5 6 
#
# 1 0.009412 0.001386 -0.000984 0.000000 0.000000 0.000000
# 2 0.001386 0.016687 -0.001071 0.000000 0.000000 0.000000
# 3 -0.000984 -0.001071 0.005948 0.000000 0.000000 0.000000
# 4 0.000000 0.000000 0.000000 -0.199650 0.000000 0.000000
# 5 0.000000 0.000000 0.000000 0.000000 0.040806 0.000000
# 6 0.000000 0.000000 0.000000 0.000000 0.000000 0.099323
#
#
# Mechanical properties :
#
#
# Convention : Reuss Voigt Hill
#
# Bulk Modulus (GPa) = 32.56246 42.17952 37.37099
# Shear Modulus (GPa) = -314.47071 27.55787 -143.45642
#
# Velocity S-wave (km/s) = -10.95387 3.24265 -7.39840
# Velocity P-wave (km/s) = 12.14738 5.48757 7.66307
#
# Compressibility (1/GPa) = 0.03071021
#
# Stress axis : x y z
#
# Youngs Moduli (GPa) = 106.25056 59.92561 168.11096
#
# Poissons Ratio (x) = -0.08307 0.16547
# Poissons Ratio (y) = -0.14729 0.17998
# Poissons Ratio (z) = 0.10458 0.06416
#
# Static dielectric constant tensor:
#      x y z
#    x 2.094620 0.000000 0.000000 
#    y 0.000000 2.119930 0.000000 
#    z 0.000000 0.000000 2.237130 
# 
# From -- ./inp_files/831.got.cif
#   From: 2010.05.17/outbox.cif.g08.bks.cpg/sg37_1_cif.got.tgz:831.got - 2010.06.03 17:53:42.
