data_PCOD9353005
_publ_section_title
;
Structure prediction by ZEFSAII (Michael W. Deem and Ramdas Pophale) SiO2 
 PCOD9353005
Probable space group: C M C 21
;
_chemical_formula_sum "Si O2"
_cell_formula_units_Z 56
_cell_length_a 22.327058
_cell_length_b 14.582629
_cell_length_c 8.202009
_cell_angle_alpha 90.000000
_cell_angle_beta 90.000000
_cell_angle_gamma 90.000000
_cell_volume 2670.469173
_symmetry_space_group_name_H-M "C M C 21"
_symmetry_group_IT_number 36
_symmetry_cell_setting 'orthorhombic'
loop_
_space_group_symop_operation_xyz
x,y,z
-x,-y,1/2+z
x,-y,1/2+z
-x,y,z
1/2+x,1/2+y,z
1/2-x,1/2-y,1/2+z
1/2+x,1/2-y,1/2+z
1/2-x,1/2+y,z
loop_
_atom_site_type_symbol
_atom_site_label
_atom_site_fract_x
_atom_site_fract_y
_atom_site_fract_z
Si Si1 0.097990 0.689899 0.071470
Si Si2 0.354408 0.003168 0.522010
Si Si3 0.734270 0.944102 0.276495
Si Si4 0.269847 0.727070 0.576881
Si Si5 0.432544 0.704354 0.242687
Si Si6 0.803771 0.128327 0.245083
Si Si7 0.433429 0.166726 0.425331
O O1 0.166279 0.724174 0.087708
O O2 0.069113 0.711973 0.246336
O O3 0.100486 0.580405 0.046253
O O4 0.071679 0.735542 0.908689
O O5 0.291821 0.962594 0.454409
O O6 0.330399 0.047353 0.687691
O O7 0.384068 0.086974 0.427041
O O8 0.760196 0.848095 0.218503
O O9 0.781052 0.024604 0.238608
O O10 0.219317 0.804109 0.602180
O O11 0.272256 0.671631 0.407074
O O12 0.500000 0.664722 0.234152
O O13 0.375459 0.637150 0.253527
O O14 0.424247 0.766090 0.079501
O O15 0.500000 0.126500 0.446973
#
# Coordination Sequence:
#
# PCOD9353005 Si02
#       7
#     8   8   8   8   8   8   8
#     4  11  23  41  64  91 128 169 207 262 317 379
#     4  12  21  39  55  88 131 160 200 261 307 383
#     4  12  23  37  61  92 127 160 206 260 326 381
#     4  11  23  39  61  94 125 165 206 262 330 382
#     4  10  24  43  63  89 123 168 216 261 316 380
#     4  11  23  39  64  92 126 166 205 270 325 380
#     4  11  24  40  62  90 125 172 214 254 309 379
#
# _framework density 20.970098
#
# number of rings (size 3 to 8) (size 9 to 14) (size 15 to 20)
#    0.000    0.857    4.286    3.857    2.000    1.143 
#    0.000    0.000    0.000    4.286    0.000    0.000 
#    0.000    0.000    0.000    0.000    0.000    0.000 
#
# Total GULP energy -156285.891671 kJ/mol
# GULP energy per Si atom -5581.638988 kJ/mol
# Density = 2.092237 g / cm^3
# Si number density = 20.970098 Si / 1000 Ang^3
#
#
#
# Elastic Constant Matrix: (Units=GPa)
#
#
# Indices 1 2 3 4 5 6 
#
# 1 97.7619 20.4884 9.2154 0.0000 0.0000 0.0000
# 2 20.4884 70.3890 4.4293 0.0000 0.0000 0.0000
# 3 9.2154 4.4293 95.4011 0.0000 0.0000 0.0000
# 4 0.0000 0.0000 0.0000 17.6104 0.0000 0.0000
# 5 0.0000 0.0000 0.0000 0.0000 8.3519 0.0000
# 6 0.0000 0.0000 0.0000 0.0000 0.0000 12.4415
#
#
#
# Elastic Compliance Matrix: (Units=1/GPa)
#
#
# Indices 1 2 3 4 5 6 
#
# 1 0.010972 -0.003136 -0.000914 0.000000 0.000000 0.000000
# 2 -0.003136 0.015145 -0.000400 0.000000 0.000000 0.000000
# 3 -0.000914 -0.000400 0.010589 0.000000 0.000000 0.000000
# 4 0.000000 0.000000 0.000000 0.056785 0.000000 0.000000
# 5 0.000000 0.000000 0.000000 0.000000 0.119733 0.000000
# 6 0.000000 0.000000 0.000000 0.000000 0.000000 0.080376
#
#
# Mechanical properties :
#
#
# Convention : Reuss Voigt Hill
#
# Bulk Modulus (GPa) = 35.96511 36.86869 36.41690
# Shear Modulus (GPa) = 16.03748 22.97534 19.50641
#
# Velocity S-wave (km/s) = 2.76846 3.31361 3.05323
# Velocity P-wave (km/s) = 5.23518 5.67977 5.46200
#
# Compressibility (1/GPa) = 0.02780473
#
# Stress axis : x y z
#
# Youngs Moduli (GPa) = 91.13782 66.02914 94.43799
#
# Poissons Ratio (x) = 0.20708 0.08634
# Poissons Ratio (y) = 0.28583 0.03779
# Poissons Ratio (z) = 0.08333 0.02643
#
# Static dielectric constant tensor:
#      x y z
#    x 1.745420 0.000000 0.000000 
#    y 0.000000 1.724540 0.000000 
#    z 0.000000 0.000000 1.890210 
# 
# From -- ./inp_files/5214.got.cif
#   From: 2010.05.17/outbox.cif.g08.bks.cpg/sg36_3_cif.got.tgz:5214.got - 2010.06.03 17:41:39.
