data_PCOD9353955
_publ_section_title
;
Structure prediction by ZEFSAII (Michael W. Deem and Ramdas Pophale) SiO2 
 PCOD9353955
Probable space group: C C C 2
;
_chemical_formula_sum "Si O2"
_cell_formula_units_Z 52
_cell_length_a 11.269962
_cell_length_b 23.718121
_cell_length_c 9.110556
_cell_angle_alpha 90.000000
_cell_angle_beta 90.000000
_cell_angle_gamma 90.000000
_cell_volume 2435.272777
_symmetry_space_group_name_H-M "C C C 2"
_symmetry_group_IT_number 37
_symmetry_cell_setting 'orthorhombic'
loop_
_space_group_symop_operation_xyz
x,y,z
-x,-y,z
-x,y,1/2+z
x,-y,1/2+z
1/2+x,1/2+y,z
1/2-x,1/2-y,z
1/2-x,1/2+y,1/2+z
1/2+x,1/2-y,1/2+z
loop_
_atom_site_type_symbol
_atom_site_label
_atom_site_fract_x
_atom_site_fract_y
_atom_site_fract_z
Si Si1 0.699801 0.419999 0.314640
Si Si2 0.256139 0.683640 0.718617
Si Si3 0.500000 0.500000 0.685225
Si Si4 0.915335 0.552117 0.367487
Si Si5 0.768084 0.117558 0.005409
Si Si6 0.105597 0.595302 0.548158
Si Si7 0.047541 0.881666 0.548255
O O1 0.611075 0.470462 0.268165
O O2 0.766962 0.393325 0.174757
O O3 0.797160 0.431147 0.438605
O O4 0.612591 0.375460 0.392578
O O5 0.250000 0.750000 0.701564
O O6 0.160128 0.652409 0.614995
O O7 0.381173 0.656350 0.663997
O O8 0.234266 0.665287 0.887448
O O9 0.555356 0.447538 0.596523
O O10 0.781809 0.561148 0.424856
O O11 0.914288 0.558213 0.193283
O O12 0.000000 0.500000 0.406102
O O13 0.986498 0.601411 0.454138
O O14 0.908722 0.125752 0.025479
#
# Coordination Sequence:
#
# PCOD9353955 Si02
#       7
#     8   8   4   8   8   8   8
#     4  10  21  37  62  97 133 177 221 282 346 418
#     4  10  23  45  66  95 135 179 229 294 351 407
#     4  10  20  34  62 104 144 174 220 282 366 424
#     4  11  23  40  62  93 135 182 222 273 341 413
#     4  10  21  40  66  94 130 172 235 277 341 412
#     4  10  23  41  64  91 133 174 232 279 335 418
#     4  10  21  39  66 101 140 177 225 290 348 423
#
# _framework density 21.352844999999999
#
# number of rings (size 3 to 8) (size 9 to 14) (size 15 to 20)
#    0.000    1.846    0.000    3.692    0.000   11.077 
#    5.538    3.846    0.000    2.769    0.000    0.000 
#    0.000    0.000    0.000    0.000    0.000    0.000 
#
# Total GULP energy -144885.461163 kJ/mol
# GULP energy per Si atom -5572.517737 kJ/mol
# Density = 2.130424 g / cm^3
# Si number density = 21.352845 Si / 1000 Ang^3
#
#
#
# Elastic Constant Matrix: (Units=GPa)
#
#
# Indices 1 2 3 4 5 6 
#
# 1 83.1350 27.7496 39.4069 0.0000 0.0000 0.0000
# 2 27.7496 118.9488 38.2480 0.0000 0.0000 0.0000
# 3 39.4069 38.2480 158.2694 0.0000 0.0000 0.0000
# 4 0.0000 0.0000 0.0000 15.3524 0.0000 0.0000
# 5 0.0000 0.0000 0.0000 0.0000 46.0382 0.0000
# 6 0.0000 0.0000 0.0000 0.0000 0.0000 17.5187
#
#
#
# Elastic Compliance Matrix: (Units=1/GPa)
#
#
# Indices 1 2 3 4 5 6 
#
# 1 0.014226 -0.002363 -0.002971 0.000000 0.000000 0.000000
# 2 -0.002363 0.009508 -0.001709 0.000000 0.000000 0.000000
# 3 -0.002971 -0.001709 0.007471 0.000000 0.000000 0.000000
# 4 0.000000 0.000000 0.000000 0.065136 0.000000 0.000000
# 5 0.000000 0.000000 0.000000 0.000000 0.021721 0.000000
# 6 0.000000 0.000000 0.000000 0.000000 0.000000 0.057082
#
#
# Mechanical properties :
#
#
# Convention : Reuss Voigt Hill
#
# Bulk Modulus (GPa) = 58.41912 63.46244 60.94078
# Shear Modulus (GPa) = 25.64931 32.77846 29.21388
#
# Velocity S-wave (km/s) = 3.46961 3.92227 3.70286
# Velocity P-wave (km/s) = 6.59312 7.09208 6.84715
#
# Compressibility (1/GPa) = 0.01711768
#
# Stress axis : x y z
#
# Youngs Moduli (GPa) = 70.29514 105.17500 133.84891
#
# Poissons Ratio (x) = 0.24858 0.39765
# Poissons Ratio (y) = 0.16614 0.22878
# Poissons Ratio (z) = 0.20884 0.17977
#
# Static dielectric constant tensor:
#      x y z
#    x 1.885160 0.000000 0.000000 
#    y 0.000000 1.784640 0.000000 
#    z 0.000000 0.000000 1.831560 
# 
# From -- ./inp_files/3006.got.cif
#   From: 2010.05.17/outbox.cif.g08.bks.cpg/sg37_2_cif.got.tgz:3006.got - 2010.06.03 17:53:42.
