data_PCOD9353863
_publ_section_title
;
Structure prediction by ZEFSAII (Michael W. Deem and Ramdas Pophale) SiO2 
 PCOD9353863
Probable space group: C C C 2
;
_chemical_formula_sum "Si O2"
_cell_formula_units_Z 60
_cell_length_a 24.727786
_cell_length_b 11.450858
_cell_length_c 8.967309
_cell_angle_alpha 90.000000
_cell_angle_beta 90.000000
_cell_angle_gamma 90.000000
_cell_volume 2539.132696
_symmetry_space_group_name_H-M "C C C 2"
_symmetry_group_IT_number 37
_symmetry_cell_setting 'orthorhombic'
loop_
_space_group_symop_operation_xyz
x,y,z
-x,-y,z
-x,y,1/2+z
x,-y,1/2+z
1/2+x,1/2+y,z
1/2-x,1/2-y,z
1/2-x,1/2+y,1/2+z
1/2+x,1/2-y,1/2+z
loop_
_atom_site_type_symbol
_atom_site_label
_atom_site_fract_x
_atom_site_fract_y
_atom_site_fract_z
Si Si1 0.250000 0.750000 0.491000
Si Si2 0.580177 0.099616 0.572897
Si Si3 0.633206 0.292728 0.395258
Si Si4 0.097857 0.742719 0.075043
Si Si5 0.704429 0.839505 0.449069
Si Si6 0.511719 0.852971 0.364991
Si Si7 0.540910 0.604642 0.767548
Si Si8 0.804557 0.529032 0.154816
O O1 0.302726 0.699346 0.406942
O O2 0.225653 0.640132 0.582043
O O3 0.608456 0.224756 0.536317
O O4 0.540842 0.081890 0.431568
O O5 0.543232 0.104965 0.718867
O O6 0.633093 0.022182 0.599209
O O7 0.619617 0.220239 0.243251
O O8 0.595158 0.405016 0.368574
O O9 0.065997 0.863698 0.105389
O O10 0.149693 0.733722 0.971052
O O11 0.053049 0.660778 0.002526
O O12 0.750000 0.750000 0.402056
O O13 0.695944 0.941815 0.328579
O O14 0.720700 0.908018 0.599839
O O15 0.489905 0.722647 0.321481
O O16 0.500000 0.500000 0.767233
#
# Coordination Sequence:
#
# PCOD9353863 Si02
#       8
#     4   8   8   8   8   8   8   8
#     4  10  20  46  74 110 148 194 266 318 404 466
#     4  10  19  39  66 101 136 191 242 292 383 450
#     4   8  20  36  64  98 139 195 241 316 372 457
#     4  10  22  40  66  98 141 189 243 309 371 449
#     4  12  28  51  75 115 150 199 263 322 396 473
#     4  11  18  37  66  93 144 190 237 313 361 459
#     4   9  20  37  61  99 139 198 252 301 378 446
#     4  11  26  46  81 104 152 200 253 328 390 469
#
# _framework density 23.630115
#
# number of rings (size 3 to 8) (size 9 to 14) (size 15 to 20)
#    0.800    1.067    3.333    0.000    4.667    0.533 
#    2.400    2.000    2.933    0.000    0.000    0.000 
#    0.000    0.000    0.000    0.000    0.000    0.000 
#
# Total GULP energy -167417.278311 kJ/mol
# GULP energy per Si atom -5580.575944 kJ/mol
# Density = 2.357633 g / cm^3
# Si number density = 23.630115 Si / 1000 Ang^3
#
#
#
# Elastic Constant Matrix: (Units=GPa)
#
#
# Indices 1 2 3 4 5 6 
#
# 1 172.2014 44.2712 56.5651 0.0000 0.0000 0.0000
# 2 44.2712 84.3527 27.6213 0.0000 0.0000 0.0000
# 3 56.5651 27.6213 108.8136 0.0000 0.0000 0.0000
# 4 0.0000 0.0000 0.0000 29.0233 0.0000 0.0000
# 5 0.0000 0.0000 0.0000 0.0000 29.4033 0.0000
# 6 0.0000 0.0000 0.0000 0.0000 0.0000 39.2189
#
#
#
# Elastic Compliance Matrix: (Units=1/GPa)
#
#
# Indices 1 2 3 4 5 6 
#
# 1 0.007620 -0.002947 -0.003213 0.000000 0.000000 0.000000
# 2 -0.002947 0.014070 -0.002039 0.000000 0.000000 0.000000
# 3 -0.003213 -0.002039 0.011378 0.000000 0.000000 0.000000
# 4 0.000000 0.000000 0.000000 0.034455 0.000000 0.000000
# 5 0.000000 0.000000 0.000000 0.000000 0.034010 0.000000
# 6 0.000000 0.000000 0.000000 0.000000 0.000000 0.025498
#
#
# Mechanical properties :
#
#
# Convention : Reuss Voigt Hill
#
# Bulk Modulus (GPa) = 59.99387 69.14257 64.56822
# Shear Modulus (GPa) = 33.56009 35.32310 34.44160
#
# Velocity S-wave (km/s) = 3.77268 3.87050 3.82190
# Velocity P-wave (km/s) = 6.66493 7.02127 6.84542
#
# Compressibility (1/GPa) = 0.01666837
#
# Stress axis : x y z
#
# Youngs Moduli (GPa) = 131.22777 71.07526 87.88874
#
# Poissons Ratio (x) = 0.20948 0.28240
# Poissons Ratio (y) = 0.38676 0.17924
# Poissons Ratio (z) = 0.42166 0.14495
#
# Static dielectric constant tensor:
#      x y z
#    x 1.891870 0.000000 0.000000 
#    y 0.000000 1.943130 0.000000 
#    z 0.000000 0.000000 1.927470 
# 
# From -- ./inp_files/4801.got.cif
#   From: 2010.05.17/outbox.cif.g08.bks.cpg/sg37_3_cif.got.tgz:4801.got - 2010.06.03 17:53:42.
