data_PCOD9353301
_publ_section_title
;
Structure prediction by ZEFSAII (Michael W. Deem and Ramdas Pophale) SiO2 
 PCOD9353301
Probable space group: C M C 21
;
_chemical_formula_sum "Si O2"
_cell_formula_units_Z 32
_cell_length_a 9.000000
_cell_length_b 21.000000
_cell_length_c 18.000000
_cell_angle_alpha 90.000000
_cell_angle_beta 90.000000
_cell_angle_gamma 90.000000
_cell_volume 3402.000000
_symmetry_space_group_name_H-M "C M C 21"
_symmetry_group_IT_number 36
_symmetry_cell_setting 'orthorhombic'
loop_
_space_group_symop_operation_xyz
x,y,z
-x,-y,1/2+z
x,-y,1/2+z
-x,y,z
1/2+x,1/2+y,z
1/2-x,1/2-y,1/2+z
1/2+x,1/2-y,1/2+z
1/2-x,1/2+y,z
loop_
_atom_site_type_symbol
_atom_site_label
_atom_site_fract_x
_atom_site_fract_y
_atom_site_fract_z
Si Si1 0.320654 0.950354 0.541240
Si Si2 0.821185 0.885446 0.247937
Si Si3 0.680107 0.363090 0.811319
Si Si4 0.180464 0.174119 0.589894
Si Si5 0.179870 0.930718 0.966051
Si Si6 0.178822 0.721318 0.846896
Si Si7 0.320494 0.803310 0.518105
Si Si8 0.319872 0.473772 0.700314
O O1 0.500000 0.952381 0.539002
O O2 0.271169 0.876415 0.530067
O O3 0.258515 0.972937 0.620819
O O4 0.254435 0.001332 0.482923
O O5 0.776301 0.852990 0.169752
O O6 0.748118 0.841197 0.309925
O O7 0.000000 0.882009 0.254869
O O8 0.782504 0.960539 0.243693
O O9 0.500000 0.360262 0.810267
O O10 0.720367 0.399645 0.887226
O O11 0.731248 0.289411 0.813040
O O12 0.724621 0.409789 0.744469
O O13 0.223001 0.121827 0.528092
O O14 0.233519 0.245895 0.571491
O O15 0.000000 0.176171 0.588147
O O16 0.000000 0.938320 0.968698
O O17 0.212886 0.719397 0.934500
O O18 0.000000 0.718581 0.839021
O O19 0.500000 0.805225 0.525305
O O20 0.500000 0.473955 0.690680
#
# Coordination Sequence:
#
# PCOD9353301 Si02
#       8
#     8   8   8   8   8   8   8   8
#     4  11  23  36  54  83 114 144 181 229 278 328
#     4  10  21  35  55  82 111 143 181 225 272 325
#     4   9  19  35  60  85 107 142 190 231 270 324
#     4   9  16  33  58  77  99 142 188 219 260 324
#     4  10  18  36  63  82 102 143 189 230 271 321
#     4  10  20  37  58  81 110 145 182 223 271 328
#     4   9  19  35  55  78 108 144 185 222 265 330
#     4  10  21  39  57  80 111 145 186 229 271 326
#
# _framework density 9.4062319999999993
#
# number of rings (size 3 to 8) (size 9 to 14) (size 15 to 20)
#    0.000    2.250    2.500    0.375    3.500    0.500 
#    0.000    1.875    0.000    2.250    0.000    0.000 
#    0.000    0.000    0.000    0.000    0.000    0.000 
#
# Total GULP energy -178495.197042 kJ/mol
# GULP energy per Si atom -5577.974908 kJ/mol
# Density = 0.938482 g / cm^3
# Si number density = 9.406232 Si / 1000 Ang^3
#
#
#
# Elastic Constant Matrix: (Units=GPa)
#
#
# Indices 1 2 3 4 5 6 
#
# 1 15.2568 16.2082 4.6848 0.0000 0.0000 0.0000
# 2 16.2082 141.3788 -0.6600 0.0000 0.0000 0.0000
# 3 4.6848 -0.6600 20.6423 0.0000 0.0000 0.0000
# 4 0.0000 0.0000 0.0000 41.0994 0.0000 0.0000
# 5 0.0000 0.0000 0.0000 0.0000 15.9389 0.0000
# 6 0.0000 0.0000 0.0000 0.0000 0.0000 25.9792
#
#
#
# Elastic Compliance Matrix: (Units=1/GPa)
#
#
# Indices 1 2 3 4 5 6 
#
# 1 0.081297 -0.009408 -0.018751 0.000000 0.000000 0.000000
# 2 -0.009408 0.008163 0.002396 0.000000 0.000000 0.000000
# 3 -0.018751 0.002396 0.052776 0.000000 0.000000 0.000000
# 4 0.000000 0.000000 0.000000 0.024331 0.000000 0.000000
# 5 0.000000 0.000000 0.000000 0.000000 0.062740 0.000000
# 6 0.000000 0.000000 0.000000 0.000000 0.000000 0.038492
#
#
# Mechanical properties :
#
#
# Convention : Reuss Voigt Hill
#
# Bulk Modulus (GPa) = 11.02409 24.19378 17.60894
# Shear Modulus (GPa) = 14.30361 27.07314 20.68838
#
# Velocity S-wave (km/s) = 2.76039 3.79767 3.31979
# Velocity P-wave (km/s) = 4.00405 5.66729 4.90666
#
# Compressibility (1/GPa) = 0.09071043
#
# Stress axis : x y z
#
# Youngs Moduli (GPa) = 12.30060 122.50516 18.94787
#
# Poissons Ratio (x) = 1.15250 0.35530
# Poissons Ratio (y) = 0.11572 -0.04540
# Poissons Ratio (z) = 0.23065 -0.29353
#
# Static dielectric constant tensor:
#      x y z
#    x 1.630770 0.000000 0.000000 
#    y 0.000000 1.659680 0.000000 
#    z 0.000000 0.000000 1.671030 
# 
# From -- ./inp_files/13877.got.cif
#   From: 2010.05.17/outbox.ucp.g08.bks.cvg/sg36_7_cif.got.tgz:13877.got - 2010.06.11 10:37:26.
