data_PCOD9353632
_publ_section_title
;
Structure prediction by ZEFSAII (Michael W. Deem and Ramdas Pophale) SiO2 
 PCOD9353632
Probable space group: C C C 2
;
_chemical_formula_sum "Si O2"
_cell_formula_units_Z 60
_cell_length_a 8.108116
_cell_length_b 24.024327
_cell_length_c 16.933844
_cell_angle_alpha 90.000000
_cell_angle_beta 90.000000
_cell_angle_gamma 90.000000
_cell_volume 3298.577851
_symmetry_space_group_name_H-M "C C C 2"
_symmetry_group_IT_number 37
_symmetry_cell_setting 'orthorhombic'
loop_
_space_group_symop_operation_xyz
x,y,z
-x,-y,z
-x,y,1/2+z
x,-y,1/2+z
1/2+x,1/2+y,z
1/2-x,1/2-y,z
1/2-x,1/2+y,1/2+z
1/2+x,1/2-y,1/2+z
loop_
_atom_site_type_symbol
_atom_site_label
_atom_site_fract_x
_atom_site_fract_y
_atom_site_fract_z
Si Si1 0.225607 0.111473 0.544630
Si Si2 0.588337 0.787707 0.481123
Si Si3 0.608421 0.880397 0.712426
Si Si4 0.307735 0.190795 0.859242
Si Si5 0.000000 0.500000 0.178697
Si Si6 0.691333 0.489730 0.560992
Si Si7 0.635954 0.798000 0.125841
Si Si8 0.646304 0.368110 0.507152
O O1 0.357770 0.149719 0.502372
O O2 0.265784 0.114502 0.638169
O O3 0.232940 0.047561 0.517863
O O4 0.046424 0.134626 0.525249
O O5 0.750000 0.750000 0.472724
O O6 0.476662 0.792977 0.404186
O O7 0.479930 0.770177 0.557745
O O8 0.680828 0.854694 0.791398
O O9 0.472327 0.835377 0.683874
O O10 0.539206 0.942729 0.723798
O O11 0.250000 0.250000 0.825659
O O12 0.193248 0.165275 0.928418
O O13 0.837257 0.514148 0.125737
O O14 0.500000 0.500000 0.590459
O O15 0.690627 0.433853 0.509224
O O16 0.750000 0.750000 0.162459
O O17 0.751494 0.840022 0.077355
#
# Coordination Sequence:
#
# PCOD9353632 Si02
#       8
#     8   8   8   8   4   8   8   8
#     4   9  19  35  62  86 108 147 201 245 287 348
#     4  10  19  35  55  80 113 151 200 242 293 350
#     4  10  22  38  57  87 118 158 196 239 303 359
#     4  11  24  38  53  82 123 158 191 239 302 356
#     4  10  18  40  62  86 124 154 196 256 294 358
#     4   9  18  32  62  92 114 144 199 248 297 346
#     4  10  19  32  56  87 108 145 201 244 285 344
#     4  10  18  37  59  84 115 151 191 247 293 343
#
# _framework density 18.189654999999998
#
# number of rings (size 3 to 8) (size 9 to 14) (size 15 to 20)
#    0.000    2.133    1.333    3.200    1.867    3.733 
#    2.400    1.333    0.000    4.000    0.000    0.000 
#    0.000    0.000    0.000    0.000    0.000    0.000 
#
# Total GULP energy -167195.910864 kJ/mol
# GULP energy per Si atom -5573.197029 kJ/mol
# Density = 1.814826 g / cm^3
# Si number density = 18.189655 Si / 1000 Ang^3
#
#
#
# Elastic Constant Matrix: (Units=GPa)
#
#
# Indices 1 2 3 4 5 6 
#
# 1 64.3169 31.6747 6.2891 0.0000 0.0000 0.0000
# 2 31.6747 122.0385 23.4554 0.0000 0.0000 0.0000
# 3 6.2891 23.4554 34.6760 0.0000 0.0000 0.0000
# 4 0.0000 0.0000 0.0000 13.1120 0.0000 0.0000
# 5 0.0000 0.0000 0.0000 0.0000 7.3426 0.0000
# 6 0.0000 0.0000 0.0000 0.0000 0.0000 38.5643
#
#
#
# Elastic Compliance Matrix: (Units=1/GPa)
#
#
# Indices 1 2 3 4 5 6 
#
# 1 0.017827 -0.004604 -0.000119 0.000000 0.000000 0.000000
# 2 -0.004604 0.010608 -0.006340 0.000000 0.000000 0.000000
# 3 -0.000119 -0.006340 0.033149 0.000000 0.000000 0.000000
# 4 0.000000 0.000000 0.000000 0.076266 0.000000 0.000000
# 5 0.000000 0.000000 0.000000 0.000000 0.136192 0.000000
# 6 0.000000 0.000000 0.000000 0.000000 0.000000 0.025931
#
#
# Mechanical properties :
#
#
# Convention : Reuss Voigt Hill
#
# Bulk Modulus (GPa) = 25.34417 38.20776 31.77596
# Shear Modulus (GPa) = 14.91419 22.44457 18.67938
#
# Velocity S-wave (km/s) = 2.86654 3.51653 3.20804
# Velocity P-wave (km/s) = 4.99196 6.12689 5.58831
#
# Compressibility (1/GPa) = 0.03945681
#
# Stress axis : x y z
#
# Youngs Moduli (GPa) = 56.09444 94.27135 30.16724
#
# Poissons Ratio (x) = 0.43403 0.00359
# Poissons Ratio (y) = 0.25826 0.19127
# Poissons Ratio (z) = 0.00667 0.59770
#
# Static dielectric constant tensor:
#      x y z
#    x 1.662730 0.000000 0.000000 
#    y 0.000000 1.656460 0.000000 
#    z 0.000000 0.000000 1.577520 
# 
# From -- ./inp_files/10955.got.cif
#   From: 2010.05.17/outbox.cif.g08.bks.cpg/sg37_6_cif.got.tgz:10955.got - 2010.06.03 17:53:42.
