data_PCOD9353786
_publ_section_title
;
Structure prediction by ZEFSAII (Michael W. Deem and Ramdas Pophale) SiO2 
 PCOD9353786
Probable space group: C C C 2
;
_chemical_formula_sum "Si O2"
_cell_formula_units_Z 44
_cell_length_a 11.153064
_cell_length_b 10.809312
_cell_length_c 14.386279
_cell_angle_alpha 90.000000
_cell_angle_beta 90.000000
_cell_angle_gamma 90.000000
_cell_volume 1734.365897
_symmetry_space_group_name_H-M "C C C 2"
_symmetry_group_IT_number 37
_symmetry_cell_setting 'orthorhombic'
loop_
_space_group_symop_operation_xyz
x,y,z
-x,-y,z
-x,y,1/2+z
x,-y,1/2+z
1/2+x,1/2+y,z
1/2-x,1/2-y,z
1/2-x,1/2+y,1/2+z
1/2+x,1/2-y,1/2+z
loop_
_atom_site_type_symbol
_atom_site_label
_atom_site_fract_x
_atom_site_fract_y
_atom_site_fract_z
Si Si1 0.828694 0.130293 0.244440
Si Si2 0.375384 0.073932 0.288678
Si Si3 0.900051 0.600591 0.087586
Si Si4 0.390070 0.296011 0.937581
Si Si5 0.351995 0.465554 0.550429
Si Si6 0.750000 0.750000 0.430500
O O1 0.750000 0.250000 0.215954
O O2 0.913703 0.172436 0.329766
O O3 0.891218 0.077396 0.152853
O O4 0.732083 0.027557 0.279584
O O5 0.383597 0.151423 0.192009
O O6 0.337485 0.166575 0.368533
O O7 0.500000 0.000000 0.305832
O O8 0.779241 0.527825 0.065140
O O9 0.000000 0.500000 0.099876
O O10 0.938199 0.689389 0.004635
O O11 0.250000 0.250000 0.932415
O O12 0.411041 0.420369 0.996063
O O13 0.328605 0.344794 0.489735
#
# Coordination Sequence:
#
# PCOD9353786 Si02
#       6
#     8   8   8   8   8   4
#     4  10  19  36  59  88 127 172 225 274 334 409
#     4  10  23  40  65  99 129 172 229 288 345 412
#     4   9  20  38  63  96 127 165 225 289 341 405
#     4   9  18  33  56  92 120 169 222 263 339 406
#     4  10  20  34  58  91 125 174 221 266 338 413
#     4  12  22  38  62  96 138 174 224 280 344 424
#
# _framework density 25.369505
#
# number of rings (size 3 to 8) (size 9 to 14) (size 15 to 20)
#    0.000    2.182    2.727    0.000    6.364    0.727 
#    0.000    0.000    0.000    5.455    0.000    0.000 
#    0.000    0.000    0.000    0.000    0.000    0.000 
#
# Total GULP energy -123155.374992 kJ/mol
# GULP energy per Si atom -5597.971591 kJ/mol
# Density = 2.531176 g / cm^3
# Si number density = 25.369505 Si / 1000 Ang^3
#
#
#
# Elastic Constant Matrix: (Units=GPa)
#
#
# Indices 1 2 3 4 5 6 
#
# 1 59.6380 21.1779 38.0640 0.0000 0.0000 0.0000
# 2 21.1779 129.1974 103.6960 0.0000 0.0000 0.0000
# 3 38.0640 103.6960 218.0352 0.0000 0.0000 0.0000
# 4 0.0000 0.0000 0.0000 21.4785 0.0000 0.0000
# 5 0.0000 0.0000 0.0000 0.0000 19.3591 0.0000
# 6 0.0000 0.0000 0.0000 0.0000 0.0000 30.5184
#
#
#
# Elastic Compliance Matrix: (Units=1/GPa)
#
#
# Indices 1 2 3 4 5 6 
#
# 1 0.018913 -0.000728 -0.002955 0.000000 0.000000 0.000000
# 2 -0.000728 0.012547 -0.005840 0.000000 0.000000 0.000000
# 3 -0.002955 -0.005840 0.007880 0.000000 0.000000 0.000000
# 4 0.000000 0.000000 0.000000 0.046558 0.000000 0.000000
# 5 0.000000 0.000000 0.000000 0.000000 0.051655 0.000000
# 6 0.000000 0.000000 0.000000 0.000000 0.000000 0.032767
#
#
# Mechanical properties :
#
#
# Convention : Reuss Voigt Hill
#
# Bulk Modulus (GPa) = 49.28002 81.41626 65.34814
# Shear Modulus (GPa) = 25.49315 30.53337 28.01326
#
# Velocity S-wave (km/s) = 3.17341 3.47298 3.32657
# Velocity P-wave (km/s) = 5.73537 6.94579 6.36940
#
# Compressibility (1/GPa) = 0.02029220
#
# Stress axis : x y z
#
# Youngs Moduli (GPa) = 52.87447 79.70194 126.90586
#
# Poissons Ratio (x) = 0.05803 0.37507
# Poissons Ratio (y) = 0.03849 0.74114
# Poissons Ratio (z) = 0.15627 0.46546
#
# Static dielectric constant tensor:
#      x y z
#    x 1.939640 0.000000 0.000000 
#    y 0.000000 1.913490 0.000000 
#    z 0.000000 0.000000 2.027170 
# 
# From -- ./inp_files/12057.got.cif
#   From: 2010.05.17/outbox.cif.g08.bks.cpg/sg37_7_cif.got.tgz:12057.got - 2010.06.03 17:53:42.
