data_PCOD9353444
_publ_section_title
;
Structure prediction by ZEFSAII (Michael W. Deem and Ramdas Pophale) SiO2 
 PCOD9353444
Probable space group: C C C 2
;
_chemical_formula_sum "Si O2"
_cell_formula_units_Z 52
_cell_length_a 17.188185
_cell_length_b 12.146094
_cell_length_c 14.108028
_cell_angle_alpha 90.000000
_cell_angle_beta 90.000000
_cell_angle_gamma 90.000000
_cell_volume 2945.323281
_symmetry_space_group_name_H-M "C C C 2"
_symmetry_group_IT_number 37
_symmetry_cell_setting 'orthorhombic'
loop_
_space_group_symop_operation_xyz
x,y,z
-x,-y,z
-x,y,1/2+z
x,-y,1/2+z
1/2+x,1/2+y,z
1/2-x,1/2-y,z
1/2-x,1/2+y,1/2+z
1/2+x,1/2-y,1/2+z
loop_
_atom_site_type_symbol
_atom_site_label
_atom_site_fract_x
_atom_site_fract_y
_atom_site_fract_z
Si Si1 0.339327 0.277511 0.201890
Si Si2 0.500000 0.000000 0.432462
Si Si3 0.904151 0.326216 0.522532
Si Si4 0.656804 0.084031 0.844783
Si Si5 0.175610 0.830171 0.385877
Si Si6 0.238614 0.499564 0.515244
Si Si7 0.791522 0.979107 0.723019
O O1 0.250000 0.250000 0.168797
O O2 0.397317 0.242915 0.118514
O O3 0.352389 0.199338 0.291797
O O4 0.338573 0.406033 0.224428
O O5 0.479553 0.897115 0.499538
O O6 0.574802 0.971532 0.369081
O O7 0.889157 0.245447 0.433927
O O8 0.833389 0.415268 0.530796
O O9 0.710239 0.006639 0.777556
O O10 0.705212 0.090094 0.942445
O O11 0.250000 0.750000 0.379028
O O12 0.165537 0.886072 0.283842
O O13 0.197520 0.927382 0.459748
O O14 0.270615 0.455941 0.614233
#
# Coordination Sequence:
#
# PCOD9353444 Si02
#       7
#     8   4   8   8   8   8   8
#     4  10  16  30  53  78 103 136 182 227 277 315
#     4  10  22  32  48  78 116 144 180 210 266 332
#     4  10  16  31  51  74 106 147 177 215 265 327
#     4   9  19  30  47  79 109 140 176 220 265 322
#     4   9  17  29  50  76 108 137 175 221 269 320
#     4   9  15  29  49  76 107 135 173 220 270 314
#     4  10  17  30  54  79 103 141 178 225 277 322
#
# _framework density 17.655107000000001
#
# number of rings (size 3 to 8) (size 9 to 14) (size 15 to 20)
#    0.000    2.462    4.615    1.385    0.000    0.615 
#    0.000    3.846    0.000    0.923    0.000    2.154 
#    0.000    0.000    0.000    0.000    0.000    0.000 
#
# Total GULP energy -144833.674488 kJ/mol
# GULP energy per Si atom -5570.525942 kJ/mol
# Density = 1.761492 g / cm^3
# Si number density = 17.655107 Si / 1000 Ang^3
#
#
#
# Elastic Constant Matrix: (Units=GPa)
#
#
# Indices 1 2 3 4 5 6 
#
# 1 33.5015 25.0880 21.4822 0.0000 0.0000 0.0000
# 2 25.0880 76.2438 61.9132 0.0000 0.0000 0.0000
# 3 21.4822 61.9132 141.7255 0.0000 0.0000 0.0000
# 4 0.0000 0.0000 0.0000 34.7113 0.0000 0.0000
# 5 0.0000 0.0000 0.0000 0.0000 9.8670 0.0000
# 6 0.0000 0.0000 0.0000 0.0000 0.0000 13.7172
#
#
#
# Elastic Compliance Matrix: (Units=1/GPa)
#
#
# Indices 1 2 3 4 5 6 
#
# 1 0.039631 -0.012650 -0.000481 0.000000 0.000000 0.000000
# 2 -0.012650 0.024364 -0.008726 0.000000 0.000000 0.000000
# 3 -0.000481 -0.008726 0.010941 0.000000 0.000000 0.000000
# 4 0.000000 0.000000 0.000000 0.028809 0.000000 0.000000
# 5 0.000000 0.000000 0.000000 0.000000 0.101348 0.000000
# 6 0.000000 0.000000 0.000000 0.000000 0.000000 0.072901
#
#
# Mechanical properties :
#
#
# Convention : Reuss Voigt Hill
#
# Bulk Modulus (GPa) = 32.02885 52.04862 42.03873
# Shear Modulus (GPa) = 15.05497 21.19159 18.12328
#
# Velocity S-wave (km/s) = 2.92332 3.46831 3.20741
# Velocity P-wave (km/s) = 5.43830 6.75157 6.13020
#
# Compressibility (1/GPa) = 0.03122186
#
# Stress axis : x y z
#
# Youngs Moduli (GPa) = 25.23287 41.04353 91.40049
#
# Poissons Ratio (x) = 0.51920 0.04395
# Poissons Ratio (y) = 0.31920 0.79758
# Poissons Ratio (z) = 0.01213 0.35815
#
# Static dielectric constant tensor:
#      x y z
#    x 1.603450 0.000000 0.000000 
#    y 0.000000 1.625640 0.000000 
#    z 0.000000 0.000000 1.636150 
# 
# From -- ./inp_files/11708.got.cif
#   From: 2010.05.17/outbox.cif.g08.bks.cpg/sg37_6_cif.got.tgz:11708.got - 2010.06.03 17:53:42.
