data_PCOD9353468
_publ_section_title
;
Structure prediction by ZEFSAII (Michael W. Deem and Ramdas Pophale) SiO2 
 PCOD9353468
Probable space group: C C C 2
;
_chemical_formula_sum "Si O2"
_cell_formula_units_Z 56
_cell_length_a 20.804954
_cell_length_b 15.633677
_cell_length_c 8.549060
_cell_angle_alpha 90.000000
_cell_angle_beta 90.000000
_cell_angle_gamma 90.000000
_cell_volume 2780.649566
_symmetry_space_group_name_H-M "C C C 2"
_symmetry_group_IT_number 37
_symmetry_cell_setting 'orthorhombic'
loop_
_space_group_symop_operation_xyz
x,y,z
-x,-y,z
-x,y,1/2+z
x,-y,1/2+z
1/2+x,1/2+y,z
1/2-x,1/2-y,z
1/2-x,1/2+y,1/2+z
1/2+x,1/2-y,1/2+z
loop_
_atom_site_type_symbol
_atom_site_label
_atom_site_fract_x
_atom_site_fract_y
_atom_site_fract_z
Si Si1 0.073158 0.088680 0.829760
Si Si2 0.815431 0.572949 0.098858
Si Si3 0.593168 0.777142 0.171578
Si Si4 0.041718 0.721440 0.318836
Si Si5 0.000000 0.000000 0.576041
Si Si6 0.345016 0.109786 0.734282
Si Si7 0.250000 0.250000 0.792853
Si Si8 0.177956 0.132991 0.043157
O O1 0.067806 0.185038 0.769810
O O2 0.136599 0.071849 0.930375
O O3 0.058019 0.025016 0.689838
O O4 0.017559 0.076741 0.960466
O O5 0.856836 0.644902 0.189180
O O6 0.835607 0.477520 0.142163
O O7 0.739473 0.590007 0.121382
O O8 0.829467 0.588676 0.915819
O O9 0.534169 0.780791 0.290475
O O10 0.632270 0.687665 0.158471
O O11 0.559765 0.786811 0.001113
O O12 0.083820 0.650155 0.229411
O O13 0.292390 0.183044 0.695597
O O14 0.203627 0.201406 0.914910
#
# Coordination Sequence:
#
# PCOD9353468 Si02
#       8
#     8   8   8   8   4   8   4   8
#     4  10  19  35  55  83 117 152 190 234 289 349
#     4  10  21  37  61  88 114 150 199 241 285 338
#     4  10  19  36  61  85 117 156 192 235 285 352
#     4  10  20  36  59  84 113 160 191 225 294 353
#     4  10  22  34  52  86 124 144 188 248 286 340
#     4  10  21  38  62  84 116 152 194 240 283 348
#     4  10  16  38  62  76 108 156 194 222 286 352
#     4  10  17  36  63  82 111 156 193 227 291 351
#
# _framework density 20.139178999999999
#
# number of rings (size 3 to 8) (size 9 to 14) (size 15 to 20)
#    0.000    2.000    5.714    1.714    0.000    4.000 
#    0.000    2.857    6.286    0.000    0.000    0.000 
#    0.000    0.000    0.000    0.000    0.000    0.000 
#
# Total GULP energy -156126.236355 kJ/mol
# GULP energy per Si atom -5575.937013 kJ/mol
# Density = 2.009334 g / cm^3
# Si number density = 20.139179 Si / 1000 Ang^3
#
#
#
# Elastic Constant Matrix: (Units=GPa)
#
#
# Indices 1 2 3 4 5 6 
#
# 1 114.3793 31.2021 22.2809 0.0000 0.0000 0.0000
# 2 31.2021 90.4935 19.9025 0.0000 0.0000 0.0000
# 3 22.2809 19.9025 24.6453 0.0000 0.0000 0.0000
# 4 0.0000 0.0000 0.0000 23.4393 0.0000 0.0000
# 5 0.0000 0.0000 0.0000 0.0000 23.3679 0.0000
# 6 0.0000 0.0000 0.0000 0.0000 0.0000 31.7641
#
#
#
# Elastic Compliance Matrix: (Units=1/GPa)
#
#
# Indices 1 2 3 4 5 6 
#
# 1 0.010882 -0.001932 -0.008279 0.000000 0.000000 0.000000
# 2 -0.001932 0.013780 -0.009382 0.000000 0.000000 0.000000
# 3 -0.008279 -0.009382 0.055636 0.000000 0.000000 0.000000
# 4 0.000000 0.000000 0.000000 0.042663 0.000000 0.000000
# 5 0.000000 0.000000 0.000000 0.000000 0.042794 0.000000
# 6 0.000000 0.000000 0.000000 0.000000 0.000000 0.031482
#
#
# Mechanical properties :
#
#
# Convention : Reuss Voigt Hill
#
# Bulk Modulus (GPa) = 24.32213 41.80989 33.06601
# Shear Modulus (GPa) = 19.98987 26.12310 23.05649
#
# Velocity S-wave (km/s) = 3.15395 3.60547 3.38724
# Velocity P-wave (km/s) = 5.03651 6.17561 5.63492
#
# Compressibility (1/GPa) = 0.04111482
#
# Stress axis : x y z
#
# Youngs Moduli (GPa) = 91.89159 72.56957 17.97386
#
# Poissons Ratio (x) = 0.14017 0.14880
# Poissons Ratio (y) = 0.17749 0.16863
# Poissons Ratio (z) = 0.76073 0.68084
#
# Static dielectric constant tensor:
#      x y z
#    x 1.846860 0.000000 0.000000 
#    y 0.000000 1.753700 0.000000 
#    z 0.000000 0.000000 1.699420 
# 
# From -- ./inp_files/4144.got.cif
#   From: 2010.05.17/outbox.cif.g08.bks.cpg/sg37_3_cif.got.tgz:4144.got - 2010.06.03 17:53:42.
