data_PCOD9353001
_publ_section_title
;
Structure prediction by ZEFSAII (Michael W. Deem and Ramdas Pophale) SiO2 
 PCOD9353001
Probable space group: C M C 21
;
_chemical_formula_sum "Si O2"
_cell_formula_units_Z 48
_cell_length_a 18.939902
_cell_length_b 7.182107
_cell_length_c 16.089668
_cell_angle_alpha 90.000000
_cell_angle_beta 90.000000
_cell_angle_gamma 90.000000
_cell_volume 2188.651839
_symmetry_space_group_name_H-M "C M C 21"
_symmetry_group_IT_number 36
_symmetry_cell_setting 'orthorhombic'
loop_
_space_group_symop_operation_xyz
x,y,z
-x,-y,1/2+z
x,-y,1/2+z
-x,y,z
1/2+x,1/2+y,z
1/2-x,1/2-y,1/2+z
1/2+x,1/2-y,1/2+z
1/2-x,1/2+y,z
loop_
_atom_site_type_symbol
_atom_site_label
_atom_site_fract_x
_atom_site_fract_y
_atom_site_fract_z
Si Si1 0.110908 0.307393 0.466200
Si Si2 0.000000 0.003944 0.025618
Si Si3 0.648950 0.395542 0.802358
Si Si4 0.350860 0.812707 0.639926
Si Si5 0.746848 0.102554 0.724342
Si Si6 0.500000 0.879558 0.913605
Si Si7 0.000000 0.146344 0.216458
Si Si8 0.500000 0.100379 0.217796
O O1 0.147684 0.217188 0.387342
O O2 0.154551 0.374761 0.545238
O O3 0.064990 0.483298 0.436152
O O4 0.064826 0.134015 0.503210
O O5 0.000000 0.072074 0.121586
O O6 0.000000 0.188639 0.966823
O O7 0.692932 0.270575 0.738230
O O8 0.700270 0.574132 0.802971
O O9 0.569788 0.416895 0.767458
O O10 0.305047 0.626902 0.651611
O O11 0.431169 0.822060 0.670822
O O12 0.309107 0.945105 0.702379
O O13 0.500000 0.844884 0.814751
O O14 0.000000 0.373553 0.214174
#
# Coordination Sequence:
#
# PCOD9353001 Si02
#       8
#     8   4   8   8   8   4   4   4
#     4  11  23  44  63 102 136 174 226 285 329 401
#     4  11  25  38  66 107 135 171 223 285 345 389
#     4  11  23  43  67  93 135 174 225 277 334 402
#     4  11  23  42  67  96 133 174 228 271 338 402
#     4  10  24  42  64  96 131 182 218 273 342 405
#     4  11  23  41  65 102 143 165 220 288 344 390
#     4  12  20  42  68  96 130 181 223 278 336 401
#     4  12  22  41  73  97 128 187 220 279 341 398
#
# _framework density 21.931308000000001
#
# number of rings (size 3 to 8) (size 9 to 14) (size 15 to 20)
#    0.000    1.000    3.333    3.500    2.333    2.000 
#    0.000    0.000    0.000    0.000    0.000    0.000 
#    0.000    0.000    0.000    0.000    0.000    0.000 
#
# Total GULP energy -133853.064736 kJ/mol
# GULP energy per Si atom -5577.211031 kJ/mol
# Density = 2.188139 g / cm^3
# Si number density = 21.931308 Si / 1000 Ang^3
#
#
#
# Elastic Constant Matrix: (Units=GPa)
#
#
# Indices 1 2 3 4 5 6 
#
# 1 144.9347 22.3813 22.8449 0.0000 0.0000 0.0000
# 2 22.3813 82.9025 13.9868 0.0000 0.0000 0.0000
# 3 22.8449 13.9868 92.7068 0.0000 0.0000 0.0000
# 4 0.0000 0.0000 0.0000 33.6797 0.0000 0.0000
# 5 0.0000 0.0000 0.0000 0.0000 6.0200 0.0000
# 6 0.0000 0.0000 0.0000 0.0000 0.0000 19.7117
#
#
#
# Elastic Compliance Matrix: (Units=1/GPa)
#
#
# Indices 1 2 3 4 5 6 
#
# 1 0.007415 -0.001738 -0.001565 0.000000 0.000000 0.000000
# 2 -0.001738 0.012785 -0.001501 0.000000 0.000000 0.000000
# 3 -0.001565 -0.001501 0.011399 0.000000 0.000000 0.000000
# 4 0.000000 0.000000 0.000000 0.029692 0.000000 0.000000
# 5 0.000000 0.000000 0.000000 0.000000 0.166114 0.000000
# 6 0.000000 0.000000 0.000000 0.000000 0.000000 0.050731
#
#
# Mechanical properties :
#
#
# Convention : Reuss Voigt Hill
#
# Bulk Modulus (GPa) = 45.47218 48.77444 47.12331
# Shear Modulus (GPa) = 16.94504 29.30433 23.12469
#
# Velocity S-wave (km/s) = 2.78266 3.65935 3.25070
# Velocity P-wave (km/s) = 5.57702 6.33580 5.96848
#
# Compressibility (1/GPa) = 0.02199147
#
# Stress axis : x y z
#
# Youngs Moduli (GPa) = 134.86767 78.21863 87.72901
#
# Poissons Ratio (x) = 0.13592 0.13729
# Poissons Ratio (y) = 0.23436 0.13165
# Poissons Ratio (z) = 0.21106 0.11738
#
# Static dielectric constant tensor:
#      x y z
#    x 1.782020 0.000000 0.000000 
#    y 0.000000 2.279760 0.000000 
#    z 0.000000 0.000000 1.899140 
# 
# From -- ./inp_files/14840.got.cif
#   From: 2010.05.17/outbox.cif.g08.bks.cpg/sg36_8_cif.got.tgz:14840.got - 2010.06.03 17:41:39.
