data_PCOD9353464
_publ_section_title
;
Structure prediction by ZEFSAII (Michael W. Deem and Ramdas Pophale) SiO2 
 PCOD9353464
Probable space group: C C C 2
;
_chemical_formula_sum "Si O2"
_cell_formula_units_Z 60
_cell_length_a 29.421160
_cell_length_b 14.774603
_cell_length_c 5.659782
_cell_angle_alpha 90.000000
_cell_angle_beta 90.000000
_cell_angle_gamma 90.000000
_cell_volume 2460.227765
_symmetry_space_group_name_H-M "C C C 2"
_symmetry_group_IT_number 37
_symmetry_cell_setting 'orthorhombic'
loop_
_space_group_symop_operation_xyz
x,y,z
-x,-y,z
-x,y,1/2+z
x,-y,1/2+z
1/2+x,1/2+y,z
1/2-x,1/2-y,z
1/2-x,1/2+y,1/2+z
1/2+x,1/2-y,1/2+z
loop_
_atom_site_type_symbol
_atom_site_label
_atom_site_fract_x
_atom_site_fract_y
_atom_site_fract_z
Si Si1 0.125640 0.014436 0.252820
Si Si2 0.610970 0.298788 0.857239
Si Si3 0.982265 0.394793 0.355686
Si Si4 0.824342 0.309688 0.576149
Si Si5 0.016093 0.892135 0.710465
Si Si6 0.620802 0.947171 0.825174
Si Si7 0.323784 0.663245 0.215990
Si Si8 0.750000 0.250000 0.883900
O O1 0.141779 0.115984 0.271979
O O2 0.100101 0.995947 0.502264
O O3 0.165709 0.941830 0.248814
O O4 0.629489 0.210704 0.726975
O O5 0.563167 0.343881 0.797730
O O6 0.626702 0.296400 0.128670
O O7 0.928085 0.398108 0.340284
O O8 0.000000 0.500000 0.359841
O O9 0.001550 0.355207 0.108558
O O10 0.836863 0.382186 0.379335
O O11 0.811495 0.217546 0.446505
O O12 0.781894 0.321900 0.745764
O O13 0.013507 0.861366 0.437353
O O14 0.000000 0.000000 0.696052
O O15 0.622007 0.011353 0.060857
O O16 0.285098 0.692210 0.037146
#
# Coordination Sequence:
#
# PCOD9353464 Si02
#       8
#     8   8   8   8   8   8   8   4
#     4  10  20  35  66  99 127 166 229 276 318 409
#     4  10  23  41  67 102 138 187 245 278 352 403
#     4  10  16  35  64  96 131 174 218 268 343 401
#     4  11  25  46  74  98 140 186 228 301 360 429
#     4  10  24  36  60  94 143 197 232 286 337 391
#     4  12  25  43  72 107 138 183 238 288 357 423
#     4  10  22  41  73  95 133 181 226 289 350 427
#     4  10  24  48  68 102 138 186 220 286 386 414
#
# _framework density 24.387988
#
# number of rings (size 3 to 8) (size 9 to 14) (size 15 to 20)
#    0.000    1.600    4.000    0.400   13.067    0.000 
#    0.000    5.333    0.000    0.000    0.000    0.000 
#    0.000    0.000    0.000    0.000    0.000    0.000 
#
# Total GULP energy -167021.738101 kJ/mol
# GULP energy per Si atom -5567.391270 kJ/mol
# Density = 2.433248 g / cm^3
# Si number density = 24.387988 Si / 1000 Ang^3
#
#
#
# Elastic Constant Matrix: (Units=GPa)
#
#
# Indices 1 2 3 4 5 6 
#
# 1 95.7660 22.9968 3.0670 0.0000 0.0000 0.0000
# 2 22.9968 35.3899 10.7982 0.0000 0.0000 0.0000
# 3 3.0670 10.7982 130.4336 0.0000 0.0000 0.0000
# 4 0.0000 0.0000 0.0000 22.7082 0.0000 0.0000
# 5 0.0000 0.0000 0.0000 0.0000 25.5846 0.0000
# 6 0.0000 0.0000 0.0000 0.0000 0.0000 24.8945
#
#
#
# Elastic Compliance Matrix: (Units=1/GPa)
#
#
# Indices 1 2 3 4 5 6 
#
# 1 0.012392 -0.008170 0.000385 0.000000 0.000000 0.000000
# 2 -0.008170 0.034375 -0.002654 0.000000 0.000000 0.000000
# 3 0.000385 -0.002654 0.007877 0.000000 0.000000 0.000000
# 4 0.000000 0.000000 0.000000 0.044037 0.000000 0.000000
# 5 0.000000 0.000000 0.000000 0.000000 0.039086 0.000000
# 6 0.000000 0.000000 0.000000 0.000000 0.000000 0.040169
#
#
# Mechanical properties :
#
#
# Convention : Reuss Voigt Hill
#
# Bulk Modulus (GPa) = 29.61448 37.25705 33.43576
# Shear Modulus (GPa) = 23.80168 29.61929 26.71049
#
# Velocity S-wave (km/s) = 3.12742 3.48875 3.31302
# Velocity P-wave (km/s) = 5.02100 5.61591 5.32677
#
# Compressibility (1/GPa) = 0.03376727
#
# Stress axis : x y z
#
# Youngs Moduli (GPa) = 80.69973 29.09081 126.94584
#
# Poissons Ratio (x) = 0.23766 -0.04887
# Poissons Ratio (y) = 0.65929 0.33688
# Poissons Ratio (z) = -0.03107 0.07720
#
# Static dielectric constant tensor:
#      x y z
#    x 1.993230 0.000000 0.000000 
#    y 0.000000 1.956210 0.000000 
#    z 0.000000 0.000000 2.133970 
# 
# From -- ./inp_files/1379.got.cif
#   From: 2010.05.17/outbox.cif.g08.bks.cpg/sg37_1_cif.got.tgz:1379.got - 2010.06.03 17:53:42.
