data_PCOD9353937
_publ_section_title
;
Structure prediction by ZEFSAII (Michael W. Deem and Ramdas Pophale) SiO2 
 PCOD9353937
Probable space group: C C C 2
;
_chemical_formula_sum "Si O2"
_cell_formula_units_Z 64
_cell_length_a 9.187915
_cell_length_b 14.615318
_cell_length_c 24.429520
_cell_angle_alpha 90.000000
_cell_angle_beta 90.000000
_cell_angle_gamma 90.000000
_cell_volume 3280.500980
_symmetry_space_group_name_H-M "C C C 2"
_symmetry_group_IT_number 37
_symmetry_cell_setting 'orthorhombic'
loop_
_space_group_symop_operation_xyz
x,y,z
-x,-y,z
-x,y,1/2+z
x,-y,1/2+z
1/2+x,1/2+y,z
1/2-x,1/2-y,z
1/2-x,1/2+y,1/2+z
1/2+x,1/2-y,1/2+z
loop_
_atom_site_type_symbol
_atom_site_label
_atom_site_fract_x
_atom_site_fract_y
_atom_site_fract_z
Si Si1 0.684929 0.150270 0.324620
Si Si2 0.563959 0.102268 0.900957
Si Si3 0.424032 0.766570 0.002081
Si Si4 0.582268 0.096857 0.097825
Si Si5 0.326876 0.511783 0.408657
Si Si6 0.890281 0.914152 0.019793
Si Si7 0.332351 0.512214 0.625463
Si Si8 0.129910 0.440268 0.713832
O O1 0.750000 0.250000 0.332040
O O2 0.519943 0.140133 0.347790
O O3 0.776271 0.080984 0.362094
O O4 0.694941 0.119464 0.261732
O O5 0.535464 0.171689 0.950030
O O6 0.500000 0.000000 0.911018
O O7 0.736478 0.081315 0.899127
O O8 0.250000 0.750000 0.000664
O O9 0.457994 0.825623 0.056146
O O10 0.517793 0.674379 0.003734
O O11 0.245069 0.926882 0.093751
O O12 0.565363 0.117302 0.162403
O O13 0.500000 0.000000 0.087858
O O14 0.500000 0.500000 0.407115
O O15 0.291809 0.554955 0.468633
O O16 0.818204 0.907784 0.080085
O O17 0.000000 0.000000 0.026790
O O18 0.500000 0.500000 0.639393
O O19 0.240619 0.508139 0.681541
O O20 0.000000 0.500000 0.738135
#
# Coordination Sequence:
#
# PCOD9353937 Si02
#       8
#     8   8   8   8   8   8   8   8
#     4  11  23  41  62  93 121 161 214 267 309 379
#     4  10  22  39  62  90 127 167 208 255 316 382
#     4  12  21  33  60  94 127 162 209 252 318 373
#     4   9  20  38  60  85 120 163 205 251 308 379
#     4  10  20  38  63  88 125 164 211 245 321 374
#     4  10  20  34  52  88 128 162 191 259 308 379
#     4   9  17  35  59  84 114 156 205 254 308 367
#     4   9  20  40  64  80 114 165 207 252 315 372
#
# _framework density 19.509215000000001
#
# number of rings (size 3 to 8) (size 9 to 14) (size 15 to 20)
#    0.750    1.250    0.000    6.000    0.000    2.000 
#    0.000    3.125    0.000    0.000    0.000    0.000 
#    0.000    0.000    0.000    0.000    0.000    0.000 
#
# Total GULP energy -178215.168884 kJ/mol
# GULP energy per Si atom -5569.224028 kJ/mol
# Density = 1.946481 g / cm^3
# Si number density = 19.509215 Si / 1000 Ang^3
#
#
#
# Elastic Constant Matrix: (Units=GPa)
#
#
# Indices 1 2 3 4 5 6 
#
# 1 93.6527 22.0812 22.1059 0.0000 0.0000 0.0000
# 2 22.0812 90.2721 45.5502 0.0000 0.0000 0.0000
# 3 22.1059 45.5502 109.2606 0.0000 0.0000 0.0000
# 4 0.0000 0.0000 0.0000 7.2106 0.0000 0.0000
# 5 0.0000 0.0000 0.0000 0.0000 18.1908 0.0000
# 6 0.0000 0.0000 0.0000 0.0000 0.0000 17.3389
#
#
#
# Elastic Compliance Matrix: (Units=1/GPa)
#
#
# Indices 1 2 3 4 5 6 
#
# 1 0.011513 -0.002078 -0.001463 0.000000 0.000000 0.000000
# 2 -0.002078 0.014404 -0.005584 0.000000 0.000000 0.000000
# 3 -0.001463 -0.005584 0.011777 0.000000 0.000000 0.000000
# 4 0.000000 0.000000 0.000000 0.138684 0.000000 0.000000
# 5 0.000000 0.000000 0.000000 0.000000 0.054973 0.000000
# 6 0.000000 0.000000 0.000000 0.000000 0.000000 0.057674
#
#
# Mechanical properties :
#
#
# Convention : Reuss Voigt Hill
#
# Bulk Modulus (GPa) = 51.43379 52.51777 51.97578
# Shear Modulus (GPa) = 15.93597 22.11127 19.02362
#
# Velocity S-wave (km/s) = 2.86115 3.37022 3.12606
# Velocity P-wave (km/s) = 6.11032 6.49018 6.30311
#
# Compressibility (1/GPa) = 0.01944247
#
# Stress axis : x y z
#
# Youngs Moduli (GPa) = 86.85814 69.42645 84.91443
#
# Poissons Ratio (x) = 0.14426 0.12424
# Poissons Ratio (y) = 0.18049 0.47420
# Poissons Ratio (z) = 0.12708 0.38771
#
# Static dielectric constant tensor:
#      x y z
#    x 1.781610 0.000000 0.000000 
#    y 0.000000 1.672980 0.000000 
#    z 0.000000 0.000000 1.712720 
# 
# From -- ./inp_files/18467.got.cif
#   From: 2010.05.17/outbox.cif.g08.bks.cpg/sg37_10_cif.got.tgz:18467.got - 2010.06.03 17:53:42.
