data_PCOD9353213
_publ_section_title
;
Structure prediction by ZEFSAII (Michael W. Deem and Ramdas Pophale) SiO2 
 PCOD9353213
Probable space group: C M C 21
;
_chemical_formula_sum "Si O2"
_cell_formula_units_Z 40
_cell_length_a 17.922732
_cell_length_b 6.845432
_cell_length_c 14.323169
_cell_angle_alpha 90.000000
_cell_angle_beta 90.000000
_cell_angle_gamma 90.000000
_cell_volume 1757.293035
_symmetry_space_group_name_H-M "C M C 21"
_symmetry_group_IT_number 36
_symmetry_cell_setting 'orthorhombic'
loop_
_space_group_symop_operation_xyz
x,y,z
-x,-y,1/2+z
x,-y,1/2+z
-x,y,z
1/2+x,1/2+y,z
1/2-x,1/2-y,1/2+z
1/2+x,1/2-y,1/2+z
1/2-x,1/2+y,z
loop_
_atom_site_type_symbol
_atom_site_label
_atom_site_fract_x
_atom_site_fract_y
_atom_site_fract_z
Si Si1 0.834682 0.129303 0.918440
Si Si2 0.916847 0.768248 0.831413
Si Si3 0.263126 0.955150 0.596352
Si Si4 0.916343 0.511608 0.510667
Si Si5 0.264748 0.207981 0.739996
O O1 0.782794 0.216282 0.836723
O O2 0.888767 0.975406 0.869139
O O3 0.782067 0.036714 0.998091
O O4 0.613492 0.784722 0.970525
O O5 0.852894 0.696659 0.762236
O O6 0.000000 0.777225 0.790966
O O7 0.917947 0.629880 0.921459
O O8 0.352255 0.937744 0.579505
O O9 0.245161 0.959654 0.714907
O O10 0.255564 0.207899 0.620021
O O11 0.000000 0.523728 0.549796
#
# Coordination Sequence:
#
# PCOD9353213 Si02
#       5
#     8   8   8   8   8
#     4  12  23  46  71  97 133 182 230 275 330 416
#     4  11  24  43  66  97 136 175 220 283 345 396
#     4  12  23  41  70  99 131 179 229 273 335 402
#     4  11  24  43  68  99 137 175 220 285 344 393
#     4  12  23  41  70  98 131 177 229 274 333 403
#
# _framework density 22.762281999999999
#
# number of rings (size 3 to 8) (size 9 to 14) (size 15 to 20)
#    0.000    0.400    6.000    4.200    0.000    0.800 
#    0.000    2.000    0.000    0.000    0.000    0.000 
#    0.000    0.000    0.000    0.000    0.000    0.000 
#
# Total GULP energy -111742.932094 kJ/mol
# GULP energy per Si atom -5587.146605 kJ/mol
# Density = 2.271047 g / cm^3
# Si number density = 22.762282 Si / 1000 Ang^3
#
#
#
# Elastic Constant Matrix: (Units=GPa)
#
#
# Indices 1 2 3 4 5 6 
#
# 1 223.1415 40.3514 49.8024 0.0000 0.0000 0.0000
# 2 40.3514 105.7281 40.4744 0.0000 0.0000 0.0000
# 3 49.8024 40.4744 82.7278 0.0000 0.0000 0.0000
# 4 0.0000 0.0000 0.0000 66.0368 0.0000 0.0000
# 5 0.0000 0.0000 0.0000 0.0000 50.4239 0.0000
# 6 0.0000 0.0000 0.0000 0.0000 0.0000 347.9690
#
#
#
# Elastic Compliance Matrix: (Units=1/GPa)
#
#
# Indices 1 2 3 4 5 6 
#
# 1 0.005258 -0.000978 -0.002687 0.000000 0.000000 0.000000
# 2 -0.000978 0.011820 -0.005194 0.000000 0.000000 0.000000
# 3 -0.002687 -0.005194 0.016246 0.000000 0.000000 0.000000
# 4 0.000000 0.000000 0.000000 0.015143 0.000000 0.000000
# 5 0.000000 0.000000 0.000000 0.000000 0.019832 0.000000
# 6 0.000000 0.000000 0.000000 0.000000 0.000000 0.002874
#
#
# Mechanical properties :
#
#
# Convention : Reuss Voigt Hill
#
# Bulk Modulus (GPa) = 64.07609 74.76152 69.41880
# Shear Modulus (GPa) = 53.13888 111.61723 82.37805
#
# Velocity S-wave (km/s) = 4.83692 7.01017 6.02239
# Velocity P-wave (km/s) = 7.70751 9.92165 8.88383
#
# Compressibility (1/GPa) = 0.01560645
#
# Stress axis : x y z
#
# Youngs Moduli (GPa) = 190.18634 84.60311 61.55202
#
# Poissons Ratio (x) = 0.08276 0.16537
# Poissons Ratio (y) = 0.18604 0.31970
# Poissons Ratio (z) = 0.51098 0.43943
#
# Static dielectric constant tensor:
#      x y z
#    x 1.766690 0.000000 0.000000 
#    y 0.000000 2.108890 0.000000 
#    z 0.000000 0.000000 1.799730 
# 
# From -- ./inp_files/12423.got.cif
#   From: 2010.05.17/outbox.cif.g08.bks.cpg/sg36_7_cif.got.tgz:12423.got - 2010.06.03 17:41:39.
