data_PCOD9353203
_publ_section_title
;
Structure prediction by ZEFSAII (Michael W. Deem and Ramdas Pophale) SiO2 
 PCOD9353203
Probable space group: C M C 21
;
_chemical_formula_sum "Si O2"
_cell_formula_units_Z 64
_cell_length_a 22.724347
_cell_length_b 8.939846
_cell_length_c 15.055356
_cell_angle_alpha 90.000000
_cell_angle_beta 90.000000
_cell_angle_gamma 90.000000
_cell_volume 3058.528131
_symmetry_space_group_name_H-M "C M C 21"
_symmetry_group_IT_number 36
_symmetry_cell_setting 'orthorhombic'
loop_
_space_group_symop_operation_xyz
x,y,z
-x,-y,1/2+z
x,-y,1/2+z
-x,y,z
1/2+x,1/2+y,z
1/2-x,1/2-y,1/2+z
1/2+x,1/2-y,1/2+z
1/2-x,1/2+y,z
loop_
_atom_site_type_symbol
_atom_site_label
_atom_site_fract_x
_atom_site_fract_y
_atom_site_fract_z
Si Si1 0.776521 0.604988 0.183190
Si Si2 0.388001 0.712093 0.967178
Si Si3 0.613865 0.714012 0.765091
Si Si4 0.270853 0.159401 0.553445
Si Si5 0.351559 0.630718 0.468791
Si Si6 0.849983 0.866594 0.767378
Si Si7 0.066013 0.671248 0.640761
Si Si8 0.565659 0.173615 0.095002
O O1 0.830092 0.686237 0.232929
O O2 0.758193 0.694659 0.095576
O O3 0.785620 0.442146 0.139882
O O4 0.718598 0.617283 0.243214
O O5 0.402344 0.753337 0.865952
O O6 0.379799 0.533746 0.972464
O O7 0.327664 0.796348 0.996802
O O8 0.432977 0.755427 0.043533
O O9 0.628026 0.537892 0.761912
O O10 0.566487 0.744351 0.689668
O O11 0.216454 0.101268 0.495031
O O12 0.355464 0.688615 0.368247
O O13 0.386415 0.743690 0.533562
O O14 0.887610 0.761371 0.701599
O O15 0.080165 0.497820 0.620006
O O16 0.000000 0.678510 0.679479
O O17 0.500000 0.178530 0.055236
#
# Coordination Sequence:
#
# PCOD9353203 Si02
#       8
#     8   8   8   8   8   8   8   8
#     4  12  21  39  65  93 133 173 210 253 311 375
#     4  11  24  41  64  97 130 168 215 263 318 381
#     4  11  24  41  64  97 130 168 215 263 318 381
#     4  12  21  39  65  93 133 173 210 253 311 375
#     4  11  24  42  65  95 130 169 213 261 318 386
#     4  11  24  42  65  95 130 169 213 261 318 386
#     4  11  25  45  66  90 123 166 215 271 329 384
#     4  11  25  45  66  90 123 166 215 271 329 384
#
# _framework density 20.925097000000001
#
# number of rings (size 3 to 8) (size 9 to 14) (size 15 to 20)
#    0.000    0.750    5.000    2.250    0.000    4.000 
#    0.000    5.000    0.000    0.000    0.000    0.000 
#    0.000    0.000    0.000    0.000    0.000    0.000 
#
# Total GULP energy -178678.074516 kJ/mol
# GULP energy per Si atom -5583.689829 kJ/mol
# Density = 2.087747 g / cm^3
# Si number density = 20.925097 Si / 1000 Ang^3
#
#
#
# Elastic Constant Matrix: (Units=GPa)
#
#
# Indices 1 2 3 4 5 6 
#
# 1 107.7650 32.5100 40.2263 0.0000 0.0000 0.0000
# 2 32.5100 78.6646 41.4066 0.0000 0.0000 0.0000
# 3 40.2263 41.4066 141.2015 0.0000 0.0000 0.0000
# 4 0.0000 0.0000 0.0000 18.6676 0.0000 0.0000
# 5 0.0000 0.0000 0.0000 0.0000 9.1658 0.0000
# 6 0.0000 0.0000 0.0000 0.0000 0.0000 11.9318
#
#
#
# Elastic Compliance Matrix: (Units=1/GPa)
#
#
# Indices 1 2 3 4 5 6 
#
# 1 0.011129 -0.003465 -0.002154 0.000000 0.000000 0.000000
# 2 -0.003465 0.016112 -0.003737 0.000000 0.000000 0.000000
# 3 -0.002154 -0.003737 0.008792 0.000000 0.000000 0.000000
# 4 0.000000 0.000000 0.000000 0.053569 0.000000 0.000000
# 5 0.000000 0.000000 0.000000 0.000000 0.109102 0.000000
# 6 0.000000 0.000000 0.000000 0.000000 0.000000 0.083810
#
#
# Mechanical properties :
#
#
# Convention : Reuss Voigt Hill
#
# Bulk Modulus (GPa) = 57.74257 61.76855 59.75556
# Shear Modulus (GPa) = 16.28667 22.18558 19.23612
#
# Velocity S-wave (km/s) = 2.79289 3.25966 3.03526
# Velocity P-wave (km/s) = 6.16888 6.61439 6.39552
#
# Compressibility (1/GPa) = 0.01731825
#
# Stress axis : x y z
#
# Youngs Moduli (GPa) = 89.85520 62.06703 113.74260
#
# Poissons Ratio (x) = 0.21509 0.24503
# Poissons Ratio (y) = 0.31138 0.42510
# Poissons Ratio (z) = 0.19357 0.23197
#
# Static dielectric constant tensor:
#      x y z
#    x 1.820360 0.000000 0.000000 
#    y 0.000000 1.796740 0.000000 
#    z 0.000000 0.000000 1.741700 
# 
# From -- ./inp_files/12997.got.cif
#   From: 2010.05.17/outbox.cif.g08.bks.cpg/sg36_7_cif.got.tgz:12997.got - 2010.06.03 17:41:39.
