data_PCOD9353097
_publ_section_title
;
Structure prediction by ZEFSAII (Michael W. Deem and Ramdas Pophale) SiO2 
 PCOD9353097
Probable space group: C M C 21
;
_chemical_formula_sum "Si O2"
_cell_formula_units_Z 64
_cell_length_a 7.590404
_cell_length_b 27.850542
_cell_length_c 13.507475
_cell_angle_alpha 90.000000
_cell_angle_beta 90.000000
_cell_angle_gamma 90.000000
_cell_volume 2855.437874
_symmetry_space_group_name_H-M "C M C 21"
_symmetry_group_IT_number 36
_symmetry_cell_setting 'orthorhombic'
loop_
_space_group_symop_operation_xyz
x,y,z
-x,-y,1/2+z
x,-y,1/2+z
-x,y,z
1/2+x,1/2+y,z
1/2-x,1/2-y,1/2+z
1/2+x,1/2-y,1/2+z
1/2-x,1/2+y,z
loop_
_atom_site_type_symbol
_atom_site_label
_atom_site_fract_x
_atom_site_fract_y
_atom_site_fract_z
Si Si1 0.298375 0.696878 0.736710
Si Si2 0.797477 0.766363 0.902638
Si Si3 0.784658 0.874967 0.878781
Si Si4 0.784237 0.874006 0.655876
Si Si5 0.715138 0.444364 0.478481
Si Si6 0.215208 0.050130 0.547295
Si Si7 0.284104 0.411237 0.259794
Si Si8 0.798893 0.769760 0.597372
O O1 0.500000 0.694010 0.768333
O O2 0.211898 0.738849 0.799671
O O3 0.224200 0.643957 0.747855
O O4 0.289156 0.719557 0.628030
O O5 0.724526 0.820110 0.895150
O O6 0.000000 0.770210 0.931935
O O7 0.706121 0.731052 0.979556
O O8 0.733437 0.890088 0.766795
O O9 0.000000 0.874545 0.879266
O O10 0.727967 0.909843 0.967315
O O11 0.728124 0.907321 0.564429
O O12 0.721971 0.819305 0.638229
O O13 0.000000 0.873153 0.653460
O O14 0.500000 0.443282 0.477546
O O15 0.769424 0.497736 0.509960
O O16 0.771770 0.431097 0.366879
O O17 0.271251 0.061101 0.660003
O O18 0.000000 0.051055 0.547723
O O19 0.500000 0.411885 0.259188
O O20 0.000000 0.767575 0.629132
#
# Coordination Sequence:
#
# PCOD9353097 Si02
#       8
#     8   8   8   8   8   8   8   8
#     4  11  21  35  54  77 111 151 185 225 274 325
#     4  11  21  35  54  79 111 148 185 224 271 327
#     4   9  17  30  47  70 102 138 174 217 271 322
#     4   9  17  30  47  70 102 138 174 217 271 322
#     4   9  17  27  44  68  99 139 176 214 268 333
#     4   9  17  27  44  68  99 139 176 214 268 333
#     4   9  18  31  44  69 105 139 177 221 274 327
#     4  11  21  35  54  79 111 148 185 224 271 327
#
# _framework density 22.413374999999998
#
# number of rings (size 3 to 8) (size 9 to 14) (size 15 to 20)
#    0.000    2.250    1.250    2.625    1.750    4.000 
#    0.000    0.000    0.000    0.000    0.000    0.000 
#    0.000   44.000    0.000    0.000    0.000    0.000 
#
# Total GULP energy -178648.050116 kJ/mol
# GULP energy per Si atom -5582.751566 kJ/mol
# Density = 2.236236 g / cm^3
# Si number density = 22.413375 Si / 1000 Ang^3
#
#
#
# Elastic Constant Matrix: (Units=GPa)
#
#
# Indices 1 2 3 4 5 6 
#
# 1 46.2983 11.3440 13.2228 0.0000 0.0000 0.0000
# 2 11.3440 141.3519 64.5574 0.0000 0.0000 0.0000
# 3 13.2228 64.5574 153.2467 0.0000 0.0000 0.0000
# 4 0.0000 0.0000 0.0000 38.9605 0.0000 0.0000
# 5 0.0000 0.0000 0.0000 0.0000 12.3031 0.0000
# 6 0.0000 0.0000 0.0000 0.0000 0.0000 7.9074
#
#
#
# Elastic Compliance Matrix: (Units=1/GPa)
#
#
# Indices 1 2 3 4 5 6 
#
# 1 0.022289 -0.001127 -0.001448 0.000000 0.000000 0.000000
# 2 -0.001127 0.008817 -0.003617 0.000000 0.000000 0.000000
# 3 -0.001448 -0.003617 0.008174 0.000000 0.000000 0.000000
# 4 0.000000 0.000000 0.000000 0.025667 0.000000 0.000000
# 5 0.000000 0.000000 0.000000 0.000000 0.081280 0.000000
# 6 0.000000 0.000000 0.000000 0.000000 0.000000 0.126463
#
#
# Mechanical properties :
#
#
# Convention : Reuss Voigt Hill
#
# Bulk Modulus (GPa) = 37.18197 57.68281 47.43239
# Shear Modulus (GPa) = 17.00444 28.61904 22.81174
#
# Velocity S-wave (km/s) = 2.75739 3.57721 3.19372
# Velocity P-wave (km/s) = 5.17328 6.54627 5.89985
#
# Compressibility (1/GPa) = 0.02689476
#
# Stress axis : x y z
#
# Youngs Moduli (GPa) = 44.86540 113.41794 122.33750
#
# Poissons Ratio (x) = 0.12786 0.17718
# Poissons Ratio (y) = 0.05058 0.44249
# Poissons Ratio (z) = 0.06498 0.41023
#
# Static dielectric constant tensor:
#      x y z
#    x 1.941170 0.000000 0.000000 
#    y 0.000000 1.792830 0.000000 
#    z 0.000000 0.000000 1.792580 
# 
# From -- ./inp_files/11055.got.cif
#   From: 2010.05.17/outbox.cif.g08.bks.cpg/sg36_6_cif.got.tgz:11055.got - 2010.06.03 17:41:39.
