data_PCOD9353532
_publ_section_title
;
Structure prediction by ZEFSAII (Michael W. Deem and Ramdas Pophale) SiO2 
 PCOD9353532
Probable space group: C C C 2
;
_chemical_formula_sum "Si O2"
_cell_formula_units_Z 64
_cell_length_a 18.369040
_cell_length_b 8.954554
_cell_length_c 22.845590
_cell_angle_alpha 90.000000
_cell_angle_beta 90.000000
_cell_angle_gamma 90.000000
_cell_volume 3757.792524
_symmetry_space_group_name_H-M "C C C 2"
_symmetry_group_IT_number 37
_symmetry_cell_setting 'orthorhombic'
loop_
_space_group_symop_operation_xyz
x,y,z
-x,-y,z
-x,y,1/2+z
x,-y,1/2+z
1/2+x,1/2+y,z
1/2-x,1/2-y,z
1/2-x,1/2+y,1/2+z
1/2+x,1/2-y,1/2+z
loop_
_atom_site_type_symbol
_atom_site_label
_atom_site_fract_x
_atom_site_fract_y
_atom_site_fract_z
Si Si1 0.692533 0.380022 0.886390
Si Si2 0.827857 0.833362 0.682938
Si Si3 0.169812 0.325613 0.569094
Si Si4 0.190600 0.118025 0.984918
Si Si5 0.233588 0.080389 0.110471
Si Si6 0.912051 0.342393 0.946341
Si Si7 0.917126 0.319122 0.419467
Si Si8 0.168811 0.175206 0.814692
O O1 0.750000 0.250000 0.871771
O O2 0.713040 0.481197 0.943240
O O3 0.623289 0.285152 0.906516
O O4 0.678063 0.504941 0.837349
O O5 0.750000 0.750000 0.686480
O O6 0.863799 0.757448 0.625879
O O7 0.858368 0.821572 0.747770
O O8 0.806614 0.999173 0.663274
O O9 0.250000 0.250000 0.556971
O O10 0.193573 0.490517 0.590956
O O11 0.119001 0.322449 0.512389
O O12 0.250000 0.250000 0.981043
O O13 0.118349 0.196737 0.962099
O O14 0.185208 0.071153 0.051861
O O15 0.250000 0.250000 0.123693
O O16 0.889795 0.511130 0.928467
O O17 0.997956 0.327366 0.935053
O O18 0.887644 0.261895 0.356687
O O19 0.250000 0.250000 0.819723
#
# Coordination Sequence:
#
# PCOD9353532 Si02
#       8
#     8   8   8   8   8   8   8   8
#     4  11  19  29  50  75  98 128 171 211 249 299
#     4   8  17  32  49  72  99 132 166 198 244 297
#     4   9  17  31  53  78 101 129 161 202 254 303
#     4  10  18  30  48  73 105 132 160 206 263 307
#     4   9  15  25  47  74 101 124 158 206 250 293
#     4  11  20  33  52  75 102 129 169 215 254 299
#     4  10  22  34  49  72 104 138 166 206 259 302
#     4  10  20  35  52  72 104 139 170 203 247 300
#
# _framework density 17.031275999999998
#
# number of rings (size 3 to 8) (size 9 to 14) (size 15 to 20)
#    0.000    2.500    0.000    7.125    0.000    3.000 
#    0.000    1.250    0.000    6.000    0.000    0.000 
#    0.000    0.000    0.000    0.000    0.000    0.000 
#
# Total GULP energy -178148.100764 kJ/mol
# GULP energy per Si atom -5567.128149 kJ/mol
# Density = 1.699251 g / cm^3
# Si number density = 17.031276 Si / 1000 Ang^3
#
#
#
# Elastic Constant Matrix: (Units=GPa)
#
#
# Indices 1 2 3 4 5 6 
#
# 1 64.1346 29.5659 39.9044 0.0000 0.0000 0.0000
# 2 29.5659 124.1392 55.5291 0.0000 0.0000 0.0000
# 3 39.9044 55.5291 138.8810 0.0000 0.0000 0.0000
# 4 0.0000 0.0000 0.0000 11.3423 0.0000 0.0000
# 5 0.0000 0.0000 0.0000 0.0000 8.6584 0.0000
# 6 0.0000 0.0000 0.0000 0.0000 0.0000 23.5424
#
#
#
# Elastic Compliance Matrix: (Units=1/GPa)
#
#
# Indices 1 2 3 4 5 6 
#
# 1 0.019665 -0.002626 -0.004600 0.000000 0.000000 0.000000
# 2 -0.002626 0.010161 -0.003308 0.000000 0.000000 0.000000
# 3 -0.004600 -0.003308 0.009845 0.000000 0.000000 0.000000
# 4 0.000000 0.000000 0.000000 0.088166 0.000000 0.000000
# 5 0.000000 0.000000 0.000000 0.000000 0.115495 0.000000
# 6 0.000000 0.000000 0.000000 0.000000 0.000000 0.042477
#
#
# Mechanical properties :
#
#
# Convention : Reuss Voigt Hill
#
# Bulk Modulus (GPa) = 53.75764 64.12818 58.94291
# Shear Modulus (GPa) = 15.97054 22.18566 19.07810
#
# Velocity S-wave (km/s) = 3.06554 3.61313 3.35054
# Velocity P-wave (km/s) = 6.64550 7.42571 7.04641
#
# Compressibility (1/GPa) = 0.01860201
#
# Stress axis : x y z
#
# Youngs Moduli (GPa) = 50.85166 98.41957 101.57520
#
# Poissons Ratio (x) = 0.25842 0.46729
# Poissons Ratio (y) = 0.13352 0.33602
# Poissons Ratio (z) = 0.23394 0.32558
#
# Static dielectric constant tensor:
#      x y z
#    x 1.583890 0.000000 0.000000 
#    y 0.000000 1.611860 0.000000 
#    z 0.000000 0.000000 1.609590 
# 
# From -- ./inp_files/18999.got.cif
#   From: 2010.05.17/outbox.cif.g08.bks.cpg/sg37_10_cif.got.tgz:18999.got - 2010.06.03 17:53:42.
