data_PCOD9353879
_publ_section_title
;
Structure prediction by ZEFSAII (Michael W. Deem and Ramdas Pophale) SiO2 
 PCOD9353879
Probable space group: C C C 2
;
_chemical_formula_sum "Si O2"
_cell_formula_units_Z 60
_cell_length_a 16.598217
_cell_length_b 12.841783
_cell_length_c 12.392775
_cell_angle_alpha 90.000000
_cell_angle_beta 90.000000
_cell_angle_gamma 90.000000
_cell_volume 2641.528677
_symmetry_space_group_name_H-M "C C C 2"
_symmetry_group_IT_number 37
_symmetry_cell_setting 'orthorhombic'
loop_
_space_group_symop_operation_xyz
x,y,z
-x,-y,z
-x,y,1/2+z
x,-y,1/2+z
1/2+x,1/2+y,z
1/2-x,1/2-y,z
1/2-x,1/2+y,1/2+z
1/2+x,1/2-y,1/2+z
loop_
_atom_site_type_symbol
_atom_site_label
_atom_site_fract_x
_atom_site_fract_y
_atom_site_fract_z
Si Si1 0.183323 0.395312 0.260910
Si Si2 0.250000 0.250000 0.417054
Si Si3 0.089747 0.515003 0.099891
Si Si4 0.891010 0.279900 0.245794
Si Si5 0.155203 0.125358 0.587741
Si Si6 0.816017 0.116606 0.588831
Si Si7 0.991344 0.124103 0.667403
Si Si8 0.300415 0.083019 0.912199
O O1 0.180711 0.304626 0.347343
O O2 0.104877 0.434964 0.199236
O O3 0.246280 0.357127 0.172259
O O4 0.218708 0.496600 0.322081
O O5 0.207018 0.166931 0.491185
O O6 0.101958 0.628956 0.153693
O O7 0.000000 0.500000 0.058426
O O8 0.150857 0.479948 0.006038
O O9 0.830772 0.194222 0.194397
O O10 0.858200 0.333951 0.353005
O O11 0.972561 0.209353 0.251373
O O12 0.058681 0.133599 0.572837
O O13 0.174607 0.006795 0.602896
O O14 0.903782 0.155889 0.623907
O O15 0.778106 0.131104 0.470270
O O16 0.000000 0.000000 0.701336
#
# Coordination Sequence:
#
# PCOD9353879 Si02
#       8
#     8   4   8   8   8   8   8   8
#     4  10  23  36  65  99 130 179 229 288 360 418
#     4  12  20  38  68 100 128 174 238 284 350 444
#     4  10  22  41  63  92 143 184 233 301 357 423
#     4   9  20  38  68 101 135 182 241 288 369 427
#     4   9  20  36  72  97 129 183 234 286 346 430
#     4  10  19  40  69  94 148 177 231 300 353 412
#     4   8  18  38  68  96 137 187 229 296 357 419
#     4  10  20  38  65 105 135 190 234 295 357 431
#
# _framework density 22.714120000000001
#
# number of rings (size 3 to 8) (size 9 to 14) (size 15 to 20)
#    0.800    1.600    1.333    0.800    3.733    3.200 
#    0.000    1.333   26.400    1.600    0.000    0.000 
#    0.000    0.000    0.000    0.000    0.000    0.000 
#
# Total GULP energy -167265.095413 kJ/mol
# GULP energy per Si atom -5575.503180 kJ/mol
# Density = 2.266242 g / cm^3
# Si number density = 22.714120 Si / 1000 Ang^3
#
#
#
# Elastic Constant Matrix: (Units=GPa)
#
#
# Indices 1 2 3 4 5 6 
#
# 1 88.4978 17.6710 13.2171 0.0000 0.0000 0.0000
# 2 17.6710 101.3831 21.6348 0.0000 0.0000 0.0000
# 3 13.2171 21.6348 64.5447 0.0000 0.0000 0.0000
# 4 0.0000 0.0000 0.0000 -15.5710 0.0000 0.0000
# 5 0.0000 0.0000 0.0000 0.0000 28.3589 0.0000
# 6 0.0000 0.0000 0.0000 0.0000 0.0000 32.1201
#
#
#
# Elastic Compliance Matrix: (Units=1/GPa)
#
#
# Indices 1 2 3 4 5 6 
#
# 1 0.011915 -0.001676 -0.001878 0.000000 0.000000 0.000000
# 2 -0.001676 0.010859 -0.003297 0.000000 0.000000 0.000000
# 3 -0.001878 -0.003297 0.016983 0.000000 0.000000 0.000000
# 4 0.000000 0.000000 0.000000 -0.064222 0.000000 0.000000
# 5 0.000000 0.000000 0.000000 0.000000 0.035262 0.000000
# 6 0.000000 0.000000 0.000000 0.000000 0.000000 0.031133
#
#
# Mechanical properties :
#
#
# Convention : Reuss Voigt Hill
#
# Bulk Modulus (GPa) = 38.37994 39.94127 39.16061
# Shear Modulus (GPa) = 77.74010 22.44178 50.09094
#
# Velocity S-wave (km/s) = 5.85660 3.14667 4.70113
# Velocity P-wave (km/s) = 7.91623 5.55199 6.83708
#
# Compressibility (1/GPa) = 0.02605528
#
# Stress axis : x y z
#
# Youngs Moduli (GPa) = 83.92879 92.08774 58.88324
#
# Poissons Ratio (x) = 0.15434 0.11059
# Poissons Ratio (y) = 0.14066 0.19412
# Poissons Ratio (z) = 0.15762 0.30359
#
# Static dielectric constant tensor:
#      x y z
#    x 1.912210 0.000000 0.000000 
#    y 0.000000 1.896450 0.000000 
#    z 0.000000 0.000000 1.840880 
# 
# From -- ./inp_files/8337.got.cif
#   From: 2010.05.17/outbox.cif.g08.bks.cpg/sg37_5_cif.got.tgz:8337.got - 2010.06.03 17:53:42.
