data_PCOD9353249
_publ_section_title
;
Structure prediction by ZEFSAII (Michael W. Deem and Ramdas Pophale) SiO2 
 PCOD9353249
Probable space group: C M C 21
;
_chemical_formula_sum "Si O2"
_cell_formula_units_Z 36
_cell_length_a 19.829724
_cell_length_b 7.634272
_cell_length_c 8.743833
_cell_angle_alpha 90.000000
_cell_angle_beta 90.000000
_cell_angle_gamma 90.000000
_cell_volume 1323.689589
_symmetry_space_group_name_H-M "C M C 21"
_symmetry_group_IT_number 36
_symmetry_cell_setting 'orthorhombic'
loop_
_space_group_symop_operation_xyz
x,y,z
-x,-y,1/2+z
x,-y,1/2+z
-x,y,z
1/2+x,1/2+y,z
1/2-x,1/2-y,1/2+z
1/2+x,1/2-y,1/2+z
1/2-x,1/2+y,z
loop_
_atom_site_type_symbol
_atom_site_label
_atom_site_fract_x
_atom_site_fract_y
_atom_site_fract_z
Si Si1 0.000000 0.441161 0.559041
Si Si2 0.388970 0.249172 0.253420
Si Si3 0.700423 0.386101 0.020525
Si Si4 0.000000 0.760523 0.767266
Si Si5 0.710760 0.922099 0.304330
Si Si6 0.000000 0.910141 0.468303
O O1 0.064929 0.359002 0.637448
O O2 0.000000 0.642672 0.610383
O O3 0.000000 0.413900 0.377669
O O4 0.356884 0.400453 0.146434
O O5 0.432409 0.325448 0.391157
O O6 0.332101 0.101375 0.297244
O O7 0.765619 0.362890 0.135580
O O8 0.678224 0.232760 0.902908
O O9 0.723756 0.538316 0.909108
O O10 0.000000 0.927558 0.650836
O O11 0.000000 0.887332 0.913745
#
# Coordination Sequence:
#
# PCOD9353249 Si02
#       6
#     4   8   8   4   8   4
#     4  11  28  51  84 120 164 218 274 348 436 502
#     4  11  26  51  79 117 165 219 275 348 416 509
#     4  12  25  46  74 111 158 209 273 332 410 492
#     4  12  28  56  80 126 168 216 280 340 426 520
#     4  12  25  48  73 115 158 217 272 338 415 488
#     4  11  28  53  84 120 166 218 282 348 432 504
#
# _framework density 27.196708000000001
#
# number of rings (size 3 to 8) (size 9 to 14) (size 15 to 20)
#    0.000    0.444    4.444    2.667    6.222    3.556 
#    4.000    0.000    0.000    0.000    0.000    0.000 
#    0.000    0.000    0.000    0.000    0.000    0.000 
#
# Total GULP energy -100341.186057 kJ/mol
# GULP energy per Si atom -5574.510337 kJ/mol
# Density = 2.713481 g / cm^3
# Si number density = 27.196708 Si / 1000 Ang^3
#
#
#
# Elastic Constant Matrix: (Units=GPa)
#
#
# Indices 1 2 3 4 5 6 
#
# 1 73.6066 11.8135 20.0624 0.0000 0.0000 0.0000
# 2 11.8135 69.4923 40.7583 0.0000 0.0000 0.0000
# 3 20.0624 40.7583 214.1222 0.0000 0.0000 0.0000
# 4 0.0000 0.0000 0.0000 78.6760 0.0000 0.0000
# 5 0.0000 0.0000 0.0000 0.0000 -18.0660 0.0000
# 6 0.0000 0.0000 0.0000 0.0000 0.0000 26.8546
#
#
#
# Elastic Compliance Matrix: (Units=1/GPa)
#
#
# Indices 1 2 3 4 5 6 
#
# 1 0.014146 -0.001832 -0.000977 0.000000 0.000000 0.000000
# 2 -0.001832 0.016436 -0.002957 0.000000 0.000000 0.000000
# 3 -0.000977 -0.002957 0.005325 0.000000 0.000000 0.000000
# 4 0.000000 0.000000 0.000000 0.012710 0.000000 0.000000
# 5 0.000000 0.000000 0.000000 0.000000 -0.055353 0.000000
# 6 0.000000 0.000000 0.000000 0.000000 0.000000 0.037238
#
#
# Mechanical properties :
#
#
# Convention : Reuss Voigt Hill
#
# Bulk Modulus (GPa) = 41.02525 55.83218 48.42872
# Shear Modulus (GPa) = 99.68537 36.46538 68.07538
#
# Velocity S-wave (km/s) = 6.06078 3.66567 5.00850
# Velocity P-wave (km/s) = 8.00592 6.20401 7.16186
#
# Compressibility (1/GPa) = 0.02437523
#
# Stress axis : x y z
#
# Youngs Moduli (GPa) = 70.69151 60.84288 187.80768
#
# Poissons Ratio (x) = 0.11146 0.18343
# Poissons Ratio (y) = 0.12950 0.55533
# Poissons Ratio (z) = 0.06905 0.17991
#
# Static dielectric constant tensor:
#      x y z
#    x 3.218090 0.000000 0.000000 
#    y 0.000000 2.173520 0.000000 
#    z 0.000000 0.000000 2.018730 
# 
# From -- ./inp_files/5066.got.cif
#   From: 2010.05.17/outbox.cif.g08.bks.cpg/sg36_3_cif.got.tgz:5066.got - 2010.06.03 17:41:39.
