data_PCOD9353419
_publ_section_title
;
Structure prediction by ZEFSAII (Michael W. Deem and Ramdas Pophale) SiO2 
 PCOD9353419
Probable space group: C C C 2
;
_chemical_formula_sum "Si O2"
_cell_formula_units_Z 64
_cell_length_a 15.102791
_cell_length_b 32.227386
_cell_length_c 5.425626
_cell_angle_alpha 90.000000
_cell_angle_beta 90.000000
_cell_angle_gamma 90.000000
_cell_volume 2640.779542
_symmetry_space_group_name_H-M "C C C 2"
_symmetry_group_IT_number 37
_symmetry_cell_setting 'orthorhombic'
loop_
_space_group_symop_operation_xyz
x,y,z
-x,-y,z
-x,y,1/2+z
x,-y,1/2+z
1/2+x,1/2+y,z
1/2-x,1/2-y,z
1/2-x,1/2+y,1/2+z
1/2+x,1/2-y,1/2+z
loop_
_atom_site_type_symbol
_atom_site_label
_atom_site_fract_x
_atom_site_fract_y
_atom_site_fract_z
Si Si1 0.990333 0.581521 0.677480
Si Si2 0.058998 0.281854 0.719959
Si Si3 0.554886 0.689352 0.753616
Si Si4 0.676047 0.015026 0.884074
Si Si5 0.180746 0.640051 0.205111
Si Si6 0.440947 0.399449 0.660618
Si Si7 0.125885 0.984934 0.011024
Si Si8 0.318003 0.890403 0.709494
O O1 0.074177 0.613926 0.679036
O O2 0.999899 0.557255 0.427399
O O3 0.901338 0.607433 0.678345
O O4 0.136708 0.315304 0.738344
O O5 0.004549 0.286900 0.461804
O O6 0.096267 0.234741 0.721363
O O7 0.478972 0.688583 0.537580
O O8 0.602341 0.646211 0.687978
O O9 0.775398 0.999913 0.949348
O O10 0.688353 0.061271 0.777728
O O11 0.636767 0.988450 0.659645
O O12 0.224984 0.623590 0.454202
O O13 0.220725 0.635670 0.934248
O O14 0.502326 0.402055 0.414147
O O15 0.622607 0.438648 0.120876
O O16 0.086892 0.986913 0.732392
#
# Coordination Sequence:
#
# PCOD9353419 Si02
#       8
#     8   8   8   8   8   8   8   8
#     4   8  14  23  37  57  81 106 136 177 227 271
#     4  10  16  25  41  65  97 129 157 187 231 279
#     4   8  16  27  41  64  98 133 157 178 212 275
#     4  10  21  37  52  66  88 119 159 204 243 284
#     4  10  17  26  43  67  92 118 151 196 241 282
#     4  10  19  32  50  75 106 132 154 184 230 286
#     4  10  21  35  52  74  97 123 160 201 236 279
#     4  10  18  29  46  64  86 118 154 196 244 284
#
# _framework density 24.235268000000001
#
# number of rings (size 3 to 8) (size 9 to 14) (size 15 to 20)
#    0.000    2.500    0.000    4.500    0.000    1.500 
#    0.000    0.000    0.000   20.250    0.000    0.875 
#    0.000    2.000    0.000    0.000    0.000    0.000 
#
# Total GULP energy -178386.239655 kJ/mol
# GULP energy per Si atom -5574.569989 kJ/mol
# Density = 2.418011 g / cm^3
# Si number density = 24.235268 Si / 1000 Ang^3
#
#
#
# Elastic Constant Matrix: (Units=GPa)
#
#
# Indices 1 2 3 4 5 6 
#
# 1 34.7581 0.8995 17.2616 0.0000 0.0000 0.0000
# 2 0.8995 160.8856 41.7554 0.0000 0.0000 0.0000
# 3 17.2616 41.7554 253.0235 0.0000 0.0000 0.0000
# 4 0.0000 0.0000 0.0000 34.9855 0.0000 0.0000
# 5 0.0000 0.0000 0.0000 0.0000 19.2871 0.0000
# 6 0.0000 0.0000 0.0000 0.0000 0.0000 -29.6385
#
#
#
# Elastic Compliance Matrix: (Units=1/GPa)
#
#
# Indices 1 2 3 4 5 6 
#
# 1 0.029801 0.000377 -0.002095 0.000000 0.000000 0.000000
# 2 0.000377 0.006498 -0.001098 0.000000 0.000000 0.000000
# 3 -0.002095 -0.001098 0.004276 0.000000 0.000000 0.000000
# 4 0.000000 0.000000 0.000000 0.028583 0.000000 0.000000
# 5 0.000000 0.000000 0.000000 0.000000 0.051848 0.000000
# 6 0.000000 0.000000 0.000000 0.000000 0.000000 -0.033740
#
#
# Mechanical properties :
#
#
# Convention : Reuss Voigt Hill
#
# Bulk Modulus (GPa) = 28.61771 63.16670 45.89220
# Shear Modulus (GPa) = 47.82502 30.84353 39.33427
#
# Velocity S-wave (km/s) = 4.44708 3.57132 4.03304
# Velocity P-wave (km/s) = 6.18082 6.56706 6.37687
#
# Compressibility (1/GPa) = 0.03494340
#
# Stress axis : x y z
#
# Youngs Moduli (GPa) = 33.55581 153.88175 233.84317
#
# Poissons Ratio (x) = -0.05804 0.48998
# Poissons Ratio (y) = -0.01266 0.25680
# Poissons Ratio (z) = 0.07031 0.16899
#
# Static dielectric constant tensor:
#      x y z
#    x 2.003100 0.000000 0.000000 
#    y 0.000000 1.911570 0.000000 
#    z 0.000000 0.000000 2.083430 
# 
# From -- ./inp_files/888.got.cif
#   From: 2010.05.17/outbox.cif.g08.bks.cpg/sg37_1_cif.got.tgz:888.got - 2010.06.03 17:53:42.
