data_PCOD9353772
_publ_section_title
;
Structure prediction by ZEFSAII (Michael W. Deem and Ramdas Pophale) SiO2 
 PCOD9353772
Probable space group: C C C 2
;
_chemical_formula_sum "Si O2"
_cell_formula_units_Z 48
_cell_length_a 9.826691
_cell_length_b 13.957280
_cell_length_c 17.274508
_cell_angle_alpha 90.000000
_cell_angle_beta 90.000000
_cell_angle_gamma 90.000000
_cell_volume 2369.265759
_symmetry_space_group_name_H-M "C C C 2"
_symmetry_group_IT_number 37
_symmetry_cell_setting 'orthorhombic'
loop_
_space_group_symop_operation_xyz
x,y,z
-x,-y,z
-x,y,1/2+z
x,-y,1/2+z
1/2+x,1/2+y,z
1/2-x,1/2-y,z
1/2-x,1/2+y,1/2+z
1/2+x,1/2-y,1/2+z
loop_
_atom_site_type_symbol
_atom_site_label
_atom_site_fract_x
_atom_site_fract_y
_atom_site_fract_z
Si Si1 0.744943 0.637419 0.162370
Si Si2 0.744233 0.366690 0.090974
Si Si3 0.750802 0.633363 0.903760
Si Si4 0.338865 0.473015 0.750160
Si Si5 0.966011 0.861555 0.030814
Si Si6 0.536937 0.869274 0.031007
O O1 0.750000 0.750000 0.178373
O O2 0.738049 0.573718 0.237845
O O3 0.610438 0.616082 0.111194
O O4 0.867194 0.611436 0.104826
O O5 0.750000 0.250000 0.099143
O O6 0.703383 0.412349 0.173395
O O7 0.620137 0.393979 0.034688
O O8 0.885622 0.400861 0.053271
O O9 0.750000 0.750000 0.895341
O O10 0.719870 0.583529 0.823088
O O11 0.626379 0.606627 0.960481
O O12 0.886645 0.603105 0.951523
O O13 0.500000 0.500000 0.756325
O O14 0.967481 0.746282 0.026397
#
# Coordination Sequence:
#
# PCOD9353772 Si02
#       6
#     8   8   8   8   8   8
#     4   9  18  37  62  90 122 166 207 251 307 372
#     4  10  19  35  66 102 123 155 212 265 308 373
#     4   9  19  39  64  93 128 167 205 258 323 377
#     4  12  23  36  62 102 126 165 209 258 319 376
#     4   8  15  35  64  92 118 161 213 253 303 370
#     4   8  17  35  66  89 120 165 204 254 315 365
#
# _framework density 20.259440000000001
#
# number of rings (size 3 to 8) (size 9 to 14) (size 15 to 20)
#    0.000    2.667    1.667    2.500    0.000    0.667 
#    6.000    0.000    7.333    1.000    8.667    0.000 
#    0.000    0.000    0.000    0.000    0.000    0.000 
#
# Total GULP energy -133891.977331 kJ/mol
# GULP energy per Si atom -5578.832389 kJ/mol
# Density = 2.021333 g / cm^3
# Si number density = 20.259440 Si / 1000 Ang^3
#
#
#
# Elastic Constant Matrix: (Units=GPa)
#
#
# Indices 1 2 3 4 5 6 
#
# 1 186.0483 34.8982 75.7573 0.0000 0.0000 0.0000
# 2 34.8982 113.7259 56.1754 0.0000 0.0000 0.0000
# 3 75.7573 56.1754 135.5709 0.0000 0.0000 0.0000
# 4 0.0000 0.0000 0.0000 33.7141 0.0000 0.0000
# 5 0.0000 0.0000 0.0000 0.0000 16.0021 0.0000
# 6 0.0000 0.0000 0.0000 0.0000 0.0000 15.3162
#
#
#
# Elastic Compliance Matrix: (Units=1/GPa)
#
#
# Indices 1 2 3 4 5 6 
#
# 1 0.006965 -0.000270 -0.003780 0.000000 0.000000 0.000000
# 2 -0.000270 0.011066 -0.004435 0.000000 0.000000 0.000000
# 3 -0.003780 -0.004435 0.011326 0.000000 0.000000 0.000000
# 4 0.000000 0.000000 0.000000 0.029661 0.000000 0.000000
# 5 0.000000 0.000000 0.000000 0.000000 0.062492 0.000000
# 6 0.000000 0.000000 0.000000 0.000000 0.000000 0.065291
#
#
# Mechanical properties :
#
#
# Convention : Reuss Voigt Hill
#
# Bulk Modulus (GPa) = 80.72413 85.44520 83.08466
# Shear Modulus (GPa) = 24.05007 30.90741 27.47874
#
# Velocity S-wave (km/s) = 3.44918 3.91011 3.68685
# Velocity P-wave (km/s) = 7.46955 7.91532 7.69566
#
# Compressibility (1/GPa) = 0.01238787
#
# Stress axis : x y z
#
# Youngs Moduli (GPa) = 143.57898 90.36343 88.29216
#
# Poissons Ratio (x) = 0.02440 0.33375
# Poissons Ratio (y) = 0.03878 0.39154
# Poissons Ratio (z) = 0.54273 0.40072
#
# Static dielectric constant tensor:
#      x y z
#    x 1.742600 0.000000 0.000000 
#    y 0.000000 1.781910 0.000000 
#    z 0.000000 0.000000 1.669520 
# 
# From -- ./inp_files/14512.got.cif
#   From: 2010.05.17/outbox.cif.g08.bks.cpg/sg37_8_cif.got.tgz:14512.got - 2010.06.03 17:53:42.
