data_PCOD9353124
_publ_section_title
;
Structure prediction by ZEFSAII (Michael W. Deem and Ramdas Pophale) SiO2 
 PCOD9353124
Probable space group: C M C 21
;
_chemical_formula_sum "Si O2"
_cell_formula_units_Z 64
_cell_length_a 8.960110
_cell_length_b 23.280092
_cell_length_c 16.385701
_cell_angle_alpha 90.000000
_cell_angle_beta 90.000000
_cell_angle_gamma 90.000000
_cell_volume 3417.929176
_symmetry_space_group_name_H-M "C M C 21"
_symmetry_group_IT_number 36
_symmetry_cell_setting 'orthorhombic'
loop_
_space_group_symop_operation_xyz
x,y,z
-x,-y,1/2+z
x,-y,1/2+z
-x,y,z
1/2+x,1/2+y,z
1/2-x,1/2-y,1/2+z
1/2+x,1/2-y,1/2+z
1/2-x,1/2+y,z
loop_
_atom_site_type_symbol
_atom_site_label
_atom_site_fract_x
_atom_site_fract_y
_atom_site_fract_z
Si Si1 0.821500 0.903570 0.223420
Si Si2 0.665086 0.702872 0.266183
Si Si3 0.820425 0.037148 0.245141
Si Si4 0.321136 0.154602 0.563661
Si Si5 0.672578 0.391201 0.902932
Si Si6 0.678421 0.284197 0.512049
Si Si7 0.328366 0.821473 0.345687
Si Si8 0.673193 0.134387 0.139443
O O1 0.751458 0.873225 0.143908
O O2 0.757991 0.873362 0.304256
O O3 0.000000 0.897728 0.220178
O O4 0.784222 0.971046 0.229443
O O5 0.500000 0.688400 0.229970
O O6 0.672835 0.668002 0.350779
O O7 0.669808 0.769984 0.280117
O O8 0.798095 0.680544 0.211273
O O9 0.777932 0.061496 0.335412
O O10 0.744049 0.076926 0.177063
O O11 0.000000 0.044418 0.240558
O O12 0.500000 0.152791 0.571042
O O13 0.268400 0.119113 0.483602
O O14 0.277115 0.221714 0.548866
O O15 0.500000 0.403340 0.925742
O O16 0.500000 0.284702 0.508086
O O17 0.747699 0.294838 0.423634
O O18 0.738447 0.337032 0.565515
O O19 0.500000 0.836130 0.365012
O O20 0.500000 0.127160 0.120759
#
# Coordination Sequence:
#
# PCOD9353124 Si02
#       8
#     8   8   8   8   8   8   8   8
#     4  11  24  42  63  87 119 164 208 247 299 364
#     4   9  18  34  57  84 118 155 189 233 295 359
#     4   9  21  43  64  84 115 159 206 245 295 362
#     4  11  23  38  60  92 125 156 199 252 303 355
#     4   9  17  35  62  87 113 152 200 245 293 355
#     4  11  23  39  59  87 125 161 196 240 298 368
#     4  11  22  38  60  87 122 157 194 246 301 351
#     4  11  22  35  59  90 117 150 196 248 296 346
#
# _framework density 18.724789000000001
#
# number of rings (size 3 to 8) (size 9 to 14) (size 15 to 20)
#    0.000    1.750    1.250    4.125    0.000    8.500 
#    2.250    0.000    0.000    0.000    0.000    0.000 
#    0.000    0.000    0.000    0.000    0.000    0.000 
#
# Total GULP energy -178606.250814 kJ/mol
# GULP energy per Si atom -5581.445338 kJ/mol
# Density = 1.868217 g / cm^3
# Si number density = 18.724789 Si / 1000 Ang^3
#
#
#
# Elastic Constant Matrix: (Units=GPa)
#
#
# Indices 1 2 3 4 5 6 
#
# 1 73.5999 56.4212 37.7555 0.0000 0.0000 0.0000
# 2 56.4212 136.1386 55.2968 0.0000 0.0000 0.0000
# 3 37.7555 55.2968 65.4227 0.0000 0.0000 0.0000
# 4 0.0000 0.0000 0.0000 24.7369 0.0000 0.0000
# 5 0.0000 0.0000 0.0000 0.0000 33.9937 0.0000
# 6 0.0000 0.0000 0.0000 0.0000 0.0000 14.0302
#
#
#
# Elastic Compliance Matrix: (Units=1/GPa)
#
#
# Indices 1 2 3 4 5 6 
#
# 1 0.022177 -0.006080 -0.007659 0.000000 0.000000 0.000000
# 2 -0.006080 0.012852 -0.007354 0.000000 0.000000 0.000000
# 3 -0.007659 -0.007354 0.025922 0.000000 0.000000 0.000000
# 4 0.000000 0.000000 0.000000 0.040425 0.000000 0.000000
# 5 0.000000 0.000000 0.000000 0.000000 0.029417 0.000000
# 6 0.000000 0.000000 0.000000 0.000000 0.000000 0.071275
#
#
# Mechanical properties :
#
#
# Convention : Reuss Voigt Hill
#
# Bulk Modulus (GPa) = 53.29525 63.78980 58.54252
# Shear Modulus (GPa) = 19.95922 22.93134 21.44528
#
# Velocity S-wave (km/s) = 3.26839 3.50330 3.38788
# Velocity P-wave (km/s) = 6.53968 7.10670 6.82907
#
# Compressibility (1/GPa) = 0.01876340
#
# Stress axis : x y z
#
# Youngs Moduli (GPa) = 45.09187 77.80624 38.57773
#
# Poissons Ratio (x) = 0.47305 0.29549
# Poissons Ratio (y) = 0.27415 0.28372
# Poissons Ratio (z) = 0.34538 0.57223
#
# Static dielectric constant tensor:
#      x y z
#    x 1.638780 0.000000 0.000000 
#    y 0.000000 1.641740 0.000000 
#    z 0.000000 0.000000 1.677820 
# 
# From -- ./inp_files/11094.got.cif
#   From: 2010.05.17/outbox.cif.g08.bks.cpg/sg36_6_cif.got.tgz:11094.got - 2010.06.03 17:41:39.
