data_PCOD9353615
_publ_section_title
;
Structure prediction by ZEFSAII (Michael W. Deem and Ramdas Pophale) SiO2 
 PCOD9353615
Probable space group: C C C 2
;
_chemical_formula_sum "Si O2"
_cell_formula_units_Z 52
_cell_length_a 15.713196
_cell_length_b 8.705895
_cell_length_c 19.395789
_cell_angle_alpha 90.000000
_cell_angle_beta 90.000000
_cell_angle_gamma 90.000000
_cell_volume 2653.294175
_symmetry_space_group_name_H-M "C C C 2"
_symmetry_group_IT_number 37
_symmetry_cell_setting 'orthorhombic'
loop_
_space_group_symop_operation_xyz
x,y,z
-x,-y,z
-x,y,1/2+z
x,-y,1/2+z
1/2+x,1/2+y,z
1/2-x,1/2-y,z
1/2-x,1/2+y,1/2+z
1/2+x,1/2-y,1/2+z
loop_
_atom_site_type_symbol
_atom_site_label
_atom_site_fract_x
_atom_site_fract_y
_atom_site_fract_z
Si Si1 0.537574 0.269331 0.771320
Si Si2 0.961388 0.327301 0.989418
Si Si3 0.063899 0.345750 0.646500
Si Si4 0.591528 0.708984 0.893175
Si Si5 0.686957 0.508776 0.310640
Si Si6 0.864178 0.560113 0.362313
Si Si7 0.750000 0.250000 0.205759
O O1 0.489116 0.259434 0.699516
O O2 0.470988 0.319179 0.829148
O O3 0.617224 0.381647 0.777139
O O4 0.572129 0.106525 0.800582
O O5 0.890681 0.339696 0.929028
O O6 0.000000 0.500000 0.988661
O O7 0.035317 0.215735 0.961584
O O8 0.934654 0.294359 0.066800
O O9 0.165381 0.331286 0.669265
O O10 0.000000 0.500000 0.647251
O O11 0.657772 0.574929 0.881569
O O12 0.628151 0.880267 0.881244
O O13 0.772724 0.590747 0.332366
O O14 0.710300 0.378944 0.255231
#
# Coordination Sequence:
#
# PCOD9353615 Si02
#       7
#     8   8   8   8   8   8   4
#     4  11  21  34  61  84 119 155 201 255 310 368
#     4   8  19  37  62  85 116 166 209 244 312 386
#     4  11  22  42  63  88 127 169 213 259 319 398
#     4  10  18  36  60  83 118 157 198 248 316 364
#     4  12  21  35  58  94 121 150 206 267 312 368
#     4  10  19  37  61  92 116 158 208 258 309 379
#     4  12  24  38  64  90 124 168 208 262 332 372
#
# _framework density 19.598281
#
# number of rings (size 3 to 8) (size 9 to 14) (size 15 to 20)
#    0.000    1.538    3.077    4.154    0.000    0.000 
#    5.538    1.538    6.769    5.538    0.000    0.000 
#    0.000    0.000    0.000    0.000    0.000    0.000 
#
# Total GULP energy -144763.805106 kJ/mol
# GULP energy per Si atom -5567.838658 kJ/mol
# Density = 1.955367 g / cm^3
# Si number density = 19.598281 Si / 1000 Ang^3
#
#
#
# Elastic Constant Matrix: (Units=GPa)
#
#
# Indices 1 2 3 4 5 6 
#
# 1 130.8755 41.5835 54.2534 0.0000 0.0000 0.0000
# 2 41.5835 54.6315 16.9728 0.0000 0.0000 0.0000
# 3 54.2534 16.9728 129.8209 0.0000 0.0000 0.0000
# 4 0.0000 0.0000 0.0000 -1.1734 0.0000 0.0000
# 5 0.0000 0.0000 0.0000 0.0000 28.5811 0.0000
# 6 0.0000 0.0000 0.0000 0.0000 0.0000 38.3264
#
#
#
# Elastic Compliance Matrix: (Units=1/GPa)
#
#
# Indices 1 2 3 4 5 6 
#
# 1 0.011695 -0.007696 -0.003881 0.000000 0.000000 0.000000
# 2 -0.007696 0.024144 0.000060 0.000000 0.000000 0.000000
# 3 -0.003881 0.000060 0.009317 0.000000 0.000000 0.000000
# 4 0.000000 0.000000 0.000000 -0.852248 0.000000 0.000000
# 5 0.000000 0.000000 0.000000 0.000000 0.034988 0.000000
# 6 0.000000 0.000000 0.000000 0.000000 0.000000 0.026092
#
#
# Mechanical properties :
#
#
# Convention : Reuss Voigt Hill
#
# Bulk Modulus (GPa) = 45.20639 60.10524 52.65582
# Shear Modulus (GPa) = -6.98711 26.64805 9.83047
#
# Velocity S-wave (km/s) = -1.89021 3.69143 2.24207
# Velocity P-wave (km/s) = 4.28401 6.99315 5.79900
#
# Compressibility (1/GPa) = 0.02212077
#
# Stress axis : x y z
#
# Youngs Moduli (GPa) = 85.50588 41.41838 107.32890
#
# Poissons Ratio (x) = 0.31876 0.41658
# Poissons Ratio (y) = 0.65806 -0.00640
# Poissons Ratio (z) = 0.33187 -0.00247
#
# Static dielectric constant tensor:
#      x y z
#    x 1.844620 0.000000 0.000000 
#    y 0.000000 1.831520 0.000000 
#    z 0.000000 0.000000 1.657140 
# 
# From -- ./inp_files/14673.got.cif
#   From: 2010.05.17/outbox.cif.g08.bks.cpg/sg37_8_cif.got.tgz:14673.got - 2010.06.03 17:53:42.
