data_PCOD9353754
_publ_section_title
;
Structure prediction by ZEFSAII (Michael W. Deem and Ramdas Pophale) SiO2 
 PCOD9353754
Probable space group: C C C 2
;
_chemical_formula_sum "Si O2"
_cell_formula_units_Z 52
_cell_length_a 17.238164
_cell_length_b 10.357374
_cell_length_c 14.079208
_cell_angle_alpha 90.000000
_cell_angle_beta 90.000000
_cell_angle_gamma 90.000000
_cell_volume 2513.731526
_symmetry_space_group_name_H-M "C C C 2"
_symmetry_group_IT_number 37
_symmetry_cell_setting 'orthorhombic'
loop_
_space_group_symop_operation_xyz
x,y,z
-x,-y,z
-x,y,1/2+z
x,-y,1/2+z
1/2+x,1/2+y,z
1/2-x,1/2-y,z
1/2-x,1/2+y,1/2+z
1/2+x,1/2-y,1/2+z
loop_
_atom_site_type_symbol
_atom_site_label
_atom_site_fract_x
_atom_site_fract_y
_atom_site_fract_z
Si Si1 0.932562 0.274078 0.075170
Si Si2 0.191520 0.951666 0.868510
Si Si3 0.028432 0.147246 0.386596
Si Si4 0.880632 0.790202 0.778198
Si Si5 0.000000 0.500000 0.693876
Si Si6 0.778315 0.394072 0.055519
Si Si7 0.829059 0.508820 0.753627
O O1 0.896371 0.194874 0.164746
O O2 0.865991 0.359696 0.023092
O O3 0.986434 0.376807 0.127180
O O4 0.972881 0.189801 0.995912
O O5 0.161512 0.088740 0.826845
O O6 0.271103 0.922964 0.813865
O O7 0.118572 0.856524 0.855942
O O8 0.219443 0.950770 0.978215
O O9 0.965584 0.225121 0.325953
O O10 0.000000 0.000000 0.378881
O O11 0.833084 0.657830 0.790002
O O12 0.919803 0.475224 0.749075
O O13 0.750000 0.250000 0.080971
O O14 0.792478 0.479889 0.148219
#
# Coordination Sequence:
#
# PCOD9353754 Si02
#       7
#     8   8   8   8   4   8   8
#     4  10  20  40  62  83 127 163 207 257 320 377
#     4  11  21  35  61  95 119 157 220 257 311 376
#     4  10  22  37  59  95 124 165 211 253 317 386
#     4   9  21  39  59  89 125 169 205 249 322 385
#     4   8  20  38  62  92 108 168 214 246 326 372
#     4  10  19  35  58  85 113 162 203 249 316 371
#     4  10  21  40  64  86 126 166 210 262 320 383
#
# _framework density 20.686375999999999
#
# number of rings (size 3 to 8) (size 9 to 14) (size 15 to 20)
#    0.000    2.462    1.538    2.308    0.000    6.769 
#    2.769    1.538    0.000    1.846    0.000    0.000 
#    0.000    0.000    0.000    0.000    0.000    0.000 
#
# Total GULP energy -144868.033871 kJ/mol
# GULP energy per Si atom -5571.847457 kJ/mol
# Density = 2.063929 g / cm^3
# Si number density = 20.686376 Si / 1000 Ang^3
#
#
#
# Elastic Constant Matrix: (Units=GPa)
#
#
# Indices 1 2 3 4 5 6 
#
# 1 155.8951 24.6554 62.5736 0.0000 0.0000 0.0000
# 2 24.6554 23.7231 12.3150 0.0000 0.0000 0.0000
# 3 62.5736 12.3150 89.5239 0.0000 0.0000 0.0000
# 4 0.0000 0.0000 0.0000 25.9070 0.0000 0.0000
# 5 0.0000 0.0000 0.0000 0.0000 27.9845 0.0000
# 6 0.0000 0.0000 0.0000 0.0000 0.0000 22.7737
#
#
#
# Elastic Compliance Matrix: (Units=1/GPa)
#
#
# Indices 1 2 3 4 5 6 
#
# 1 0.009953 -0.007251 -0.005960 0.000000 0.000000 0.000000
# 2 -0.007251 0.050677 -0.001903 0.000000 0.000000 0.000000
# 3 -0.005960 -0.001903 0.015598 0.000000 0.000000 0.000000
# 4 0.000000 0.000000 0.000000 0.038600 0.000000 0.000000
# 5 0.000000 0.000000 0.000000 0.000000 0.035734 0.000000
# 6 0.000000 0.000000 0.000000 0.000000 0.000000 0.043910
#
#
# Mechanical properties :
#
#
# Convention : Reuss Voigt Hill
#
# Bulk Modulus (GPa) = 21.73884 52.02556 36.88220
# Shear Modulus (GPa) = 20.83052 26.63957 23.73504
#
# Velocity S-wave (km/s) = 3.17672 3.59246 3.39097
# Velocity P-wave (km/s) = 4.89765 6.51245 5.76190
#
# Compressibility (1/GPa) = 0.04600061
#
# Stress axis : x y z
#
# Youngs Moduli (GPa) = 100.46822 19.73289 64.11280
#
# Poissons Ratio (x) = 0.14308 0.38209
# Poissons Ratio (y) = 0.72848 0.12201
# Poissons Ratio (z) = 0.59875 0.03755
#
# Static dielectric constant tensor:
#      x y z
#    x 1.822100 0.000000 0.000000 
#    y 0.000000 1.735700 0.000000 
#    z 0.000000 0.000000 1.735470 
# 
# From -- ./inp_files/12632.got.cif
#   From: 2010.05.17/outbox.cif.g08.bks.cpg/sg37_7_cif.got.tgz:12632.got - 2010.06.03 17:53:42.
