data_PCOD9353004
_publ_section_title
;
Structure prediction by ZEFSAII (Michael W. Deem and Ramdas Pophale) SiO2 
 PCOD9353004
Probable space group: C M C 21
;
_chemical_formula_sum "Si O2"
_cell_formula_units_Z 32
_cell_length_a 17.742407
_cell_length_b 9.153679
_cell_length_c 6.626502
_cell_angle_alpha 90.000000
_cell_angle_beta 90.000000
_cell_angle_gamma 90.000000
_cell_volume 1076.198914
_symmetry_space_group_name_H-M "C M C 21"
_symmetry_group_IT_number 36
_symmetry_cell_setting 'orthorhombic'
loop_
_space_group_symop_operation_xyz
x,y,z
-x,-y,1/2+z
x,-y,1/2+z
-x,y,z
1/2+x,1/2+y,z
1/2-x,1/2-y,1/2+z
1/2+x,1/2-y,1/2+z
1/2-x,1/2+y,z
loop_
_atom_site_type_symbol
_atom_site_label
_atom_site_fract_x
_atom_site_fract_y
_atom_site_fract_z
Si Si1 0.363780 0.831753 0.609600
Si Si2 0.634076 0.490454 0.107771
Si Si3 0.500000 0.726782 0.110223
Si Si4 0.242659 0.502472 0.357360
Si Si5 0.500000 0.017136 0.276514
O O1 0.398106 0.672952 0.607474
O O2 0.314446 0.868155 0.411931
O O3 0.425741 0.954324 0.641100
O O4 0.307400 0.853407 0.800999
O O5 0.736072 0.469551 0.107847
O O6 0.572592 0.621459 0.107866
O O7 0.659562 0.499478 0.857746
O O8 0.500000 0.840744 0.922765
O O9 0.500000 0.840909 0.297386
#
# Coordination Sequence:
#
# PCOD9353004 Si02
#       5
#     8   8   4   8   4
#     4  11  23  45  74 108 152 198 252 313 379 457
#     4  11  24  46  75 111 147 198 259 315 376 456
#     4  12  29  50  76 108 153 206 260 318 387 464
#     4  10  24  42  73 112 149 195 250 315 384 449
#     4  12  27  48  72 108 153 202 254 318 393 460
#
# _framework density 29.734282
#
# number of rings (size 3 to 8) (size 9 to 14) (size 15 to 20)
#    0.000    1.000    0.000    5.250    0.000   15.000 
#    0.000    0.000    0.000    0.000    0.000    0.000 
#    0.000    0.000    0.000    0.000    0.000    0.000 
#
# Total GULP energy -89527.044802 kJ/mol
# GULP energy per Si atom -5595.440300 kJ/mol
# Density = 2.966660 g / cm^3
# Si number density = 29.734282 Si / 1000 Ang^3
#
#
#
# Elastic Constant Matrix: (Units=GPa)
#
#
# Indices 1 2 3 4 5 6 
#
# 1 184.7142 113.3027 95.8149 0.0000 0.0000 0.0000
# 2 113.3027 264.6059 72.8042 0.0000 0.0000 0.0000
# 3 95.8149 72.8042 265.6014 0.0000 0.0000 0.0000
# 4 0.0000 0.0000 0.0000 61.4251 0.0000 0.0000
# 5 0.0000 0.0000 0.0000 0.0000 61.7784 0.0000
# 6 0.0000 0.0000 0.0000 0.0000 0.0000 73.5788
#
#
#
# Elastic Compliance Matrix: (Units=1/GPa)
#
#
# Indices 1 2 3 4 5 6 
#
# 1 0.008390 -0.002985 -0.002209 0.000000 0.000000 0.000000
# 2 -0.002985 0.005149 -0.000335 0.000000 0.000000 0.000000
# 3 -0.002209 -0.000335 0.004654 0.000000 0.000000 0.000000
# 4 0.000000 0.000000 0.000000 0.016280 0.000000 0.000000
# 5 0.000000 0.000000 0.000000 0.000000 0.016187 0.000000
# 6 0.000000 0.000000 0.000000 0.000000 0.000000 0.013591
#
#
# Mechanical properties :
#
#
# Convention : Reuss Voigt Hill
#
# Bulk Modulus (GPa) = 140.11917 142.08503 141.10210
# Shear Modulus (GPa) = 64.36107 68.22312 66.29209
#
# Velocity S-wave (km/s) = 4.65751 4.79521 4.72686
# Velocity P-wave (km/s) = 8.72636 8.86270 8.79479
#
# Compressibility (1/GPa) = 0.00713678
#
# Stress axis : x y z
#
# Youngs Moduli (GPa) = 119.18347 194.19465 214.89115
#
# Poissons Ratio (x) = 0.57968 0.47461
# Poissons Ratio (y) = 0.35577 0.07192
# Poissons Ratio (z) = 0.26323 0.06499
#
# Static dielectric constant tensor:
#      x y z
#    x 2.327530 0.000000 0.000000 
#    y 0.000000 2.035960 0.000000 
#    z 0.000000 0.000000 2.544830 
# 
# From -- ./inp_files/5025.got.cif
#   From: 2010.05.17/outbox.cif.g08.bks.cpg/sg36_3_cif.got.tgz:5025.got - 2010.06.03 17:41:39.
