data_PCOD9353413
_publ_section_title
;
Structure prediction by ZEFSAII (Michael W. Deem and Ramdas Pophale) SiO2 
 PCOD9353413
Probable space group: C C C 2
;
_chemical_formula_sum "Si O2"
_cell_formula_units_Z 56
_cell_length_a 16.419506
_cell_length_b 29.751794
_cell_length_c 5.403635
_cell_angle_alpha 90.000000
_cell_angle_beta 90.000000
_cell_angle_gamma 90.000000
_cell_volume 2639.728437
_symmetry_space_group_name_H-M "C C C 2"
_symmetry_group_IT_number 37
_symmetry_cell_setting 'orthorhombic'
loop_
_space_group_symop_operation_xyz
x,y,z
-x,-y,z
-x,y,1/2+z
x,-y,1/2+z
1/2+x,1/2+y,z
1/2-x,1/2-y,z
1/2-x,1/2+y,1/2+z
1/2+x,1/2-y,1/2+z
loop_
_atom_site_type_symbol
_atom_site_label
_atom_site_fract_x
_atom_site_fract_y
_atom_site_fract_z
Si Si1 0.215571 0.054198 0.900530
Si Si2 0.414540 0.165095 0.256230
Si Si3 0.551964 0.600076 0.774316
Si Si4 0.399139 0.798153 0.256409
Si Si5 0.776230 0.546276 0.401270
Si Si6 0.053206 0.201940 0.802836
Si Si7 0.452720 0.940732 0.764104
O O1 0.125344 0.066137 0.818020
O O2 0.272817 0.068852 0.670949
O O3 0.229411 0.000825 0.933847
O O4 0.236870 0.073159 0.172081
O O5 0.502716 0.190508 0.249821
O O6 0.368620 0.182158 0.498826
O O7 0.433911 0.112618 0.274180
O O8 0.370048 0.177014 0.002268
O O9 0.510043 0.594777 0.505987
O O10 0.585891 0.651229 0.789018
O O11 0.388785 0.744868 0.279238
O O12 0.867371 0.535736 0.316706
O O13 0.992667 0.205942 0.566473
O O14 0.487816 0.950377 0.493520
#
# Coordination Sequence:
#
# PCOD9353413 Si02
#       7
#     8   8   8   8   8   8   8
#     4  10  21  45  59  80 116 149 193 217 292 369
#     4  10  16  25  44  71 113 143 169 222 287 312
#     4  10  21  35  60  92 114 138 186 247 280 320
#     4  10  14  25  41  71 113 145 163 211 298 325
#     4  10  23  40  63  79 109 161 188 222 292 356
#     4  10  16  25  44  76 116 136 172 213 281 328
#     4  12  21  35  55  89 116 138 200 250 273 312
#
# _framework density 21.214305
#
# number of rings (size 3 to 8) (size 9 to 14) (size 15 to 20)
#    0.000    1.714    5.714    1.714    0.000    0.000 
#    0.000   17.143    0.000    0.000    0.000    6.000 
#    0.000    0.000    0.000    0.000    0.000    0.000 
#
# Total GULP energy -156220.595275 kJ/mol
# GULP energy per Si atom -5579.306974 kJ/mol
# Density = 2.116602 g / cm^3
# Si number density = 21.214305 Si / 1000 Ang^3
#
#
#
# Elastic Constant Matrix: (Units=GPa)
#
#
# Indices 1 2 3 4 5 6 
#
# 1 21.8505 22.3055 -14.6457 0.0000 0.0000 0.0000
# 2 22.3055 73.0651 -14.7825 0.0000 0.0000 0.0000
# 3 -14.6457 -14.7825 130.5127 0.0000 0.0000 0.0000
# 4 0.0000 0.0000 0.0000 50.4927 0.0000 0.0000
# 5 0.0000 0.0000 0.0000 0.0000 22.0074 0.0000
# 6 0.0000 0.0000 0.0000 0.0000 0.0000 10.5410
#
#
#
# Elastic Compliance Matrix: (Units=1/GPa)
#
#
# Indices 1 2 3 4 5 6 
#
# 1 0.070245 -0.020315 0.005582 0.000000 0.000000 0.000000
# 2 -0.020315 0.019883 -0.000028 0.000000 0.000000 0.000000
# 3 0.005582 -0.000028 0.008285 0.000000 0.000000 0.000000
# 4 0.000000 0.000000 0.000000 0.019805 0.000000 0.000000
# 5 0.000000 0.000000 0.000000 0.000000 0.045439 0.000000
# 6 0.000000 0.000000 0.000000 0.000000 0.000000 0.094867
#
#
# Mechanical properties :
#
#
# Convention : Reuss Voigt Hill
#
# Bulk Modulus (GPa) = 14.51582 23.46477 18.99030
# Shear Modulus (GPa) = 16.07662 32.11162 24.09412
#
# Velocity S-wave (km/s) = 2.75584 3.89482 3.37374
# Velocity P-wave (km/s) = 4.12111 5.59563 4.91399
#
# Compressibility (1/GPa) = 0.06889035
#
# Stress axis : x y z
#
# Youngs Moduli (GPa) = 14.23589 50.29495 120.69564
#
# Poissons Ratio (x) = 1.02176 -0.67368
# Poissons Ratio (y) = 0.28921 0.00334
# Poissons Ratio (z) = -0.07946 0.00139
#
# Static dielectric constant tensor:
#      x y z
#    x 1.748170 0.000000 0.000000 
#    y 0.000000 1.783880 0.000000 
#    z 0.000000 0.000000 1.888230 
# 
# From -- ./inp_files/638.got.cif
#   From: 2010.05.17/outbox.cif.g08.bks.cpg/sg37_1_cif.got.tgz:638.got - 2010.06.03 17:53:42.
