data_PCOD9353554
_publ_section_title
;
Structure prediction by ZEFSAII (Michael W. Deem and Ramdas Pophale) SiO2 
 PCOD9353554
Probable space group: C C C 2
;
_chemical_formula_sum "Si O2"
_cell_formula_units_Z 48
_cell_length_a 10.189613
_cell_length_b 21.498356
_cell_length_c 9.872396
_cell_angle_alpha 90.000000
_cell_angle_beta 90.000000
_cell_angle_gamma 90.000000
_cell_volume 2162.646355
_symmetry_space_group_name_H-M "C C C 2"
_symmetry_group_IT_number 37
_symmetry_cell_setting 'orthorhombic'
loop_
_space_group_symop_operation_xyz
x,y,z
-x,-y,z
-x,y,1/2+z
x,-y,1/2+z
1/2+x,1/2+y,z
1/2-x,1/2-y,z
1/2-x,1/2+y,1/2+z
1/2+x,1/2-y,1/2+z
loop_
_atom_site_type_symbol
_atom_site_label
_atom_site_fract_x
_atom_site_fract_y
_atom_site_fract_z
Si Si1 0.616200 0.929295 0.907290
Si Si2 0.407163 0.376345 0.632112
Si Si3 0.594488 0.440954 0.426122
Si Si4 0.382503 0.903238 0.100407
Si Si5 0.023894 0.262606 0.669858
Si Si6 0.128123 0.715726 0.431434
O O1 0.753361 0.960722 0.950020
O O2 0.595666 0.935883 0.746384
O O3 0.652670 0.856727 0.929994
O O4 0.480667 0.933198 0.990883
O O5 0.531731 0.400299 0.546978
O O6 0.411247 0.402568 0.785386
O O7 0.271746 0.402278 0.569248
O O8 0.403882 0.301629 0.636460
O O9 0.500000 0.500000 0.411984
O O10 0.417466 0.829524 0.122647
O O11 0.894669 0.259169 0.579915
O O12 0.008338 0.268915 0.830953
O O13 0.250000 0.750000 0.365706
#
# Coordination Sequence:
#
# PCOD9353554 Si02
#       6
#     8   8   8   8   8   8
#     4   9  19  36  57  83 117 152 189 236 286 339
#     4  11  21  37  59  85 115 154 195 241 292 342
#     4  11  24  41  60  82 112 153 203 250 286 328
#     4   9  19  34  57  88 121 151 185 230 291 359
#     4  10  18  32  55  84 119 153 185 227 287 355
#     4  10  18  32  51  80 119 155 185 226 280 345
#
# _framework density 22.195029000000002
#
# number of rings (size 3 to 8) (size 9 to 14) (size 15 to 20)
#    0.000    2.000    0.000    6.000    0.000    1.333 
#    0.000   11.667    0.000    4.000    0.000    0.000 
#    0.000    0.000    0.000    0.000    0.000    0.000 
#
# Total GULP energy -133900.846766 kJ/mol
# GULP energy per Si atom -5579.201949 kJ/mol
# Density = 2.214451 g / cm^3
# Si number density = 22.195029 Si / 1000 Ang^3
#
#
#
# Elastic Constant Matrix: (Units=GPa)
#
#
# Indices 1 2 3 4 5 6 
#
# 1 113.5248 11.1442 41.5784 0.0000 0.0000 0.0000
# 2 11.1442 88.7985 0.4187 0.0000 0.0000 0.0000
# 3 41.5784 0.4187 61.6995 0.0000 0.0000 0.0000
# 4 0.0000 0.0000 0.0000 -46.9867 0.0000 0.0000
# 5 0.0000 0.0000 0.0000 0.0000 35.9757 0.0000
# 6 0.0000 0.0000 0.0000 0.0000 0.0000 17.2427
#
#
#
# Elastic Compliance Matrix: (Units=1/GPa)
#
#
# Indices 1 2 3 4 5 6 
#
# 1 0.011880 -0.001453 -0.007996 0.000000 0.000000 0.000000
# 2 -0.001453 0.011440 0.000902 0.000000 0.000000 0.000000
# 3 -0.007996 0.000902 0.021590 0.000000 0.000000 0.000000
# 4 0.000000 0.000000 0.000000 -0.021283 0.000000 0.000000
# 5 0.000000 0.000000 0.000000 0.000000 0.027797 0.000000
# 6 0.000000 0.000000 0.000000 0.000000 0.000000 0.057996
#
#
# Mechanical properties :
#
#
# Convention : Reuss Voigt Hill
#
# Bulk Modulus (GPa) = 35.95254 41.14505 38.54880
# Shear Modulus (GPa) = 36.82308 15.30511 26.06410
#
# Velocity S-wave (km/s) = 4.07759 2.62882 3.43055
# Velocity P-wave (km/s) = 6.19698 5.27186 5.75304
#
# Compressibility (1/GPa) = 0.02781444
#
# Stress axis : x y z
#
# Youngs Moduli (GPa) = 84.17699 87.41584 46.31850
#
# Poissons Ratio (x) = 0.12703 0.37035
# Poissons Ratio (y) = 0.12233 -0.04176
# Poissons Ratio (z) = 0.67305 -0.07882
#
# Static dielectric constant tensor:
#      x y z
#    x 1.841310 0.000000 0.000000 
#    y 0.000000 1.879480 0.000000 
#    z 0.000000 0.000000 1.806750 
# 
# From -- ./inp_files/6372.got.cif
#   From: 2010.05.17/outbox.cif.g08.bks.cpg/sg37_4_cif.got.tgz:6372.got - 2010.06.03 17:53:42.
