data_PCOD9353384
_publ_section_title
;
Structure prediction by ZEFSAII (Michael W. Deem and Ramdas Pophale) SiO2 
 PCOD9353384
Probable space group: C M C 21
;
_chemical_formula_sum "Si O2"
_cell_formula_units_Z 32
_cell_length_a 9.000000
_cell_length_b 30.000000
_cell_length_c 12.000000
_cell_angle_alpha 90.000000
_cell_angle_beta 90.000000
_cell_angle_gamma 90.000000
_cell_volume 3240.000000
_symmetry_space_group_name_H-M "C M C 21"
_symmetry_group_IT_number 36
_symmetry_cell_setting 'orthorhombic'
loop_
_space_group_symop_operation_xyz
x,y,z
-x,-y,1/2+z
x,-y,1/2+z
-x,y,z
1/2+x,1/2+y,z
1/2-x,1/2-y,1/2+z
1/2+x,1/2-y,1/2+z
1/2-x,1/2+y,z
loop_
_atom_site_type_symbol
_atom_site_label
_atom_site_fract_x
_atom_site_fract_y
_atom_site_fract_z
Si Si1 0.171093 0.825980 0.040110
Si Si2 0.829385 0.442808 0.262709
Si Si3 0.832331 0.070599 0.536841
Si Si4 0.323932 0.872753 0.454061
Si Si5 0.176070 0.123022 0.194383
Si Si6 0.176349 0.194346 0.789376
Si Si7 0.326220 0.797255 0.828017
Si Si8 0.669299 0.954747 0.828321
O O1 0.171913 0.877458 0.003891
O O2 0.220050 0.823634 0.167922
O O3 0.000000 0.809821 0.034789
O O4 0.273789 0.799765 0.955682
O O5 0.718807 0.431776 0.163527
O O6 0.794419 0.414850 0.373285
O O7 0.822324 0.495284 0.284093
O O8 0.000000 0.431199 0.230815
O O9 0.721658 0.045210 0.455898
O O10 0.000000 0.054089 0.523201
O O11 0.500000 0.869798 0.473023
O O12 0.242057 0.877398 0.570656
O O13 0.266151 0.830114 0.385725
O O14 0.236419 0.166484 0.258212
O O15 0.229904 0.079144 0.259587
O O16 0.000000 0.124325 0.191572
O O17 0.198941 0.247142 0.787679
O O18 0.000000 0.185515 0.805387
O O19 0.500000 0.807742 0.819243
O O20 0.500000 0.938767 0.820547
#
# Coordination Sequence:
#
# PCOD9353384 Si02
#       8
#     8   8   8   8   8   8   8   8
#     4  10  21  40  64  90 126 164 204 261 314 364
#     4  10  24  43  65  93 125 165 210 257 311 374
#     4  11  22  39  66  95 125 162 206 259 317 371
#     4  11  24  43  66  93 126 167 211 256 313 376
#     4  12  26  44  64  91 128 168 210 261 319 374
#     4  10  23  43  64  93 129 165 208 258 312 369
#     4  11  24  41  65  95 125 166 213 257 312 374
#     4  11  24  43  66  92 126 167 212 261 314 372
#
# _framework density 9.8765429999999999
#
# number of rings (size 3 to 8) (size 9 to 14) (size 15 to 20)
#    0.000    1.250    2.500    2.625    3.500    3.500 
#    0.000    0.000    0.000    0.000    0.000    0.000 
#    0.000    0.000    0.000    0.000    0.000    0.000 
#
# Total GULP energy -178858.205526 kJ/mol
# GULP energy per Si atom -5589.318923 kJ/mol
# Density = 0.985406 g / cm^3
# Si number density = 9.876543 Si / 1000 Ang^3
#
#
#
# Elastic Constant Matrix: (Units=GPa)
#
#
# Indices 1 2 3 4 5 6 
#
# 1 94.3408 49.9945 54.3369 0.0000 0.0000 0.0000
# 2 49.9945 50.3449 28.0330 0.0000 0.0000 0.0000
# 3 54.3369 28.0330 90.2631 0.0000 0.0000 0.0000
# 4 0.0000 0.0000 0.0000 46.9912 0.0000 0.0000
# 5 0.0000 0.0000 0.0000 0.0000 35.4166 0.0000
# 6 0.0000 0.0000 0.0000 0.0000 0.0000 12.2504
#
#
#
# Elastic Compliance Matrix: (Units=1/GPa)
#
#
# Indices 1 2 3 4 5 6 
#
# 1 0.028338 -0.022540 -0.010059 0.000000 0.000000 0.000000
# 2 -0.022540 0.041944 0.000542 0.000000 0.000000 0.000000
# 3 -0.010059 0.000542 0.016966 0.000000 0.000000 0.000000
# 4 0.000000 0.000000 0.000000 0.021281 0.000000 0.000000
# 5 0.000000 0.000000 0.000000 0.000000 0.028235 0.000000
# 6 0.000000 0.000000 0.000000 0.000000 0.000000 0.081630
#
#
# Mechanical properties :
#
#
# Convention : Reuss Voigt Hill
#
# Bulk Modulus (GPa) = 43.22547 55.51973 49.37260
# Shear Modulus (GPa) = 17.22842 25.77062 21.49952
#
# Velocity S-wave (km/s) = 2.95649 3.61590 3.30269
# Velocity P-wave (km/s) = 5.79524 6.75284 6.29228
#
# Compressibility (1/GPa) = 0.02313451
#
# Stress axis : x y z
#
# Youngs Moduli (GPa) = 35.28828 23.84125 58.94272
#
# Poissons Ratio (x) = 0.53738 0.59289
# Poissons Ratio (y) = 0.79539 -0.03195
# Poissons Ratio (z) = 0.35496 -0.01292
#
# Static dielectric constant tensor:
#      x y z
#    x 1.679860 0.000000 0.000000 
#    y 0.000000 1.645650 0.000000 
#    z 0.000000 0.000000 1.669290 
# 
# From -- ./inp_files/7110.got.cif
#   From: 2010.05.17/outbox.ucp.g08.bks.cvg/sg36_4_cif.got.tgz:7110.got - 2010.06.11 10:37:26.
