data_PCOD9353773
_publ_section_title
;
Structure prediction by ZEFSAII (Michael W. Deem and Ramdas Pophale) SiO2 
 PCOD9353773
Probable space group: C C C 2
;
_chemical_formula_sum "Si O2"
_cell_formula_units_Z 56
_cell_length_a 8.567637
_cell_length_b 13.167339
_cell_length_c 22.656723
_cell_angle_alpha 90.000000
_cell_angle_beta 90.000000
_cell_angle_gamma 90.000000
_cell_volume 2555.972457
_symmetry_space_group_name_H-M "C C C 2"
_symmetry_group_IT_number 37
_symmetry_cell_setting 'orthorhombic'
loop_
_space_group_symop_operation_xyz
x,y,z
-x,-y,z
-x,y,1/2+z
x,-y,1/2+z
1/2+x,1/2+y,z
1/2-x,1/2-y,z
1/2-x,1/2+y,1/2+z
1/2+x,1/2-y,1/2+z
loop_
_atom_site_type_symbol
_atom_site_label
_atom_site_fract_x
_atom_site_fract_y
_atom_site_fract_z
Si Si1 0.500000 0.000000 0.554340
Si Si2 0.495311 0.212252 0.228249
Si Si3 0.750000 0.750000 0.634013
Si Si4 0.636087 0.849212 0.459440
Si Si5 0.429498 0.227249 0.858439
Si Si6 0.862982 0.072256 0.865118
Si Si7 0.327595 0.531808 0.112003
Si Si8 0.190897 0.080223 0.231939
O O1 0.557325 0.904871 0.514579
O O2 0.664949 0.018980 0.588851
O O3 0.618583 0.203429 0.176580
O O4 0.560584 0.182733 0.292554
O O5 0.349466 0.139863 0.218871
O O6 0.438506 0.329947 0.228299
O O7 0.683542 0.652519 0.600900
O O8 0.750000 0.750000 0.470549
O O9 0.493408 0.829185 0.415066
O O10 0.741549 0.921508 0.417864
O O11 0.250000 0.250000 0.868251
O O12 0.555545 0.318825 0.855870
O O13 0.805154 0.041229 0.799603
O O14 0.000000 0.000000 0.883966
O O15 0.500000 0.500000 0.088397
O O16 0.330919 0.503217 0.181692
#
# Coordination Sequence:
#
# PCOD9353773 Si02
#       8
#     4   8   4   8   8   8   8   8
#     4  12  30  52  78 102 134 202 268 302 358 426
#     4  10  19  35  66 104 148 185 221 282 367 457
#     4  12  24  42  72 108 142 186 234 298 376 438
#     4  10  24  50  71  98 142 184 239 309 358 422
#     4  10  20  37  62 104 142 178 224 281 359 447
#     4  10  21  36  68 102 142 184 221 286 375 442
#     4  12  27  51  74 106 146 192 253 313 363 437
#     4  10  20  40  65 103 147 186 230 291 371 447
#
# _framework density 21.909469999999999
#
# number of rings (size 3 to 8) (size 9 to 14) (size 15 to 20)
#    0.000    1.429    3.571    1.286    5.000    0.571 
#    2.571    0.000    0.000    0.000    0.000    0.000 
#    0.000    0.000    0.000    0.000    0.000    0.000 
#
# Total GULP energy -156196.046445 kJ/mol
# GULP energy per Si atom -5578.430230 kJ/mol
# Density = 2.185960 g / cm^3
# Si number density = 21.909470 Si / 1000 Ang^3
#
#
#
# Elastic Constant Matrix: (Units=GPa)
#
#
# Indices 1 2 3 4 5 6 
#
# 1 162.0424 35.5796 59.5134 0.0000 0.0000 0.0000
# 2 35.5796 64.3880 33.6196 0.0000 0.0000 0.0000
# 3 59.5134 33.6196 85.5378 0.0000 0.0000 0.0000
# 4 0.0000 0.0000 0.0000 26.2969 0.0000 0.0000
# 5 0.0000 0.0000 0.0000 0.0000 59.7512 0.0000
# 6 0.0000 0.0000 0.0000 0.0000 0.0000 27.2199
#
#
#
# Elastic Compliance Matrix: (Units=1/GPa)
#
#
# Indices 1 2 3 4 5 6 
#
# 1 0.008494 -0.002023 -0.005115 0.000000 0.000000 0.000000
# 2 -0.002023 0.020023 -0.006462 0.000000 0.000000 0.000000
# 3 -0.005115 -0.006462 0.017789 0.000000 0.000000 0.000000
# 4 0.000000 0.000000 0.000000 0.038027 0.000000 0.000000
# 5 0.000000 0.000000 0.000000 0.000000 0.016736 0.000000
# 6 0.000000 0.000000 0.000000 0.000000 0.000000 0.036738
#
#
# Mechanical properties :
#
#
# Convention : Reuss Voigt Hill
#
# Bulk Modulus (GPa) = 52.33873 63.26592 57.80233
# Shear Modulus (GPa) = 29.17573 34.87063 32.02318
#
# Velocity S-wave (km/s) = 3.65314 3.99379 3.82725
# Velocity P-wave (km/s) = 6.46021 7.08561 6.78013
#
# Compressibility (1/GPa) = 0.01910631
#
# Stress axis : x y z
#
# Youngs Moduli (GPa) = 117.73250 49.94271 56.21427
#
# Poissons Ratio (x) = 0.10104 0.28751
# Poissons Ratio (y) = 0.23818 0.36327
# Poissons Ratio (z) = 0.60214 0.32274
#
# Static dielectric constant tensor:
#      x y z
#    x 1.807420 0.000000 0.000000 
#    y 0.000000 1.837960 0.000000 
#    z 0.000000 0.000000 1.824790 
# 
# From -- ./inp_files/16439.got.cif
#   From: 2010.05.17/outbox.cif.g08.bks.cpg/sg37_9_cif.got.tgz:16439.got - 2010.06.03 17:53:42.
