data_PCOD9353115
_publ_section_title
;
Structure prediction by ZEFSAII (Michael W. Deem and Ramdas Pophale) SiO2 
 PCOD9353115
Probable space group: C M C 21
;
_chemical_formula_sum "Si O2"
_cell_formula_units_Z 40
_cell_length_a 11.096439
_cell_length_b 20.286281
_cell_length_c 7.741397
_cell_angle_alpha 90.000000
_cell_angle_beta 90.000000
_cell_angle_gamma 90.000000
_cell_volume 1742.630885
_symmetry_space_group_name_H-M "C M C 21"
_symmetry_group_IT_number 36
_symmetry_cell_setting 'orthorhombic'
loop_
_space_group_symop_operation_xyz
x,y,z
-x,-y,1/2+z
x,-y,1/2+z
-x,y,z
1/2+x,1/2+y,z
1/2-x,1/2-y,1/2+z
1/2+x,1/2-y,1/2+z
1/2-x,1/2+y,z
loop_
_atom_site_type_symbol
_atom_site_label
_atom_site_fract_x
_atom_site_fract_y
_atom_site_fract_z
Si Si1 0.856263 0.294775 0.396630
Si Si2 0.138960 0.963035 0.163287
Si Si3 0.261844 0.837049 0.016630
Si Si4 0.236567 0.576326 0.992781
Si Si5 0.500000 0.031594 0.781852
Si Si6 0.000000 0.394835 0.908934
O O1 0.818650 0.221045 0.441923
O O2 0.810516 0.314505 0.205363
O O3 0.788716 0.347028 0.521738
O O4 0.000000 0.303001 0.406798
O O5 0.189862 0.905410 0.040004
O O6 0.156793 0.934049 0.354064
O O7 0.000000 0.977433 0.129422
O O8 0.223504 0.027236 0.142824
O O9 0.380628 0.851799 0.905720
O O10 0.117466 0.552063 0.890472
O O11 0.500000 0.067476 0.596554
O O12 0.500000 0.952556 0.768681
#
# Coordination Sequence:
#
# PCOD9353115 Si02
#       6
#     8   8   8   8   4   4
#     4  11  23  45  66  92 133 177 220 278 329 398
#     4  11  23  40  61  92 129 163 210 265 328 398
#     4  11  23  44  65  93 132 175 217 274 336 393
#     4  11  21  40  66  91 123 164 212 271 327 380
#     4  12  18  42  74  96 126 159 219 288 334 373
#     4  12  22  44  70 100 132 163 223 286 332 401
#
# _framework density 22.953800000000001
#
# number of rings (size 3 to 8) (size 9 to 14) (size 15 to 20)
#    0.000    0.800    8.000    1.200    0.000    1.600 
#   14.400    2.000    0.000    0.000    0.000    0.000 
#    0.000    0.000    0.000    0.000    0.000    0.000 
#
# Total GULP energy -112014.652224 kJ/mol
# GULP energy per Si atom -5600.732611 kJ/mol
# Density = 2.290156 g / cm^3
# Si number density = 22.953800 Si / 1000 Ang^3
#
#
#
# Elastic Constant Matrix: (Units=GPa)
#
#
# Indices 1 2 3 4 5 6 
#
# 1 136.0783 23.0094 20.2322 0.0000 0.0000 0.0000
# 2 23.0094 78.4286 19.4944 0.0000 0.0000 0.0000
# 3 20.2322 19.4944 67.0852 0.0000 0.0000 0.0000
# 4 0.0000 0.0000 0.0000 28.9896 0.0000 0.0000
# 5 0.0000 0.0000 0.0000 0.0000 26.5002 0.0000
# 6 0.0000 0.0000 0.0000 0.0000 0.0000 44.1827
#
#
#
# Elastic Compliance Matrix: (Units=1/GPa)
#
#
# Indices 1 2 3 4 5 6 
#
# 1 0.007940 -0.001869 -0.001851 0.000000 0.000000 0.000000
# 2 -0.001869 0.014183 -0.003558 0.000000 0.000000 0.000000
# 3 -0.001851 -0.003558 0.016499 0.000000 0.000000 0.000000
# 4 0.000000 0.000000 0.000000 0.034495 0.000000 0.000000
# 5 0.000000 0.000000 0.000000 0.000000 0.037736 0.000000
# 6 0.000000 0.000000 0.000000 0.000000 0.000000 0.022633
#
#
# Mechanical properties :
#
#
# Convention : Reuss Voigt Hill
#
# Bulk Modulus (GPa) = 41.55418 45.22931 43.39174
# Shear Modulus (GPa) = 32.03804 34.52490 33.28147
#
# Velocity S-wave (km/s) = 3.74004 3.88249 3.81193
# Velocity P-wave (km/s) = 6.06574 6.31233 6.19027
#
# Compressibility (1/GPa) = 0.02406497
#
# Stress axis : x y z
#
# Youngs Moduli (GPa) = 125.94372 70.50604 60.61099
#
# Poissons Ratio (x) = 0.13179 0.11222
# Poissons Ratio (y) = 0.23542 0.21564
# Poissons Ratio (z) = 0.23318 0.25084
#
# Static dielectric constant tensor:
#      x y z
#    x 1.797010 0.000000 0.000000 
#    y 0.000000 1.869420 0.000000 
#    z 0.000000 0.000000 1.939610 
# 
# From -- ./inp_files/3076.got.cif
#   From: 2010.05.17/outbox.cif.g08.bks.cpg/sg36_2_cif.got.tgz:3076.got - 2010.06.03 17:41:39.
