data_PCOD9353728
_publ_section_title
;
Structure prediction by ZEFSAII (Michael W. Deem and Ramdas Pophale) SiO2 
 PCOD9353728
Probable space group: C C C 2
;
_chemical_formula_sum "Si O2"
_cell_formula_units_Z 64
_cell_length_a 9.558774
_cell_length_b 15.799212
_cell_length_c 19.868351
_cell_angle_alpha 90.000000
_cell_angle_beta 90.000000
_cell_angle_gamma 90.000000
_cell_volume 3000.540161
_symmetry_space_group_name_H-M "C C C 2"
_symmetry_group_IT_number 37
_symmetry_cell_setting 'orthorhombic'
loop_
_space_group_symop_operation_xyz
x,y,z
-x,-y,z
-x,y,1/2+z
x,-y,1/2+z
1/2+x,1/2+y,z
1/2-x,1/2-y,z
1/2-x,1/2+y,1/2+z
1/2+x,1/2-y,1/2+z
loop_
_atom_site_type_symbol
_atom_site_label
_atom_site_fract_x
_atom_site_fract_y
_atom_site_fract_z
Si Si1 0.864706 0.677249 0.475060
Si Si2 0.619349 0.562575 0.281156
Si Si3 0.771746 0.875658 0.079489
Si Si4 0.293817 0.536699 0.147038
Si Si5 0.496967 0.685010 0.681272
Si Si6 0.814651 0.668228 0.930963
Si Si7 0.543141 0.854370 0.625581
Si Si8 0.336907 0.018267 0.387777
O O1 0.750000 0.750000 0.458027
O O2 0.824019 0.581735 0.451576
O O3 0.019454 0.685707 0.441759
O O4 0.890851 0.678001 0.555064
O O5 0.500000 0.500000 0.309928
O O6 0.669451 0.517390 0.212648
O O7 0.554915 0.649764 0.253078
O O8 0.749444 0.565519 0.330543
O O9 0.872017 0.820152 0.126460
O O10 0.616561 0.876493 0.110476
O O11 0.822868 0.972875 0.085706
O O12 0.757144 0.841985 0.004479
O O13 0.388757 0.619757 0.152294
O O14 0.135696 0.567116 0.147038
O O15 0.550562 0.779974 0.680049
O O16 0.750000 0.750000 0.895798
O O17 0.784531 0.577558 0.897905
O O18 0.500000 0.000000 0.372990
#
# Coordination Sequence:
#
# PCOD9353728 Si02
#       8
#     8   8   8   8   8   8   8   8
#     4  10  21  38  59  87 120 153 193 244 301 362
#     4   9  21  40  57  78 113 153 197 241 289 352
#     4  10  19  34  54  82 118 148 179 229 295 360
#     4  10  20  35  56  81 110 148 188 233 290 352
#     4  10  20  36  57  83 116 149 186 240 299 357
#     4  10  21  37  58  85 116 150 194 245 298 353
#     4  11  20  33  57  89 118 144 184 240 300 356
#     4  10  22  41  61  81 113 159 204 248 294 352
#
# _framework density 21.329491999999998
#
# number of rings (size 3 to 8) (size 9 to 14) (size 15 to 20)
#    0.000    2.000    0.000    5.250    0.000    5.000 
#    0.000   10.000    0.000    1.500    0.000    0.000 
#    0.000    0.000    0.000    0.000    0.000    0.000 
#
# Total GULP energy -178621.408199 kJ/mol
# GULP energy per Si atom -5581.919006 kJ/mol
# Density = 2.128095 g / cm^3
# Si number density = 21.329492 Si / 1000 Ang^3
#
#
#
# Elastic Constant Matrix: (Units=GPa)
#
#
# Indices 1 2 3 4 5 6 
#
# 1 55.8350 15.8035 14.8864 0.0000 0.0000 0.0000
# 2 15.8035 120.8696 11.0107 0.0000 0.0000 0.0000
# 3 14.8864 11.0107 25.4788 0.0000 0.0000 0.0000
# 4 0.0000 0.0000 0.0000 -38.6358 0.0000 0.0000
# 5 0.0000 0.0000 0.0000 0.0000 -301.0998 0.0000
# 6 0.0000 0.0000 0.0000 0.0000 0.0000 35.2266
#
#
#
# Elastic Compliance Matrix: (Units=1/GPa)
#
#
# Indices 1 2 3 4 5 6 
#
# 1 0.021560 -0.001740 -0.011845 0.000000 0.000000 0.000000
# 2 -0.001740 0.008753 -0.002766 0.000000 0.000000 0.000000
# 3 -0.011845 -0.002766 0.047364 0.000000 0.000000 0.000000
# 4 0.000000 0.000000 0.000000 -0.025883 0.000000 0.000000
# 5 0.000000 0.000000 0.000000 0.000000 -0.003321 0.000000
# 6 0.000000 0.000000 0.000000 0.000000 0.000000 0.028388
#
#
# Mechanical properties :
#
#
# Convention : Reuss Voigt Hill
#
# Bulk Modulus (GPa) = 22.23431 31.73161 26.98296
# Shear Modulus (GPa) = 40.14290 -50.20295 -5.03003
#
# Velocity S-wave (km/s) = 4.34295 -4.85674 -1.53733
# Velocity P-wave (km/s) = 5.96617 4.06712 3.08656
#
# Compressibility (1/GPa) = 0.04497554
#
# Stress axis : x y z
#
# Youngs Moduli (GPa) = 46.38123 114.24869 21.11300
#
# Poissons Ratio (x) = 0.19879 0.25009
# Poissons Ratio (y) = 0.08070 0.05840
# Poissons Ratio (z) = 0.54939 0.31600
#
# Static dielectric constant tensor:
#      x y z
#    x 2.145100 0.000000 0.000000 
#    y 0.000000 1.880660 0.000000 
#    z 0.000000 0.000000 1.737980 
# 
# From -- ./inp_files/16525.got.cif
#   From: 2010.05.17/outbox.cif.g08.bks.cpg/sg37_9_cif.got.tgz:16525.got - 2010.06.03 17:53:42.
