data_PCOD9353163
_publ_section_title
;
Structure prediction by ZEFSAII (Michael W. Deem and Ramdas Pophale) SiO2 
 PCOD9353163
Probable space group: C M C 21
;
_chemical_formula_sum "Si O2"
_cell_formula_units_Z 32
_cell_length_a 12.607999
_cell_length_b 17.803449
_cell_length_c 6.958563
_cell_angle_alpha 90.000000
_cell_angle_beta 90.000000
_cell_angle_gamma 90.000000
_cell_volume 1561.959878
_symmetry_space_group_name_H-M "C M C 21"
_symmetry_group_IT_number 36
_symmetry_cell_setting 'orthorhombic'
loop_
_space_group_symop_operation_xyz
x,y,z
-x,-y,1/2+z
x,-y,1/2+z
-x,y,z
1/2+x,1/2+y,z
1/2-x,1/2-y,1/2+z
1/2+x,1/2-y,1/2+z
1/2-x,1/2+y,z
loop_
_atom_site_type_symbol
_atom_site_label
_atom_site_fract_x
_atom_site_fract_y
_atom_site_fract_z
Si Si1 0.216708 0.324042 0.315400
Si Si2 0.874535 0.831282 0.961140
Si Si3 0.761922 0.417571 0.696742
Si Si4 0.882887 0.439520 0.058878
O O1 0.174735 0.240677 0.351080
O O2 0.241938 0.361604 0.518821
O O3 0.314711 0.330537 0.166771
O O4 0.126743 0.374913 0.216089
O O5 0.840566 0.902753 0.830015
O O6 0.000000 0.825671 0.981726
O O7 0.855511 0.404262 0.852380
O O8 0.793935 0.498574 0.611281
O O9 0.000000 0.473565 0.056562
#
# Coordination Sequence:
#
# PCOD9353163 Si02
#       4
#     8   8   8   8
#     4  11  23  45  66  99 135 169 225 276 321 402
#     4  11  25  45  69  97 135 180 217 270 335 389
#     4  11  23  41  64  97 138 168 218 273 323 401
#     4  11  23  39  69 103 132 169 216 281 337 380
#
# _framework density 20.487082000000001
#
# number of rings (size 3 to 8) (size 9 to 14) (size 15 to 20)
#    0.000    1.000    5.000    1.500    0.000    4.000 
#    0.000    5.000    0.000    0.000    0.000    0.000 
#    0.000    0.000    0.000    0.000    0.000    0.000 
#
# Total GULP energy -89270.807475 kJ/mol
# GULP energy per Si atom -5579.425467 kJ/mol
# Density = 2.044045 g / cm^3
# Si number density = 20.487082 Si / 1000 Ang^3
#
#
#
# Elastic Constant Matrix: (Units=GPa)
#
#
# Indices 1 2 3 4 5 6 
#
# 1 144.6462 39.1486 67.5158 0.0000 0.0000 0.0000
# 2 39.1486 75.1284 45.8311 0.0000 0.0000 0.0000
# 3 67.5158 45.8311 156.4222 0.0000 0.0000 0.0000
# 4 0.0000 0.0000 0.0000 46.9131 0.0000 0.0000
# 5 0.0000 0.0000 0.0000 0.0000 9.8661 0.0000
# 6 0.0000 0.0000 0.0000 0.0000 0.0000 21.1912
#
#
#
# Elastic Compliance Matrix: (Units=1/GPa)
#
#
# Indices 1 2 3 4 5 6 
#
# 1 0.009139 -0.002868 -0.003104 0.000000 0.000000 0.000000
# 2 -0.002868 0.017108 -0.003774 0.000000 0.000000 0.000000
# 3 -0.003104 -0.003774 0.008839 0.000000 0.000000 0.000000
# 4 0.000000 0.000000 0.000000 0.021316 0.000000 0.000000
# 5 0.000000 0.000000 0.000000 0.000000 0.101357 0.000000
# 6 0.000000 0.000000 0.000000 0.000000 0.000000 0.047189
#
#
# Mechanical properties :
#
#
# Convention : Reuss Voigt Hill
#
# Bulk Modulus (GPa) = 64.13855 75.68752 69.91303
# Shear Modulus (GPa) = 21.77339 30.50751 26.14045
#
# Velocity S-wave (km/s) = 3.26358 3.86308 3.57592
# Velocity P-wave (km/s) = 6.75100 7.54467 7.15885
#
# Compressibility (1/GPa) = 0.01559125
#
# Stress axis : x y z
#
# Youngs Moduli (GPa) = 109.42573 58.45283 113.13987
#
# Poissons Ratio (x) = 0.16767 0.35119
# Poissons Ratio (y) = 0.31388 0.42704
# Poissons Ratio (z) = 0.33966 0.22063
#
# Static dielectric constant tensor:
#      x y z
#    x 1.710820 0.000000 0.000000 
#    y 0.000000 1.772550 0.000000 
#    z 0.000000 0.000000 1.749570 
# 
# From -- ./inp_files/404.got.cif
#   From: 2010.05.17/outbox.cif.g08.bks.cpg/sg36_1_cif.got.tgz:404.got - 2010.06.03 17:41:39.
