data_PCOD9353502
_publ_section_title
;
Structure prediction by ZEFSAII (Michael W. Deem and Ramdas Pophale) SiO2 
 PCOD9353502
Probable space group: C C C 2
;
_chemical_formula_sum "Si O2"
_cell_formula_units_Z 48
_cell_length_a 15.657787
_cell_length_b 8.499265
_cell_length_c 17.069065
_cell_angle_alpha 90.000000
_cell_angle_beta 90.000000
_cell_angle_gamma 90.000000
_cell_volume 2271.545726
_symmetry_space_group_name_H-M "C C C 2"
_symmetry_group_IT_number 37
_symmetry_cell_setting 'orthorhombic'
loop_
_space_group_symop_operation_xyz
x,y,z
-x,-y,z
-x,y,1/2+z
x,-y,1/2+z
1/2+x,1/2+y,z
1/2-x,1/2-y,z
1/2-x,1/2+y,1/2+z
1/2+x,1/2-y,1/2+z
loop_
_atom_site_type_symbol
_atom_site_label
_atom_site_fract_x
_atom_site_fract_y
_atom_site_fract_z
Si Si1 0.332778 0.355726 0.261540
Si Si2 0.479342 0.686479 0.871497
Si Si3 0.660238 0.160072 0.152246
Si Si4 0.158911 0.782143 0.323307
Si Si5 0.578107 0.378714 0.035996
Si Si6 0.773582 0.913219 0.087224
O O1 0.250000 0.250000 0.282972
O O2 0.417464 0.277143 0.298582
O O3 0.334605 0.534382 0.295586
O O4 0.326740 0.378828 0.167799
O O5 0.500000 0.500000 0.866870
O O6 0.573957 0.755988 0.870679
O O7 0.433224 0.709792 0.953894
O O8 0.750000 0.250000 0.137508
O O9 0.649801 0.176429 0.244665
O O10 0.588177 0.254836 0.106235
O O11 0.685470 0.992721 0.117122
O O12 0.250000 0.750000 0.361130
O O13 0.500000 0.500000 0.046860
O O14 0.665531 0.479312 0.034939
O O15 0.750000 0.750000 0.048760
#
# Coordination Sequence:
#
# PCOD9353502 Si02
#       6
#     8   8   8   8   8   8
#     4  10  19  33  56  88 121 153 196 245 301 356
#     4   9  21  35  56  88 116 161 202 239 295 371
#     4   9  17  33  60  88 109 153 199 245 300 359
#     4  10  17  35  60  86 118 152 204 247 295 358
#     4  10  20  36  58  86 115 154 205 239 298 369
#     4  10  20  36  60  88 117 151 204 250 306 359
#
# _framework density 21.130984999999999
#
# number of rings (size 3 to 8) (size 9 to 14) (size 15 to 20)
#    0.000    2.333    5.000    0.000    2.333    2.000 
#    0.000    9.167    0.000    6.000    0.000    0.000 
#    0.000    0.000    0.000    0.000    0.000    0.000 
#
# Total GULP energy -133741.679135 kJ/mol
# GULP energy per Si atom -5572.569964 kJ/mol
# Density = 2.108289 g / cm^3
# Si number density = 21.130985 Si / 1000 Ang^3
#
#
#
# Elastic Constant Matrix: (Units=GPa)
#
#
# Indices 1 2 3 4 5 6 
#
# 1 105.4578 8.3965 51.4220 0.0000 0.0000 0.0000
# 2 8.3965 44.6789 5.8380 0.0000 0.0000 0.0000
# 3 51.4220 5.8380 78.3488 0.0000 0.0000 0.0000
# 4 0.0000 0.0000 0.0000 5.4727 0.0000 0.0000
# 5 0.0000 0.0000 0.0000 0.0000 26.1161 0.0000
# 6 0.0000 0.0000 0.0000 0.0000 0.0000 30.4638
#
#
#
# Elastic Compliance Matrix: (Units=1/GPa)
#
#
# Indices 1 2 3 4 5 6 
#
# 1 0.014038 -0.001448 -0.009105 0.000000 0.000000 0.000000
# 2 -0.001448 0.022751 -0.000745 0.000000 0.000000 0.000000
# 3 -0.009105 -0.000745 0.018795 0.000000 0.000000 0.000000
# 4 0.000000 0.000000 0.000000 0.182724 0.000000 0.000000
# 5 0.000000 0.000000 0.000000 0.000000 0.038291 0.000000
# 6 0.000000 0.000000 0.000000 0.000000 0.000000 0.032826
#
#
# Mechanical properties :
#
#
# Convention : Reuss Voigt Hill
#
# Bulk Modulus (GPa) = 30.31467 39.97760 35.14614
# Shear Modulus (GPa) = 14.57654 23.26580 18.92117
#
# Velocity S-wave (km/s) = 2.62929 3.32177 2.99561
# Velocity P-wave (km/s) = 4.85744 5.80278 5.35103
#
# Compressibility (1/GPa) = 0.03298733
#
# Stress axis : x y z
#
# Youngs Moduli (GPa) = 71.23749 43.95330 53.20598
#
# Poissons Ratio (x) = 0.06366 0.48445
# Poissons Ratio (y) = 0.10318 0.03962
# Poissons Ratio (z) = 0.64863 0.03273
#
# Static dielectric constant tensor:
#      x y z
#    x 1.818100 0.000000 0.000000 
#    y 0.000000 1.872320 0.000000 
#    z 0.000000 0.000000 1.780670 
# 
# From -- ./inp_files/15220.got.cif
#   From: 2010.05.17/outbox.cif.g08.bks.cpg/sg37_8_cif.got.tgz:15220.got - 2010.06.03 17:53:42.
