data_PCOD9353161
_publ_section_title
;
Structure prediction by ZEFSAII (Michael W. Deem and Ramdas Pophale) SiO2 
 PCOD9353161
Probable space group: C M C 21
;
_chemical_formula_sum "Si O2"
_cell_formula_units_Z 48
_cell_length_a 8.913029
_cell_length_b 24.316098
_cell_length_c 12.102137
_cell_angle_alpha 90.000000
_cell_angle_beta 90.000000
_cell_angle_gamma 90.000000
_cell_volume 2622.897201
_symmetry_space_group_name_H-M "C M C 21"
_symmetry_group_IT_number 36
_symmetry_cell_setting 'orthorhombic'
loop_
_space_group_symop_operation_xyz
x,y,z
-x,-y,1/2+z
x,-y,1/2+z
-x,y,z
1/2+x,1/2+y,z
1/2-x,1/2-y,1/2+z
1/2+x,1/2-y,1/2+z
1/2-x,1/2+y,z
loop_
_atom_site_type_symbol
_atom_site_label
_atom_site_fract_x
_atom_site_fract_y
_atom_site_fract_z
Si Si1 0.178545 0.358252 0.871340
Si Si2 0.678643 0.391530 0.222824
Si Si3 0.820381 0.707298 0.590699
Si Si4 0.679098 0.666063 0.136785
Si Si5 0.179439 0.459544 0.028203
Si Si6 0.179777 0.416227 0.460008
O O1 0.268575 0.348110 0.760277
O O2 0.211245 0.417032 0.928483
O O3 0.000000 0.356015 0.848022
O O4 0.213004 0.313403 0.966433
O O5 0.500000 0.391651 0.228726
O O6 0.736824 0.333586 0.173929
O O7 0.748627 0.402715 0.342045
O O8 0.736125 0.437140 0.135675
O O9 0.781856 0.770561 0.610122
O O10 0.000000 0.700205 0.606289
O O11 0.500000 0.660265 0.126571
O O12 0.759317 0.625818 0.051003
O O13 0.218024 0.521492 0.996108
O O14 0.000000 0.456211 0.049279
O O15 0.000000 0.412477 0.452309
#
# Coordination Sequence:
#
# PCOD9353161 Si02
#       6
#     8   8   8   8   8   8
#     4   9  19  39  63  86 114 158 206 245 293 357
#     4  11  23  39  63  93 123 154 197 253 305 349
#     4   9  21  42  63  85 120 163 203 242 295 363
#     4  11  24  39  59  93 126 154 198 254 302 346
#     4   9  21  42  65  86 116 162 207 241 290 362
#     4  11  24  41  63  89 121 163 205 241 293 363
#
# _framework density 18.300373
#
# number of rings (size 3 to 8) (size 9 to 14) (size 15 to 20)
#    0.000    2.000    0.000    3.500    4.667    5.333 
#    0.000    0.000    0.000    0.000    0.000    0.000 
#    0.000    0.000    0.000    0.000    0.000    0.000 
#
# Total GULP energy -134108.841765 kJ/mol
# GULP energy per Si atom -5587.868407 kJ/mol
# Density = 1.825872 g / cm^3
# Si number density = 18.300373 Si / 1000 Ang^3
#
#
#
# Elastic Constant Matrix: (Units=GPa)
#
#
# Indices 1 2 3 4 5 6 
#
# 1 71.9144 80.7825 77.9511 0.0000 0.0000 0.0000
# 2 80.7825 167.8619 113.1211 0.0000 0.0000 0.0000
# 3 77.9511 113.1211 160.1979 0.0000 0.0000 0.0000
# 4 0.0000 0.0000 0.0000 10.6866 0.0000 0.0000
# 5 0.0000 0.0000 0.0000 0.0000 32.2353 0.0000
# 6 0.0000 0.0000 0.0000 0.0000 0.0000 23.6568
#
#
#
# Elastic Compliance Matrix: (Units=1/GPa)
#
#
# Indices 1 2 3 4 5 6 
#
# 1 0.037801 -0.011058 -0.010585 0.000000 0.000000 0.000000
# 2 -0.011058 0.014601 -0.004929 0.000000 0.000000 0.000000
# 3 -0.010585 -0.004929 0.014874 0.000000 0.000000 0.000000
# 4 0.000000 0.000000 0.000000 0.093575 0.000000 0.000000
# 5 0.000000 0.000000 0.000000 0.000000 0.031022 0.000000
# 6 0.000000 0.000000 0.000000 0.000000 0.000000 0.042271
#
#
# Mechanical properties :
#
#
# Convention : Reuss Voigt Hill
#
# Bulk Modulus (GPa) = 70.77034 104.85373 87.81203
# Shear Modulus (GPa) = 17.12337 21.85703 19.49020
#
# Velocity S-wave (km/s) = 3.06221 3.45968 3.26700
# Velocity P-wave (km/s) = 7.15949 8.56619 7.89424
#
# Compressibility (1/GPa) = 0.01413021
#
# Stress axis : x y z
#
# Youngs Moduli (GPa) = 26.45439 68.48944 67.23335
#
# Poissons Ratio (x) = 0.75738 0.71167
# Poissons Ratio (y) = 0.29254 0.33141
# Poissons Ratio (z) = 0.28002 0.33760
#
# Static dielectric constant tensor:
#      x y z
#    x 1.609910 0.000000 0.000000 
#    y 0.000000 1.616330 0.000000 
#    z 0.000000 0.000000 1.589700 
# 
# From -- ./inp_files/6716.got.cif
#   From: 2010.05.17/outbox.cif.g08.bks.cpg/sg36_4_cif.got.tgz:6716.got - 2010.06.03 17:41:39.
