data_PCOD9353849
_publ_section_title
;
Structure prediction by ZEFSAII (Michael W. Deem and Ramdas Pophale) SiO2 
 PCOD9353849
Probable space group: C C C 2
;
_chemical_formula_sum "Si O2"
_cell_formula_units_Z 52
_cell_length_a 14.074743
_cell_length_b 8.725272
_cell_length_c 19.342202
_cell_angle_alpha 90.000000
_cell_angle_beta 90.000000
_cell_angle_gamma 90.000000
_cell_volume 2375.337705
_symmetry_space_group_name_H-M "C C C 2"
_symmetry_group_IT_number 37
_symmetry_cell_setting 'orthorhombic'
loop_
_space_group_symop_operation_xyz
x,y,z
-x,-y,z
-x,y,1/2+z
x,-y,1/2+z
1/2+x,1/2+y,z
1/2-x,1/2-y,z
1/2-x,1/2+y,1/2+z
1/2+x,1/2-y,1/2+z
loop_
_atom_site_type_symbol
_atom_site_label
_atom_site_fract_x
_atom_site_fract_y
_atom_site_fract_z
Si Si1 0.358527 0.581225 0.567670
Si Si2 0.958474 0.240698 0.032481
Si Si3 0.263131 0.578810 0.718427
Si Si4 0.454187 0.166769 0.889815
Si Si5 0.349377 0.845772 0.146959
Si Si6 0.923949 0.127347 0.258265
Si Si7 0.250000 0.250000 0.954117
O O1 0.438361 0.711863 0.564675
O O2 0.403300 0.417695 0.547882
O O3 0.316331 0.585591 0.644110
O O4 0.285651 0.619257 0.506809
O O5 0.898175 0.368242 0.073086
O O6 0.980699 0.271067 0.952827
O O7 0.250000 0.750000 0.745612
O O8 0.168126 0.493276 0.694304
O O9 0.323704 0.463638 0.766380
O O10 0.456836 0.276701 0.823811
O O11 0.342373 0.183868 0.913212
O O12 0.500000 0.000000 0.874645
O O13 0.250000 0.750000 0.138840
O O14 0.413966 0.735915 0.192718
O O15 0.000000 0.000000 0.242009
#
# Coordination Sequence:
#
# PCOD9353849 Si02
#       7
#     8   8   8   8   8   8   4
#     4  10  19  38  69 104 138 179 222 301 366 424
#     4  10  21  39  70 101 138 184 235 292 363 429
#     4  11  23  40  70 108 139 185 235 298 372 422
#     4  11  28  46  71 101 145 196 247 294 372 451
#     4  10  21  38  71 103 138 181 230 306 359 425
#     4  11  25  47  68  96 143 191 238 300 358 441
#     4  10  24  42  70  98 152 176 234 314 352 442
#
# _framework density 21.891622999999999
#
# number of rings (size 3 to 8) (size 9 to 14) (size 15 to 20)
#    0.000    1.538    3.846    0.923    9.692    1.231 
#    0.000    2.308    0.000    0.000    0.000    0.000 
#    0.000    0.000    0.000    0.000    0.000    0.000 
#
# Total GULP energy -145183.893974 kJ/mol
# GULP energy per Si atom -5583.995922 kJ/mol
# Density = 2.184180 g / cm^3
# Si number density = 21.891623 Si / 1000 Ang^3
#
#
#
# Elastic Constant Matrix: (Units=GPa)
#
#
# Indices 1 2 3 4 5 6 
#
# 1 70.5303 33.2396 40.3954 0.0000 0.0000 0.0000
# 2 33.2396 98.3188 41.8964 0.0000 0.0000 0.0000
# 3 40.3954 41.8964 88.7580 0.0000 0.0000 0.0000
# 4 0.0000 0.0000 0.0000 9.2319 0.0000 0.0000
# 5 0.0000 0.0000 0.0000 0.0000 27.9763 0.0000
# 6 0.0000 0.0000 0.0000 0.0000 0.0000 35.9363
#
#
#
# Elastic Compliance Matrix: (Units=1/GPa)
#
#
# Indices 1 2 3 4 5 6 
#
# 1 0.020166 -0.003639 -0.007460 0.000000 0.000000 0.000000
# 2 -0.003639 0.013389 -0.004664 0.000000 0.000000 0.000000
# 3 -0.007460 -0.004664 0.016863 0.000000 0.000000 0.000000
# 4 0.000000 0.000000 0.000000 0.108320 0.000000 0.000000
# 5 0.000000 0.000000 0.000000 0.000000 0.035745 0.000000
# 6 0.000000 0.000000 0.000000 0.000000 0.000000 0.027827
#
#
# Mechanical properties :
#
#
# Convention : Reuss Voigt Hill
#
# Bulk Modulus (GPa) = 52.93156 54.29667 53.61412
# Shear Modulus (GPa) = 19.22097 24.10060 21.66079
#
# Velocity S-wave (km/s) = 2.96633 3.32159 3.14897
# Velocity P-wave (km/s) = 5.99696 6.29023 6.14534
#
# Compressibility (1/GPa) = 0.01889232
#
# Stress axis : x y z
#
# Youngs Moduli (GPa) = 49.58847 74.69093 59.30008
#
# Poissons Ratio (x) = 0.27177 0.44240
# Poissons Ratio (y) = 0.18043 0.27656
# Poissons Ratio (z) = 0.36995 0.34834
#
# Static dielectric constant tensor:
#      x y z
#    x 1.877760 0.000000 0.000000 
#    y 0.000000 1.876810 0.000000 
#    z 0.000000 0.000000 1.767090 
# 
# From -- ./inp_files/17151.got.cif
#   From: 2010.05.17/outbox.cif.g08.bks.cpg/sg37_9_cif.got.tgz:17151.got - 2010.06.03 17:53:42.
