data_PCOD9353994
_publ_section_title
;
Structure prediction by ZEFSAII (Michael W. Deem and Ramdas Pophale) SiO2 
 PCOD9353994
Probable space group: C C C 2
;
_chemical_formula_sum "Si O2"
_cell_formula_units_Z 44
_cell_length_a 23.925315
_cell_length_b 14.147392
_cell_length_c 5.194555
_cell_angle_alpha 90.000000
_cell_angle_beta 90.000000
_cell_angle_gamma 90.000000
_cell_volume 1758.257184
_symmetry_space_group_name_H-M "C C C 2"
_symmetry_group_IT_number 37
_symmetry_cell_setting 'orthorhombic'
loop_
_space_group_symop_operation_xyz
x,y,z
-x,-y,z
-x,y,1/2+z
x,-y,1/2+z
1/2+x,1/2+y,z
1/2-x,1/2-y,z
1/2-x,1/2+y,1/2+z
1/2+x,1/2-y,1/2+z
loop_
_atom_site_type_symbol
_atom_site_label
_atom_site_fract_x
_atom_site_fract_y
_atom_site_fract_z
Si Si1 0.601013 0.202977 0.424760
Si Si2 0.026163 0.104702 0.286464
Si Si3 0.293372 0.065791 0.851008
Si Si4 0.750000 0.250000 0.093406
Si Si5 0.939761 0.539455 0.701192
Si Si6 0.129916 0.196984 0.428577
O O1 0.648020 0.122467 0.360659
O O2 0.550519 0.143190 0.314613
O O3 0.603927 0.231471 0.718524
O O4 0.615357 0.285998 0.226761
O O5 0.092532 0.105896 0.345216
O O6 0.992388 0.151798 0.520277
O O7 0.000000 0.000000 0.262409
O O8 0.255627 0.156497 0.772111
O O9 0.285999 0.989056 0.620944
O O10 0.804079 0.221543 0.920506
O O11 0.912554 0.529665 0.417954
O O12 0.000000 0.500000 0.632715
#
# Coordination Sequence:
#
# PCOD9353994 Si02
#       6
#     8   8   8   4   8   8
#     4  11  22  40  66  97 140 180 236 289 376 444
#     4  10  22  46  71 101 142 187 247 310 379 469
#     4  11  23  42  70 103 145 193 240 307 387 468
#     4  10  26  48  72 114 150 190 268 322 404 488
#     4  10  20  36  53  84 123 168 219 273 326 413
#     4  11  24  44  70 104 141 190 235 324 377 451
#
# _framework density 25.024782999999999
#
# number of rings (size 3 to 8) (size 9 to 14) (size 15 to 20)
#    0.000    1.455    0.000    5.455    0.000    6.545 
#   26.182    0.000    0.000    0.000    0.000    0.000 
#    0.000    0.000    0.000    0.000    0.000    0.000 
#
# Total GULP energy -122529.544343 kJ/mol
# GULP energy per Si atom -5569.524743 kJ/mol
# Density = 2.496783 g / cm^3
# Si number density = 25.024783 Si / 1000 Ang^3
#
#
#
# Elastic Constant Matrix: (Units=GPa)
#
#
# Indices 1 2 3 4 5 6 
#
# 1 84.6033 14.0058 -4.9487 0.0000 0.0000 0.0000
# 2 14.0058 96.2832 11.4568 0.0000 0.0000 0.0000
# 3 -4.9487 11.4568 143.7007 0.0000 0.0000 0.0000
# 4 0.0000 0.0000 0.0000 3.7102 0.0000 0.0000
# 5 0.0000 0.0000 0.0000 0.0000 28.3400 0.0000
# 6 0.0000 0.0000 0.0000 0.0000 0.0000 43.3696
#
#
#
# Elastic Compliance Matrix: (Units=1/GPa)
#
#
# Indices 1 2 3 4 5 6 
#
# 1 0.012157 -0.001836 0.000565 0.000000 0.000000 0.000000
# 2 -0.001836 0.010763 -0.000921 0.000000 0.000000 0.000000
# 3 0.000565 -0.000921 0.007052 0.000000 0.000000 0.000000
# 4 0.000000 0.000000 0.000000 0.269524 0.000000 0.000000
# 5 0.000000 0.000000 0.000000 0.000000 0.035286 0.000000
# 6 0.000000 0.000000 0.000000 0.000000 0.000000 0.023058
#
#
# Mechanical properties :
#
#
# Convention : Reuss Voigt Hill
#
# Bulk Modulus (GPa) = 39.08162 40.62389 39.85275
# Shear Modulus (GPa) = 13.48610 35.35553 24.42081
#
# Velocity S-wave (km/s) = 2.32396 3.76283 3.12727
# Velocity P-wave (km/s) = 4.78039 5.92851 5.38513
#
# Compressibility (1/GPa) = 0.02558748
#
# Stress axis : x y z
#
# Youngs Moduli (GPa) = 82.25852 92.91372 141.80743
#
# Poissons Ratio (x) = 0.17055 -0.08012
# Poissons Ratio (y) = 0.15099 0.13065
# Poissons Ratio (z) = -0.04648 0.08560
#
# Static dielectric constant tensor:
#      x y z
#    x 2.392350 0.000000 0.000000 
#    y 0.000000 17.095570 0.000000 
#    z 0.000000 0.000000 2.043050 
# 
# From -- ./inp_files/1336.got.cif
#   From: 2010.05.17/outbox.cif.g08.bks.cpg/sg37_1_cif.got.tgz:1336.got - 2010.06.03 17:53:42.
