data_PCOD9353409
_publ_section_title
;
Structure prediction by ZEFSAII (Michael W. Deem and Ramdas Pophale) SiO2 
 PCOD9353409
Probable space group: C C C 2
;
_chemical_formula_sum "Si O2"
_cell_formula_units_Z 32
_cell_length_a 23.112896
_cell_length_b 6.325054
_cell_length_c 8.811872
_cell_angle_alpha 90.000000
_cell_angle_beta 90.000000
_cell_angle_gamma 90.000000
_cell_volume 1288.210346
_symmetry_space_group_name_H-M "C C C 2"
_symmetry_group_IT_number 37
_symmetry_cell_setting 'orthorhombic'
loop_
_space_group_symop_operation_xyz
x,y,z
-x,-y,z
-x,y,1/2+z
x,-y,1/2+z
1/2+x,1/2+y,z
1/2-x,1/2-y,z
1/2-x,1/2+y,1/2+z
1/2+x,1/2-y,1/2+z
loop_
_atom_site_type_symbol
_atom_site_label
_atom_site_fract_x
_atom_site_fract_y
_atom_site_fract_z
Si Si1 0.682168 0.216038 0.371810
Si Si2 0.416119 0.322624 0.068879
Si Si3 0.478197 0.241983 0.354592
Si Si4 0.127369 0.629899 0.059450
O O1 0.750000 0.250000 0.379002
O O2 0.645068 0.369317 0.484283
O O3 0.658270 0.240074 0.200737
O O4 0.668814 0.976716 0.432474
O O5 0.450348 0.380582 0.219720
O O6 0.400596 0.083701 0.124709
O O7 0.464023 0.314875 0.939366
O O8 0.426796 0.241623 0.481016
O O9 0.500000 0.000000 0.313068
#
# Coordination Sequence:
#
# PCOD9353409 Si02
#       4
#     8   8   8   8
#     4  10  19  30  43  62  96 131 160 182 215 282
#     4   9  16  24  43  68  93 123 138 178 243 281
#     4  10  14  23  45  68  93 120 132 185 252 294
#     4   9  16  28  42  63  91 123 148 188 230 264
#
# _framework density 24.840662999999999
#
# number of rings (size 3 to 8) (size 9 to 14) (size 15 to 20)
#    1.500    1.000    2.500    3.750    0.000    0.000 
#    0.000    5.000    0.000    0.000    0.000    0.000 
#    0.000   24.000    0.000    0.000    0.000    0.000 
#
# Total GULP energy -89085.095301 kJ/mol
# GULP energy per Si atom -5567.818456 kJ/mol
# Density = 2.478412 g / cm^3
# Si number density = 24.840663 Si / 1000 Ang^3
#
#
#
# Elastic Constant Matrix: (Units=GPa)
#
#
# Indices 1 2 3 4 5 6 
#
# 1 254.1925 30.9016 102.9707 0.0000 0.0000 0.0000
# 2 30.9016 39.0321 24.8375 0.0000 0.0000 0.0000
# 3 102.9707 24.8375 188.2110 0.0000 0.0000 0.0000
# 4 0.0000 0.0000 0.0000 27.8653 0.0000 0.0000
# 5 0.0000 0.0000 0.0000 0.0000 41.4232 0.0000
# 6 0.0000 0.0000 0.0000 0.0000 0.0000 29.9831
#
#
#
# Elastic Compliance Matrix: (Units=1/GPa)
#
#
# Indices 1 2 3 4 5 6 
#
# 1 0.005278 -0.002556 -0.002550 0.000000 0.000000 0.000000
# 2 -0.002556 0.029206 -0.002456 0.000000 0.000000 0.000000
# 3 -0.002550 -0.002456 0.007033 0.000000 0.000000 0.000000
# 4 0.000000 0.000000 0.000000 0.035887 0.000000 0.000000
# 5 0.000000 0.000000 0.000000 0.000000 0.024141 0.000000
# 6 0.000000 0.000000 0.000000 0.000000 0.000000 0.033352
#
#
# Mechanical properties :
#
#
# Convention : Reuss Voigt Hill
#
# Bulk Modulus (GPa) = 37.88936 88.76169 63.32553
# Shear Modulus (GPa) = 31.48263 41.36938 36.42600
#
# Velocity S-wave (km/s) = 3.56389 4.08535 3.83350
# Velocity P-wave (km/s) = 5.67637 7.61993 6.71880
#
# Compressibility (1/GPa) = 0.02639263
#
# Stress axis : x y z
#
# Youngs Moduli (GPa) = 189.47364 34.23948 142.19613
#
# Poissons Ratio (x) = 0.08750 0.36263
# Poissons Ratio (y) = 0.48422 0.34924
# Poissons Ratio (z) = 0.48320 0.08409
#
# Static dielectric constant tensor:
#      x y z
#    x 1.964840 0.000000 0.000000 
#    y 0.000000 2.346500 0.000000 
#    z 0.000000 0.000000 1.976720 
# 
# From -- ./inp_files/2093.got.cif
#   From: 2010.05.17/outbox.cif.g08.bks.cpg/sg37_2_cif.got.tgz:2093.got - 2010.06.03 17:53:42.
