data_PCOD9353040
_publ_section_title
;
Structure prediction by ZEFSAII (Michael W. Deem and Ramdas Pophale) SiO2 
 PCOD9353040
Probable space group: C M C 21
;
_chemical_formula_sum "Si O2"
_cell_formula_units_Z 48
_cell_length_a 13.300886
_cell_length_b 13.452852
_cell_length_c 9.848207
_cell_angle_alpha 90.000000
_cell_angle_beta 90.000000
_cell_angle_gamma 90.000000
_cell_volume 1762.187450
_symmetry_space_group_name_H-M "C M C 21"
_symmetry_group_IT_number 36
_symmetry_cell_setting 'orthorhombic'
loop_
_space_group_symop_operation_xyz
x,y,z
-x,-y,1/2+z
x,-y,1/2+z
-x,y,z
1/2+x,1/2+y,z
1/2-x,1/2-y,1/2+z
1/2+x,1/2-y,1/2+z
1/2-x,1/2+y,z
loop_
_atom_site_type_symbol
_atom_site_label
_atom_site_fract_x
_atom_site_fract_y
_atom_site_fract_z
Si Si1 0.886120 0.610793 0.729970
Si Si2 0.182085 0.780751 0.318942
Si Si3 0.607556 0.779465 0.550605
Si Si4 0.886791 0.418177 0.916317
Si Si5 0.307667 0.412962 0.556059
Si Si6 0.382933 0.586714 0.367891
O O1 0.787973 0.675215 0.764971
O O2 0.876180 0.572773 0.576903
O O3 0.000000 0.654651 0.739386
O O4 0.880316 0.517894 0.830723
O O5 0.186493 0.666091 0.361739
O O6 0.139866 0.835886 0.451390
O O7 0.113001 0.783809 0.187835
O O8 0.500000 0.832340 0.542141
O O9 0.615086 0.697324 0.433079
O O10 0.000000 0.379266 0.891539
O O11 0.801896 0.641611 0.058647
O O12 0.320753 0.514540 0.470356
O O13 0.349315 0.420391 0.708979
O O14 0.500000 0.553474 0.372081
#
# Coordination Sequence:
#
# PCOD9353040 Si02
#       6
#     8   8   8   8   8   8
#     4  10  25  50  79 113 156 207 264 327 399 479
#     4  12  26  46  79 117 158 203 261 328 396 471
#     4  11  27  52  80 115 161 212 268 332 403 478
#     4  10  24  48  78 115 157 204 258 321 397 478
#     4  12  27  49  81 120 162 211 269 333 400 480
#     4  11  27  53  85 120 160 211 270 333 403 478
#
# _framework density 27.238873999999999
#
# number of rings (size 3 to 8) (size 9 to 14) (size 15 to 20)
#    0.000    1.000    0.000    4.000    0.000   14.000 
#    0.000    7.500    0.000    4.000    0.000    0.000 
#    0.000    0.000    0.000    0.000    0.000    0.000 
#
# Total GULP energy -134593.496586 kJ/mol
# GULP energy per Si atom -5608.062358 kJ/mol
# Density = 2.717688 g / cm^3
# Si number density = 27.238874 Si / 1000 Ang^3
#
#
#
# Elastic Constant Matrix: (Units=GPa)
#
#
# Indices 1 2 3 4 5 6 
#
# 1 210.0618 71.6820 80.4111 0.0000 0.0000 0.0000
# 2 71.6820 118.8128 77.1466 0.0000 0.0000 0.0000
# 3 80.4111 77.1466 273.2062 0.0000 0.0000 0.0000
# 4 0.0000 0.0000 0.0000 59.5766 0.0000 0.0000
# 5 0.0000 0.0000 0.0000 0.0000 28.9913 0.0000
# 6 0.0000 0.0000 0.0000 0.0000 0.0000 52.9666
#
#
#
# Elastic Compliance Matrix: (Units=1/GPa)
#
#
# Indices 1 2 3 4 5 6 
#
# 1 0.006185 -0.003122 -0.000939 0.000000 0.000000 0.000000
# 2 -0.003122 0.011882 -0.002436 0.000000 0.000000 0.000000
# 3 -0.000939 -0.002436 0.004625 0.000000 0.000000 0.000000
# 4 0.000000 0.000000 0.000000 0.016785 0.000000 0.000000
# 5 0.000000 0.000000 0.000000 0.000000 0.034493 0.000000
# 6 0.000000 0.000000 0.000000 0.000000 0.000000 0.018880
#
#
# Mechanical properties :
#
#
# Convention : Reuss Voigt Hill
#
# Bulk Modulus (GPa) = 103.12033 117.84002 110.48017
# Shear Modulus (GPa) = 45.83917 53.16298 49.50107
#
# Velocity S-wave (km/s) = 4.10672 4.42263 4.26760
# Velocity P-wave (km/s) = 7.77347 8.33278 8.05798
#
# Compressibility (1/GPa) = 0.00969741
#
# Stress axis : x y z
#
# Youngs Moduli (GPa) = 161.67390 84.15993 216.23822
#
# Poissons Ratio (x) = 0.26275 0.20302
# Poissons Ratio (y) = 0.50476 0.52682
# Poissons Ratio (z) = 0.15179 0.20504
#
# Static dielectric constant tensor:
#      x y z
#    x 2.208580 0.000000 0.000000 
#    y 0.000000 2.121670 0.000000 
#    z 0.000000 0.000000 2.100450 
# 
# From -- ./inp_files/3983.got.cif
#   From: 2010.05.17/outbox.cif.g08.bks.cpg/sg36_2_cif.got.tgz:3983.got - 2010.06.03 17:41:39.
