data_PCOD9353162
_publ_section_title
;
Structure prediction by ZEFSAII (Michael W. Deem and Ramdas Pophale) SiO2 
 PCOD9353162
Probable space group: C M C 21
;
_chemical_formula_sum "Si O2"
_cell_formula_units_Z 48
_cell_length_a 13.067700
_cell_length_b 14.192599
_cell_length_c 13.718759
_cell_angle_alpha 90.000000
_cell_angle_beta 90.000000
_cell_angle_gamma 90.000000
_cell_volume 2544.344506
_symmetry_space_group_name_H-M "C M C 21"
_symmetry_group_IT_number 36
_symmetry_cell_setting 'orthorhombic'
loop_
_space_group_symop_operation_xyz
x,y,z
-x,-y,1/2+z
x,-y,1/2+z
-x,y,z
1/2+x,1/2+y,z
1/2-x,1/2-y,1/2+z
1/2+x,1/2-y,1/2+z
1/2-x,1/2+y,z
loop_
_atom_site_type_symbol
_atom_site_label
_atom_site_fract_x
_atom_site_fract_y
_atom_site_fract_z
Si Si1 0.774763 0.018450 0.006420
Si Si2 0.500000 0.572762 0.057308
Si Si3 0.205399 0.648349 0.174816
Si Si4 0.274763 0.518453 0.790108
Si Si5 0.000000 0.290525 0.018434
Si Si6 0.294601 0.851648 0.121711
Si Si7 0.000000 0.927236 0.239219
Si Si8 0.500000 0.209473 0.278093
O O1 0.891600 0.053342 0.006515
O O2 0.707654 0.085651 0.076448
O O3 0.776521 0.914007 0.051245
O O4 0.732744 0.018301 0.898264
O O5 0.500000 0.685842 0.066179
O O6 0.500000 0.499999 0.148264
O O7 0.276522 0.585990 0.245282
O O8 0.250000 0.749998 0.148264
O O9 0.099960 0.659507 0.233384
O O10 0.207655 0.585654 0.720080
O O11 0.391601 0.553346 0.790013
O O12 0.900041 0.340491 0.063144
O O13 0.000000 0.286221 0.898263
O O14 0.000000 0.814155 0.230348
#
# Coordination Sequence:
#
# PCOD9353162 Si02
#       8
#     8   4   8   8   4   8   4   4
#     4  11  23  39  64  94 129 170 215 263 321 378
#     4  12  20  40  63  95 127 166 215 267 314 377
#     4  11  23  41  63  93 129 163 213 268 312 375
#     4  11  23  39  64  94 129 170 215 263 321 378
#     4  12  24  41  68  94 126 176 215 253 327 396
#     4  11  23  41  63  93 129 163 213 268 312 375
#     4  12  20  40  63  95 127 166 215 267 314 377
#     4  12  24  41  68  94 126 176 215 253 327 396
#
# _framework density 18.865369000000001
#
# number of rings (size 3 to 8) (size 9 to 14) (size 15 to 20)
#    0.000    0.667    6.667    2.500    0.000    4.000 
#    0.000    2.500    0.000    0.000    0.000    0.000 
#    0.000    0.000    0.000    0.000    0.000    0.000 
#
# Total GULP energy -133761.567064 kJ/mol
# GULP energy per Si atom -5573.398628 kJ/mol
# Density = 1.882243 g / cm^3
# Si number density = 18.865369 Si / 1000 Ang^3
#
#
#
# Elastic Constant Matrix: (Units=GPa)
#
#
# Indices 1 2 3 4 5 6 
#
# 1 79.9437 24.1256 12.9291 0.0000 0.0000 0.0000
# 2 24.1256 114.0290 41.8053 0.0000 0.0000 0.0000
# 3 12.9291 41.8053 159.9839 0.0000 0.0000 0.0000
# 4 0.0000 0.0000 0.0000 10.4264 0.0000 0.0000
# 5 0.0000 0.0000 0.0000 0.0000 1.6196 0.0000
# 6 0.0000 0.0000 0.0000 0.0000 0.0000 42.8519
#
#
#
# Elastic Compliance Matrix: (Units=1/GPa)
#
#
# Indices 1 2 3 4 5 6 
#
# 1 0.013383 -0.002693 -0.000378 0.000000 0.000000 0.000000
# 2 -0.002693 0.010241 -0.002458 0.000000 0.000000 0.000000
# 3 -0.000378 -0.002458 0.006924 0.000000 0.000000 0.000000
# 4 0.000000 0.000000 0.000000 0.095910 0.000000 0.000000
# 5 0.000000 0.000000 0.000000 0.000000 0.617428 0.000000
# 6 0.000000 0.000000 0.000000 0.000000 0.000000 0.023336
#
#
# Mechanical properties :
#
#
# Convention : Reuss Voigt Hill
#
# Bulk Modulus (GPa) = 51.31183 56.85293 54.08238
# Shear Modulus (GPa) = 6.37125 29.31935 17.84530
#
# Velocity S-wave (km/s) = 1.83971 3.94653 3.07893
# Velocity P-wave (km/s) = 5.63655 7.13921 6.43192
#
# Compressibility (1/GPa) = 0.01948869
#
# Stress axis : x y z
#
# Youngs Moduli (GPa) = 74.72399 97.64922 144.43434
#
# Poissons Ratio (x) = 0.26296 0.05457
# Poissons Ratio (y) = 0.20122 0.35507
# Poissons Ratio (z) = 0.02823 0.24006
#
# Static dielectric constant tensor:
#      x y z
#    x 1.660390 0.000000 0.000000 
#    y 0.000000 1.645500 0.000000 
#    z 0.000000 0.000000 1.689250 
# 
# From -- ./inp_files/12118.got.cif
#   From: 2010.05.17/outbox.cif.g08.bks.cpg/sg36_7_cif.got.tgz:12118.got - 2010.06.03 17:41:39.
