data_PCOD9353534
_publ_section_title
;
Structure prediction by ZEFSAII (Michael W. Deem and Ramdas Pophale) SiO2 
 PCOD9353534
Probable space group: C C C 2
;
_chemical_formula_sum "Si O2"
_cell_formula_units_Z 64
_cell_length_a 26.089604
_cell_length_b 17.746599
_cell_length_c 5.443509
_cell_angle_alpha 90.000000
_cell_angle_beta 90.000000
_cell_angle_gamma 90.000000
_cell_volume 2520.354140
_symmetry_space_group_name_H-M "C C C 2"
_symmetry_group_IT_number 37
_symmetry_cell_setting 'orthorhombic'
loop_
_space_group_symop_operation_xyz
x,y,z
-x,-y,z
-x,y,1/2+z
x,-y,1/2+z
1/2+x,1/2+y,z
1/2-x,1/2-y,z
1/2-x,1/2+y,1/2+z
1/2+x,1/2-y,1/2+z
loop_
_atom_site_type_symbol
_atom_site_label
_atom_site_fract_x
_atom_site_fract_y
_atom_site_fract_z
Si Si1 0.195512 0.307141 0.430580
Si Si2 0.747901 0.914450 0.073728
Si Si3 0.469202 0.901988 0.236123
Si Si4 0.356544 0.087317 0.797266
Si Si5 0.116068 0.259023 0.062800
Si Si6 0.341964 0.465315 0.336726
Si Si7 0.006859 0.232100 0.241228
Si Si8 0.672879 0.666241 0.706402
O O1 0.237628 0.344377 0.259598
O O2 0.166985 0.379284 0.547295
O O3 0.161984 0.257179 0.250586
O O4 0.199378 0.246154 0.645609
O O5 0.781235 0.969190 0.251149
O O6 0.692555 0.941088 0.960130
O O7 0.785098 0.880083 0.863693
O O8 0.500036 0.919339 0.485972
O O9 0.413506 0.943771 0.235464
O O10 0.471217 0.807968 0.236495
O O11 0.375824 0.159551 0.947285
O O12 0.064785 0.258921 0.216889
O O13 0.124100 0.192972 0.866920
O O14 0.362769 0.519144 0.559361
O O15 0.344630 0.385992 0.479617
O O16 0.002078 0.188654 0.491710
#
# Coordination Sequence:
#
# PCOD9353534 Si02
#       8
#     8   8   8   8   8   8   8   8
#     4  10  22  33  56  84 130 156 208 240 315 368
#     4  11  24  40  58  90 120 166 206 260 314 376
#     4  10  18  30  49  73 114 163 199 230 284 352
#     4  10  20  32  51  82 120 165 202 245 292 370
#     4  10  20  32  51  82 120 165 202 245 292 370
#     4  12  26  47  66  81 112 158 210 266 322 376
#     4  10  18  30  49  73 114 163 199 230 284 352
#     4  11  24  40  58  90 120 166 206 260 314 376
#
# _framework density 25.393257999999999
#
# number of rings (size 3 to 8) (size 9 to 14) (size 15 to 20)
#    0.000    1.500    3.750    3.000    3.500   12.000 
#    0.000    0.000    0.000    0.000    0.000    0.000 
#    0.000    6.000    0.000    0.000    0.000    0.000 
#
# Total GULP energy -178340.787636 kJ/mol
# GULP energy per Si atom -5573.149614 kJ/mol
# Density = 2.533546 g / cm^3
# Si number density = 25.393258 Si / 1000 Ang^3
#
#
#
# Elastic Constant Matrix: (Units=GPa)
#
#
# Indices 1 2 3 4 5 6 
#
# 1 35.1415 -11.2302 2.9833 0.0000 0.0000 0.0000
# 2 -11.2302 63.4937 17.4963 0.0000 0.0000 0.0000
# 3 2.9833 17.4963 171.8475 0.0000 0.0000 0.0000
# 4 0.0000 0.0000 0.0000 35.0092 0.0000 0.0000
# 5 0.0000 0.0000 0.0000 0.0000 22.5974 0.0000
# 6 0.0000 0.0000 0.0000 0.0000 0.0000 7.0092
#
#
#
# Elastic Compliance Matrix: (Units=1/GPa)
#
#
# Indices 1 2 3 4 5 6 
#
# 1 0.030364 0.005675 -0.001105 0.000000 0.000000 0.000000
# 2 0.005675 0.017265 -0.001856 0.000000 0.000000 0.000000
# 3 -0.001105 -0.001856 0.006027 0.000000 0.000000 0.000000
# 4 0.000000 0.000000 0.000000 0.028564 0.000000 0.000000
# 5 0.000000 0.000000 0.000000 0.000000 0.044253 0.000000
# 6 0.000000 0.000000 0.000000 0.000000 0.000000 0.142669
#
#
# Mechanical properties :
#
#
# Convention : Reuss Voigt Hill
#
# Bulk Modulus (GPa) = 16.92525 32.10905 24.51715
# Shear Modulus (GPa) = 17.64238 30.33870 23.99054
#
# Velocity S-wave (km/s) = 2.63870 3.46027 3.07703
# Velocity P-wave (km/s) = 3.99542 5.35134 4.72230
#
# Compressibility (1/GPa) = 0.05908333
#
# Stress axis : x y z
#
# Youngs Moduli (GPa) = 32.93405 57.92112 165.91206
#
# Poissons Ratio (x) = -0.32870 0.18332
# Poissons Ratio (y) = -0.18690 0.30798
# Poissons Ratio (z) = 0.03639 0.10752
#
# Static dielectric constant tensor:
#      x y z
#    x 2.184100 0.000000 0.000000 
#    y 0.000000 1.933770 0.000000 
#    z 0.000000 0.000000 2.125490 
# 
# From -- ./inp_files/1404.got.cif
#   From: 2010.05.17/outbox.cif.g08.bks.cpg/sg37_1_cif.got.tgz:1404.got - 2010.06.03 17:53:42.
