data_PCOD9353239
_publ_section_title
;
Structure prediction by ZEFSAII (Michael W. Deem and Ramdas Pophale) SiO2 
 PCOD9353239
Probable space group: C M C 21
;
_chemical_formula_sum "Si O2"
_cell_formula_units_Z 64
_cell_length_a 15.746735
_cell_length_b 8.927916
_cell_length_c 22.152698
_cell_angle_alpha 90.000000
_cell_angle_beta 90.000000
_cell_angle_gamma 90.000000
_cell_volume 3114.348731
_symmetry_space_group_name_H-M "C M C 21"
_symmetry_group_IT_number 36
_symmetry_cell_setting 'orthorhombic'
loop_
_space_group_symop_operation_xyz
x,y,z
-x,-y,1/2+z
x,-y,1/2+z
-x,y,z
1/2+x,1/2+y,z
1/2-x,1/2-y,1/2+z
1/2+x,1/2-y,1/2+z
1/2-x,1/2+y,z
loop_
_atom_site_type_symbol
_atom_site_label
_atom_site_fract_x
_atom_site_fract_y
_atom_site_fract_z
Si Si1 0.654534 0.942867 0.839460
Si Si2 0.596502 0.444147 0.715657
Si Si3 0.156941 0.802032 0.839338
Si Si4 0.754055 0.581506 0.132121
Si Si5 0.403269 0.556823 0.463453
Si Si6 0.904305 0.300821 0.962575
Si Si7 0.404018 0.197850 0.215963
Si Si8 0.248203 0.831716 0.047292
O O1 0.748501 0.871065 0.839320
O O2 0.608412 0.883662 0.899200
O O3 0.607973 0.882192 0.780146
O O4 0.660255 0.122340 0.838975
O O5 0.500000 0.418203 0.694686
O O6 0.611412 0.363360 0.779442
O O7 0.667547 0.390603 0.668647
O O8 0.608353 0.623379 0.723711
O O9 0.112105 0.861210 0.899835
O O10 0.833861 0.630243 0.171582
O O11 0.756557 0.659321 0.066677
O O12 0.755020 0.408987 0.112687
O O13 0.500000 0.582399 0.484165
O O14 0.392320 0.378232 0.454224
O O15 0.334609 0.617387 0.510922
O O16 0.000000 0.325498 0.985204
O O17 0.831553 0.355715 0.007566
O O18 0.500000 0.174446 0.193517
#
# Coordination Sequence:
#
# PCOD9353239 Si02
#       8
#     8   8   8   8   8   8   8   8
#     4  12  25  42  71 104 138 174 221 277 346 405
#     4  11  25  46  72 101 136 179 225 276 340 405
#     4  12  25  42  71 104 136 176 221 277 344 403
#     4  12  26  45  69  98 134 180 231 278 330 392
#     4  11  25  46  72 101 136 179 225 276 340 405
#     4  11  25  46  71 102 137 177 222 280 341 401
#     4  11  25  46  71 102 137 177 222 280 341 401
#     4  12  26  45  69  98 134 180 231 278 330 392
#
# _framework density 20.550044
#
# number of rings (size 3 to 8) (size 9 to 14) (size 15 to 20)
#    0.000    0.500    5.000    3.000    3.500    6.000 
#    0.000    0.000    0.000    0.000    0.000    0.000 
#    0.000    0.000    0.000    0.000    0.000    0.000 
#
# Total GULP energy -179018.086393 kJ/mol
# GULP energy per Si atom -5594.315200 kJ/mol
# Density = 2.050327 g / cm^3
# Si number density = 20.550044 Si / 1000 Ang^3
#
#
#
# Elastic Constant Matrix: (Units=GPa)
#
#
# Indices 1 2 3 4 5 6 
#
# 1 176.9438 66.0830 68.5619 0.0000 0.0000 0.0000
# 2 66.0830 91.2047 38.0948 0.0000 0.0000 0.0000
# 3 68.5619 38.0948 105.8447 0.0000 0.0000 0.0000
# 4 0.0000 0.0000 0.0000 40.2120 0.0000 0.0000
# 5 0.0000 0.0000 0.0000 0.0000 -26.3243 0.0000
# 6 0.0000 0.0000 0.0000 0.0000 0.0000 30.7960
#
#
#
# Elastic Compliance Matrix: (Units=1/GPa)
#
#
# Indices 1 2 3 4 5 6 
#
# 1 0.009057 -0.004840 -0.004125 0.000000 0.000000 0.000000
# 2 -0.004840 0.015490 -0.002440 0.000000 0.000000 0.000000
# 3 -0.004125 -0.002440 0.012998 0.000000 0.000000 0.000000
# 4 0.000000 0.000000 0.000000 0.024868 0.000000 0.000000
# 5 0.000000 0.000000 0.000000 0.000000 -0.037988 0.000000
# 6 0.000000 0.000000 0.000000 0.000000 0.000000 0.032472
#
#
# Mechanical properties :
#
#
# Convention : Reuss Voigt Hill
#
# Bulk Modulus (GPa) = 67.86204 79.94140 73.90172
# Shear Modulus (GPa) = 59.08799 22.35366 40.72083
#
# Velocity S-wave (km/s) = 5.36802 3.30171 4.45628
# Velocity P-wave (km/s) = 8.45668 7.31576 7.90682
#
# Compressibility (1/GPa) = 0.01473578
#
# Stress axis : x y z
#
# Youngs Moduli (GPa) = 110.40762 64.55731 76.93383
#
# Poissons Ratio (x) = 0.31243 0.31736
# Poissons Ratio (y) = 0.53432 0.18774
# Poissons Ratio (z) = 0.45545 0.15753
#
# Static dielectric constant tensor:
#      x y z
#    x 1.719800 0.000000 0.000000 
#    y 0.000000 1.701390 0.000000 
#    z 0.000000 0.000000 1.701690 
# 
# From -- ./inp_files/16967.got.cif
#   From: 2010.05.17/outbox.cif.g08.bks.cpg/sg36_9_cif.got.tgz:16967.got - 2010.06.03 17:41:39.
