data_PCOD9353432
_publ_section_title
;
Structure prediction by ZEFSAII (Michael W. Deem and Ramdas Pophale) SiO2 
 PCOD9353432
Probable space group: C C C 2
;
_chemical_formula_sum "Si O2"
_cell_formula_units_Z 64
_cell_length_a 25.613493
_cell_length_b 25.441718
_cell_length_c 5.347678
_cell_angle_alpha 90.000000
_cell_angle_beta 90.000000
_cell_angle_gamma 90.000000
_cell_volume 3484.821138
_symmetry_space_group_name_H-M "C C C 2"
_symmetry_group_IT_number 37
_symmetry_cell_setting 'orthorhombic'
loop_
_space_group_symop_operation_xyz
x,y,z
-x,-y,z
-x,y,1/2+z
x,-y,1/2+z
1/2+x,1/2+y,z
1/2-x,1/2-y,z
1/2-x,1/2+y,1/2+z
1/2+x,1/2-y,1/2+z
loop_
_atom_site_type_symbol
_atom_site_label
_atom_site_fract_x
_atom_site_fract_y
_atom_site_fract_z
Si Si1 0.352725 0.812843 0.559750
Si Si2 0.477148 0.560176 0.051246
Si Si3 0.356123 0.464942 0.561009
Si Si4 0.705306 0.793123 0.559883
Si Si5 0.532740 0.149189 0.605589
Si Si6 0.247893 0.412699 0.560661
Si Si7 0.926736 0.470044 0.555786
Si Si8 0.189112 0.432994 0.060579
O O1 0.327179 0.787247 0.804303
O O2 0.414861 0.816717 0.578690
O O3 0.331998 0.872955 0.560160
O O4 0.331981 0.789209 0.301080
O O5 0.500000 0.500000 0.047656
O O6 0.498673 0.585160 0.798499
O O7 0.414862 0.557661 0.059554
O O8 0.351046 0.499761 0.811713
O O9 0.309581 0.422842 0.560088
O O10 0.750000 0.750000 0.574244
O O11 0.731509 0.851354 0.560625
O O12 0.495162 0.158481 0.369817
O O13 0.550315 0.087942 0.593981
O O14 0.222754 0.438072 0.312082
O O15 0.222982 0.438076 0.809747
O O16 0.941917 0.506953 0.787055
O O17 0.863601 0.466463 0.559951
#
# Coordination Sequence:
#
# PCOD9353432 Si02
#       8
#     8   8   8   8   8   8   8   8
#     4   9  19  35  55  80 103 131 170 208 263 324
#     4  10  16  30  46  61  87 120 166 202 231 279
#     4  12  21  30  46  71  99 132 168 209 246 287
#     4  10  19  36  60  82 107 136 169 215 272 323
#     4  11  22  36  53  75 107 138 182 234 272 308
#     4  10  21  33  48  76 106 129 168 214 256 313
#     4  11  22  33  49  68  95 143 191 223 267 313
#     4   9  19  35  47  63 100 137 164 207 254 321
#
# _framework density 18.365361
#
# number of rings (size 3 to 8) (size 9 to 14) (size 15 to 20)
#    0.000    1.750    2.500    3.375    0.000    8.500 
#    0.000    0.000    0.000    0.000    0.000    5.250 
#    0.000    0.000    0.000    0.000    0.000    0.000 
#
# Total GULP energy -178735.196083 kJ/mol
# GULP energy per Si atom -5585.474878 kJ/mol
# Density = 1.832356 g / cm^3
# Si number density = 18.365361 Si / 1000 Ang^3
#
#
#
# Elastic Constant Matrix: (Units=GPa)
#
#
# Indices 1 2 3 4 5 6 
#
# 1 168.6935 14.1748 59.6219 0.0000 0.0000 0.0000
# 2 14.1748 30.4115 8.5677 0.0000 0.0000 0.0000
# 3 59.6219 8.5677 163.0232 0.0000 0.0000 0.0000
# 4 0.0000 0.0000 0.0000 7.9798 0.0000 0.0000
# 5 0.0000 0.0000 0.0000 0.0000 49.0633 0.0000
# 6 0.0000 0.0000 0.0000 0.0000 0.0000 38.1511
#
#
#
# Elastic Compliance Matrix: (Units=1/GPa)
#
#
# Indices 1 2 3 4 5 6 
#
# 1 0.007002 -0.002580 -0.002425 0.000000 0.000000 0.000000
# 2 -0.002580 0.034327 -0.000860 0.000000 0.000000 0.000000
# 3 -0.002425 -0.000860 0.007066 0.000000 0.000000 0.000000
# 4 0.000000 0.000000 0.000000 0.125317 0.000000 0.000000
# 5 0.000000 0.000000 0.000000 0.000000 0.020382 0.000000
# 6 0.000000 0.000000 0.000000 0.000000 0.000000 0.026212
#
#
# Mechanical properties :
#
#
# Convention : Reuss Voigt Hill
#
# Bulk Modulus (GPa) = 27.27486 58.53967 42.90726
# Shear Modulus (GPa) = 20.47007 37.68974 29.07991
#
# Velocity S-wave (km/s) = 3.34219 4.53506 3.98353
# Velocity P-wave (km/s) = 5.45684 7.70497 6.67621
#
# Compressibility (1/GPa) = 0.03666380
#
# Stress axis : x y z
#
# Youngs Moduli (GPa) = 142.81916 29.13121 141.51759
#
# Poissons Ratio (x) = 0.07517 0.34320
# Poissons Ratio (y) = 0.36852 0.12176
# Poissons Ratio (z) = 0.34636 0.02506
#
# Static dielectric constant tensor:
#      x y z
#    x 1.623200 0.000000 0.000000 
#    y 0.000000 1.558460 0.000000 
#    z 0.000000 0.000000 1.395500 
# 
# From -- ./inp_files/1090.got.cif
#   From: 2010.05.17/outbox.cif.g08.bks.cpg/sg37_1_cif.got.tgz:1090.got - 2010.06.03 17:53:42.
