data_PCOD9353939
_publ_section_title
;
Structure prediction by ZEFSAII (Michael W. Deem and Ramdas Pophale) SiO2 
 PCOD9353939
Probable space group: C C C 2
;
_chemical_formula_sum "Si O2"
_cell_formula_units_Z 56
_cell_length_a 14.553713
_cell_length_b 5.120609
_cell_length_c 33.102436
_cell_angle_alpha 90.000000
_cell_angle_beta 90.000000
_cell_angle_gamma 90.000000
_cell_volume 2466.921762
_symmetry_space_group_name_H-M "C C C 2"
_symmetry_group_IT_number 37
_symmetry_cell_setting 'orthorhombic'
loop_
_space_group_symop_operation_xyz
x,y,z
-x,-y,z
-x,y,1/2+z
x,-y,1/2+z
1/2+x,1/2+y,z
1/2-x,1/2-y,z
1/2-x,1/2+y,1/2+z
1/2+x,1/2-y,1/2+z
loop_
_atom_site_type_symbol
_atom_site_label
_atom_site_fract_x
_atom_site_fract_y
_atom_site_fract_z
Si Si1 0.137938 0.248473 0.407890
Si Si2 0.362283 0.247835 0.858514
Si Si3 0.639803 0.748747 0.218040
Si Si4 0.436530 0.247950 0.129734
Si Si5 0.640649 0.750240 0.499078
Si Si6 0.082187 0.775971 0.543620
Si Si7 0.862532 0.251570 0.266825
O O1 0.250000 0.250000 0.409627
O O2 0.109851 0.471842 0.376792
O O3 0.107559 0.300588 0.453548
O O4 0.109564 0.973219 0.389310
O O5 0.250000 0.250000 0.857234
O O6 0.393880 0.289891 0.812653
O O7 0.750000 0.750000 0.219170
O O8 0.612198 0.799786 0.172066
O O9 0.608626 0.473413 0.235948
O O10 0.608082 0.974417 0.248172
O O11 0.500000 0.500000 0.136023
O O12 0.376640 0.278836 0.088991
O O13 0.500000 0.000000 0.119561
O O14 0.750000 0.750000 0.503100
O O15 0.625861 0.443492 0.508129
O O16 0.593184 0.972204 0.528016
O O17 0.000000 0.000000 0.550465
O O18 0.750000 0.250000 0.267859
#
# Coordination Sequence:
#
# PCOD9353939 Si02
#       7
#     8   8   8   8   8   8   8
#     4   9  17  28  46  76 111 143 178 224 274 325
#     4   9  15  26  45  72 110 148 176 213 271 327
#     4  10  20  34  54  83 113 139 177 230 280 323
#     4  11  23  41  60  80 108 145 189 228 271 338
#     4  11  22  37  59  89 119 146 188 243 292 335
#     4  11  23  41  60  82 113 153 194 233 283 351
#     4   9  17  29  48  78 113 144 177 221 272 327
#
# _framework density 22.700357
#
# number of rings (size 3 to 8) (size 9 to 14) (size 15 to 20)
#    0.000    2.000    0.000    5.143    0.000    6.857 
#    0.000    1.429    0.000    0.000    0.000   35.000 
#    0.000    0.000    0.000    0.000    0.000    0.000 
#
# Total GULP energy -156078.885037 kJ/mol
# GULP energy per Si atom -5574.245894 kJ/mol
# Density = 2.264869 g / cm^3
# Si number density = 22.700357 Si / 1000 Ang^3
#
#
#
# Elastic Constant Matrix: (Units=GPa)
#
#
# Indices 1 2 3 4 5 6 
#
# 1 44.2751 -5.3281 0.6342 0.0000 0.0000 0.0000
# 2 -5.3281 108.8007 13.4121 0.0000 0.0000 0.0000
# 3 0.6342 13.4121 144.2181 0.0000 0.0000 0.0000
# 4 0.0000 0.0000 0.0000 41.0933 0.0000 0.0000
# 5 0.0000 0.0000 0.0000 0.0000 12.2892 0.0000
# 6 0.0000 0.0000 0.0000 0.0000 0.0000 1.5714
#
#
#
# Elastic Compliance Matrix: (Units=1/GPa)
#
#
# Indices 1 2 3 4 5 6 
#
# 1 0.022726 0.001138 -0.000206 0.000000 0.000000 0.000000
# 2 0.001138 0.009355 -0.000875 0.000000 0.000000 0.000000
# 3 -0.000206 -0.000875 0.007016 0.000000 0.000000 0.000000
# 4 0.000000 0.000000 0.000000 0.024335 0.000000 0.000000
# 5 0.000000 0.000000 0.000000 0.000000 0.081372 0.000000
# 6 0.000000 0.000000 0.000000 0.000000 0.000000 0.636393
#
#
# Mechanical properties :
#
#
# Convention : Reuss Voigt Hill
#
# Bulk Modulus (GPa) = 25.50243 34.97004 30.23624
# Shear Modulus (GPa) = 6.29602 30.22915 18.26259
#
# Velocity S-wave (km/s) = 1.66720 3.65315 2.83946
# Velocity P-wave (km/s) = 3.86844 5.76476 4.90904
#
# Compressibility (1/GPa) = 0.03921194
#
# Stress axis : x y z
#
# Youngs Moduli (GPa) = 44.00249 106.89788 142.52688
#
# Poissons Ratio (x) = -0.12168 0.02933
# Poissons Ratio (y) = -0.05009 0.12471
# Poissons Ratio (z) = 0.00906 0.09353
#
# Static dielectric constant tensor:
#      x y z
#    x 1.950000 0.000000 0.000000 
#    y 0.000000 1.811560 0.000000 
#    z 0.000000 0.000000 1.795920 
# 
# From -- ./inp_files/20535.got.cif
#   From: 2010.05.17/outbox.cif.g08.bks.cpg/sg37_11_cif.got.tgz:20535.got - 2010.06.03 17:53:42.
