data_PCOD9353785
_publ_section_title
;
Structure prediction by ZEFSAII (Michael W. Deem and Ramdas Pophale) SiO2 
 PCOD9353785
Probable space group: C C C 2
;
_chemical_formula_sum "Si O2"
_cell_formula_units_Z 64
_cell_length_a 14.008171
_cell_length_b 8.238056
_cell_length_c 27.017171
_cell_angle_alpha 90.000000
_cell_angle_beta 90.000000
_cell_angle_gamma 90.000000
_cell_volume 3117.784158
_symmetry_space_group_name_H-M "C C C 2"
_symmetry_group_IT_number 37
_symmetry_cell_setting 'orthorhombic'
loop_
_space_group_symop_operation_xyz
x,y,z
-x,-y,z
-x,y,1/2+z
x,-y,1/2+z
1/2+x,1/2+y,z
1/2-x,1/2-y,z
1/2-x,1/2+y,1/2+z
1/2+x,1/2-y,1/2+z
loop_
_atom_site_type_symbol
_atom_site_label
_atom_site_fract_x
_atom_site_fract_y
_atom_site_fract_z
Si Si1 0.890123 0.449012 0.430300
Si Si2 0.640170 0.205010 0.678555
Si Si3 0.664520 0.875065 0.332014
Si Si4 0.390630 0.934483 0.243327
Si Si5 0.921874 0.640100 0.074672
Si Si6 0.418066 0.625705 0.483995
Si Si7 0.483690 0.682950 0.772146
Si Si8 0.232289 0.563011 0.021061
O O1 0.850090 0.506989 0.377976
O O2 0.884991 0.257309 0.442998
O O3 0.835786 0.548808 0.473026
O O4 0.000000 0.500000 0.432205
O O5 0.750000 0.250000 0.677581
O O6 0.590780 0.232962 0.626210
O O7 0.586095 0.292307 0.724298
O O8 0.633513 0.011235 0.690866
O O9 0.750000 0.750000 0.339558
O O10 0.568662 0.773572 0.317939
O O11 0.678538 0.984446 0.283041
O O12 0.412754 0.750260 0.254541
O O13 0.500000 0.000000 0.252540
O O14 0.822374 0.549476 0.060898
O O15 0.000000 0.500000 0.078947
O O16 0.949636 0.760139 0.030037
O O17 0.500000 0.500000 0.468171
O O18 0.329719 0.522365 0.504450
O O19 0.500000 0.500000 0.785848
O O20 0.250000 0.750000 0.035332
#
# Coordination Sequence:
#
# PCOD9353785 Si02
#       8
#     8   8   8   8   8   8   8   8
#     4  11  21  38  61  85 114 154 198 245 300 355
#     4  10  19  36  59  85 118 160 198 238 296 361
#     4  10  20  38  60  82 112 152 192 239 301 362
#     4   8  16  34  56  78 110 149 187 231 287 347
#     4  11  21  37  61  90 121 160 203 247 299 353
#     4  11  23  40  61  87 121 159 200 247 300 358
#     4  10  20  37  60  87 117 153 197 249 299 357
#     4  11  22  40  60  86 118 153 196 248 301 357
#
# _framework density 20.527398000000002
#
# number of rings (size 3 to 8) (size 9 to 14) (size 15 to 20)
#    0.000    2.000    0.000    9.375    0.000    0.500 
#    0.000   16.250    0.000    0.000    0.000    0.000 
#    0.000    0.000    0.000    0.000    0.000    0.000 
#
# Total GULP energy -178474.826017 kJ/mol
# GULP energy per Si atom -5577.338313 kJ/mol
# Density = 2.048068 g / cm^3
# Si number density = 20.527398 Si / 1000 Ang^3
#
#
#
# Elastic Constant Matrix: (Units=GPa)
#
#
# Indices 1 2 3 4 5 6 
#
# 1 73.5158 18.9611 4.6971 0.0000 0.0000 0.0000
# 2 18.9611 96.5233 12.8599 0.0000 0.0000 0.0000
# 3 4.6971 12.8599 91.4000 0.0000 0.0000 0.0000
# 4 0.0000 0.0000 0.0000 13.9748 0.0000 0.0000
# 5 0.0000 0.0000 0.0000 0.0000 20.5109 0.0000
# 6 0.0000 0.0000 0.0000 0.0000 0.0000 28.8980
#
#
#
# Elastic Compliance Matrix: (Units=1/GPa)
#
#
# Indices 1 2 3 4 5 6 
#
# 1 0.014339 -0.002771 -0.000347 0.000000 0.000000 0.000000
# 2 -0.002771 0.011093 -0.001418 0.000000 0.000000 0.000000
# 3 -0.000347 -0.001418 0.011158 0.000000 0.000000 0.000000
# 4 0.000000 0.000000 0.000000 0.071557 0.000000 0.000000
# 5 0.000000 0.000000 0.000000 0.000000 0.048755 0.000000
# 6 0.000000 0.000000 0.000000 0.000000 0.000000 0.034605
#
#
# Mechanical properties :
#
#
# Convention : Reuss Voigt Hill
#
# Bulk Modulus (GPa) = 36.33878 37.16392 36.75135
# Shear Modulus (GPa) = 23.83759 27.67146 25.75452
#
# Velocity S-wave (km/s) = 3.41142 3.67553 3.54593
# Velocity P-wave (km/s) = 5.76698 6.01303 5.89129
#
# Compressibility (1/GPa) = 0.02751881
#
# Stress axis : x y z
#
# Youngs Moduli (GPa) = 69.73852 90.14342 89.61919
#
# Poissons Ratio (x) = 0.24975 0.03111
# Poissons Ratio (y) = 0.19322 0.12712
# Poissons Ratio (z) = 0.02421 0.12786
#
# Static dielectric constant tensor:
#      x y z
#    x 1.747340 0.000000 0.000000 
#    y 0.000000 1.842810 0.000000 
#    z 0.000000 0.000000 1.728670 
# 
# From -- ./inp_files/20478.got.cif
#   From: 2010.05.17/outbox.cif.g08.bks.cpg/sg37_11_cif.got.tgz:20478.got - 2010.06.03 17:53:42.
