data_PCOD9353577
_publ_section_title
;
Structure prediction by ZEFSAII (Michael W. Deem and Ramdas Pophale) SiO2 
 PCOD9353577
Probable space group: C C C 2
;
_chemical_formula_sum "Si O2"
_cell_formula_units_Z 64
_cell_length_a 8.404239
_cell_length_b 17.513013
_cell_length_c 21.502050
_cell_angle_alpha 90.000000
_cell_angle_beta 90.000000
_cell_angle_gamma 90.000000
_cell_volume 3164.747984
_symmetry_space_group_name_H-M "C C C 2"
_symmetry_group_IT_number 37
_symmetry_cell_setting 'orthorhombic'
loop_
_space_group_symop_operation_xyz
x,y,z
-x,-y,z
-x,y,1/2+z
x,-y,1/2+z
1/2+x,1/2+y,z
1/2-x,1/2-y,z
1/2-x,1/2+y,1/2+z
1/2+x,1/2-y,1/2+z
loop_
_atom_site_type_symbol
_atom_site_label
_atom_site_fract_x
_atom_site_fract_y
_atom_site_fract_z
Si Si1 0.924123 0.332618 0.796010
Si Si2 0.630767 0.051985 0.219827
Si Si3 0.428419 0.328691 0.249931
Si Si4 0.640963 0.445256 0.323520
Si Si5 0.741900 0.843073 0.609301
Si Si6 0.154248 0.328966 0.902871
Si Si7 0.912054 0.333838 0.548905
Si Si8 0.590790 0.660362 0.102728
O O1 0.736866 0.337462 0.786902
O O2 0.976862 0.259122 0.756440
O O3 0.017733 0.401721 0.766289
O O4 0.989059 0.323942 0.865272
O O5 0.756111 0.014487 0.268192
O O6 0.713425 0.109943 0.172501
O O7 0.500000 0.000000 0.185409
O O8 0.556568 0.378960 0.284255
O O9 0.404213 0.344400 0.177369
O O10 0.500000 0.500000 0.347501
O O11 0.746556 0.401447 0.375292
O O12 0.750000 0.750000 0.619110
O O13 0.588299 0.861191 0.567049
O O14 0.915122 0.868196 0.583638
O O15 0.250000 0.250000 0.891196
O O16 0.118510 0.333813 0.975647
O O17 0.756362 0.374453 0.578395
O O18 0.909386 0.247776 0.577633
#
# Coordination Sequence:
#
# PCOD9353577 Si02
#       8
#     8   8   8   8   8   8   8   8
#     4  10  21  33  58  93 121 164 210 272 322 390
#     4  11  22  38  63  89 136 168 208 266 348 407
#     4  11  19  36  59  98 126 156 216 271 337 399
#     4  11  24  39  64  92 134 172 216 271 346 405
#     4  10  20  36  63  95 124 167 218 272 332 399
#     4  11  21  41  61  88 128 176 225 280 327 397
#     4  10  20  36  60  90 130 166 227 276 331 374
#     4  10  18  33  58  93 124 164 201 278 335 389
#
# _framework density 20.222778000000002
#
# number of rings (size 3 to 8) (size 9 to 14) (size 15 to 20)
#    0.000    1.500    3.750    4.500    0.000    0.000 
#    9.000    0.000    2.750    0.750    0.000    0.000 
#    0.000    0.000    0.000    0.000    0.000    0.000 
#
# Total GULP energy -178370.200974 kJ/mol
# GULP energy per Si atom -5574.068780 kJ/mol
# Density = 2.017675 g / cm^3
# Si number density = 20.222778 Si / 1000 Ang^3
#
#
#
# Elastic Constant Matrix: (Units=GPa)
#
#
# Indices 1 2 3 4 5 6 
#
# 1 158.9940 16.3532 54.7771 0.0000 0.0000 0.0000
# 2 16.3532 29.6600 -2.6217 0.0000 0.0000 0.0000
# 3 54.7771 -2.6217 104.1386 0.0000 0.0000 0.0000
# 4 0.0000 0.0000 0.0000 162.1254 0.0000 0.0000
# 5 0.0000 0.0000 0.0000 0.0000 26.5631 0.0000
# 6 0.0000 0.0000 0.0000 0.0000 0.0000 25.8623
#
#
#
# Elastic Compliance Matrix: (Units=1/GPa)
#
#
# Indices 1 2 3 4 5 6 
#
# 1 0.008364 -0.005012 -0.004526 0.000000 0.000000 0.000000
# 2 -0.005012 0.036794 0.003562 0.000000 0.000000 0.000000
# 3 -0.004526 0.003562 0.012073 0.000000 0.000000 0.000000
# 4 0.000000 0.000000 0.000000 0.006168 0.000000 0.000000
# 5 0.000000 0.000000 0.000000 0.000000 0.037646 0.000000
# 6 0.000000 0.000000 0.000000 0.000000 0.000000 0.038666
#
#
# Mechanical properties :
#
#
# Convention : Reuss Voigt Hill
#
# Bulk Modulus (GPa) = 22.08449 47.75665 34.92057
# Shear Modulus (GPa) = 29.98410 57.86242 43.92326
#
# Velocity S-wave (km/s) = 3.85475 5.35487 4.66550
# Velocity P-wave (km/s) = 5.54585 7.86761 6.80646
#
# Compressibility (1/GPa) = 0.04528064
#
# Stress axis : x y z
#
# Youngs Moduli (GPa) = 119.55625 27.17861 82.83051
#
# Poissons Ratio (x) = 0.13621 0.37487
# Poissons Ratio (y) = 0.59919 -0.29508
# Poissons Ratio (z) = 0.54109 -0.09682
#
# Static dielectric constant tensor:
#      x y z
#    x 2.092270 0.000000 0.000000 
#    y 0.000000 1.744060 0.000000 
#    z 0.000000 0.000000 1.671730 
# 
# From -- ./inp_files/16573.got.cif
#   From: 2010.05.17/outbox.cif.g08.bks.cpg/sg37_9_cif.got.tgz:16573.got - 2010.06.03 17:53:42.
