data_PCOD9353009
_publ_section_title
;
Structure prediction by ZEFSAII (Michael W. Deem and Ramdas Pophale) SiO2 
 PCOD9353009
Probable space group: C M C 21
;
_chemical_formula_sum "Si O2"
_cell_formula_units_Z 64
_cell_length_a 29.579698
_cell_length_b 8.285477
_cell_length_c 12.274237
_cell_angle_alpha 90.000000
_cell_angle_beta 90.000000
_cell_angle_gamma 90.000000
_cell_volume 3008.193416
_symmetry_space_group_name_H-M "C M C 21"
_symmetry_group_IT_number 36
_symmetry_cell_setting 'orthorhombic'
loop_
_space_group_symop_operation_xyz
x,y,z
-x,-y,1/2+z
x,-y,1/2+z
-x,y,z
1/2+x,1/2+y,z
1/2-x,1/2-y,1/2+z
1/2+x,1/2-y,1/2+z
1/2-x,1/2+y,z
loop_
_atom_site_type_symbol
_atom_site_label
_atom_site_fract_x
_atom_site_fract_y
_atom_site_fract_z
Si Si1 0.053477 0.054539 0.996560
Si Si2 0.689827 0.445278 0.235242
Si Si3 0.222711 0.529879 0.892311
Si Si4 0.609298 0.735650 0.829827
Si Si5 0.406585 0.113575 0.548790
Si Si6 0.744999 0.707180 0.552665
Si Si7 0.446234 0.779575 0.616375
Si Si8 0.329091 0.796184 0.212434
O O1 0.085028 0.084167 0.891184
O O2 0.000000 0.045087 0.970440
O O3 0.062542 0.223788 0.061298
O O4 0.067008 0.890683 0.059176
O O5 0.732366 0.458241 0.316554
O O6 0.656742 0.306670 0.276429
O O7 0.661514 0.610812 0.242390
O O8 0.707909 0.403519 0.113680
O O9 0.228953 0.356674 0.946012
O O10 0.221994 0.635183 0.003544
O O11 0.183526 0.593052 0.814498
O O12 0.576086 0.789020 0.734774
O O13 0.613456 0.861891 0.928061
O O14 0.367330 0.127145 0.637928
O O15 0.431259 0.942832 0.555698
O O16 0.783036 0.729163 0.643149
O O17 0.500000 0.776844 0.625396
#
# Coordination Sequence:
#
# PCOD9353009 Si02
#       8
#     8   8   8   8   8   8   8   8
#     4   9  21  45  71 100 137 180 231 285 357 427
#     4  11  23  41  65  92 133 178 230 281 342 409
#     4  11  23  40  63  89 126 183 220 277 342 403
#     4  10  24  43  71  97 137 181 229 287 349 411
#     4  10  24  43  67 103 141 176 227 291 347 414
#     4  11  23  40  64  90 129 181 221 280 337 405
#     4  11  23  45  73 102 138 181 226 285 355 425
#     4  11  23  41  64  97 131 174 236 276 343 412
#
# _framework density 21.275226
#
# number of rings (size 3 to 8) (size 9 to 14) (size 15 to 20)
#    0.750    0.750    2.500    2.250    0.000    3.000 
#    6.750    0.000    0.000    0.000    0.000    0.000 
#    0.000    0.000    0.000    0.000    0.000    0.000 
#
# Total GULP energy -178523.644656 kJ/mol
# GULP energy per Si atom -5578.863895 kJ/mol
# Density = 2.122680 g / cm^3
# Si number density = 21.275226 Si / 1000 Ang^3
#
#
#
# Elastic Constant Matrix: (Units=GPa)
#
#
# Indices 1 2 3 4 5 6 
#
# 1 41.6170 14.7382 28.7268 0.0000 0.0000 0.0000
# 2 14.7382 101.6714 26.7293 0.0000 0.0000 0.0000
# 3 28.7268 26.7293 90.8711 0.0000 0.0000 0.0000
# 4 0.0000 0.0000 0.0000 10.3309 0.0000 0.0000
# 5 0.0000 0.0000 0.0000 0.0000 88.0587 0.0000
# 6 0.0000 0.0000 0.0000 0.0000 0.0000 109.4421
#
#
#
# Elastic Compliance Matrix: (Units=1/GPa)
#
#
# Indices 1 2 3 4 5 6 
#
# 1 0.031139 -0.002087 -0.009230 0.000000 0.000000 0.000000
# 2 -0.002087 0.010800 -0.002517 0.000000 0.000000 0.000000
# 3 -0.009230 -0.002517 0.014663 0.000000 0.000000 0.000000
# 4 0.000000 0.000000 0.000000 0.096797 0.000000 0.000000
# 5 0.000000 0.000000 0.000000 0.000000 0.011356 0.000000
# 6 0.000000 0.000000 0.000000 0.000000 0.000000 0.009137
#
#
# Mechanical properties :
#
#
# Convention : Reuss Voigt Hill
#
# Bulk Modulus (GPa) = 34.56217 41.61645 38.08931
# Shear Modulus (GPa) = 23.67374 52.49736 38.08555
#
# Velocity S-wave (km/s) = 3.33939 4.97282 4.23559
# Velocity P-wave (km/s) = 5.58115 7.25089 6.47011
#
# Compressibility (1/GPa) = 0.02893337
#
# Stress axis : x y z
#
# Youngs Moduli (GPa) = 32.11412 92.59369 68.20010
#
# Poissons Ratio (x) = 0.19328 0.62948
# Poissons Ratio (y) = 0.06703 0.17165
# Poissons Ratio (z) = 0.29641 0.23305
#
# Static dielectric constant tensor:
#      x y z
#    x 1.750770 0.000000 0.000000 
#    y 0.000000 1.975480 0.000000 
#    z 0.000000 0.000000 1.767590 
# 
# From -- ./inp_files/9759.got.cif
#   From: 2010.05.17/outbox.cif.g08.bks.cpg/sg36_5_cif.got.tgz:9759.got - 2010.06.03 17:41:39.
