data_PCOD9353587
_publ_section_title
;
Structure prediction by ZEFSAII (Michael W. Deem and Ramdas Pophale) SiO2 
 PCOD9353587
Probable space group: C C C 2
;
_chemical_formula_sum "Si O2"
_cell_formula_units_Z 64
_cell_length_a 9.374324
_cell_length_b 14.431729
_cell_length_c 23.996034
_cell_angle_alpha 90.000000
_cell_angle_beta 90.000000
_cell_angle_gamma 90.000000
_cell_volume 3246.368334
_symmetry_space_group_name_H-M "C C C 2"
_symmetry_group_IT_number 37
_symmetry_cell_setting 'orthorhombic'
loop_
_space_group_symop_operation_xyz
x,y,z
-x,-y,z
-x,y,1/2+z
x,-y,1/2+z
1/2+x,1/2+y,z
1/2-x,1/2-y,z
1/2-x,1/2+y,1/2+z
1/2+x,1/2-y,1/2+z
loop_
_atom_site_type_symbol
_atom_site_label
_atom_site_fract_x
_atom_site_fract_y
_atom_site_fract_z
Si Si1 0.816155 0.095238 0.357750
Si Si2 0.403381 0.911147 0.035534
Si Si3 0.418380 0.765810 0.731016
Si Si4 0.129557 0.045393 0.461305
Si Si5 0.408103 0.755641 0.962503
Si Si6 0.974528 0.702487 0.851529
Si Si7 0.396458 0.422958 0.733565
Si Si8 0.341220 0.155109 0.658488
O O1 0.900687 0.194957 0.357426
O O2 0.651564 0.128107 0.358398
O O3 0.854602 0.053938 0.297307
O O4 0.845547 0.020016 0.406688
O O5 0.351656 0.881066 0.096130
O O6 0.500000 0.000000 0.041439
O O7 0.273870 0.942375 0.995335
O O8 0.484343 0.823884 0.005758
O O9 0.250000 0.750000 0.721478
O O10 0.447167 0.806723 0.792702
O O11 0.508864 0.670322 0.732617
O O12 0.503265 0.826355 0.685325
O O13 0.065605 0.148112 0.451335
O O14 0.000000 0.000000 0.495406
O O15 0.250000 0.750000 0.986941
O O16 0.416620 0.804702 0.902762
O O17 0.500000 0.500000 0.709485
O O18 0.252440 0.409510 0.698862
O O19 0.250000 0.250000 0.657861
#
# Coordination Sequence:
#
# PCOD9353587 Si02
#       8
#     8   8   8   8   8   8   8   8
#     4  10  19  33  59  92 129 168 208 267 313 391
#     4  11  25  44  65  86 128 169 216 271 337 384
#     4  10  21  38  64  94 125 167 218 272 329 391
#     4  11  21  38  63  96 125 165 221 268 313 392
#     4  10  21  37  60  89 124 165 206 260 320 387
#     4  10  18  34  58  91 130 167 209 256 330 384
#     4  10  21  37  63  91 126 169 215 260 329 392
#     4  10  21  44  66  88 122 173 217 270 324 400
#
# _framework density 19.714337
#
# number of rings (size 3 to 8) (size 9 to 14) (size 15 to 20)
#    0.000    1.750    2.500    2.625    1.750    1.500 
#    0.000    2.500    0.000    0.000    0.000    0.000 
#    0.000    0.000    0.000    0.000    0.000    0.000 
#
# Total GULP energy -178218.842102 kJ/mol
# GULP energy per Si atom -5569.338816 kJ/mol
# Density = 1.966947 g / cm^3
# Si number density = 19.714337 Si / 1000 Ang^3
#
#
#
# Elastic Constant Matrix: (Units=GPa)
#
#
# Indices 1 2 3 4 5 6 
#
# 1 97.4068 32.0828 47.9144 0.0000 0.0000 0.0000
# 2 32.0828 78.9725 43.5809 0.0000 0.0000 0.0000
# 3 47.9144 43.5809 134.8246 0.0000 0.0000 0.0000
# 4 0.0000 0.0000 0.0000 32.3678 0.0000 0.0000
# 5 0.0000 0.0000 0.0000 0.0000 -1.2983 0.0000
# 6 0.0000 0.0000 0.0000 0.0000 0.0000 20.3436
#
#
#
# Elastic Compliance Matrix: (Units=1/GPa)
#
#
# Indices 1 2 3 4 5 6 
#
# 1 0.013135 -0.003359 -0.003582 0.000000 0.000000 0.000000
# 2 -0.003359 0.016271 -0.004066 0.000000 0.000000 0.000000
# 3 -0.003582 -0.004066 0.010004 0.000000 0.000000 0.000000
# 4 0.000000 0.000000 0.000000 0.030895 0.000000 0.000000
# 5 0.000000 0.000000 0.000000 0.000000 -0.770238 0.000000
# 6 0.000000 0.000000 0.000000 0.000000 0.000000 0.049156
#
#
# Mechanical properties :
#
#
# Convention : Reuss Voigt Hill
#
# Bulk Modulus (GPa) = 57.48429 62.04002 59.76216
# Shear Modulus (GPa) = -8.02613 22.79099 7.38243
#
# Velocity S-wave (km/s) = -2.01991 3.40378 1.93722
# Velocity P-wave (km/s) = 4.87666 6.85459 5.94842
#
# Compressibility (1/GPa) = 0.01739606
#
# Stress axis : x y z
#
# Youngs Moduli (GPa) = 76.13457 61.45914 99.95805
#
# Poissons Ratio (x) = 0.20646 0.35805
# Poissons Ratio (y) = 0.25576 0.40639
# Poissons Ratio (z) = 0.27271 0.24987
#
# Static dielectric constant tensor:
#      x y z
#    x 1.707480 0.000000 0.000000 
#    y 0.000000 1.797360 0.000000 
#    z 0.000000 0.000000 1.669070 
# 
# From -- ./inp_files/18506.got.cif
#   From: 2010.05.17/outbox.cif.g08.bks.cpg/sg37_10_cif.got.tgz:18506.got - 2010.06.03 17:53:42.
