data_PCOD9353383
_publ_section_title
;
Structure prediction by ZEFSAII (Michael W. Deem and Ramdas Pophale) SiO2 
 PCOD9353383
Probable space group: C M C 21
;
_chemical_formula_sum "Si O2"
_cell_formula_units_Z 32
_cell_length_a 9.000000
_cell_length_b 15.000000
_cell_length_c 24.000000
_cell_angle_alpha 90.000000
_cell_angle_beta 90.000000
_cell_angle_gamma 90.000000
_cell_volume 3240.000000
_symmetry_space_group_name_H-M "C M C 21"
_symmetry_group_IT_number 36
_symmetry_cell_setting 'orthorhombic'
loop_
_space_group_symop_operation_xyz
x,y,z
-x,-y,1/2+z
x,-y,1/2+z
-x,y,z
1/2+x,1/2+y,z
1/2-x,1/2-y,1/2+z
1/2+x,1/2-y,1/2+z
1/2-x,1/2+y,z
loop_
_atom_site_type_symbol
_atom_site_label
_atom_site_fract_x
_atom_site_fract_y
_atom_site_fract_z
Si Si1 0.325522 0.155073 0.905510
Si Si2 0.823747 0.335705 0.919644
Si Si3 0.178863 0.999732 0.474163
Si Si4 0.675060 0.087935 0.784216
Si Si5 0.322768 0.341097 0.172060
Si Si6 0.824019 0.899387 0.806650
Si Si7 0.823314 0.838931 0.681357
Si Si8 0.179341 0.997091 0.599719
O O1 0.500000 0.165418 0.918458
O O2 0.228273 0.235166 0.929141
O O3 0.312263 0.150428 0.838465
O O4 0.261342 0.064537 0.930999
O O5 0.733884 0.401487 0.959830
O O6 0.770640 0.360107 0.857098
O O7 0.000000 0.347079 0.925232
O O8 0.226916 0.976571 0.537141
O O9 0.000000 0.992874 0.468601
O O10 0.500000 0.066221 0.777769
O O11 0.739290 0.130935 0.728563
O O12 0.770285 0.000144 0.797050
O O13 0.500000 0.349157 0.180288
O O14 0.273456 0.241811 0.159551
O O15 0.275174 0.406882 0.122626
O O16 0.800603 0.851680 0.747345
O O17 0.000000 0.895589 0.820137
O O18 0.000000 0.823233 0.673188
O O19 0.779497 0.926370 0.646965
O O20 0.000000 0.997223 0.597611
#
# Coordination Sequence:
#
# PCOD9353383 Si02
#       8
#     8   8   8   8   8   8   8   8
#     4  11  24  42  63  91 126 161 204 255 309 367
#     4  12  25  41  62  92 128 163 205 252 305 370
#     4  11  23  42  67  90 120 162 209 258 310 363
#     4  11  22  37  61  92 126 159 198 249 307 368
#     4  11  22  39  62  91 124 160 202 247 300 364
#     4  11  21  37  64  91 124 163 199 246 310 368
#     4  10  21  40  62  89 124 159 197 247 305 362
#     4   9  21  42  63  86 120 161 204 252 304 358
#
# _framework density 9.8765429999999999
#
# number of rings (size 3 to 8) (size 9 to 14) (size 15 to 20)
#    0.000    1.250    2.500    3.750    0.000    6.500 
#    0.000    6.250    0.000    0.000    0.000    0.000 
#    0.000    0.000    0.000    0.000    0.000    0.000 
#
# Total GULP energy -178814.986280 kJ/mol
# GULP energy per Si atom -5587.968321 kJ/mol
# Density = 0.985406 g / cm^3
# Si number density = 9.876543 Si / 1000 Ang^3
#
#
#
# Elastic Constant Matrix: (Units=GPa)
#
#
# Indices 1 2 3 4 5 6 
#
# 1 50.2251 -8.8221 9.3214 0.0000 0.0000 0.0000
# 2 -8.8221 44.9802 -16.2663 0.0000 0.0000 0.0000
# 3 9.3214 -16.2663 58.0165 0.0000 0.0000 0.0000
# 4 0.0000 0.0000 0.0000 0.5402 0.0000 0.0000
# 5 0.0000 0.0000 0.0000 0.0000 7.3870 0.0000
# 6 0.0000 0.0000 0.0000 0.0000 0.0000 33.3134
#
#
#
# Elastic Compliance Matrix: (Units=1/GPa)
#
#
# Indices 1 2 3 4 5 6 
#
# 1 0.020932 0.003215 -0.002462 0.000000 0.000000 0.000000
# 2 0.003215 0.025234 0.006558 0.000000 0.000000 0.000000
# 3 -0.002462 0.006558 0.019471 0.000000 0.000000 0.000000
# 4 0.000000 0.000000 0.000000 1.851143 0.000000 0.000000
# 5 0.000000 0.000000 0.000000 0.000000 0.135374 0.000000
# 6 0.000000 0.000000 0.000000 0.000000 0.000000 0.030018
#
#
# Mechanical properties :
#
#
# Convention : Reuss Voigt Hill
#
# Bulk Modulus (GPa) = 12.45929 13.52085 12.99007
# Shear Modulus (GPa) = 2.38743 19.51403 10.95073
#
# Velocity S-wave (km/s) = 1.10057 3.14649 2.35708
# Velocity P-wave (km/s) = 2.81713 4.47888 3.74143
#
# Compressibility (1/GPa) = 0.08026142
#
# Stress axis : x y z
#
# Youngs Moduli (GPa) = 47.77372 39.62848 51.35889
#
# Poissons Ratio (x) = -0.12742 0.12643
# Poissons Ratio (y) = -0.15360 -0.33684
# Poissons Ratio (z) = 0.11760 -0.25990
#
# Static dielectric constant tensor:
#      x y z
#    x 1.646850 0.000000 0.000000 
#    y 0.000000 1.709050 0.000000 
#    z 0.000000 0.000000 1.686580 
# 
# From -- ./inp_files/16636.got.cif
#   From: 2010.05.17/outbox.ucp.g08.bks.cvg/sg36_9_cif.got.tgz:16636.got - 2010.06.11 10:37:26.
