data_PCOD9353467
_publ_section_title
;
Structure prediction by ZEFSAII (Michael W. Deem and Ramdas Pophale) SiO2 
 PCOD9353467
Probable space group: C C C 2
;
_chemical_formula_sum "Si O2"
_cell_formula_units_Z 52
_cell_length_a 14.256286
_cell_length_b 18.901017
_cell_length_c 8.976344
_cell_angle_alpha 90.000000
_cell_angle_beta 90.000000
_cell_angle_gamma 90.000000
_cell_volume 2418.750431
_symmetry_space_group_name_H-M "C C C 2"
_symmetry_group_IT_number 37
_symmetry_cell_setting 'orthorhombic'
loop_
_space_group_symop_operation_xyz
x,y,z
-x,-y,z
-x,y,1/2+z
x,-y,1/2+z
1/2+x,1/2+y,z
1/2-x,1/2-y,z
1/2-x,1/2+y,1/2+z
1/2+x,1/2-y,1/2+z
loop_
_atom_site_type_symbol
_atom_site_label
_atom_site_fract_x
_atom_site_fract_y
_atom_site_fract_z
Si Si1 0.261309 0.902988 0.414570
Si Si2 0.915931 0.694884 0.023877
Si Si3 0.250000 0.750000 0.880025
Si Si4 0.790690 0.525217 0.233290
Si Si5 0.624461 0.382827 0.798456
Si Si6 0.906368 0.650003 0.364162
Si Si7 0.441976 0.358927 0.975111
O O1 0.317452 0.832561 0.459344
O O2 0.281309 0.952299 0.560976
O O3 0.151323 0.887687 0.393947
O O4 0.302157 0.943538 0.271855
O O5 0.936360 0.774192 0.974283
O O6 0.998116 0.647289 0.954119
O O7 0.917979 0.687611 0.202414
O O8 0.308597 0.687254 0.798069
O O9 0.168751 0.700549 0.951365
O O10 0.693064 0.550865 0.307647
O O11 0.866915 0.573821 0.316723
O O12 0.543739 0.380418 0.919141
O O13 0.571854 0.384160 0.642711
#
# Coordination Sequence:
#
# PCOD9353467 Si02
#       7
#     8   8   4   8   8   8   8
#     4  10  23  38  61  79 122 152 199 229 285 340
#     4  11  20  37  60  92 111 153 186 242 286 345
#     4  10  16  36  56  82 108 152 174 234 274 350
#     4   9  22  41  56  85 110 168 187 235 280 343
#     4  10  21  35  63  82 120 145 195 231 291 336
#     4  10  21  35  63  82 120 145 195 231 291 336
#     4  11  20  37  60  92 111 153 186 242 286 345
#
# _framework density 21.498702999999999
#
# number of rings (size 3 to 8) (size 9 to 14) (size 15 to 20)
#    0.000    1.846    3.077    1.385    0.000    3.692 
#    0.000    7.692    0.000    0.000    0.000    0.000 
#    0.000    0.000    0.000    0.000    0.000    0.000 
#
# Total GULP energy -145067.896998 kJ/mol
# GULP energy per Si atom -5579.534500 kJ/mol
# Density = 2.144977 g / cm^3
# Si number density = 21.498703 Si / 1000 Ang^3
#
#
#
# Elastic Constant Matrix: (Units=GPa)
#
#
# Indices 1 2 3 4 5 6 
#
# 1 75.7245 -6.6679 18.7001 0.0000 0.0000 0.0000
# 2 -6.6679 19.6134 9.9486 0.0000 0.0000 0.0000
# 3 18.7001 9.9486 -2.5548 0.0000 0.0000 0.0000
# 4 0.0000 0.0000 0.0000 15.5175 0.0000 0.0000
# 5 0.0000 0.0000 0.0000 0.0000 26.1920 0.0000
# 6 0.0000 0.0000 0.0000 0.0000 0.0000 16.6199
#
#
#
# Elastic Compliance Matrix: (Units=1/GPa)
#
#
# Indices 1 2 3 4 5 6 
#
# 1 0.007267 -0.008238 0.021111 0.000000 0.000000 0.000000
# 2 -0.008238 0.026476 0.042799 0.000000 0.000000 0.000000
# 3 0.021111 0.042799 -0.070228 0.000000 0.000000 0.000000
# 4 0.000000 0.000000 0.000000 0.064443 0.000000 0.000000
# 5 0.000000 0.000000 0.000000 0.000000 0.038180 0.000000
# 6 0.000000 0.000000 0.000000 0.000000 0.000000 0.060169
#
#
# Mechanical properties :
#
#
# Convention : Reuss Voigt Hill
#
# Bulk Modulus (GPa) = 13.35825 15.19386 14.27605
# Shear Modulus (GPa) = 125.26817 16.38602 70.82710
#
# Velocity S-wave (km/s) = 7.64161 2.76377 5.74598
# Velocity P-wave (km/s) = 9.16984 4.15539 7.11875
#
# Compressibility (1/GPa) = 0.07486012
#
# Stress axis : x y z
#
# Youngs Moduli (GPa) = 137.60926 37.77062 -14.23936
#
# Poissons Ratio (x) = 0.31115 0.30061
# Poissons Ratio (y) = 1.13362 0.60943
# Poissons Ratio (z) = -2.90512 -1.61656
#
# Static dielectric constant tensor:
#      x y z
#    x 1.820960 0.000000 0.000000 
#    y 0.000000 1.794430 0.000000 
#    z 0.000000 0.000000 1.784540 
# 
# From -- ./inp_files/3604.got.cif
#   From: 2010.05.17/outbox.cif.g08.bks.cpg/sg37_2_cif.got.tgz:3604.got - 2010.06.03 17:53:42.
