data_PCOD9353358
_publ_section_title
;
Structure prediction by ZEFSAII (Michael W. Deem and Ramdas Pophale) SiO2 
 PCOD9353358
Probable space group: C M C 21
;
_chemical_formula_sum "Si O2"
_cell_formula_units_Z 32
_cell_length_a 9.000000
_cell_length_b 24.000000
_cell_length_c 15.000000
_cell_angle_alpha 90.000000
_cell_angle_beta 90.000000
_cell_angle_gamma 90.000000
_cell_volume 3240.000000
_symmetry_space_group_name_H-M "C M C 21"
_symmetry_group_IT_number 36
_symmetry_cell_setting 'orthorhombic'
loop_
_space_group_symop_operation_xyz
x,y,z
-x,-y,1/2+z
x,-y,1/2+z
-x,y,z
1/2+x,1/2+y,z
1/2-x,1/2-y,1/2+z
1/2+x,1/2-y,1/2+z
1/2-x,1/2+y,z
loop_
_atom_site_type_symbol
_atom_site_label
_atom_site_fract_x
_atom_site_fract_y
_atom_site_fract_z
Si Si1 0.320492 0.289018 0.805610
Si Si2 0.330100 0.883077 0.159664
Si Si3 0.329393 0.108253 0.865959
Si Si4 0.177797 0.772105 0.142261
Si Si5 0.179926 0.002271 0.135620
Si Si6 0.320062 0.214361 0.968309
Si Si7 0.677666 0.503828 0.934022
Si Si8 0.180965 0.916227 0.795480
O O1 0.500000 0.286214 0.795699
O O2 0.244671 0.249741 0.733649
O O3 0.281955 0.264630 0.902208
O O4 0.270926 0.352511 0.792622
O O5 0.500000 0.886178 0.128033
O O6 0.333172 0.870441 0.265320
O O7 0.240272 0.832596 0.116950
O O8 0.248865 0.941773 0.151162
O O9 0.500000 0.094962 0.891247
O O10 0.265829 0.156247 0.929011
O O11 0.232570 0.053469 0.872355
O O12 0.000000 0.774584 0.146089
O O13 0.227186 0.728487 0.067053
O O14 0.000000 0.998919 0.139542
O O15 0.227857 0.046781 0.210331
O O16 0.226544 0.016366 0.034552
O O17 0.500000 0.210608 0.967101
O O18 0.500000 0.502243 0.935352
O O19 0.728954 0.447024 0.886587
O O20 0.000000 0.915806 0.794977
#
# Coordination Sequence:
#
# PCOD9353358 Si02
#       8
#     8   8   8   8   8   8   8   8
#     4  10  20  39  61  81 115 156 192 231 284 348
#     4  11  22  39  62  85 113 153 196 240 292 343
#     4  10  20  38  60  82 111 151 193 236 285 342
#     4  11  23  38  60  88 115 149 194 243 291 342
#     4  10  21  37  58  87 118 149 191 237 285 338
#     4   9  20  38  59  82 112 154 193 227 284 351
#     4  10  21  36  58  87 114 149 191 234 285 339
#     4   9  19  35  56  82 114 151 188 228 274 333
#
# _framework density 9.8765429999999999
#
# number of rings (size 3 to 8) (size 9 to 14) (size 15 to 20)
#    0.000    2.000    2.500    0.750    3.500    1.000 
#    0.000    3.125    0.000    0.000    0.000    0.000 
#    0.000    0.000    0.000    0.000    0.000    0.000 
#
# Total GULP energy -178450.173280 kJ/mol
# GULP energy per Si atom -5576.567915 kJ/mol
# Density = 0.985406 g / cm^3
# Si number density = 9.876543 Si / 1000 Ang^3
#
#
#
# Elastic Constant Matrix: (Units=GPa)
#
#
# Indices 1 2 3 4 5 6 
#
# 1 5.5263 1.0906 5.7975 0.0000 0.0000 0.0000
# 2 1.0906 74.6600 -14.5054 0.0000 0.0000 0.0000
# 3 5.7975 -14.5054 41.0709 0.0000 0.0000 0.0000
# 4 0.0000 0.0000 0.0000 25.7951 0.0000 0.0000
# 5 0.0000 0.0000 0.0000 0.0000 -34.5688 0.0000
# 6 0.0000 0.0000 0.0000 0.0000 0.0000 2.6359
#
#
#
# Elastic Compliance Matrix: (Units=1/GPa)
#
#
# Indices 1 2 3 4 5 6 
#
# 1 0.218995 -0.009883 -0.034404 0.000000 0.000000 0.000000
# 2 -0.009883 0.014827 0.006632 0.000000 0.000000 0.000000
# 3 -0.034404 0.006632 0.031547 0.000000 0.000000 0.000000
# 4 0.000000 0.000000 0.000000 0.038767 0.000000 0.000000
# 5 0.000000 0.000000 0.000000 0.000000 -0.028928 0.000000
# 6 0.000000 0.000000 0.000000 0.000000 0.000000 0.379376
#
#
# Mechanical properties :
#
#
# Convention : Reuss Voigt Hill
#
# Bulk Modulus (GPa) = 5.26155 11.78031 8.52093
# Shear Modulus (GPa) = 6.30321 7.36407 6.83364
#
# Velocity S-wave (km/s) = 1.78828 1.93291 1.86200
# Velocity P-wave (km/s) = 2.63312 3.31033 2.99095
#
# Compressibility (1/GPa) = 0.19005807
#
# Stress axis : x y z
#
# Youngs Moduli (GPa) = 4.56632 67.44521 31.69907
#
# Poissons Ratio (x) = 0.66657 1.09056
# Poissons Ratio (y) = 0.04513 -0.21022
# Poissons Ratio (z) = 0.15710 -0.44727
#
# Static dielectric constant tensor:
#      x y z
#    x 1.664630 0.000000 0.000000 
#    y 0.000000 1.675600 0.000000 
#    z 0.000000 0.000000 1.707990 
# 
# From -- ./inp_files/10877.got.cif
#   From: 2010.05.17/outbox.ucp.g08.bks.cvg/sg36_6_cif.got.tgz:10877.got - 2010.06.11 10:37:26.
