data_PCOD9353113
_publ_section_title
;
Structure prediction by ZEFSAII (Michael W. Deem and Ramdas Pophale) SiO2 
 PCOD9353113
Probable space group: C M C 21
;
_chemical_formula_sum "Si O2"
_cell_formula_units_Z 64
_cell_length_a 13.908593
_cell_length_b 9.131160
_cell_length_c 21.835698
_cell_angle_alpha 90.000000
_cell_angle_beta 90.000000
_cell_angle_gamma 90.000000
_cell_volume 2773.168322
_symmetry_space_group_name_H-M "C M C 21"
_symmetry_group_IT_number 36
_symmetry_cell_setting 'orthorhombic'
loop_
_space_group_symop_operation_xyz
x,y,z
-x,-y,1/2+z
x,-y,1/2+z
-x,y,z
1/2+x,1/2+y,z
1/2-x,1/2-y,1/2+z
1/2+x,1/2-y,1/2+z
1/2-x,1/2+y,z
loop_
_atom_site_type_symbol
_atom_site_label
_atom_site_fract_x
_atom_site_fract_y
_atom_site_fract_z
Si Si1 0.100583 0.397609 0.276610
Si Si2 0.646144 0.292180 0.888774
Si Si3 0.616678 0.254138 0.142958
Si Si4 0.244205 0.999384 0.699942
Si Si5 0.611725 0.816005 0.996736
Si Si6 0.397519 0.506168 0.804673
Si Si7 0.365342 0.810622 0.853962
Si Si8 0.311882 0.852684 0.514145
O O1 0.096767 0.285015 0.331911
O O2 0.183738 0.379846 0.227993
O O3 0.116396 0.545328 0.315304
O O4 0.000000 0.403802 0.242869
O O5 0.615134 0.458023 0.875992
O O6 0.755440 0.284799 0.869452
O O7 0.639041 0.216805 0.953417
O O8 0.500000 0.249973 0.156075
O O9 0.667043 0.411159 0.158975
O O10 0.683957 0.126042 0.174450
O O11 0.636640 0.220304 0.071907
O O12 0.183803 0.950732 0.759408
O O13 0.500000 0.801124 0.021927
O O14 0.597149 0.818174 0.923220
O O15 0.697142 0.695437 0.012475
O O16 0.662403 0.973312 0.013678
O O17 0.500000 0.462861 0.779232
O O18 0.395360 0.679649 0.810107
#
# Coordination Sequence:
#
# PCOD9353113 Si02
#       8
#     8   8   8   8   8   8   8   8
#     4  12  22  39  69 102 137 182 226 284 366 433
#     4  11  22  40  65 101 144 177 219 291 364 425
#     4  12  28  52  78 101 139 199 250 301 361 418
#     4  12  25  48  70 104 143 187 245 303 347 429
#     4  11  24  45  71 105 149 189 231 289 359 434
#     4  12  24  40  66 103 142 181 229 293 365 436
#     4  11  21  40  63  99 146 188 222 278 357 439
#     4  11  26  46  76 105 142 189 246 301 355 430
#
# _framework density 23.078295000000001
#
# number of rings (size 3 to 8) (size 9 to 14) (size 15 to 20)
#    0.000    0.500    3.750    4.875    5.250    1.500 
#    0.000    6.250    0.000    0.000    0.000    0.000 
#    0.000    0.000    0.000    0.000    0.000    0.000 
#
# Total GULP energy -178376.469910 kJ/mol
# GULP energy per Si atom -5574.264685 kJ/mol
# Density = 2.302577 g / cm^3
# Si number density = 23.078295 Si / 1000 Ang^3
#
#
#
# Elastic Constant Matrix: (Units=GPa)
#
#
# Indices 1 2 3 4 5 6 
#
# 1 207.7954 27.9180 29.9658 0.0000 0.0000 0.0000
# 2 27.9180 74.8126 3.9558 0.0000 0.0000 0.0000
# 3 29.9658 3.9558 54.1829 0.0000 0.0000 0.0000
# 4 0.0000 0.0000 0.0000 28.9446 0.0000 0.0000
# 5 0.0000 0.0000 0.0000 0.0000 23.6252 0.0000
# 6 0.0000 0.0000 0.0000 0.0000 0.0000 36.9877
#
#
#
# Elastic Compliance Matrix: (Units=1/GPa)
#
#
# Indices 1 2 3 4 5 6 
#
# 1 0.005484 -0.001894 -0.002895 0.000000 0.000000 0.000000
# 2 -0.001894 0.014072 0.000020 0.000000 0.000000 0.000000
# 3 -0.002895 0.000020 0.020056 0.000000 0.000000 0.000000
# 4 0.000000 0.000000 0.000000 0.034549 0.000000 0.000000
# 5 0.000000 0.000000 0.000000 0.000000 0.042328 0.000000
# 6 0.000000 0.000000 0.000000 0.000000 0.000000 0.027036
#
#
# Mechanical properties :
#
#
# Convention : Reuss Voigt Hill
#
# Bulk Modulus (GPa) = 33.25017 51.16337 42.20677
# Shear Modulus (GPa) = 30.65853 36.24157 33.45005
#
# Velocity S-wave (km/s) = 3.64876 3.96709 3.81125
# Velocity P-wave (km/s) = 5.67363 6.57278 6.13968
#
# Compressibility (1/GPa) = 0.03007503
#
# Stress axis : x y z
#
# Youngs Moduli (GPa) = 182.33913 71.06160 49.86151
#
# Poissons Ratio (x) = 0.13456 0.14434
# Poissons Ratio (y) = 0.34526 -0.00099
# Poissons Ratio (z) = 0.52784 -0.00141
#
# Static dielectric constant tensor:
#      x y z
#    x 1.939730 0.000000 0.000000 
#    y 0.000000 1.999750 0.000000 
#    z 0.000000 0.000000 1.838420 
# 
# From -- ./inp_files/16973.got.cif
#   From: 2010.05.17/outbox.cif.g08.bks.cpg/sg36_9_cif.got.tgz:16973.got - 2010.06.03 17:41:39.
