data_PCOD9353846
_publ_section_title
;
Structure prediction by ZEFSAII (Michael W. Deem and Ramdas Pophale) SiO2 
 PCOD9353846
Probable space group: C C C 2
;
_chemical_formula_sum "Si O2"
_cell_formula_units_Z 28
_cell_length_a 11.577861
_cell_length_b 9.782676
_cell_length_c 8.710451
_cell_angle_alpha 90.000000
_cell_angle_beta 90.000000
_cell_angle_gamma 90.000000
_cell_volume 986.567134
_symmetry_space_group_name_H-M "C C C 2"
_symmetry_group_IT_number 37
_symmetry_cell_setting 'orthorhombic'
loop_
_space_group_symop_operation_xyz
x,y,z
-x,-y,z
-x,y,1/2+z
x,-y,1/2+z
1/2+x,1/2+y,z
1/2-x,1/2-y,z
1/2-x,1/2+y,1/2+z
1/2+x,1/2-y,1/2+z
loop_
_atom_site_type_symbol
_atom_site_label
_atom_site_fract_x
_atom_site_fract_y
_atom_site_fract_z
Si Si1 0.384272 0.057698 0.445750
Si Si2 0.750000 0.750000 0.676651
Si Si3 0.116011 0.796210 0.728680
Si Si4 0.354143 0.571466 0.405097
O O1 0.312931 0.144090 0.567095
O O2 0.427082 0.156833 0.308144
O O3 0.500000 0.000000 0.514726
O O4 0.287376 0.944477 0.408879
O O5 0.644081 0.676442 0.764981
O O6 0.250000 0.750000 0.717509
O O7 0.096441 0.863872 0.561110
O O8 0.104237 0.922132 0.849615
#
# Coordination Sequence:
#
# PCOD9353846 Si02
#       4
#     8   4   8   8
#     4  11  24  43  70 114 157 204 278 336 387 489
#     4  12  22  40  68 114 152 220 260 320 422 464
#     4  10  19  38  66 105 146 209 264 311 407 475
#     4  11  20  39  71 104 148 220 257 315 416 473
#
# _framework density 28.381240999999999
#
# number of rings (size 3 to 8) (size 9 to 14) (size 15 to 20)
#    0.000    1.143    8.571    0.000    0.000    1.143 
#    0.000    1.429    0.000    1.714   29.714    0.000 
#    0.000    0.000    0.000    0.000    0.000    0.000 
#
# Total GULP energy -78426.895943 kJ/mol
# GULP energy per Si atom -5601.921139 kJ/mol
# Density = 2.831664 g / cm^3
# Si number density = 28.381241 Si / 1000 Ang^3
#
#
#
# Elastic Constant Matrix: (Units=GPa)
#
#
# Indices 1 2 3 4 5 6 
#
# 1 67.0193 -14.0637 16.5302 0.0000 0.0000 0.0000
# 2 -14.0637 74.4900 50.8139 0.0000 0.0000 0.0000
# 3 16.5302 50.8139 188.4728 0.0000 0.0000 0.0000
# 4 0.0000 0.0000 0.0000 43.1868 0.0000 0.0000
# 5 0.0000 0.0000 0.0000 0.0000 -34.5795 0.0000
# 6 0.0000 0.0000 0.0000 0.0000 0.0000 56.1664
#
#
#
# Elastic Compliance Matrix: (Units=1/GPa)
#
#
# Indices 1 2 3 4 5 6 
#
# 1 0.016687 0.005084 -0.002834 0.000000 0.000000 0.000000
# 2 0.005084 0.017999 -0.005299 0.000000 0.000000 0.000000
# 3 -0.002834 -0.005299 0.006983 0.000000 0.000000 0.000000
# 4 0.000000 0.000000 0.000000 0.023155 0.000000 0.000000
# 5 0.000000 0.000000 0.000000 0.000000 -0.028919 0.000000
# 6 0.000000 0.000000 0.000000 0.000000 0.000000 0.017804
#
#
# Mechanical properties :
#
#
# Convention : Reuss Voigt Hill
#
# Bulk Modulus (GPa) = 28.11279 48.50477 38.30878
# Shear Modulus (GPa) = 69.76995 31.40152 50.58573
#
# Velocity S-wave (km/s) = 4.96352 3.32990 4.22639
# Velocity P-wave (km/s) = 6.54030 5.64905 6.11095
#
# Compressibility (1/GPa) = 0.03557100
#
# Stress axis : x y z
#
# Youngs Moduli (GPa) = 59.92706 55.55899 143.20672
#
# Poissons Ratio (x) = -0.28245 0.40588
# Poissons Ratio (y) = -0.30466 0.75879
# Poissons Ratio (z) = 0.16985 0.29438
#
# Static dielectric constant tensor:
#      x y z
#    x 3.309420 0.000000 0.000000 
#    y 0.000000 2.208020 0.000000 
#    z 0.000000 0.000000 2.216070 
# 
# From -- ./inp_files/3188.got.cif
#   From: 2010.05.17/outbox.cif.g08.bks.cpg/sg37_2_cif.got.tgz:3188.got - 2010.06.03 17:53:42.
