data_PCOD9353375
_publ_section_title
;
Structure prediction by ZEFSAII (Michael W. Deem and Ramdas Pophale) SiO2 
 PCOD9353375
Probable space group: C M C 21
;
_chemical_formula_sum "Si O2"
_cell_formula_units_Z 32
_cell_length_a 9.000000
_cell_length_b 18.000000
_cell_length_c 21.000000
_cell_angle_alpha 90.000000
_cell_angle_beta 90.000000
_cell_angle_gamma 90.000000
_cell_volume 3402.000000
_symmetry_space_group_name_H-M "C M C 21"
_symmetry_group_IT_number 36
_symmetry_cell_setting 'orthorhombic'
loop_
_space_group_symop_operation_xyz
x,y,z
-x,-y,1/2+z
x,-y,1/2+z
-x,y,z
1/2+x,1/2+y,z
1/2-x,1/2-y,1/2+z
1/2+x,1/2-y,1/2+z
1/2-x,1/2+y,z
loop_
_atom_site_type_symbol
_atom_site_label
_atom_site_fract_x
_atom_site_fract_y
_atom_site_fract_z
Si Si1 0.168639 0.211857 0.482030
Si Si2 0.178615 0.029470 0.705092
Si Si3 0.176676 0.548422 0.973262
Si Si4 0.332008 0.436306 0.059738
Si Si5 0.179724 0.146065 0.207228
Si Si6 0.675671 0.330696 0.563622
Si Si7 0.679587 0.898882 0.332097
Si Si8 0.679059 0.275713 0.837458
O O1 0.154553 0.145448 0.531817
O O2 0.286017 0.263462 0.517066
O O3 0.215064 0.194283 0.408796
O O4 0.000000 0.246034 0.476621
O O5 0.220728 0.057850 0.633467
O O6 0.252348 0.067503 0.767065
O O7 0.000000 0.038798 0.710258
O O8 0.213618 0.941633 0.707390
O O9 0.227305 0.564107 0.900065
O O10 0.000000 0.554207 0.972023
O O11 0.230187 0.472971 0.005635
O O12 0.242432 0.604193 0.025861
O O13 0.500000 0.469925 0.059292
O O14 0.227797 0.177023 0.137526
O O15 0.236232 0.184077 0.272883
O O16 0.000000 0.153523 0.208227
O O17 0.500000 0.344284 0.566059
O O18 0.500000 0.905034 0.328201
O O19 0.718629 0.811467 0.336144
O O20 0.500000 0.281070 0.833607
#
# Coordination Sequence:
#
# PCOD9353375 Si02
#       8
#     8   8   8   8   8   8   8   8
#     4  10  21  38  60  84 115 152 193 237 289 346
#     4  10  21  38  57  84 119 149 189 237 284 345
#     4  11  22  39  61  84 115 153 195 243 291 343
#     4  10  22  39  60  88 120 153 194 243 291 348
#     4   9  19  35  57  83 112 148 188 232 282 344
#     4  11  21  37  61  86 115 148 192 242 288 343
#     4  10  22  38  57  82 114 149 193 239 284 346
#     4   9  18  36  57  79 110 150 190 229 281 345
#
# _framework density 9.4062319999999993
#
# number of rings (size 3 to 8) (size 9 to 14) (size 15 to 20)
#    0.000    2.000    2.500    0.750    3.500    2.000 
#    0.000    0.000    0.000    2.250    0.000    0.000 
#    0.000    0.000    0.000    0.000    0.000    0.000 
#
# Total GULP energy -178150.422645 kJ/mol
# GULP energy per Si atom -5567.200708 kJ/mol
# Density = 0.938482 g / cm^3
# Si number density = 9.406232 Si / 1000 Ang^3
#
#
#
# Elastic Constant Matrix: (Units=GPa)
#
#
# Indices 1 2 3 4 5 6 
#
# 1 22.8230 1.7641 11.1102 0.0000 0.0000 0.0000
# 2 1.7641 4.1884 4.7424 0.0000 0.0000 0.0000
# 3 11.1102 4.7424 163.4171 0.0000 0.0000 0.0000
# 4 0.0000 0.0000 0.0000 39.2690 0.0000 0.0000
# 5 0.0000 0.0000 0.0000 0.0000 33.3876 0.0000
# 6 0.0000 0.0000 0.0000 0.0000 0.0000 14.3763
#
#
#
# Elastic Compliance Matrix: (Units=1/GPa)
#
#
# Indices 1 2 3 4 5 6 
#
# 1 0.046394 -0.016512 -0.002675 0.000000 0.000000 0.000000
# 2 -0.016512 0.252741 -0.006212 0.000000 0.000000 0.000000
# 3 -0.002675 -0.006212 0.006481 0.000000 0.000000 0.000000
# 4 0.000000 0.000000 0.000000 0.025465 0.000000 0.000000
# 5 0.000000 0.000000 0.000000 0.000000 0.029951 0.000000
# 6 0.000000 0.000000 0.000000 0.000000 0.000000 0.069559
#
#
# Mechanical properties :
#
#
# Convention : Reuss Voigt Hill
#
# Bulk Modulus (GPa) = 3.92436 25.07354 14.49895
# Shear Modulus (GPa) = 8.82880 28.92738 18.87809
#
# Velocity S-wave (km/s) = 2.16870 3.92557 3.17123
# Velocity P-wave (km/s) = 2.89164 5.82270 4.59703
#
# Compressibility (1/GPa) = 0.25481879
#
# Stress axis : x y z
#
# Youngs Moduli (GPa) = 21.55459 3.95662 154.28656
#
# Poissons Ratio (x) = 0.06533 0.41271
# Poissons Ratio (y) = 0.35590 0.95842
# Poissons Ratio (z) = 0.05766 0.02458
#
# Static dielectric constant tensor:
#      x y z
#    x 1.681080 0.000000 0.000000 
#    y 0.000000 1.876860 0.000000 
#    z 0.000000 0.000000 1.638370 
# 
# From -- ./inp_files/15591.got.cif
#   From: 2010.05.17/outbox.ucp.g08.bks.cvg/sg36_8_cif.got.tgz:15591.got - 2010.06.11 10:37:26.
