data_PCOD9353258
_publ_section_title
;
Structure prediction by ZEFSAII (Michael W. Deem and Ramdas Pophale) SiO2 
 PCOD9353258
Probable space group: C M C 21
;
_chemical_formula_sum "Si O2"
_cell_formula_units_Z 48
_cell_length_a 18.615661
_cell_length_b 14.209173
_cell_length_c 7.484795
_cell_angle_alpha 90.000000
_cell_angle_beta 90.000000
_cell_angle_gamma 90.000000
_cell_volume 1979.826685
_symmetry_space_group_name_H-M "C M C 21"
_symmetry_group_IT_number 36
_symmetry_cell_setting 'orthorhombic'
loop_
_space_group_symop_operation_xyz
x,y,z
-x,-y,1/2+z
x,-y,1/2+z
-x,y,z
1/2+x,1/2+y,z
1/2-x,1/2-y,1/2+z
1/2+x,1/2-y,1/2+z
1/2-x,1/2+y,z
loop_
_atom_site_type_symbol
_atom_site_label
_atom_site_fract_x
_atom_site_fract_y
_atom_site_fract_z
Si Si1 0.307358 0.553450 0.012580
Si Si2 0.081839 0.682219 0.164819
Si Si3 0.692642 0.053450 0.268945
Si Si4 0.918161 0.817781 0.616706
Si Si5 0.917350 0.108723 0.522252
Si Si6 0.417350 0.891277 0.259273
O O1 0.250000 0.603542 0.140763
O O2 0.364669 0.634810 0.976447
O O3 0.359076 0.468313 0.078211
O O4 0.250000 0.500000 0.890763
O O5 0.135331 0.634810 0.305078
O O6 0.093975 0.790437 0.113918
O O7 0.000000 0.671676 0.226284
O O8 0.089040 0.628008 0.973251
O O9 0.640924 0.968313 0.203315
O O10 0.906025 0.709563 0.667607
O O11 0.000000 0.828324 0.555241
O O12 0.910960 0.871992 0.808274
O O13 0.000000 0.078483 0.557044
O O14 0.500000 0.921517 0.224482
#
# Coordination Sequence:
#
# PCOD9353258 Si02
#       6
#     8   8   8   8   8   8
#     4  12  23  38  59  94 132 163 204 261 331 391
#     4   9  19  39  64  87 117 167 219 260 309 376
#     4  12  23  38  59  94 132 163 204 261 331 391
#     4   9  19  39  64  87 117 167 219 260 309 376
#     4   9  19  39  64  87 118 164 217 265 310 372
#     4   9  19  39  64  87 118 164 217 265 310 372
#
# _framework density 24.244544999999999
#
# number of rings (size 3 to 8) (size 9 to 14) (size 15 to 20)
#    0.000    2.000    3.333    3.000    0.000    1.333 
#    0.000    0.000    0.000    4.000    0.000    0.000 
#    0.000    0.000    0.000    0.000    0.000    0.000 
#
# Total GULP energy -133935.794205 kJ/mol
# GULP energy per Si atom -5580.658092 kJ/mol
# Density = 2.418936 g / cm^3
# Si number density = 24.244545 Si / 1000 Ang^3
#
#
#
# Elastic Constant Matrix: (Units=GPa)
#
#
# Indices 1 2 3 4 5 6 
#
# 1 203.3015 104.2976 46.9875 0.0000 0.0000 0.0000
# 2 104.2976 115.8824 23.8320 0.0000 0.0000 0.0000
# 3 46.9875 23.8320 59.2938 0.0000 0.0000 0.0000
# 4 0.0000 0.0000 0.0000 25.0041 0.0000 0.0000
# 5 0.0000 0.0000 0.0000 0.0000 32.4091 0.0000
# 6 0.0000 0.0000 0.0000 0.0000 0.0000 -139.7129
#
#
#
# Elastic Compliance Matrix: (Units=1/GPa)
#
#
# Indices 1 2 3 4 5 6 
#
# 1 0.010263 -0.008246 -0.004818 0.000000 0.000000 0.000000
# 2 -0.008246 0.016032 0.000091 0.000000 0.000000 0.000000
# 3 -0.004818 0.000091 0.020647 0.000000 0.000000 0.000000
# 4 0.000000 0.000000 0.000000 0.039993 0.000000 0.000000
# 5 0.000000 0.000000 0.000000 0.000000 0.030856 0.000000
# 6 0.000000 0.000000 0.000000 0.000000 0.000000 -0.007158
#
#
# Mechanical properties :
#
#
# Convention : Reuss Voigt Hill
#
# Bulk Modulus (GPa) = 47.63106 80.96800 64.29953
# Shear Modulus (GPa) = 34.82398 -2.90255 15.96071
#
# Velocity S-wave (km/s) = 3.79405 -1.09535 2.56856
# Velocity P-wave (km/s) = 6.23553 5.64528 5.94773
#
# Compressibility (1/GPa) = 0.02099470
#
# Stress axis : x y z
#
# Youngs Moduli (GPa) = 97.44012 62.37409 48.43280
#
# Poissons Ratio (x) = 0.51432 0.23337
# Poissons Ratio (y) = 0.80347 -0.00438
# Poissons Ratio (z) = 0.46951 -0.00565
#
# Static dielectric constant tensor:
#      x y z
#    x 1.849070 0.000000 0.000000 
#    y 0.000000 1.966880 0.000000 
#    z 0.000000 0.000000 2.158330 
# 
# From -- ./inp_files/4645.got.cif
#   From: 2010.05.17/outbox.cif.g08.bks.cpg/sg36_3_cif.got.tgz:4645.got - 2010.06.03 17:41:39.
