data_PCOD9353712
_publ_section_title
;
Structure prediction by ZEFSAII (Michael W. Deem and Ramdas Pophale) SiO2 
 PCOD9353712
Probable space group: C C C 2
;
_chemical_formula_sum "Si O2"
_cell_formula_units_Z 64
_cell_length_a 25.597073
_cell_length_b 9.838472
_cell_length_c 12.927542
_cell_angle_alpha 90.000000
_cell_angle_beta 90.000000
_cell_angle_gamma 90.000000
_cell_volume 3255.621579
_symmetry_space_group_name_H-M "C C C 2"
_symmetry_group_IT_number 37
_symmetry_cell_setting 'orthorhombic'
loop_
_space_group_symop_operation_xyz
x,y,z
-x,-y,z
-x,y,1/2+z
x,-y,1/2+z
1/2+x,1/2+y,z
1/2-x,1/2-y,z
1/2-x,1/2+y,1/2+z
1/2+x,1/2-y,1/2+z
loop_
_atom_site_type_symbol
_atom_site_label
_atom_site_fract_x
_atom_site_fract_y
_atom_site_fract_z
Si Si1 0.249586 0.043139 0.404750
Si Si2 0.659861 0.264207 0.855169
Si Si3 0.270523 0.097700 0.100177
Si Si4 0.383581 0.162027 0.142241
Si Si5 0.405879 0.873701 0.220044
Si Si6 0.283219 0.128252 0.746217
Si Si7 0.436005 0.835457 0.991671
Si Si8 0.054749 0.339642 0.948762
O O1 0.297231 0.148750 0.386241
O O2 0.193664 0.099850 0.369096
O O3 0.244014 0.009318 0.525104
O O4 0.269301 0.895539 0.365117
O O5 0.640044 0.249333 0.736752
O O6 0.610045 0.238113 0.928604
O O7 0.250000 0.250000 0.100887
O O8 0.332804 0.101498 0.083903
O O9 0.265307 0.020965 0.208938
O O10 0.412805 0.037243 0.201487
O O11 0.416792 0.226306 0.049154
O O12 0.343594 0.852566 0.224368
O O13 0.428862 0.812001 0.114641
O O14 0.427087 0.822522 0.330116
O O15 0.250000 0.250000 0.701774
O O16 0.494241 0.799663 0.956126
O O17 0.434808 0.998950 0.970854
#
# Coordination Sequence:
#
# PCOD9353712 Si02
#       8
#     8   8   8   8   8   8   8   8
#     4  11  22  35  57  83 118 163 204 245 305 377
#     4  11  20  36  56  83 121 163 203 249 318 368
#     4  11  22  37  58  86 122 161 203 249 305 374
#     4  10  19  33  55  78 118 154 196 251 311 368
#     4  10  19  34  52  80 119 154 202 254 313 370
#     4  11  22  36  58  89 124 159 201 251 309 372
#     4  10  21  31  51  80 116 157 206 259 313 377
#     4  10  20  32  52  79 115 161 202 255 325 366
#
# _framework density 19.658303
#
# number of rings (size 3 to 8) (size 9 to 14) (size 15 to 20)
#    0.000    1.500    3.750    4.125    5.250    1.000 
#    0.000    0.000    0.000    0.000    0.000    3.500 
#    0.000    0.000    0.000    0.000    0.000    0.000 
#
# Total GULP energy -178193.905639 kJ/mol
# GULP energy per Si atom -5568.559551 kJ/mol
# Density = 1.961356 g / cm^3
# Si number density = 19.658303 Si / 1000 Ang^3
#
#
#
# Elastic Constant Matrix: (Units=GPa)
#
#
# Indices 1 2 3 4 5 6 
#
# 1 136.8266 27.7470 74.9404 0.0000 0.0000 0.0000
# 2 27.7470 27.9610 15.4695 0.0000 0.0000 0.0000
# 3 74.9404 15.4695 134.4315 0.0000 0.0000 0.0000
# 4 0.0000 0.0000 0.0000 6.4366 0.0000 0.0000
# 5 0.0000 0.0000 0.0000 0.0000 18.4919 0.0000
# 6 0.0000 0.0000 0.0000 0.0000 0.0000 7.6348
#
#
#
# Elastic Compliance Matrix: (Units=1/GPa)
#
#
# Indices 1 2 3 4 5 6 
#
# 1 0.012333 -0.009009 -0.005839 0.000000 0.000000 0.000000
# 2 -0.009009 0.044776 -0.000131 0.000000 0.000000 0.000000
# 3 -0.005839 -0.000131 0.010709 0.000000 0.000000 0.000000
# 4 0.000000 0.000000 0.000000 0.155362 0.000000 0.000000
# 5 0.000000 0.000000 0.000000 0.000000 0.054078 0.000000
# 6 0.000000 0.000000 0.000000 0.000000 0.000000 0.130979
#
#
# Mechanical properties :
#
#
# Convention : Reuss Voigt Hill
#
# Bulk Modulus (GPa) = 26.41157 59.50364 42.95760
# Shear Modulus (GPa) = 11.09107 18.58347 14.83727
#
# Velocity S-wave (km/s) = 2.37785 3.07795 2.75027
# Velocity P-wave (km/s) = 4.58295 6.55487 5.65552
#
# Compressibility (1/GPa) = 0.03786220
#
# Stress axis : x y z
#
# Youngs Moduli (GPa) = 81.08190 22.33338 93.38307
#
# Poissons Ratio (x) = 0.20119 0.54523
# Poissons Ratio (y) = 0.73043 0.01219
# Poissons Ratio (z) = 0.47341 0.00292
#
# Static dielectric constant tensor:
#      x y z
#    x 1.694080 0.000000 0.000000 
#    y 0.000000 1.718590 0.000000 
#    z 0.000000 0.000000 1.779140 
# 
# From -- ./inp_files/7410.got.cif
#   From: 2010.05.17/outbox.cif.g08.bks.cpg/sg37_4_cif.got.tgz:7410.got - 2010.06.03 17:53:42.
