data_PCOD9353296
_publ_section_title
;
Structure prediction by ZEFSAII (Michael W. Deem and Ramdas Pophale) SiO2 
 PCOD9353296
Probable space group: C M C 21
;
_chemical_formula_sum "Si O2"
_cell_formula_units_Z 32
_cell_length_a 9.000000
_cell_length_b 21.000000
_cell_length_c 21.000000
_cell_angle_alpha 90.000000
_cell_angle_beta 90.000000
_cell_angle_gamma 90.000000
_cell_volume 3969.000000
_symmetry_space_group_name_H-M "C M C 21"
_symmetry_group_IT_number 36
_symmetry_cell_setting 'orthorhombic'
loop_
_space_group_symop_operation_xyz
x,y,z
-x,-y,1/2+z
x,-y,1/2+z
-x,y,z
1/2+x,1/2+y,z
1/2-x,1/2-y,1/2+z
1/2+x,1/2-y,1/2+z
1/2-x,1/2+y,z
loop_
_atom_site_type_symbol
_atom_site_label
_atom_site_fract_x
_atom_site_fract_y
_atom_site_fract_z
Si Si1 0.181167 0.583586 0.916030
Si Si2 0.820737 0.299196 0.502240
Si Si3 0.180243 0.475671 0.020891
Si Si4 0.819608 0.580509 0.767557
Si Si5 0.819570 0.524982 0.163308
Si Si6 0.679734 0.170302 0.149122
Si Si7 0.680066 0.659705 0.540054
Si Si8 0.820489 0.697150 0.676021
O O1 0.229647 0.576469 0.841856
O O2 0.000000 0.584612 0.915012
O O3 0.231668 0.650244 0.949145
O O4 0.221123 0.525958 0.964868
O O5 0.784061 0.324115 0.573489
O O6 0.777222 0.224429 0.501275
O O7 0.000000 0.299695 0.498364
O O8 0.222499 0.501597 0.091829
O O9 0.254474 0.406265 0.013308
O O10 0.000000 0.469504 0.020297
O O11 0.769865 0.523457 0.719432
O O12 0.782708 0.647803 0.732982
O O13 0.000000 0.577177 0.768885
O O14 0.776476 0.599293 0.171703
O O15 0.000000 0.523970 0.163892
O O16 0.500000 0.176704 0.154958
O O17 0.757519 0.230911 0.182400
O O18 0.500000 0.657094 0.543638
O O19 0.747963 0.670067 0.610817
O O20 0.000000 0.698462 0.669672
#
# Coordination Sequence:
#
# PCOD9353296 Si02
#       8
#     8   8   8   8   8   8   8   8
#     4   9  16  28  48  72  95 126 166 202 237 286
#     4   8  14  26  44  65  88 119 159 193 226 278
#     4  10  17  29  51  74  97 124 161 205 242 280
#     4   9  17  28  46  72  98 125 163 203 239 283
#     4   9  15  27  47  70  96 126 159 198 237 280
#     4   9  16  28  48  70  93 121 157 198 238 287
#     4  10  19  30  48  72  98 125 159 201 246 292
#     4  10  18  30  48  71  99 124 156 204 245 282
#
# _framework density 8.0624839999999995
#
# number of rings (size 3 to 8) (size 9 to 14) (size 15 to 20)
#    0.000    2.750    2.500    1.500    0.000    0.000 
#    0.000    1.875    0.000    1.500    0.000    0.000 
#    0.000    0.000    0.000    0.000    0.000    0.000 
#
# Total GULP energy -178171.147123 kJ/mol
# GULP energy per Si atom -5567.848348 kJ/mol
# Density = 0.804413 g / cm^3
# Si number density = 8.062484 Si / 1000 Ang^3
#
#
#
# Elastic Constant Matrix: (Units=GPa)
#
#
# Indices 1 2 3 4 5 6 
#
# 1 24.6096 25.4730 14.8807 0.0000 0.0000 0.0000
# 2 25.4730 182.9202 86.2024 0.0000 0.0000 0.0000
# 3 14.8807 86.2024 128.0530 0.0000 0.0000 0.0000
# 4 0.0000 0.0000 0.0000 29.3008 0.0000 0.0000
# 5 0.0000 0.0000 0.0000 0.0000 13.4369 0.0000
# 6 0.0000 0.0000 0.0000 0.0000 0.0000 30.5532
#
#
#
# Elastic Compliance Matrix: (Units=1/GPa)
#
#
# Indices 1 2 3 4 5 6 
#
# 1 0.047692 -0.005902 -0.001569 0.000000 0.000000 0.000000
# 2 -0.005902 0.008737 -0.005196 0.000000 0.000000 0.000000
# 3 -0.001569 -0.005196 0.011489 0.000000 0.000000 0.000000
# 4 0.000000 0.000000 0.000000 0.034129 0.000000 0.000000
# 5 0.000000 0.000000 0.000000 0.000000 0.074422 0.000000
# 6 0.000000 0.000000 0.000000 0.000000 0.000000 0.032730
#
#
# Mechanical properties :
#
#
# Convention : Reuss Voigt Hill
#
# Bulk Modulus (GPa) = 23.48243 65.41054 44.44649
# Shear Modulus (GPa) = 20.10220 28.59329 24.34775
#
# Velocity S-wave (km/s) = 3.53462 4.21554 3.89001
# Velocity P-wave (km/s) = 5.59039 8.02167 6.91374
#
# Compressibility (1/GPa) = 0.04258503
#
# Stress axis : x y z
#
# Youngs Moduli (GPa) = 20.96769 114.45041 87.03675
#
# Poissons Ratio (x) = 0.67550 0.13656
# Poissons Ratio (y) = 0.12375 0.45224
# Poissons Ratio (z) = 0.03290 0.59468
#
# Static dielectric constant tensor:
#      x y z
#    x 1.536240 0.000000 0.000000 
#    y 0.000000 1.567690 0.000000 
#    z 0.000000 0.000000 1.535560 
# 
# From -- ./inp_files/15809.got.cif
#   From: 2010.05.17/outbox.ucp.g08.bks.cvg/sg36_8_cif.got.tgz:15809.got - 2010.06.11 10:37:26.
