data_PCOD9353198
_publ_section_title
;
Structure prediction by ZEFSAII (Michael W. Deem and Ramdas Pophale) SiO2 
 PCOD9353198
Probable space group: C M C 21
;
_chemical_formula_sum "Si O2"
_cell_formula_units_Z 48
_cell_length_a 17.905462
_cell_length_b 9.059232
_cell_length_c 13.523547
_cell_angle_alpha 90.000000
_cell_angle_beta 90.000000
_cell_angle_gamma 90.000000
_cell_volume 2193.650966
_symmetry_space_group_name_H-M "C M C 21"
_symmetry_group_IT_number 36
_symmetry_cell_setting 'orthorhombic'
loop_
_space_group_symop_operation_xyz
x,y,z
-x,-y,1/2+z
x,-y,1/2+z
-x,y,z
1/2+x,1/2+y,z
1/2-x,1/2-y,1/2+z
1/2+x,1/2-y,1/2+z
1/2-x,1/2+y,z
loop_
_atom_site_type_symbol
_atom_site_label
_atom_site_fract_x
_atom_site_fract_y
_atom_site_fract_z
Si Si1 0.500000 0.492305 0.581851
Si Si2 0.000000 0.349765 0.381291
Si Si3 0.831206 0.922972 0.308657
Si Si4 0.500000 0.179515 0.652907
Si Si5 0.744344 0.158560 0.424858
Si Si6 0.000000 0.005390 0.864496
Si Si7 0.145031 0.804528 0.103993
Si Si8 0.114219 0.493047 0.533607
O O1 0.500000 0.356901 0.657754
O O2 0.500000 0.421778 0.473169
O O3 0.427327 0.593705 0.590102
O O4 0.000000 0.383595 0.264400
O O5 0.068244 0.418835 0.443206
O O6 0.000000 0.171255 0.384895
O O7 0.802070 0.796139 0.382839
O O8 0.920919 0.947004 0.316948
O O9 0.813204 0.869307 0.198452
O O10 0.787370 0.070598 0.338647
O O11 0.570073 0.122750 0.589173
O O12 0.806513 0.198713 0.505162
O O13 0.688684 0.053055 0.484728
O O14 0.122500 0.634552 0.115877
#
# Coordination Sequence:
#
# PCOD9353198 Si02
#       8
#     4   4   8   4   8   4   8   8
#     4  12  22  48  73 107 141 185 238 305 354 427
#     4  11  23  46  73 100 147 184 233 301 365 420
#     4  12  28  46  78 107 142 196 242 291 365 434
#     4  11  26  40  73 110 136 186 247 292 356 437
#     4  12  27  49  68 107 148 186 239 302 355 428
#     4  12  23  50  75 107 138 191 244 294 359 434
#     4  12  26  48  76 100 149 193 238 293 368 429
#     4  11  25  47  67 104 144 187 235 305 354 417
#
# _framework density 21.881330999999999
#
# number of rings (size 3 to 8) (size 9 to 14) (size 15 to 20)
#    0.000    0.333    5.000    3.000    4.667    0.667 
#    0.000    0.000    0.000    0.000    0.000    0.000 
#    0.000    0.000    0.000    0.000    0.000    0.000 
#
# Total GULP energy -134259.542816 kJ/mol
# GULP energy per Si atom -5594.147617 kJ/mol
# Density = 2.183153 g / cm^3
# Si number density = 21.881331 Si / 1000 Ang^3
#
#
#
# Elastic Constant Matrix: (Units=GPa)
#
#
# Indices 1 2 3 4 5 6 
#
# 1 116.4617 52.3593 22.7630 0.0000 0.0000 0.0000
# 2 52.3593 109.3772 11.9831 0.0000 0.0000 0.0000
# 3 22.7630 11.9831 97.8269 0.0000 0.0000 0.0000
# 4 0.0000 0.0000 0.0000 33.8835 0.0000 0.0000
# 5 0.0000 0.0000 0.0000 0.0000 26.2094 0.0000
# 6 0.0000 0.0000 0.0000 0.0000 0.0000 27.4423
#
#
#
# Elastic Compliance Matrix: (Units=1/GPa)
#
#
# Indices 1 2 3 4 5 6 
#
# 1 0.011313 -0.005197 -0.001996 0.000000 0.000000 0.000000
# 2 -0.005197 0.011654 -0.000218 0.000000 0.000000 0.000000
# 3 -0.001996 -0.000218 0.010713 0.000000 0.000000 0.000000
# 4 0.000000 0.000000 0.000000 0.029513 0.000000 0.000000
# 5 0.000000 0.000000 0.000000 0.000000 0.038154 0.000000
# 6 0.000000 0.000000 0.000000 0.000000 0.000000 0.036440
#
#
# Mechanical properties :
#
#
# Convention : Reuss Voigt Hill
#
# Bulk Modulus (GPa) = 53.02629 55.31964 54.17297
# Shear Modulus (GPa) = 31.46707 33.27775 32.37241
#
# Velocity S-wave (km/s) = 3.79631 3.90401 3.85054
# Velocity P-wave (km/s) = 6.59562 6.75709 6.67684
#
# Compressibility (1/GPa) = 0.01885857
#
# Stress axis : x y z
#
# Youngs Moduli (GPa) = 88.39334 85.80458 93.34212
#
# Poissons Ratio (x) = 0.44592 0.18629
# Poissons Ratio (y) = 0.45938 0.02038
# Poissons Ratio (z) = 0.17642 0.01873
#
# Static dielectric constant tensor:
#      x y z
#    x 1.791460 0.000000 0.000000 
#    y 0.000000 1.794070 0.000000 
#    z 0.000000 0.000000 1.806530 
# 
# From -- ./inp_files/12530.got.cif
#   From: 2010.05.17/outbox.cif.g08.bks.cpg/sg36_7_cif.got.tgz:12530.got - 2010.06.03 17:41:39.
