data_PCOD9353791
_publ_section_title
;
Structure prediction by ZEFSAII (Michael W. Deem and Ramdas Pophale) SiO2 
 PCOD9353791
Probable space group: C C C 2
;
_chemical_formula_sum "Si O2"
_cell_formula_units_Z 48
_cell_length_a 28.956098
_cell_length_b 9.577060
_cell_length_c 8.594981
_cell_angle_alpha 90.000000
_cell_angle_beta 90.000000
_cell_angle_gamma 90.000000
_cell_volume 2383.511036
_symmetry_space_group_name_H-M "C C C 2"
_symmetry_group_IT_number 37
_symmetry_cell_setting 'orthorhombic'
loop_
_space_group_symop_operation_xyz
x,y,z
-x,-y,z
-x,y,1/2+z
x,-y,1/2+z
1/2+x,1/2+y,z
1/2-x,1/2-y,z
1/2-x,1/2+y,1/2+z
1/2+x,1/2-y,1/2+z
loop_
_atom_site_type_symbol
_atom_site_label
_atom_site_fract_x
_atom_site_fract_y
_atom_site_fract_z
Si Si1 0.166639 0.379882 0.532150
Si Si2 0.500000 0.500000 0.641881
Si Si3 0.363652 0.382889 0.416061
Si Si4 0.750000 0.750000 0.329109
Si Si5 0.436098 0.375581 0.902221
Si Si6 0.311404 0.591896 0.604201
Si Si7 0.150743 0.322513 0.888615
O O1 0.127512 0.272883 0.470295
O O2 0.211222 0.324597 0.435179
O O3 0.168444 0.357163 0.716182
O O4 0.154873 0.537625 0.489295
O O5 0.463592 0.416738 0.747671
O O6 0.526154 0.383979 0.538095
O O7 0.403775 0.491690 0.439947
O O8 0.321136 0.444920 0.521342
O O9 0.350871 0.387053 0.234892
O O10 0.732445 0.629043 0.209508
O O11 0.400737 0.246141 0.887315
O O12 0.317509 0.705080 0.469086
#
# Coordination Sequence:
#
# PCOD9353791 Si02
#       7
#     8   4   8   4   8   8   8
#     4  11  23  38  61  87 120 166 205 250 304 347
#     4  10  20  34  66 100 118 148 190 260 310 340
#     4  10  19  36  60  87 117 160 199 237 294 370
#     4  10  24  40  58  92 124 152 212 264 296 350
#     4  10  20  38  63  92 122 148 199 246 298 371
#     4  10  21  36  58  84 117 158 201 252 301 340
#     4  11  23  41  60  86 121 167 205 243 306 377
#
# _framework density 20.138358
#
# number of rings (size 3 to 8) (size 9 to 14) (size 15 to 20)
#    0.000    1.667    0.000    7.000    0.000    6.000 
#    0.000    0.000    0.000   17.000    0.000    0.000 
#    0.000    0.000    0.000    0.000    0.000    0.000 
#
# Total GULP energy -133898.652756 kJ/mol
# GULP energy per Si atom -5579.110532 kJ/mol
# Density = 2.009252 g / cm^3
# Si number density = 20.138358 Si / 1000 Ang^3
#
#
#
# Elastic Constant Matrix: (Units=GPa)
#
#
# Indices 1 2 3 4 5 6 
#
# 1 79.5995 23.2394 39.7080 0.0000 0.0000 0.0000
# 2 23.2394 79.0199 10.4641 0.0000 0.0000 0.0000
# 3 39.7080 10.4641 138.3600 0.0000 0.0000 0.0000
# 4 0.0000 0.0000 0.0000 33.6819 0.0000 0.0000
# 5 0.0000 0.0000 0.0000 0.0000 32.5013 0.0000
# 6 0.0000 0.0000 0.0000 0.0000 0.0000 23.8268
#
#
#
# Elastic Compliance Matrix: (Units=1/GPa)
#
#
# Indices 1 2 3 4 5 6 
#
# 1 0.015881 -0.004108 -0.004247 0.000000 0.000000 0.000000
# 2 -0.004108 0.013846 0.000132 0.000000 0.000000 0.000000
# 3 -0.004247 0.000132 0.008436 0.000000 0.000000 0.000000
# 4 0.000000 0.000000 0.000000 0.029690 0.000000 0.000000
# 5 0.000000 0.000000 0.000000 0.000000 0.030768 0.000000
# 6 0.000000 0.000000 0.000000 0.000000 0.000000 0.041969
#
#
# Mechanical properties :
#
#
# Convention : Reuss Voigt Hill
#
# Bulk Modulus (GPa) = 46.04781 49.31139 47.67960
# Shear Modulus (GPa) = 30.43670 32.90652 31.67161
#
# Velocity S-wave (km/s) = 3.89186 4.04669 3.97003
# Velocity P-wave (km/s) = 6.56588 6.80983 6.68897
#
# Compressibility (1/GPa) = 0.02171656
#
# Stress axis : x y z
#
# Youngs Moduli (GPa) = 62.96886 72.22425 118.53412
#
# Poissons Ratio (x) = 0.29670 0.50341
# Poissons Ratio (y) = 0.25868 -0.01563
# Poissons Ratio (z) = 0.26743 -0.00952
#
# Static dielectric constant tensor:
#      x y z
#    x 1.802250 0.000000 0.000000 
#    y 0.000000 1.701860 0.000000 
#    z 0.000000 0.000000 1.735330 
# 
# From -- ./inp_files/2441.got.cif
#   From: 2010.05.17/outbox.cif.g08.bks.cpg/sg37_2_cif.got.tgz:2441.got - 2010.06.03 17:53:42.
