data_PCOD9353662
_publ_section_title
;
Structure prediction by ZEFSAII (Michael W. Deem and Ramdas Pophale) SiO2 
 PCOD9353662
Probable space group: C C C 2
;
_chemical_formula_sum "Si O2"
_cell_formula_units_Z 56
_cell_length_a 8.209436
_cell_length_b 21.073436
_cell_length_c 14.685415
_cell_angle_alpha 90.000000
_cell_angle_beta 90.000000
_cell_angle_gamma 90.000000
_cell_volume 2540.591835
_symmetry_space_group_name_H-M "C C C 2"
_symmetry_group_IT_number 37
_symmetry_cell_setting 'orthorhombic'
loop_
_space_group_symop_operation_xyz
x,y,z
-x,-y,z
-x,y,1/2+z
x,-y,1/2+z
1/2+x,1/2+y,z
1/2-x,1/2-y,z
1/2-x,1/2+y,1/2+z
1/2+x,1/2-y,1/2+z
loop_
_atom_site_type_symbol
_atom_site_label
_atom_site_fract_x
_atom_site_fract_y
_atom_site_fract_z
Si Si1 0.830795 0.507440 0.490080
Si Si2 0.089417 0.624115 0.124880
Si Si3 0.132333 0.307306 0.442419
Si Si4 0.430113 0.645499 0.228212
Si Si5 0.933581 0.720299 0.252378
Si Si6 0.591214 0.404016 0.904929
Si Si7 0.087322 0.930871 0.581599
O O1 0.876860 0.557163 0.571310
O O2 0.683620 0.528513 0.422561
O O3 0.764166 0.446223 0.542620
O O4 0.000000 0.500000 0.437834
O O5 0.257898 0.630650 0.181827
O O6 0.960997 0.655375 0.196219
O O7 0.062971 0.667699 0.035839
O O8 0.250000 0.250000 0.466534
O O9 0.018798 0.289587 0.358540
O O10 0.253149 0.358936 0.397768
O O11 0.456513 0.720659 0.221028
O O12 0.463360 0.615020 0.327671
O O13 0.569742 0.609851 0.170519
O O14 0.750000 0.750000 0.249895
O O15 0.508419 0.394165 0.002612
O O16 0.000000 0.000000 0.595891
#
# Coordination Sequence:
#
# PCOD9353662 Si02
#       7
#     8   8   8   8   8   8   8
#     4  10  23  45  67  95 139 178 231 287 352 431
#     4  11  24  43  71  96 131 193 224 283 352 417
#     4  10  18  41  63  89 137 173 209 276 349 399
#     4  12  21  41  71  98 133 181 238 283 346 437
#     4  11  24  39  64 104 140 170 230 284 351 429
#     4  10  21  40  66  95 129 179 224 288 344 405
#     4  10  21  42  64  98 126 176 236 282 338 407
#
# _framework density 22.042107999999999
#
# number of rings (size 3 to 8) (size 9 to 14) (size 15 to 20)
#    0.000    1.429    7.143    1.286    2.000    1.714 
#    5.143    2.143    0.000    0.000    0.000    0.000 
#    0.000    0.000    0.000    0.000    0.000    0.000 
#
# Total GULP energy -155886.220860 kJ/mol
# GULP energy per Si atom -5567.365031 kJ/mol
# Density = 2.199194 g / cm^3
# Si number density = 22.042108 Si / 1000 Ang^3
#
#
#
# Elastic Constant Matrix: (Units=GPa)
#
#
# Indices 1 2 3 4 5 6 
#
# 1 70.8777 -5.1407 5.5427 0.0000 0.0000 0.0000
# 2 -5.1407 47.1327 11.6162 0.0000 0.0000 0.0000
# 3 5.5427 11.6162 80.2781 0.0000 0.0000 0.0000
# 4 0.0000 0.0000 0.0000 28.3672 0.0000 0.0000
# 5 0.0000 0.0000 0.0000 0.0000 122.5487 0.0000
# 6 0.0000 0.0000 0.0000 0.0000 0.0000 24.0878
#
#
#
# Elastic Compliance Matrix: (Units=1/GPa)
#
#
# Indices 1 2 3 4 5 6 
#
# 1 0.014343 0.001875 -0.001262 0.000000 0.000000 0.000000
# 2 0.001875 0.022247 -0.003349 0.000000 0.000000 0.000000
# 3 -0.001262 -0.003349 0.013028 0.000000 0.000000 0.000000
# 4 0.000000 0.000000 0.000000 0.035252 0.000000 0.000000
# 5 0.000000 0.000000 0.000000 0.000000 0.008160 0.000000
# 6 0.000000 0.000000 0.000000 0.000000 0.000000 0.041515
#
#
# Mechanical properties :
#
#
# Convention : Reuss Voigt Hill
#
# Bulk Modulus (GPa) = 22.65076 24.70277 23.67677
# Shear Modulus (GPa) = 32.31416 47.41877 39.86647
#
# Velocity S-wave (km/s) = 3.83302 4.64322 4.25744
# Velocity P-wave (km/s) = 5.46697 6.32277 5.91038
#
# Compressibility (1/GPa) = 0.04414862
#
# Stress axis : x y z
#
# Youngs Moduli (GPa) = 69.71802 44.95088 76.75579
#
# Poissons Ratio (x) = -0.08430 0.09684
# Poissons Ratio (y) = -0.13075 0.25702
# Poissons Ratio (z) = 0.08796 0.15052
#
# Static dielectric constant tensor:
#      x y z
#    x 1.518380 0.000000 0.000000 
#    y 0.000000 1.902540 0.000000 
#    z 0.000000 0.000000 1.790790 
# 
# From -- ./inp_files/10838.got.cif
#   From: 2010.05.17/outbox.cif.g08.bks.cpg/sg37_6_cif.got.tgz:10838.got - 2010.06.03 17:53:42.
