data_PCOD9353556
_publ_section_title
;
Structure prediction by ZEFSAII (Michael W. Deem and Ramdas Pophale) SiO2 
 PCOD9353556
Probable space group: C C C 2
;
_chemical_formula_sum "Si O2"
_cell_formula_units_Z 44
_cell_length_a 11.422836
_cell_length_b 11.602206
_cell_length_c 14.061458
_cell_angle_alpha 90.000000
_cell_angle_beta 90.000000
_cell_angle_gamma 90.000000
_cell_volume 1863.566384
_symmetry_space_group_name_H-M "C C C 2"
_symmetry_group_IT_number 37
_symmetry_cell_setting 'orthorhombic'
loop_
_space_group_symop_operation_xyz
x,y,z
-x,-y,z
-x,y,1/2+z
x,-y,1/2+z
1/2+x,1/2+y,z
1/2-x,1/2-y,z
1/2-x,1/2+y,1/2+z
1/2+x,1/2-y,1/2+z
loop_
_atom_site_type_symbol
_atom_site_label
_atom_site_fract_x
_atom_site_fract_y
_atom_site_fract_z
Si Si1 0.852943 0.928267 0.737620
Si Si2 0.250000 0.750000 0.366406
Si Si3 0.613609 0.293707 0.058730
Si Si4 0.898620 0.433903 0.155742
Si Si5 0.366363 0.969248 0.453910
Si Si6 0.821909 0.860672 0.358677
O O1 0.853185 0.818058 0.807758
O O2 0.902177 0.896793 0.633689
O O3 0.712184 0.923918 0.721366
O O4 0.881659 0.052664 0.783031
O O5 0.318839 0.844835 0.426927
O O6 0.750000 0.250000 0.062706
O O7 0.554260 0.183259 0.107236
O O8 0.596189 0.322920 0.948201
O O9 0.000000 0.500000 0.208923
O O10 0.859288 0.510539 0.066559
O O11 0.500000 0.000000 0.428533
O O12 0.277444 0.060232 0.407552
O O13 0.750000 0.750000 0.320158
#
# Coordination Sequence:
#
# PCOD9353556 Si02
#       6
#     8   4   8   8   8   8
#     4  10  18  32  52  81 114 155 193 239 305 360
#     4  10  20  34  54  88 124 150 198 264 302 370
#     4   9  15  33  50  77 116 151 190 239 302 359
#     4  10  18  33  58  89 116 152 202 258 306 359
#     4  10  20  35  60  89 114 153 204 250 304 361
#     4  10  18  33  55  82 112 156 198 240 299 364
#
# _framework density 23.610641000000001
#
# number of rings (size 3 to 8) (size 9 to 14) (size 15 to 20)
#    0.000    2.182    8.182    0.000    0.000    2.909 
#    1.636    0.000    0.000    4.364    0.000    5.091 
#    0.000    0.000    0.000    0.000    0.000    0.000 
#
# Total GULP energy -122761.528952 kJ/mol
# GULP energy per Si atom -5580.069498 kJ/mol
# Density = 2.355690 g / cm^3
# Si number density = 23.610641 Si / 1000 Ang^3
#
#
#
# Elastic Constant Matrix: (Units=GPa)
#
#
# Indices 1 2 3 4 5 6 
#
# 1 37.9082 13.0472 -8.8527 0.0000 0.0000 0.0000
# 2 13.0472 155.1020 51.6648 0.0000 0.0000 0.0000
# 3 -8.8527 51.6648 108.3180 0.0000 0.0000 0.0000
# 4 0.0000 0.0000 0.0000 33.0172 0.0000 0.0000
# 5 0.0000 0.0000 0.0000 0.0000 13.0323 0.0000
# 6 0.0000 0.0000 0.0000 0.0000 0.0000 31.3152
#
#
#
# Elastic Compliance Matrix: (Units=1/GPa)
#
#
# Indices 1 2 3 4 5 6 
#
# 1 0.028654 -0.003793 0.004151 0.000000 0.000000 0.000000
# 2 -0.003793 0.008167 -0.004206 0.000000 0.000000 0.000000
# 3 0.004151 -0.004206 0.011577 0.000000 0.000000 0.000000
# 4 0.000000 0.000000 0.000000 0.030287 0.000000 0.000000
# 5 0.000000 0.000000 0.000000 0.000000 0.076732 0.000000
# 6 0.000000 0.000000 0.000000 0.000000 0.000000 0.031933
#
#
# Mechanical properties :
#
#
# Convention : Reuss Voigt Hill
#
# Bulk Modulus (GPa) = 24.56772 45.89409 35.23090
# Shear Modulus (GPa) = 23.96756 31.83754 27.90255
#
# Velocity S-wave (km/s) = 3.18955 3.67610 3.44143
# Velocity P-wave (km/s) = 4.89819 6.12359 5.54484
#
# Compressibility (1/GPa) = 0.04070382
#
# Stress axis : x y z
#
# Youngs Moduli (GPa) = 34.89858 122.43861 86.37577
#
# Poissons Ratio (x) = 0.46443 -0.35856
# Poissons Ratio (y) = 0.13238 0.36326
# Poissons Ratio (z) = -0.14487 0.51493
#
# Static dielectric constant tensor:
#      x y z
#    x 1.995460 0.000000 0.000000 
#    y 0.000000 2.003560 0.000000 
#    z 0.000000 0.000000 1.927700 
# 
# From -- ./inp_files/12046.got.cif
#   From: 2010.05.17/outbox.cif.g08.bks.cpg/sg37_7_cif.got.tgz:12046.got - 2010.06.03 17:53:42.
