data_PCOD9353672
_publ_section_title
;
Structure prediction by ZEFSAII (Michael W. Deem and Ramdas Pophale) SiO2 
 PCOD9353672
Probable space group: C C C 2
;
_chemical_formula_sum "Si O2"
_cell_formula_units_Z 56
_cell_length_a 18.432456
_cell_length_b 5.486229
_cell_length_c 25.526709
_cell_angle_alpha 90.000000
_cell_angle_beta 90.000000
_cell_angle_gamma 90.000000
_cell_volume 2581.380142
_symmetry_space_group_name_H-M "C C C 2"
_symmetry_group_IT_number 37
_symmetry_cell_setting 'orthorhombic'
loop_
_space_group_symop_operation_xyz
x,y,z
-x,-y,z
-x,y,1/2+z
x,-y,1/2+z
1/2+x,1/2+y,z
1/2-x,1/2-y,z
1/2-x,1/2+y,1/2+z
1/2+x,1/2-y,1/2+z
loop_
_atom_site_type_symbol
_atom_site_label
_atom_site_fract_x
_atom_site_fract_y
_atom_site_fract_z
Si Si1 0.333358 0.247750 0.346530
Si Si2 0.660920 0.250253 0.298022
Si Si3 0.860370 0.117065 0.502358
Si Si4 0.654138 0.118834 0.967009
Si Si5 0.337807 0.747628 0.176294
Si Si6 0.500000 0.500000 0.929481
Si Si7 0.500000 0.000000 0.929794
Si Si8 0.161379 0.749326 0.618051
O O1 0.250000 0.250000 0.327107
O O2 0.364123 0.505848 0.327966
O O3 0.330695 0.216430 0.408884
O O4 0.366004 0.999177 0.324181
O O5 0.750000 0.250000 0.301628
O O6 0.640683 0.249332 0.237116
O O7 0.825543 0.845097 0.504076
O O8 0.818338 0.345548 0.476278
O O9 0.931177 0.053849 0.467218
O O10 0.872368 0.212707 0.560776
O O11 0.568319 0.054203 0.967007
O O12 0.250000 0.750000 0.175552
O O13 0.359338 0.489641 0.151003
O O14 0.359846 0.993557 0.145273
O O15 0.499098 0.750309 0.897682
O O16 0.250000 0.750000 0.612233
#
# Coordination Sequence:
#
# PCOD9353672 Si02
#       8
#     8   8   8   8   8   4   4   8
#     4  10  19  29  44  68  93 119 151 182 224 277
#     4   9  17  30  46  64  89 119 151 188 223 261
#     4  10  19  31  46  65  92 121 150 185 222 266
#     4  10  19  31  46  65  92 121 150 185 222 266
#     4   9  17  30  46  64  89 119 151 188 223 261
#     4   8  16  30  46  62  82 114 154 188 214 248
#     4   8  16  30  46  62  82 114 154 188 214 248
#     4  10  19  29  44  68  93 119 151 182 224 277
#
# _framework density 21.693822999999998
#
# number of rings (size 3 to 8) (size 9 to 14) (size 15 to 20)
#    0.000    2.571    0.000    2.571    0.000    4.571 
#    0.000    0.000    0.000    0.000    0.000    4.000 
#    0.000    0.000    0.000    0.000    0.000    0.000 
#
# Total GULP energy -155918.981549 kJ/mol
# GULP energy per Si atom -5568.535055 kJ/mol
# Density = 2.164445 g / cm^3
# Si number density = 21.693823 Si / 1000 Ang^3
#
#
#
# Elastic Constant Matrix: (Units=GPa)
#
#
# Indices 1 2 3 4 5 6 
#
# 1 39.7388 25.2117 -1.4798 0.0000 0.0000 0.0000
# 2 25.2117 280.3635 81.3284 0.0000 0.0000 0.0000
# 3 -1.4798 81.3284 105.1682 0.0000 0.0000 0.0000
# 4 0.0000 0.0000 0.0000 42.7933 0.0000 0.0000
# 5 0.0000 0.0000 0.0000 0.0000 13.2997 0.0000
# 6 0.0000 0.0000 0.0000 0.0000 0.0000 15.2038
#
#
#
# Elastic Compliance Matrix: (Units=1/GPa)
#
#
# Indices 1 2 3 4 5 6 
#
# 1 0.027379 -0.003318 0.002951 0.000000 0.000000 0.000000
# 2 -0.003318 0.005000 -0.003914 0.000000 0.000000 0.000000
# 3 0.002951 -0.003914 0.012577 0.000000 0.000000 0.000000
# 4 0.000000 0.000000 0.000000 0.023368 0.000000 0.000000
# 5 0.000000 0.000000 0.000000 0.000000 0.075190 0.000000
# 6 0.000000 0.000000 0.000000 0.000000 0.000000 0.065773
#
#
# Mechanical properties :
#
#
# Convention : Reuss Voigt Hill
#
# Bulk Modulus (GPa) = 27.47606 70.59901 49.03754
# Shear Modulus (GPa) = 21.74102 35.60671 28.67387
#
# Velocity S-wave (km/s) = 3.16915 4.05573 3.63954
# Velocity P-wave (km/s) = 5.10727 7.38552 6.34942
#
# Compressibility (1/GPa) = 0.03639531
#
# Stress axis : x y z
#
# Youngs Moduli (GPa) = 36.52382 199.98146 79.51284
#
# Poissons Ratio (x) = 0.66358 -0.23466
# Poissons Ratio (y) = 0.12119 0.31118
# Poissons Ratio (z) = -0.10779 0.78265
#
# Static dielectric constant tensor:
#      x y z
#    x 1.903030 0.000000 0.000000 
#    y 0.000000 1.961910 0.000000 
#    z 0.000000 0.000000 1.755240 
# 
# From -- ./inp_files/19056.got.cif
#   From: 2010.05.17/outbox.cif.g08.bks.cpg/sg37_10_cif.got.tgz:19056.got - 2010.06.03 17:53:42.
