data_PCOD9353521
_publ_section_title
;
Structure prediction by ZEFSAII (Michael W. Deem and Ramdas Pophale) SiO2 
 PCOD9353521
Probable space group: C C C 2
;
_chemical_formula_sum "Si O2"
_cell_formula_units_Z 52
_cell_length_a 15.599653
_cell_length_b 25.930830
_cell_length_c 8.172053
_cell_angle_alpha 90.000000
_cell_angle_beta 90.000000
_cell_angle_gamma 90.000000
_cell_volume 3305.693095
_symmetry_space_group_name_H-M "C C C 2"
_symmetry_group_IT_number 37
_symmetry_cell_setting 'orthorhombic'
loop_
_space_group_symop_operation_xyz
x,y,z
-x,-y,z
-x,y,1/2+z
x,-y,1/2+z
1/2+x,1/2+y,z
1/2-x,1/2-y,z
1/2-x,1/2+y,1/2+z
1/2+x,1/2-y,1/2+z
loop_
_atom_site_type_symbol
_atom_site_label
_atom_site_fract_x
_atom_site_fract_y
_atom_site_fract_z
Si Si1 0.069390 0.832361 0.545140
Si Si2 0.928851 0.922762 0.555706
Si Si3 0.500000 0.500000 0.303748
Si Si4 0.251959 0.188014 0.199716
Si Si5 0.813805 0.300720 0.356687
Si Si6 0.219003 0.840746 0.052250
Si Si7 0.922547 0.777880 0.706292
O O1 0.158834 0.833093 0.640067
O O2 0.083781 0.819412 0.354739
O O3 0.008772 0.882316 0.560443
O O4 0.013353 0.786043 0.622466
O O5 0.942224 0.960480 0.404239
O O6 0.842387 0.890293 0.550685
O O7 0.938550 0.962223 0.703723
O O8 0.250000 0.250000 0.218589
O O9 0.267532 0.165410 0.380177
O O10 0.312204 0.178036 0.041042
O O11 0.750000 0.250000 0.363585
O O12 0.776593 0.337096 0.214806
O O13 0.901283 0.276211 0.289476
O O14 0.150808 0.793209 0.075231
#
# Coordination Sequence:
#
# PCOD9353521 Si02
#       7
#     8   8   4   8   8   8   8
#     4  11  18  29  46  64  89 124 165 196 226 280
#     4  10  20  32  44  66  82 122 161 201 243 272
#     4  10  20  32  44  58  94 108 154 220 246 274
#     4  11  18  28  46  65  88 119 154 200 232 268
#     4   9  17  31  41  62  92 113 147 201 230 265
#     4  10  18  30  46  62  84 116 154 192 234 283
#     4  10  18  29  41  66  93 114 157 204 226 264
#
# _framework density 15.730437
#
# number of rings (size 3 to 8) (size 9 to 14) (size 15 to 20)
#    0.000    1.846    4.615    6.000    0.000    0.000 
#    0.000    0.000    0.000    0.000    0.000    0.000 
#    0.000    0.000    0.000    0.000    0.000   52.308 
#
# Total GULP energy -144786.975872 kJ/mol
# GULP energy per Si atom -5568.729841 kJ/mol
# Density = 1.569463 g / cm^3
# Si number density = 15.730437 Si / 1000 Ang^3
#
#
#
# Elastic Constant Matrix: (Units=GPa)
#
#
# Indices 1 2 3 4 5 6 
#
# 1 21.1390 23.7185 14.7990 0.0000 0.0000 0.0000
# 2 23.7185 77.1585 40.7171 0.0000 0.0000 0.0000
# 3 14.7990 40.7171 120.7991 0.0000 0.0000 0.0000
# 4 0.0000 0.0000 0.0000 26.2988 0.0000 0.0000
# 5 0.0000 0.0000 0.0000 0.0000 34.8251 0.0000
# 6 0.0000 0.0000 0.0000 0.0000 0.0000 21.0697
#
#
#
# Elastic Compliance Matrix: (Units=1/GPa)
#
#
# Indices 1 2 3 4 5 6 
#
# 1 0.072488 -0.021403 -0.001666 0.000000 0.000000 0.000000
# 2 -0.021403 0.022084 -0.004822 0.000000 0.000000 0.000000
# 3 -0.001666 -0.004822 0.010108 0.000000 0.000000 0.000000
# 4 0.000000 0.000000 0.000000 0.038025 0.000000 0.000000
# 5 0.000000 0.000000 0.000000 0.000000 0.028715 0.000000
# 6 0.000000 0.000000 0.000000 0.000000 0.000000 0.047462
#
#
# Mechanical properties :
#
#
# Convention : Reuss Voigt Hill
#
# Bulk Modulus (GPa) = 20.45117 41.95175 31.20146
# Shear Modulus (GPa) = 17.18439 25.76285 21.47362
#
# Velocity S-wave (km/s) = 3.30878 4.05133 3.69873
# Velocity P-wave (km/s) = 5.25610 6.97219 6.17406
#
# Compressibility (1/GPa) = 0.04889696
#
# Stress axis : x y z
#
# Youngs Moduli (GPa) = 13.79545 45.28130 98.93615
#
# Poissons Ratio (x) = 0.96918 0.16483
# Poissons Ratio (y) = 0.29527 0.47704
# Poissons Ratio (z) = 0.02298 0.21833
#
# Static dielectric constant tensor:
#      x y z
#    x 1.544100 0.000000 0.000000 
#    y 0.000000 1.510270 0.000000 
#    z 0.000000 0.000000 1.610190 
# 
# From -- ./inp_files/3710.got.cif
#   From: 2010.05.17/outbox.cif.g08.bks.cpg/sg37_2_cif.got.tgz:3710.got - 2010.06.03 17:53:42.
