data_PCOD9353190
_publ_section_title
;
Structure prediction by ZEFSAII (Michael W. Deem and Ramdas Pophale) SiO2 
 PCOD9353190
Probable space group: C M C 21
;
_chemical_formula_sum "Si O2"
_cell_formula_units_Z 52
_cell_length_a 7.238276
_cell_length_b 19.370752
_cell_length_c 13.779491
_cell_angle_alpha 90.000000
_cell_angle_beta 90.000000
_cell_angle_gamma 90.000000
_cell_volume 1932.034136
_symmetry_space_group_name_H-M "C M C 21"
_symmetry_group_IT_number 36
_symmetry_cell_setting 'orthorhombic'
loop_
_space_group_symop_operation_xyz
x,y,z
-x,-y,1/2+z
x,-y,1/2+z
-x,y,z
1/2+x,1/2+y,z
1/2-x,1/2-y,1/2+z
1/2+x,1/2-y,1/2+z
1/2-x,1/2+y,z
loop_
_atom_site_type_symbol
_atom_site_label
_atom_site_fract_x
_atom_site_fract_y
_atom_site_fract_z
Si Si1 0.222197 0.411074 0.575370
Si Si2 0.210015 0.267711 0.523837
Si Si3 0.000000 0.306915 0.897264
Si Si4 0.723645 0.898727 0.219000
Si Si5 0.723497 0.934382 0.004731
Si Si6 0.719431 0.747429 0.249175
Si Si7 0.273284 0.949263 0.788109
O O1 0.283145 0.346092 0.512087
O O2 0.255217 0.484714 0.527235
O O3 0.288951 0.414284 0.687030
O O4 0.000000 0.403971 0.581134
O O5 0.500000 0.761906 0.488731
O O6 0.339221 0.211965 0.476632
O O7 0.221209 0.260103 0.638619
O O8 0.159790 0.302783 0.812740
O O9 0.500000 0.900294 0.212340
O O10 0.769972 0.827591 0.272352
O O11 0.776269 0.969656 0.271613
O O12 0.787981 0.900222 0.105901
O O13 0.500000 0.920787 0.994941
O O14 0.791294 0.925116 0.894512
O O15 0.500000 0.738563 0.258041
O O16 0.500000 0.946760 0.790880
#
# Coordination Sequence:
#
# PCOD9353190 Si02
#       7
#     8   8   4   8   8   8   8
#     4   8  16  29  51  84 124 158 204 266 311 369
#     4  11  23  44  66  98 133 166 218 276 323 393
#     4  12  26  44  72  94 124 186 218 262 342 378
#     4   8  16  29  51  84 124 158 204 266 311 369
#     4   8  13  25  47  82 120 161 208 252 308 378
#     4  11  23  44  66  98 133 166 218 276 323 393
#     4   8  13  25  47  82 120 161 208 252 308 378
#
# _framework density 26.914638
#
# number of rings (size 3 to 8) (size 9 to 14) (size 15 to 20)
#    0.000    2.769    1.538    2.308    2.154    0.000 
#    2.769    0.000    0.000    3.692    0.000    0.000 
#    0.000    0.000    0.000    0.000    0.000    0.000 
#
# Total GULP energy -145105.458148 kJ/mol
# GULP energy per Si atom -5580.979160 kJ/mol
# Density = 2.685338 g / cm^3
# Si number density = 26.914638 Si / 1000 Ang^3
#
#
#
# Elastic Constant Matrix: (Units=GPa)
#
#
# Indices 1 2 3 4 5 6 
#
# 1 150.7580 14.8798 15.1476 0.0000 0.0000 0.0000
# 2 14.8798 133.3342 42.9990 0.0000 0.0000 0.0000
# 3 15.1476 42.9990 208.1652 0.0000 0.0000 0.0000
# 4 0.0000 0.0000 0.0000 -110.5214 0.0000 0.0000
# 5 0.0000 0.0000 0.0000 0.0000 72.5312 0.0000
# 6 0.0000 0.0000 0.0000 0.0000 0.0000 13.7754
#
#
#
# Elastic Compliance Matrix: (Units=1/GPa)
#
#
# Indices 1 2 3 4 5 6 
#
# 1 0.006732 -0.000636 -0.000359 0.000000 0.000000 0.000000
# 2 -0.000636 0.008095 -0.001626 0.000000 0.000000 0.000000
# 3 -0.000359 -0.001626 0.005166 0.000000 0.000000 0.000000
# 4 0.000000 0.000000 0.000000 -0.009048 0.000000 0.000000
# 5 0.000000 0.000000 0.000000 0.000000 0.013787 0.000000
# 6 0.000000 0.000000 0.000000 0.000000 0.000000 0.072593
#
#
# Mechanical properties :
#
#
# Convention : Reuss Voigt Hill
#
# Bulk Modulus (GPa) = 67.78402 70.92336 69.35369
# Shear Modulus (GPa) = 46.51906 23.10579 34.81243
#
# Velocity S-wave (km/s) = 4.16190 2.93317 3.60034
# Velocity P-wave (km/s) = 6.95232 6.15465 6.56561
#
# Compressibility (1/GPa) = 0.01475274
#
# Stress axis : x y z
#
# Youngs Moduli (GPa) = 148.54620 123.52953 193.58012
#
# Poissons Ratio (x) = 0.07852 0.06941
# Poissons Ratio (y) = 0.09442 0.31474
# Poissons Ratio (z) = 0.05326 0.20085
#
# Static dielectric constant tensor:
#      x y z
#    x 2.058920 0.000000 0.000000 
#    y 0.000000 2.341420 0.000000 
#    z 0.000000 0.000000 1.787570 
# 
# From -- ./inp_files/10575.got.cif
#   From: 2010.05.17/outbox.cif.g08.bks.cpg/sg36_6_cif.got.tgz:10575.got - 2010.06.03 17:41:39.
