data_PCOD9353942
_publ_section_title
;
Structure prediction by ZEFSAII (Michael W. Deem and Ramdas Pophale) SiO2 
 PCOD9353942
Probable space group: C C C 2
;
_chemical_formula_sum "Si O2"
_cell_formula_units_Z 64
_cell_length_a 8.168171
_cell_length_b 14.868029
_cell_length_c 24.040427
_cell_angle_alpha 90.000000
_cell_angle_beta 90.000000
_cell_angle_gamma 90.000000
_cell_volume 2919.580120
_symmetry_space_group_name_H-M "C C C 2"
_symmetry_group_IT_number 37
_symmetry_cell_setting 'orthorhombic'
loop_
_space_group_symop_operation_xyz
x,y,z
-x,-y,z
-x,y,1/2+z
x,-y,1/2+z
1/2+x,1/2+y,z
1/2-x,1/2-y,z
1/2-x,1/2+y,1/2+z
1/2+x,1/2-y,1/2+z
loop_
_atom_site_type_symbol
_atom_site_label
_atom_site_fract_x
_atom_site_fract_y
_atom_site_fract_z
Si Si1 0.750000 0.860357 0.625000
Si Si2 0.555810 0.102768 0.432824
Si Si3 0.933504 0.855175 0.059964
Si Si4 0.933504 0.644825 0.059964
Si Si5 0.072554 0.354180 0.315116
Si Si6 0.055810 0.897232 0.432824
Si Si7 0.250000 0.860488 0.254467
Si Si8 0.927446 0.854180 0.315116
O O1 0.750000 0.750000 0.621066
O O2 0.584973 0.893279 0.594654
O O3 0.750000 0.883605 0.689738
O O4 0.915027 0.893279 0.594654
O O5 0.525672 0.140160 0.494375
O O6 0.461516 0.144817 0.381046
O O7 0.750000 0.111755 0.422175
O O8 0.500000 0.000000 0.434165
O O9 0.922242 0.750000 0.075089
O O10 0.750000 0.894313 0.067792
O O11 0.974328 0.859840 0.994375
O O12 0.080872 0.250000 0.297402
O O13 0.250000 0.396075 0.303582
O O14 0.914313 0.393656 0.284784
O O15 0.961517 0.855183 0.381046
O O16 0.000000 0.000000 0.434165
O O17 0.250000 0.750000 0.258959
O O18 0.085687 0.893656 0.284784
#
# Coordination Sequence:
#
# PCOD9353942 Si02
#       8
#     8   8   8   8   8   8   8   8
#     4   9  18  32  55  80 106 140 177 220 264 313
#     4  11  22  35  53  81 112 145 177 223 270 323
#     4   9  19  34  53  80 109 139 175 220 269 318
#     4   9  19  34  53  80 109 139 175 220 269 318
#     4  10  20  34  55  82 110 142 178 221 269 320
#     4  11  22  35  53  81 112 145 177 223 270 323
#     4   9  18  34  53  80 110 138 177 222 268 313
#     4  10  20  34  55  82 110 142 178 221 269 320
#
# _framework density 21.920960999999998
#
# number of rings (size 3 to 8) (size 9 to 14) (size 15 to 20)
#    0.000    2.250    1.250    1.500    3.500    2.000 
#    0.000    5.000    0.000    1.500    0.000    0.000 
#    0.000    0.000    0.000    0.000    0.000    0.000 
#
# Total GULP energy -178687.923782 kJ/mol
# GULP energy per Si atom -5583.997618 kJ/mol
# Density = 2.187107 g / cm^3
# Si number density = 21.920961 Si / 1000 Ang^3
#
#
#
# Elastic Constant Matrix: (Units=GPa)
#
#
# Indices 1 2 3 4 5 6 
#
# 1 224.0166 13.0848 123.1872 0.0000 0.0000 0.0000
# 2 13.0848 38.4541 -10.0075 0.0000 0.0000 0.0000
# 3 123.1872 -10.0075 122.2673 0.0000 0.0000 0.0000
# 4 0.0000 0.0000 0.0000 -53.7336 0.0000 0.0000
# 5 0.0000 0.0000 0.0000 0.0000 23.9910 0.0000
# 6 0.0000 0.0000 0.0000 0.0000 0.0000 13.4771
#
#
#
# Elastic Compliance Matrix: (Units=1/GPa)
#
#
# Indices 1 2 3 4 5 6 
#
# 1 0.011677 -0.007188 -0.012353 0.000000 0.000000 0.000000
# 2 -0.007188 0.030996 0.009779 0.000000 0.000000 0.000000
# 3 -0.012353 0.009779 0.021425 0.000000 0.000000 0.000000
# 4 0.000000 0.000000 0.000000 -0.018610 0.000000 0.000000
# 5 0.000000 0.000000 0.000000 0.000000 0.041682 0.000000
# 6 0.000000 0.000000 0.000000 0.000000 0.000000 0.074200
#
#
# Mechanical properties :
#
#
# Convention : Reuss Voigt Hill
#
# Bulk Modulus (GPa) = 22.43466 70.80746 46.62106
# Shear Modulus (GPa) = 25.54263 13.97844 19.76054
#
# Velocity S-wave (km/s) = 3.41723 2.52796 3.00566
# Velocity P-wave (km/s) = 5.08198 6.39470 5.77575
#
# Compressibility (1/GPa) = 0.04457389
#
# Stress axis : x y z
#
# Youngs Moduli (GPa) = 85.64090 32.26243 46.67444
#
# Poissons Ratio (x) = 0.23190 0.57656
# Poissons Ratio (y) = 0.61558 -0.45643
# Poissons Ratio (z) = 1.05791 -0.31550
#
# Static dielectric constant tensor:
#      x y z
#    x 1.832250 0.000000 0.000000 
#    y 0.000000 1.807310 0.000000 
#    z 0.000000 0.000000 1.744440 
# 
# From -- ./inp_files/16531.got.cif
#   From: 2010.05.17/outbox.cif.g08.bks.cpg/sg37_9_cif.got.tgz:16531.got - 2010.06.03 17:53:42.
