data_PCOD9353999
_publ_section_title
;
Structure prediction by ZEFSAII (Michael W. Deem and Ramdas Pophale) SiO2 
 PCOD9353999
Probable space group: C C C 2
;
_chemical_formula_sum "Si O2"
_cell_formula_units_Z 64
_cell_length_a 15.602463
_cell_length_b 9.371660
_cell_length_c 21.989431
_cell_angle_alpha 90.000000
_cell_angle_beta 90.000000
_cell_angle_gamma 90.000000
_cell_volume 3215.316115
_symmetry_space_group_name_H-M "C C C 2"
_symmetry_group_IT_number 37
_symmetry_cell_setting 'orthorhombic'
loop_
_space_group_symop_operation_xyz
x,y,z
-x,-y,z
-x,y,1/2+z
x,-y,1/2+z
1/2+x,1/2+y,z
1/2-x,1/2-y,z
1/2-x,1/2+y,1/2+z
1/2+x,1/2-y,1/2+z
loop_
_atom_site_type_symbol
_atom_site_label
_atom_site_fract_x
_atom_site_fract_y
_atom_site_fract_z
Si Si1 0.344358 0.177752 0.617950
Si Si2 0.414096 0.408597 0.390645
Si Si3 0.408537 0.579778 0.034067
Si Si4 0.835633 0.344484 0.256359
Si Si5 0.758617 0.420540 0.834130
Si Si6 0.680825 0.133363 0.430634
Si Si7 0.973838 0.663227 0.858484
Si Si8 0.739247 0.092760 0.567775
O O1 0.250000 0.250000 0.614695
O O2 0.402095 0.272448 0.572361
O O3 0.370265 0.175190 0.688358
O O4 0.325589 0.015203 0.599796
O O5 0.500000 0.500000 0.387439
O O6 0.389537 0.396880 0.461992
O O7 0.338348 0.470075 0.349622
O O8 0.442528 0.257657 0.363530
O O9 0.500000 0.500000 0.039349
O O10 0.332536 0.479729 0.060033
O O11 0.750000 0.250000 0.262213
O O12 0.802438 0.502464 0.276583
O O13 0.909878 0.302552 0.303324
O O14 0.750000 0.250000 0.831622
O O15 0.808005 0.488728 0.892109
O O16 0.750000 0.250000 0.408002
O O17 0.585125 0.187621 0.418174
O O18 0.701351 0.111511 0.500314
O O19 0.000000 0.500000 0.853583
O O20 0.750000 0.250000 0.595521
#
# Coordination Sequence:
#
# PCOD9353999 Si02
#       8
#     8   8   8   8   8   8   8   8
#     4   9  21  41  65  85 115 168 212 253 297 366
#     4  11  21  34  55  88 122 147 184 251 310 359
#     4  10  22  38  59  91 125 153 203 258 314 371
#     4  10  21  43  63  79 115 166 209 238 293 368
#     4  11  21  33  58  90 114 154 193 247 299 358
#     4  10  20  36  56  81 119 161 193 234 298 374
#     4  11  23  36  56  86 122 149 193 242 305 360
#     4  10  21  37  61  88 120 158 205 247 302 366
#
# _framework density 19.904730000000001
#
# number of rings (size 3 to 8) (size 9 to 14) (size 15 to 20)
#    0.000    1.750    1.250    4.500    8.750    0.500 
#    0.000    6.250    0.000    0.000    0.000    0.000 
#    0.000    0.000    0.000    0.000    0.000    0.000 
#
# Total GULP energy -178544.514032 kJ/mol
# GULP energy per Si atom -5579.516064 kJ/mol
# Density = 1.985943 g / cm^3
# Si number density = 19.904730 Si / 1000 Ang^3
#
#
#
# Elastic Constant Matrix: (Units=GPa)
#
#
# Indices 1 2 3 4 5 6 
#
# 1 72.3889 0.5518 10.8257 0.0000 0.0000 0.0000
# 2 0.5518 109.5030 21.5577 0.0000 0.0000 0.0000
# 3 10.8257 21.5577 53.9229 0.0000 0.0000 0.0000
# 4 0.0000 0.0000 0.0000 21.1756 0.0000 0.0000
# 5 0.0000 0.0000 0.0000 0.0000 5.1766 0.0000
# 6 0.0000 0.0000 0.0000 0.0000 0.0000 32.7585
#
#
#
# Elastic Compliance Matrix: (Units=1/GPa)
#
#
# Indices 1 2 3 4 5 6 
#
# 1 0.014271 0.000534 -0.003079 0.000000 0.000000 0.000000
# 2 0.000534 0.009932 -0.004078 0.000000 0.000000 0.000000
# 3 -0.003079 -0.004078 0.020793 0.000000 0.000000 0.000000
# 4 0.000000 0.000000 0.000000 0.047224 0.000000 0.000000
# 5 0.000000 0.000000 0.000000 0.000000 0.193176 0.000000
# 6 0.000000 0.000000 0.000000 0.000000 0.000000 0.030526
#
#
# Mechanical properties :
#
#
# Convention : Reuss Voigt Hill
#
# Bulk Modulus (GPa) = 31.49463 33.52057 32.50760
# Shear Modulus (GPa) = 14.71664 25.34744 20.03204
#
# Velocity S-wave (km/s) = 2.72206 3.57240 3.17582
# Velocity P-wave (km/s) = 5.07311 5.82178 5.46029
#
# Compressibility (1/GPa) = 0.03175145
#
# Stress axis : x y z
#
# Youngs Moduli (GPa) = 70.07416 100.68145 48.09213
#
# Poissons Ratio (x) = -0.05378 0.14805
# Poissons Ratio (y) = -0.03743 0.19612
# Poissons Ratio (z) = 0.21573 0.41058
#
# Static dielectric constant tensor:
#      x y z
#    x 1.717110 0.000000 0.000000 
#    y 0.000000 1.820860 0.000000 
#    z 0.000000 0.000000 1.682510 
# 
# From -- ./inp_files/18891.got.cif
#   From: 2010.05.17/outbox.cif.g08.bks.cpg/sg37_10_cif.got.tgz:18891.got - 2010.06.03 17:53:42.
