data_PCOD9353242
_publ_section_title
;
Structure prediction by ZEFSAII (Michael W. Deem and Ramdas Pophale) SiO2 
 PCOD9353242
Probable space group: C M C 21
;
_chemical_formula_sum "Si O2"
_cell_formula_units_Z 40
_cell_length_a 17.301786
_cell_length_b 9.508122
_cell_length_c 9.504628
_cell_angle_alpha 90.000000
_cell_angle_beta 90.000000
_cell_angle_gamma 90.000000
_cell_volume 1563.582516
_symmetry_space_group_name_H-M "C M C 21"
_symmetry_group_IT_number 36
_symmetry_cell_setting 'orthorhombic'
loop_
_space_group_symop_operation_xyz
x,y,z
-x,-y,1/2+z
x,-y,1/2+z
-x,y,z
1/2+x,1/2+y,z
1/2-x,1/2-y,1/2+z
1/2+x,1/2-y,1/2+z
1/2-x,1/2+y,z
loop_
_atom_site_type_symbol
_atom_site_label
_atom_site_fract_x
_atom_site_fract_y
_atom_site_fract_z
Si Si1 0.650965 0.261278 0.461300
Si Si2 0.147155 0.359376 0.552700
Si Si3 0.285906 0.704108 0.237039
Si Si4 0.592593 0.425376 0.941413
Si Si5 0.581823 0.990423 0.809611
O O1 0.675325 0.202831 0.614406
O O2 0.725335 0.254679 0.356509
O O3 0.883618 0.916252 0.478851
O O4 0.590193 0.158378 0.388718
O O5 0.227820 0.380389 0.632168
O O6 0.120631 0.196182 0.550449
O O7 0.089424 0.447949 0.648557
O O8 0.143364 0.414505 0.392943
O O9 0.353768 0.614297 0.307707
O O10 0.500000 0.415602 0.920619
O O11 0.500000 0.062356 0.833805
#
# Coordination Sequence:
#
# PCOD9353242 Si02
#       5
#     8   8   8   8   8
#     4  11  28  47  80 109 157 205 263 323 396 474
#     4  11  27  49  80 108 160 211 264 319 397 483
#     4  11  27  48  76 111 153 208 257 316 387 486
#     4  12  28  51  82 120 158 203 271 347 399 456
#     4  11  25  47  75 112 154 201 257 323 394 471
#
# _framework density 25.582277000000001
#
# number of rings (size 3 to 8) (size 9 to 14) (size 15 to 20)
#    0.000    0.800    2.000    2.400   16.800    1.600 
#    0.000    0.000    0.000    0.000    0.000    0.000 
#    0.000    0.000    0.000    0.000    0.000    0.000 
#
# Total GULP energy -111813.645344 kJ/mol
# GULP energy per Si atom -5590.682267 kJ/mol
# Density = 2.552405 g / cm^3
# Si number density = 25.582277 Si / 1000 Ang^3
#
#
#
# Elastic Constant Matrix: (Units=GPa)
#
#
# Indices 1 2 3 4 5 6 
#
# 1 167.6900 23.2284 20.3174 0.0000 0.0000 0.0000
# 2 23.2284 149.1612 15.8438 0.0000 0.0000 0.0000
# 3 20.3174 15.8438 156.0820 0.0000 0.0000 0.0000
# 4 0.0000 0.0000 0.0000 31.3832 0.0000 0.0000
# 5 0.0000 0.0000 0.0000 0.0000 21.8710 0.0000
# 6 0.0000 0.0000 0.0000 0.0000 0.0000 25.4989
#
#
#
# Elastic Compliance Matrix: (Units=1/GPa)
#
#
# Indices 1 2 3 4 5 6 
#
# 1 0.006172 -0.000885 -0.000714 0.000000 0.000000 0.000000
# 2 -0.000885 0.006904 -0.000586 0.000000 0.000000 0.000000
# 3 -0.000714 -0.000586 0.006559 0.000000 0.000000 0.000000
# 4 0.000000 0.000000 0.000000 0.031864 0.000000 0.000000
# 5 0.000000 0.000000 0.000000 0.000000 0.045723 0.000000
# 6 0.000000 0.000000 0.000000 0.000000 0.000000 0.039217
#
#
# Mechanical properties :
#
#
# Convention : Reuss Voigt Hill
#
# Bulk Modulus (GPa) = 65.50191 65.74580 65.62386
# Shear Modulus (GPa) = 34.27041 43.32018 38.79529
#
# Velocity S-wave (km/s) = 3.66405 4.11952 3.89844
# Velocity P-wave (km/s) = 6.60002 6.95577 6.78023
#
# Compressibility (1/GPa) = 0.01526673
#
# Stress axis : x y z
#
# Youngs Moduli (GPa) = 162.00906 144.83847 152.45707
#
# Poissons Ratio (x) = 0.12824 0.10879
# Poissons Ratio (y) = 0.14345 0.08928
# Poissons Ratio (z) = 0.11561 0.08482
#
# Static dielectric constant tensor:
#      x y z
#    x 2.102130 0.000000 0.000000 
#    y 0.000000 2.078360 0.000000 
#    z 0.000000 0.000000 2.057100 
# 
# From -- ./inp_files/4588.got.cif
#   From: 2010.05.17/outbox.cif.g08.bks.cpg/sg36_3_cif.got.tgz:4588.got - 2010.06.03 17:41:39.
