data_PCOD9353513
_publ_section_title
;
Structure prediction by ZEFSAII (Michael W. Deem and Ramdas Pophale) SiO2 
 PCOD9353513
Probable space group: C C C 2
;
_chemical_formula_sum "Si O2"
_cell_formula_units_Z 56
_cell_length_a 11.167167
_cell_length_b 11.439249
_cell_length_c 22.212325
_cell_angle_alpha 90.000000
_cell_angle_beta 90.000000
_cell_angle_gamma 90.000000
_cell_volume 2837.491332
_symmetry_space_group_name_H-M "C C C 2"
_symmetry_group_IT_number 37
_symmetry_cell_setting 'orthorhombic'
loop_
_space_group_symop_operation_xyz
x,y,z
-x,-y,z
-x,y,1/2+z
x,-y,1/2+z
1/2+x,1/2+y,z
1/2-x,1/2-y,z
1/2-x,1/2+y,1/2+z
1/2+x,1/2-y,1/2+z
loop_
_atom_site_type_symbol
_atom_site_label
_atom_site_fract_x
_atom_site_fract_y
_atom_site_fract_z
Si Si1 0.175745 0.139126 0.779010
Si Si2 0.250000 0.750000 0.488538
Si Si3 0.362246 0.471637 0.041723
Si Si4 0.858458 0.969672 0.173686
Si Si5 0.347977 0.085375 0.886647
Si Si6 0.552187 0.757001 0.328278
Si Si7 0.750000 0.750000 0.234092
Si Si8 0.286078 0.372658 0.429258
O O1 0.250000 0.250000 0.756822
O O2 0.235768 0.107103 0.842447
O O3 0.039206 0.172353 0.792494
O O4 0.191794 0.042329 0.729317
O O5 0.331582 0.662729 0.526947
O O6 0.328604 0.834027 0.445428
O O7 0.500000 0.500000 0.049656
O O8 0.307361 0.499611 0.107363
O O9 0.330855 0.544726 0.982240
O O10 0.821770 0.838866 0.191661
O O11 0.000000 0.000000 0.173741
O O12 0.463575 0.141524 0.853879
O O13 0.325358 0.949024 0.903084
O O14 0.651243 0.802074 0.280877
O O15 0.620710 0.674693 0.377973
O O16 0.250000 0.250000 0.458169
#
# Coordination Sequence:
#
# PCOD9353513 Si02
#       8
#     8   4   8   8   8   8   4   8
#     4  10  21  39  63  89 123 167 201 258 322 381
#     4  10  17  38  62  94 117 156 214 266 318 382
#     4  10  23  39  64  88 118 169 215 262 310 381
#     4  11  23  41  62  90 127 165 215 264 315 383
#     4  10  21  37  64  93 128 163 203 263 331 385
#     4  11  21  40  60 100 130 159 213 265 330 394
#     4  12  23  38  68  98 127 168 214 274 324 384
#     4  11  24  38  58  94 127 168 205 263 327 384
#
# _framework density 19.735741000000001
#
# number of rings (size 3 to 8) (size 9 to 14) (size 15 to 20)
#    0.000    1.429    4.286    2.143    2.000    1.143 
#    2.571    0.000    0.000    0.000   14.857    0.000 
#    0.000    0.000    0.000    0.000    0.000    0.000 
#
# Total GULP energy -155967.595082 kJ/mol
# GULP energy per Si atom -5570.271253 kJ/mol
# Density = 1.969082 g / cm^3
# Si number density = 19.735741 Si / 1000 Ang^3
#
#
#
# Elastic Constant Matrix: (Units=GPa)
#
#
# Indices 1 2 3 4 5 6 
#
# 1 66.9793 21.1754 24.4372 0.0000 0.0000 0.0000
# 2 21.1754 116.0978 25.7142 0.0000 0.0000 0.0000
# 3 24.4372 25.7142 95.1584 0.0000 0.0000 0.0000
# 4 0.0000 0.0000 0.0000 88.9209 0.0000 0.0000
# 5 0.0000 0.0000 0.0000 0.0000 6.5083 0.0000
# 6 0.0000 0.0000 0.0000 0.0000 0.0000 31.7874
#
#
#
# Elastic Compliance Matrix: (Units=1/GPa)
#
#
# Indices 1 2 3 4 5 6 
#
# 1 0.017019 -0.002272 -0.003757 0.000000 0.000000 0.000000
# 2 -0.002272 0.009465 -0.001974 0.000000 0.000000 0.000000
# 3 -0.003757 -0.001974 0.012007 0.000000 0.000000 0.000000
# 4 0.000000 0.000000 0.000000 0.011246 0.000000 0.000000
# 5 0.000000 0.000000 0.000000 0.000000 0.153649 0.000000
# 6 0.000000 0.000000 0.000000 0.000000 0.000000 0.031459
#
#
# Mechanical properties :
#
#
# Convention : Reuss Voigt Hill
#
# Bulk Modulus (GPa) = 44.47368 46.76545 45.61957
# Shear Modulus (GPa) = 19.35391 39.23725 29.29558
#
# Velocity S-wave (km/s) = 3.13493 4.46368 3.85696
# Velocity P-wave (km/s) = 5.97388 7.09318 6.55746
#
# Compressibility (1/GPa) = 0.02248521
#
# Stress axis : x y z
#
# Youngs Moduli (GPa) = 58.75834 105.65117 83.28483
#
# Poissons Ratio (x) = 0.24005 0.31286
# Poissons Ratio (y) = 0.13350 0.16442
# Poissons Ratio (z) = 0.22073 0.20858
#
# Static dielectric constant tensor:
#      x y z
#    x 1.720590 0.000000 0.000000 
#    y 0.000000 1.755340 0.000000 
#    z 0.000000 0.000000 1.714320 
# 
# From -- ./inp_files/16896.got.cif
#   From: 2010.05.17/outbox.cif.g08.bks.cpg/sg37_9_cif.got.tgz:16896.got - 2010.06.03 17:53:42.
