data_PCOD9353086
_publ_section_title
;
Structure prediction by ZEFSAII (Michael W. Deem and Ramdas Pophale) SiO2 
 PCOD9353086
Probable space group: C M C 21
;
_chemical_formula_sum "Si O2"
_cell_formula_units_Z 64
_cell_length_a 8.915096
_cell_length_b 20.857917
_cell_length_c 19.666143
_cell_angle_alpha 90.000000
_cell_angle_beta 90.000000
_cell_angle_gamma 90.000000
_cell_volume 3656.925828
_symmetry_space_group_name_H-M "C M C 21"
_symmetry_group_IT_number 36
_symmetry_cell_setting 'orthorhombic'
loop_
_space_group_symop_operation_xyz
x,y,z
-x,-y,1/2+z
x,-y,1/2+z
-x,y,z
1/2+x,1/2+y,z
1/2-x,1/2-y,1/2+z
1/2+x,1/2-y,1/2+z
1/2-x,1/2+y,z
loop_
_atom_site_type_symbol
_atom_site_label
_atom_site_fract_x
_atom_site_fract_y
_atom_site_fract_z
Si Si1 0.820538 0.059896 0.363420
Si Si2 0.820605 0.684183 0.294391
Si Si3 0.819853 0.118652 0.505862
Si Si4 0.821828 0.739263 0.149018
Si Si5 0.178660 0.435889 0.295021
Si Si6 0.179391 0.304298 0.373545
Si Si7 0.678198 0.259543 0.506595
Si Si8 0.678645 0.390264 0.159487
O O1 0.752371 0.119689 0.322330
O O2 0.784041 0.072599 0.442978
O O3 0.000000 0.060051 0.356923
O O4 0.754467 0.994815 0.333583
O O5 0.790042 0.696666 0.214796
O O6 0.752883 0.744358 0.334829
O O7 0.000000 0.682755 0.304026
O O8 0.738538 0.186807 0.496097
O O9 0.782147 0.093273 0.581284
O O10 0.000000 0.130805 0.505483
O O11 0.729966 0.721563 0.082162
O O12 0.788903 0.813964 0.166276
O O13 0.000000 0.736299 0.133764
O O14 0.215248 0.369633 0.333966
O O15 0.236436 0.428287 0.217934
O O16 0.000000 0.444050 0.295310
O O17 0.245022 0.302847 0.449323
O O18 0.000000 0.296208 0.375251
O O19 0.500000 0.260813 0.499913
O O20 0.500000 0.398792 0.168453
#
# Coordination Sequence:
#
# PCOD9353086 Si02
#       8
#     8   8   8   8   8   8   8   8
#     4  11  23  39  60  84 117 157 192 235 290 348
#     4  11  21  36  60  88 115 147 190 238 286 342
#     4   9  19  36  57  83 113 148 188 234 289 347
#     4   9  19  35  56  83 118 152 185 235 292 344
#     4  11  24  39  57  84 117 153 196 242 285 340
#     4  11  22  37  57  82 116 153 191 238 290 338
#     4  11  21  32  55  87 116 149 192 241 287 343
#     4   9  17  34  58  83 112 147 188 231 287 348
#
# _framework density 17.501038999999999
#
# number of rings (size 3 to 8) (size 9 to 14) (size 15 to 20)
#    0.000    1.750    2.500    3.375    0.000    5.000 
#    0.000    1.250    0.000    3.000    0.000    0.000 
#    0.000    0.000    0.000    0.000    0.000    0.000 
#
# Total GULP energy -178702.961787 kJ/mol
# GULP energy per Si atom -5584.467556 kJ/mol
# Density = 1.746121 g / cm^3
# Si number density = 17.501039 Si / 1000 Ang^3
#
#
#
# Elastic Constant Matrix: (Units=GPa)
#
#
# Indices 1 2 3 4 5 6 
#
# 1 60.6684 52.1415 65.2393 0.0000 0.0000 0.0000
# 2 52.1415 90.2829 68.7289 0.0000 0.0000 0.0000
# 3 65.2393 68.7289 152.1056 0.0000 0.0000 0.0000
# 4 0.0000 0.0000 0.0000 23.9563 0.0000 0.0000
# 5 0.0000 0.0000 0.0000 0.0000 29.5184 0.0000
# 6 0.0000 0.0000 0.0000 0.0000 0.0000 25.8183
#
#
#
# Elastic Compliance Matrix: (Units=1/GPa)
#
#
# Indices 1 2 3 4 5 6 
#
# 1 0.041641 -0.015934 -0.010660 0.000000 0.000000 0.000000
# 2 -0.015934 0.022981 -0.003550 0.000000 0.000000 0.000000
# 3 -0.010660 -0.003550 0.012751 0.000000 0.000000 0.000000
# 4 0.000000 0.000000 0.000000 0.041743 0.000000 0.000000
# 5 0.000000 0.000000 0.000000 0.000000 0.033877 0.000000
# 6 0.000000 0.000000 0.000000 0.000000 0.000000 0.038732
#
#
# Mechanical properties :
#
#
# Convention : Reuss Voigt Hill
#
# Bulk Modulus (GPa) = 58.53236 75.03069 66.78152
# Shear Modulus (GPa) = 19.40185 23.65509 21.52847
#
# Velocity S-wave (km/s) = 3.33319 3.68045 3.51112
# Velocity P-wave (km/s) = 6.95207 7.81193 7.39451
#
# Compressibility (1/GPa) = 0.01708457
#
# Stress axis : x y z
#
# Youngs Moduli (GPa) = 24.01486 43.51440 78.42683
#
# Poissons Ratio (x) = 0.69334 0.83607
# Poissons Ratio (y) = 0.38264 0.27840
# Poissons Ratio (z) = 0.25601 0.15447
#
# Static dielectric constant tensor:
#      x y z
#    x 1.580190 0.000000 0.000000 
#    y 0.000000 1.559160 0.000000 
#    z 0.000000 0.000000 1.611120 
# 
# From -- ./inp_files/13891.got.cif
#   From: 2010.05.17/outbox.cif.g08.bks.cpg/sg36_7_cif.got.tgz:13891.got - 2010.06.03 17:41:39.
