data_PCOD9353784
_publ_section_title
;
Structure prediction by ZEFSAII (Michael W. Deem and Ramdas Pophale) SiO2 
 PCOD9353784
Probable space group: C C C 2
;
_chemical_formula_sum "Si O2"
_cell_formula_units_Z 64
_cell_length_a 8.533636
_cell_length_b 22.258748
_cell_length_c 17.590261
_cell_angle_alpha 90.000000
_cell_angle_beta 90.000000
_cell_angle_gamma 90.000000
_cell_volume 3341.235833
_symmetry_space_group_name_H-M "C C C 2"
_symmetry_group_IT_number 37
_symmetry_cell_setting 'orthorhombic'
loop_
_space_group_symop_operation_xyz
x,y,z
-x,-y,z
-x,y,1/2+z
x,-y,1/2+z
1/2+x,1/2+y,z
1/2-x,1/2-y,z
1/2-x,1/2+y,1/2+z
1/2+x,1/2-y,1/2+z
loop_
_atom_site_type_symbol
_atom_site_label
_atom_site_fract_x
_atom_site_fract_y
_atom_site_fract_z
Si Si1 0.091306 0.215259 0.026150
Si Si2 0.908244 0.326695 0.973268
Si Si3 0.720609 0.897232 0.013277
Si Si4 0.723113 0.037479 0.366422
Si Si5 0.721143 0.561006 0.183041
Si Si6 0.146051 0.071945 0.718397
Si Si7 0.192112 0.814272 0.121157
Si Si8 0.121399 0.408080 0.332489
O O1 0.250000 0.250000 0.048644
O O2 0.154798 0.154169 0.990403
O O3 0.986378 0.260084 0.974807
O O4 0.987815 0.196429 0.098019
O O5 0.779913 0.326635 0.040486
O O6 0.048624 0.370047 0.000330
O O7 0.857361 0.352869 0.891252
O O8 0.738948 0.917484 0.099156
O O9 0.745300 0.950076 0.954331
O O10 0.844156 0.068431 0.309434
O O11 0.557344 0.067856 0.340744
O O12 0.721386 0.966220 0.357167
O O13 0.535846 0.569651 0.196173
O O14 0.738683 0.488499 0.192250
O O15 0.823882 0.597371 0.245138
O O16 0.214441 0.131143 0.678781
O O17 0.250000 0.750000 0.151313
#
# Coordination Sequence:
#
# PCOD9353784 Si02
#       8
#     8   8   8   8   8   8   8   8
#     4   9  18  36  59  78 112 149 194 244 286 347
#     4   9  20  34  59  84 112 152 193 242 296 349
#     4  10  19  36  59  85 113 155 195 235 300 358
#     4   9  20  36  57  81 123 152 189 241 299 352
#     4  10  21  36  58  84 121 153 196 244 298 361
#     4  10  21  38  53  85 118 154 193 243 301 352
#     4  10  20  36  57  83 116 147 197 246 288 352
#     4   9  19  38  54  85 117 151 193 243 297 358
#
# _framework density 19.154588
#
# number of rings (size 3 to 8) (size 9 to 14) (size 15 to 20)
#    0.000    2.500    1.250    0.000    3.500    1.000 
#    0.000    4.375    0.000    3.750    0.000    0.000 
#    0.000    0.000    0.000    0.000    0.000    0.000 
#
# Total GULP energy -178288.305717 kJ/mol
# GULP energy per Si atom -5571.509554 kJ/mol
# Density = 1.911099 g / cm^3
# Si number density = 19.154588 Si / 1000 Ang^3
#
#
#
# Elastic Constant Matrix: (Units=GPa)
#
#
# Indices 1 2 3 4 5 6 
#
# 1 38.2728 13.1407 28.4603 0.0000 0.0000 0.0000
# 2 13.1407 84.6052 53.3315 0.0000 0.0000 0.0000
# 3 28.4603 53.3315 151.4038 0.0000 0.0000 0.0000
# 4 0.0000 0.0000 0.0000 32.5954 0.0000 0.0000
# 5 0.0000 0.0000 0.0000 0.0000 17.8130 0.0000
# 6 0.0000 0.0000 0.0000 0.0000 0.0000 8.8173
#
#
#
# Elastic Compliance Matrix: (Units=1/GPa)
#
#
# Indices 1 2 3 4 5 6 
#
# 1 0.030511 -0.001444 -0.005227 0.000000 0.000000 0.000000
# 2 -0.001444 0.015261 -0.005104 0.000000 0.000000 0.000000
# 3 -0.005227 -0.005104 0.009385 0.000000 0.000000 0.000000
# 4 0.000000 0.000000 0.000000 0.030679 0.000000 0.000000
# 5 0.000000 0.000000 0.000000 0.000000 0.056139 0.000000
# 6 0.000000 0.000000 0.000000 0.000000 0.000000 0.113413
#
#
# Mechanical properties :
#
#
# Convention : Reuss Voigt Hill
#
# Bulk Modulus (GPa) = 31.63838 51.57186 41.60512
# Shear Modulus (GPa) = 17.27269 23.80177 20.53723
#
# Velocity S-wave (km/s) = 3.00618 3.52890 3.27797
# Velocity P-wave (km/s) = 5.34815 6.60202 6.00788
#
# Compressibility (1/GPa) = 0.03160718
#
# Stress axis : x y z
#
# Youngs Moduli (GPa) = 32.77544 65.52453 106.54961
#
# Poissons Ratio (x) = 0.09463 0.55689
# Poissons Ratio (y) = 0.04734 0.54386
# Poissons Ratio (z) = 0.17130 0.33446
#
# Static dielectric constant tensor:
#      x y z
#    x 1.703070 0.000000 0.000000 
#    y 0.000000 1.698340 0.000000 
#    z 0.000000 0.000000 1.651870 
# 
# From -- ./inp_files/11004.got.cif
#   From: 2010.05.17/outbox.cif.g08.bks.cpg/sg37_6_cif.got.tgz:11004.got - 2010.06.03 17:53:42.
