data_PCOD9353019
_publ_section_title
;
Structure prediction by ZEFSAII (Michael W. Deem and Ramdas Pophale) SiO2 
 PCOD9353019
Probable space group: C M C 21
;
_chemical_formula_sum "Si O2"
_cell_formula_units_Z 60
_cell_length_a 27.664471
_cell_length_b 10.082710
_cell_length_c 9.542447
_cell_angle_alpha 90.000000
_cell_angle_beta 90.000000
_cell_angle_gamma 90.000000
_cell_volume 2661.701827
_symmetry_space_group_name_H-M "C M C 21"
_symmetry_group_IT_number 36
_symmetry_cell_setting 'orthorhombic'
loop_
_space_group_symop_operation_xyz
x,y,z
-x,-y,1/2+z
x,-y,1/2+z
-x,y,z
1/2+x,1/2+y,z
1/2-x,1/2-y,1/2+z
1/2+x,1/2-y,1/2+z
1/2-x,1/2+y,z
loop_
_atom_site_type_symbol
_atom_site_label
_atom_site_fract_x
_atom_site_fract_y
_atom_site_fract_z
Si Si1 0.500000 0.810719 0.079090
Si Si2 0.912576 0.515479 0.445247
Si Si3 0.139721 0.646355 0.194459
Si Si4 0.087911 0.258381 0.258202
Si Si5 0.173229 0.158719 0.086877
Si Si6 0.741371 0.978429 0.749791
Si Si7 0.139822 0.876782 0.006828
Si Si8 0.249916 0.840630 0.011187
O O1 0.542682 0.726914 0.161908
O O2 0.542333 0.904316 0.005218
O O3 0.884788 0.444377 0.573218
O O4 0.881006 0.611091 0.346670
O O5 0.924972 0.395701 0.337262
O O6 0.195740 0.605571 0.197012
O O7 0.127488 0.796632 0.148764
O O8 0.135817 0.257901 0.160793
O O9 0.103491 0.160202 0.383266
O O10 0.209293 0.089880 0.198514
O O11 0.209702 0.231942 0.981525
O O12 0.145312 0.033455 0.022942
O O13 0.742065 0.118597 0.672644
O O14 0.738836 0.969386 0.916301
O O15 0.193805 0.815642 0.981170
#
# Coordination Sequence:
#
# PCOD9353019 Si02
#       8
#     4   8   8   8   8   8   8   8
#     4  12  26  48  74 112 132 190 250 330 396 436
#     4  11  24  43  75 107 143 188 246 325 397 439
#     4  11  22  42  67 109 148 189 251 308 377 448
#     4  11  24  49  71 107 151 191 251 325 385 451
#     4  11  24  43  69 108 158 208 249 298 378 463
#     4  11  23  38  67 104 149 200 252 298 365 437
#     4  10  24  44  70 107 150 205 249 304 370 461
#     4  11  23  42  66 108 153 205 253 301 359 450
#
# _framework density 22.541969000000002
#
# number of rings (size 3 to 8) (size 9 to 14) (size 15 to 20)
#    0.000    1.067    4.000    2.000    1.867    4.267 
#    0.000    0.667    0.000    0.000    0.000    0.000 
#    0.000    0.000    0.000    0.000    0.000    0.000 
#
# Total GULP energy -167127.685947 kJ/mol
# GULP energy per Si atom -5570.922865 kJ/mol
# Density = 2.249066 g / cm^3
# Si number density = 22.541969 Si / 1000 Ang^3
#
#
#
# Elastic Constant Matrix: (Units=GPa)
#
#
# Indices 1 2 3 4 5 6 
#
# 1 118.1934 18.2787 25.4786 0.0000 0.0000 0.0000
# 2 18.2787 82.3280 26.3627 0.0000 0.0000 0.0000
# 3 25.4786 26.3627 82.0376 0.0000 0.0000 0.0000
# 4 0.0000 0.0000 0.0000 21.5207 0.0000 0.0000
# 5 0.0000 0.0000 0.0000 0.0000 20.8775 0.0000
# 6 0.0000 0.0000 0.0000 0.0000 0.0000 34.0020
#
#
#
# Elastic Compliance Matrix: (Units=1/GPa)
#
#
# Indices 1 2 3 4 5 6 
#
# 1 0.009183 -0.001255 -0.002449 0.000000 0.000000 0.000000
# 2 -0.001255 0.013711 -0.004016 0.000000 0.000000 0.000000
# 3 -0.002449 -0.004016 0.014241 0.000000 0.000000 0.000000
# 4 0.000000 0.000000 0.000000 0.046467 0.000000 0.000000
# 5 0.000000 0.000000 0.000000 0.000000 0.047898 0.000000
# 6 0.000000 0.000000 0.000000 0.000000 0.000000 0.029410
#
#
# Mechanical properties :
#
#
# Convention : Reuss Voigt Hill
#
# Bulk Modulus (GPa) = 46.09352 46.97764 46.53558
# Shear Modulus (GPa) = 27.23594 29.44265 28.33929
#
# Velocity S-wave (km/s) = 3.47973 3.61796 3.54952
# Velocity P-wave (km/s) = 6.05285 6.19178 6.12271
#
# Compressibility (1/GPa) = 0.02169502
#
# Stress axis : x y z
#
# Youngs Moduli (GPa) = 108.90164 72.93297 70.22122
#
# Poissons Ratio (x) = 0.09150 0.17195
# Poissons Ratio (y) = 0.13663 0.28204
# Poissons Ratio (z) = 0.26667 0.29293
#
# Static dielectric constant tensor:
#      x y z
#    x 1.781530 0.000000 0.000000 
#    y 0.000000 1.898390 0.000000 
#    z 0.000000 0.000000 1.904210 
# 
# From -- ./inp_files/5800.got.cif
#   From: 2010.05.17/outbox.cif.g08.bks.cpg/sg36_3_cif.got.tgz:5800.got - 2010.06.03 17:41:39.
