data_PCOD9353738
_publ_section_title
;
Structure prediction by ZEFSAII (Michael W. Deem and Ramdas Pophale) SiO2 
 PCOD9353738
Probable space group: C C C 2
;
_chemical_formula_sum "Si O2"
_cell_formula_units_Z 64
_cell_length_a 16.089341
_cell_length_b 8.955665
_cell_length_c 22.601114
_cell_angle_alpha 90.000000
_cell_angle_beta 90.000000
_cell_angle_gamma 90.000000
_cell_volume 3256.611423
_symmetry_space_group_name_H-M "C C C 2"
_symmetry_group_IT_number 37
_symmetry_cell_setting 'orthorhombic'
loop_
_space_group_symop_operation_xyz
x,y,z
-x,-y,z
-x,y,1/2+z
x,-y,1/2+z
1/2+x,1/2+y,z
1/2-x,1/2-y,z
1/2-x,1/2+y,1/2+z
1/2+x,1/2-y,1/2+z
loop_
_atom_site_type_symbol
_atom_site_label
_atom_site_fract_x
_atom_site_fract_y
_atom_site_fract_z
Si Si1 0.340172 0.831868 0.967990
Si Si2 0.754565 0.414463 0.400813
Si Si3 0.669997 0.924078 0.772090
Si Si4 0.318462 0.883247 0.101715
Si Si5 0.199765 0.972059 0.678311
Si Si6 0.600133 0.748816 0.252053
Si Si7 0.424536 0.726118 0.194408
Si Si8 0.584664 0.404540 0.882121
O O1 0.250000 0.750000 0.966960
O O2 0.403855 0.729384 0.930547
O O3 0.320084 0.984810 0.935414
O O4 0.355929 0.869587 0.036418
O O5 0.750000 0.250000 0.427008
O O6 0.790774 0.407467 0.335352
O O7 0.664256 0.490643 0.395481
O O8 0.616058 0.780837 0.755865
O O9 0.743528 0.938164 0.724853
O O10 0.618383 0.078198 0.766124
O O11 0.250000 0.750000 0.107391
O O12 0.392528 0.850022 0.147692
O O13 0.260573 0.024338 0.120983
O O14 0.172225 0.823670 0.711957
O O15 0.116259 0.072266 0.671970
O O16 0.520047 0.726808 0.210704
O O17 0.592495 0.662809 0.315229
O O18 0.500000 0.500000 0.887172
#
# Coordination Sequence:
#
# PCOD9353738 Si02
#       8
#     8   8   8   8   8   8   8   8
#     4   9  19  40  64  85 116 164 211 252 303 368
#     4  11  22  38  60  86 118 157 204 249 303 369
#     4  11  21  35  53  81 117 157 190 234 303 368
#     4   8  17  37  62  84 114 159 206 246 293 361
#     4  10  19  34  59  83 114 149 198 240 289 358
#     4  12  22  34  53  90 123 150 190 249 315 360
#     4  10  21  36  54  86 115 153 190 242 298 358
#     4  11  23  38  58  89 124 155 199 258 317 366
#
# _framework density 19.652329000000002
#
# number of rings (size 3 to 8) (size 9 to 14) (size 15 to 20)
#    0.000    1.750    2.500    3.750    1.750    0.000 
#    0.000    8.125    0.000    3.000    0.000    0.000 
#    0.000    0.000    0.000    0.000    0.000    0.000 
#
# Total GULP energy -178385.607007 kJ/mol
# GULP energy per Si atom -5574.550219 kJ/mol
# Density = 1.960760 g / cm^3
# Si number density = 19.652329 Si / 1000 Ang^3
#
#
#
# Elastic Constant Matrix: (Units=GPa)
#
#
# Indices 1 2 3 4 5 6 
#
# 1 105.3146 40.3370 43.3037 0.0000 0.0000 0.0000
# 2 40.3370 76.3636 31.3313 0.0000 0.0000 0.0000
# 3 43.3037 31.3313 111.9507 0.0000 0.0000 0.0000
# 4 0.0000 0.0000 0.0000 16.5690 0.0000 0.0000
# 5 0.0000 0.0000 0.0000 0.0000 24.7649 0.0000
# 6 0.0000 0.0000 0.0000 0.0000 0.0000 30.7407
#
#
#
# Elastic Compliance Matrix: (Units=1/GPa)
#
#
# Indices 1 2 3 4 5 6 
#
# 1 0.013023 -0.005437 -0.003516 0.000000 0.000000 0.000000
# 2 -0.005437 0.017064 -0.002673 0.000000 0.000000 0.000000
# 3 -0.003516 -0.002673 0.011041 0.000000 0.000000 0.000000
# 4 0.000000 0.000000 0.000000 0.060354 0.000000 0.000000
# 5 0.000000 0.000000 0.000000 0.000000 0.040380 0.000000
# 6 0.000000 0.000000 0.000000 0.000000 0.000000 0.032530
#
#
# Mechanical properties :
#
#
# Convention : Reuss Voigt Hill
#
# Bulk Modulus (GPa) = 55.93806 58.17476 57.05641
# Shear Modulus (GPa) = 24.55792 26.32541 25.44167
#
# Velocity S-wave (km/s) = 3.53883 3.66397 3.60194
# Velocity P-wave (km/s) = 6.72483 6.89679 6.81136
#
# Compressibility (1/GPa) = 0.01787692
#
# Stress axis : x y z
#
# Youngs Moduli (GPa) = 76.78479 58.60454 90.57557
#
# Poissons Ratio (x) = 0.31861 0.31847
# Poissons Ratio (y) = 0.41745 0.24207
# Poissons Ratio (z) = 0.26998 0.15662
#
# Static dielectric constant tensor:
#      x y z
#    x 1.682250 0.000000 0.000000 
#    y 0.000000 1.762350 0.000000 
#    z 0.000000 0.000000 1.712190 
# 
# From -- ./inp_files/17343.got.cif
#   From: 2010.05.17/outbox.cif.g08.bks.cpg/sg37_9_cif.got.tgz:17343.got - 2010.06.03 17:53:42.
