data_PCOD9353295
_publ_section_title
;
Structure prediction by ZEFSAII (Michael W. Deem and Ramdas Pophale) SiO2 
 PCOD9353295
Probable space group: C M C 21
;
_chemical_formula_sum "Si O2"
_cell_formula_units_Z 64
_cell_length_a 20.997431
_cell_length_b 12.123183
_cell_length_c 9.282297
_cell_angle_alpha 90.000000
_cell_angle_beta 90.000000
_cell_angle_gamma 90.000000
_cell_volume 2362.861597
_symmetry_space_group_name_H-M "C M C 21"
_symmetry_group_IT_number 36
_symmetry_cell_setting 'orthorhombic'
loop_
_space_group_symop_operation_xyz
x,y,z
-x,-y,1/2+z
x,-y,1/2+z
-x,y,z
1/2+x,1/2+y,z
1/2-x,1/2-y,1/2+z
1/2+x,1/2-y,1/2+z
1/2-x,1/2+y,z
loop_
_atom_site_type_symbol
_atom_site_label
_atom_site_fract_x
_atom_site_fract_y
_atom_site_fract_z
Si Si1 0.260248 0.539108 0.528250
Si Si2 0.404841 0.144864 0.232482
Si Si3 0.423090 0.346664 0.604119
Si Si4 0.747447 0.851993 0.729922
Si Si5 0.571641 0.484897 0.354066
Si Si6 0.885699 0.836089 0.061087
Si Si7 0.382392 0.980830 0.986219
Si Si8 0.349891 0.183831 0.792494
O O1 0.264859 0.413430 0.581839
O O2 0.268512 0.566672 0.359843
O O3 0.317641 0.608121 0.599738
O O4 0.184546 0.564888 0.553683
O O5 0.327943 0.157574 0.235634
O O6 0.423338 0.265654 0.178553
O O7 0.422595 0.105393 0.391861
O O8 0.417603 0.052759 0.108148
O O9 0.500000 0.343915 0.602453
O O10 0.399054 0.383064 0.445381
O O11 0.396875 0.232650 0.670241
O O12 0.402728 0.442291 0.720540
O O13 0.782036 0.736699 0.753321
O O14 0.500000 0.456633 0.315178
O O15 0.571805 0.574703 0.481938
O O16 0.868730 0.749327 0.937661
O O17 0.357971 0.061827 0.855662
#
# Coordination Sequence:
#
# PCOD9353295 Si02
#       8
#     8   8   8   8   8   8   8   8
#     4   9  17  29  44  63  88 117 150 189 229 272
#     4   9  18  31  46  64  89 121 157 195 233 279
#     4   9  17  30  49  72  97 126 159 197 243 292
#     4   9  17  28  43  64  89 119 151 186 229 273
#     4   9  17  30  49  73  99 125 156 198 246 292
#     4   9  17  30  48  68  92 123 158 195 238 289
#     4   9  18  32  46  63  90 123 156 194 235 277
#     4   9  17  30  47  67  94 126 159 192 233 288
#
# _framework density 27.085799000000002
#
# number of rings (size 3 to 8) (size 9 to 14) (size 15 to 20)
#    0.000    3.000    0.000    0.750    0.000    3.000 
#    0.000    5.000    0.000    0.750    0.000    0.000 
#    0.000    0.000    0.000    0.000    0.000    0.000 
#
# Total GULP energy -178749.671516 kJ/mol
# GULP energy per Si atom -5585.927235 kJ/mol
# Density = 2.702415 g / cm^3
# Si number density = 27.085799 Si / 1000 Ang^3
#
#
#
# Elastic Constant Matrix: (Units=GPa)
#
#
# Indices 1 2 3 4 5 6 
#
# 1 91.8213 18.9014 12.0474 0.0000 0.0000 0.0000
# 2 18.9014 75.6183 54.4377 0.0000 0.0000 0.0000
# 3 12.0474 54.4377 132.7770 0.0000 0.0000 0.0000
# 4 0.0000 0.0000 0.0000 58.1899 0.0000 0.0000
# 5 0.0000 0.0000 0.0000 0.0000 11.4508 0.0000
# 6 0.0000 0.0000 0.0000 0.0000 0.0000 23.0483
#
#
#
# Elastic Compliance Matrix: (Units=1/GPa)
#
#
# Indices 1 2 3 4 5 6 
#
# 1 0.011485 -0.003009 0.000191 0.000000 0.000000 0.000000
# 2 -0.003009 0.019550 -0.007742 0.000000 0.000000 0.000000
# 3 0.000191 -0.007742 0.010688 0.000000 0.000000 0.000000
# 4 0.000000 0.000000 0.000000 0.017185 0.000000 0.000000
# 5 0.000000 0.000000 0.000000 0.000000 0.087330 0.000000
# 6 0.000000 0.000000 0.000000 0.000000 0.000000 0.043387
#
#
# Mechanical properties :
#
#
# Convention : Reuss Voigt Hill
#
# Bulk Modulus (GPa) = 48.53357 52.33217 50.43287
# Shear Modulus (GPa) = 22.97659 32.85981 27.91820
#
# Velocity S-wave (km/s) = 2.91570 3.48684 3.21398
# Velocity P-wave (km/s) = 5.41225 5.96436 5.69500
#
# Compressibility (1/GPa) = 0.02060429
#
# Stress axis : x y z
#
# Youngs Moduli (GPa) = 87.07075 51.15056 93.55933
#
# Poissons Ratio (x) = 0.15389 -0.01791
# Poissons Ratio (y) = 0.26196 0.72438
# Poissons Ratio (z) = -0.01667 0.39603
#
# Static dielectric constant tensor:
#      x y z
#    x 2.062000 0.000000 0.000000 
#    y 0.000000 2.183530 0.000000 
#    z 0.000000 0.000000 2.161720 
# 
# From -- ./inp_files/9657.got.cif
#   From: 2010.05.17/outbox.cif.g08.bks.cpg/sg36_5_cif.got.tgz:9657.got - 2010.06.03 17:41:39.
