data_PCOD9353985
_publ_section_title
;
Structure prediction by ZEFSAII (Michael W. Deem and Ramdas Pophale) SiO2 
 PCOD9353985
Probable space group: C C C 2
;
_chemical_formula_sum "Si O2"
_cell_formula_units_Z 52
_cell_length_a 13.926811
_cell_length_b 5.510975
_cell_length_c 28.225143
_cell_angle_alpha 90.000000
_cell_angle_beta 90.000000
_cell_angle_gamma 90.000000
_cell_volume 2166.288397
_symmetry_space_group_name_H-M "C C C 2"
_symmetry_group_IT_number 37
_symmetry_cell_setting 'orthorhombic'
loop_
_space_group_symop_operation_xyz
x,y,z
-x,-y,z
-x,y,1/2+z
x,-y,1/2+z
1/2+x,1/2+y,z
1/2-x,1/2-y,z
1/2-x,1/2+y,1/2+z
1/2+x,1/2-y,1/2+z
loop_
_atom_site_type_symbol
_atom_site_label
_atom_site_fract_x
_atom_site_fract_y
_atom_site_fract_z
Si Si1 0.607322 0.384537 0.378250
Si Si2 0.135578 0.989238 0.182016
Si Si3 0.352981 0.365590 0.284695
Si Si4 0.351298 0.004935 0.143456
Si Si5 0.116332 0.503137 0.535054
Si Si6 0.383363 0.498329 0.481740
Si Si7 0.000000 0.500000 0.830962
O O1 0.500000 0.500000 0.377198
O O2 0.661130 0.480088 0.332268
O O3 0.652009 0.458442 0.428005
O O4 0.580716 0.108281 0.366515
O O5 0.119897 0.985111 0.238091
O O6 0.248854 0.995864 0.169581
O O7 0.102281 0.243789 0.160005
O O8 0.098917 0.744406 0.158339
O O9 0.250000 0.250000 0.273585
O O10 0.439554 0.182014 0.297781
O O11 0.339011 0.998832 0.087137
O O12 0.141916 0.260560 0.505180
O O13 0.000000 0.500000 0.540557
O O14 0.141755 0.759124 0.510757
O O15 0.500000 0.500000 0.479311
#
# Coordination Sequence:
#
# PCOD9353985 Si02
#       7
#     8   8   8   8   8   8   4
#     4   9  21  38  64  99 132 173 226 279 337 417
#     4  10  22  39  65  85 116 182 218 265 349 402
#     4  11  23  43  68  98 137 179 233 284 352 424
#     4  10  20  39  60  87 118 161 228 262 326 403
#     4  10  20  35  60  93 125 165 216 274 330 400
#     4   9  19  34  62  91 128 171 213 264 341 401
#     4  10  24  40  68  98 136 180 234 282 342 422
#
# _framework density 24.004192
#
# number of rings (size 3 to 8) (size 9 to 14) (size 15 to 20)
#    0.000    2.154    1.538    0.923    9.692    0.615 
#    1.385    0.000   10.154    0.000    0.000    0.000 
#    0.000    0.000    0.000    0.000    0.000    0.000 
#
# Total GULP energy -145293.411070 kJ/mol
# GULP energy per Si atom -5588.208118 kJ/mol
# Density = 2.394956 g / cm^3
# Si number density = 24.004192 Si / 1000 Ang^3
#
#
#
# Elastic Constant Matrix: (Units=GPa)
#
#
# Indices 1 2 3 4 5 6 
#
# 1 96.8442 5.1505 4.5164 0.0000 0.0000 0.0000
# 2 5.1505 191.1666 89.1022 0.0000 0.0000 0.0000
# 3 4.5164 89.1022 226.8150 0.0000 0.0000 0.0000
# 4 0.0000 0.0000 0.0000 118.9849 0.0000 0.0000
# 5 0.0000 0.0000 0.0000 0.0000 31.7664 0.0000
# 6 0.0000 0.0000 0.0000 0.0000 0.0000 -18.9915
#
#
#
# Elastic Compliance Matrix: (Units=1/GPa)
#
#
# Indices 1 2 3 4 5 6 
#
# 1 0.010343 -0.000224 -0.000118 0.000000 0.000000 0.000000
# 2 -0.000224 0.006408 -0.002513 0.000000 0.000000 0.000000
# 3 -0.000118 -0.002513 0.005398 0.000000 0.000000 0.000000
# 4 0.000000 0.000000 0.000000 0.008404 0.000000 0.000000
# 5 0.000000 0.000000 0.000000 0.000000 0.031480 0.000000
# 6 0.000000 0.000000 0.000000 0.000000 0.000000 -0.052655
#
#
# Mechanical properties :
#
#
# Convention : Reuss Voigt Hill
#
# Bulk Modulus (GPa) = 60.82508 79.15155 69.98831
# Shear Modulus (GPa) = 243.08694 54.08909 148.58801
#
# Velocity S-wave (km/s) = 10.07414 4.75206 7.87625
# Velocity P-wave (km/s) = 12.67723 7.94702 10.57987
#
# Compressibility (1/GPa) = 0.01644059
#
# Stress axis : x y z
#
# Youngs Moduli (GPa) = 96.68124 156.04578 185.23841
#
# Poissons Ratio (x) = 0.03490 0.02188
# Poissons Ratio (y) = 0.02162 0.46551
# Poissons Ratio (z) = 0.01142 0.39215
#
# Static dielectric constant tensor:
#      x y z
#    x 1.919460 0.000000 0.000000 
#    y 0.000000 1.716380 0.000000 
#    z 0.000000 0.000000 1.848310 
# 
# From -- ./inp_files/19986.got.cif
#   From: 2010.05.17/outbox.cif.g08.bks.cpg/sg37_10_cif.got.tgz:19986.got - 2010.06.03 17:53:42.
