data_PCOD9353850
_publ_section_title
;
Structure prediction by ZEFSAII (Michael W. Deem and Ramdas Pophale) SiO2 
 PCOD9353850
Probable space group: C C C 2
;
_chemical_formula_sum "Si O2"
_cell_formula_units_Z 64
_cell_length_a 18.215860
_cell_length_b 8.681713
_cell_length_c 17.763600
_cell_angle_alpha 90.000000
_cell_angle_beta 90.000000
_cell_angle_gamma 90.000000
_cell_volume 2809.222187
_symmetry_space_group_name_H-M "C C C 2"
_symmetry_group_IT_number 37
_symmetry_cell_setting 'orthorhombic'
loop_
_space_group_symop_operation_xyz
x,y,z
-x,-y,z
-x,y,1/2+z
x,-y,1/2+z
1/2+x,1/2+y,z
1/2-x,1/2-y,z
1/2-x,1/2+y,1/2+z
1/2+x,1/2-y,1/2+z
loop_
_atom_site_type_symbol
_atom_site_label
_atom_site_fract_x
_atom_site_fract_y
_atom_site_fract_z
Si Si1 0.480141 0.818103 0.844490
Si Si2 0.820313 0.358234 0.839480
Si Si3 0.018281 0.155218 0.994990
Si Si4 0.679166 0.016210 0.499797
Si Si5 0.934518 0.122165 0.225831
Si Si6 0.320769 0.621370 0.458740
Si Si7 0.447169 0.122123 0.605403
Si Si8 0.280319 0.590337 0.281950
O O1 0.398384 0.799288 0.811210
O O2 0.478251 0.719268 0.921001
O O3 0.541218 0.736631 0.793492
O O4 0.500000 0.000000 0.855445
O O5 0.750000 0.250000 0.854985
O O6 0.786417 0.472707 0.778264
O O7 0.839363 0.440101 0.919108
O O8 0.094377 0.089568 0.962717
O O9 0.006310 0.300901 0.048162
O O10 0.000000 0.000000 0.040242
O O11 0.676762 0.201551 0.488282
O O12 0.768396 0.006738 0.506540
O O13 0.622944 0.949863 0.561151
O O14 0.922756 0.237646 0.156874
O O15 0.856753 0.045014 0.245200
O O16 0.000000 0.000000 0.217174
O O17 0.295618 0.610448 0.372013
O O18 0.500000 0.000000 0.647818
O O19 0.250000 0.750000 0.251413
#
# Coordination Sequence:
#
# PCOD9353850 Si02
#       8
#     8   8   8   8   8   8   8   8
#     4  12  23  41  71 103 134 183 239 288 348 425
#     4  11  22  35  63 108 138 162 217 296 346 400
#     4  12  24  38  67 104 141 177 227 298 353 413
#     4  10  20  38  66  98 134 173 219 280 353 421
#     4  12  27  46  66  95 138 187 234 291 357 426
#     4  10  19  38  69 105 132 167 224 292 357 407
#     4  12  25  45  66  95 137 187 238 286 346 438
#     4  11  21  40  68  96 134 175 219 285 352 418
#
# _framework density 22.782105999999999
#
# number of rings (size 3 to 8) (size 9 to 14) (size 15 to 20)
#    0.000    0.750    6.250    3.750    3.500    0.000 
#    0.000    3.125    0.000    1.500    0.000    0.000 
#    0.000    0.000    0.000    0.000    0.000    0.000 
#
# Total GULP energy -178334.258056 kJ/mol
# GULP energy per Si atom -5572.945564 kJ/mol
# Density = 2.273025 g / cm^3
# Si number density = 22.782106 Si / 1000 Ang^3
#
#
#
# Elastic Constant Matrix: (Units=GPa)
#
#
# Indices 1 2 3 4 5 6 
#
# 1 101.7061 13.9070 8.5863 0.0000 0.0000 0.0000
# 2 13.9070 85.3814 12.4150 0.0000 0.0000 0.0000
# 3 8.5863 12.4150 32.0548 0.0000 0.0000 0.0000
# 4 0.0000 0.0000 0.0000 5.7296 0.0000 0.0000
# 5 0.0000 0.0000 0.0000 0.0000 3.7725 0.0000
# 6 0.0000 0.0000 0.0000 0.0000 0.0000 26.6258
#
#
#
# Elastic Compliance Matrix: (Units=1/GPa)
#
#
# Indices 1 2 3 4 5 6 
#
# 1 0.010202 -0.001340 -0.002214 0.000000 0.000000 0.000000
# 2 -0.001340 0.012587 -0.004516 0.000000 0.000000 0.000000
# 3 -0.002214 -0.004516 0.033539 0.000000 0.000000 0.000000
# 4 0.000000 0.000000 0.000000 0.174533 0.000000 0.000000
# 5 0.000000 0.000000 0.000000 0.000000 0.265075 0.000000
# 6 0.000000 0.000000 0.000000 0.000000 0.000000 0.037557
#
#
# Mechanical properties :
#
#
# Convention : Reuss Voigt Hill
#
# Bulk Modulus (GPa) = 24.88286 32.10657 28.49472
# Shear Modulus (GPa) = 8.88052 19.50785 14.19419
#
# Velocity S-wave (km/s) = 1.97648 2.92940 2.49879
# Velocity P-wave (km/s) = 4.01926 5.05622 4.56726
#
# Compressibility (1/GPa) = 0.04018830
#
# Stress axis : x y z
#
# Youngs Moduli (GPa) = 98.01648 79.44666 29.81630
#
# Poissons Ratio (x) = 0.10645 0.06601
# Poissons Ratio (y) = 0.13133 0.13465
# Poissons Ratio (z) = 0.21700 0.35879
#
# Static dielectric constant tensor:
#      x y z
#    x 2.518470 0.000000 0.000000 
#    y 0.000000 1.825200 0.000000 
#    z 0.000000 0.000000 1.870150 
# 
# From -- ./inp_files/17337.got.cif
#   From: 2010.05.17/outbox.cif.g08.bks.cpg/sg37_9_cif.got.tgz:17337.got - 2010.06.03 17:53:42.
