data_PCOD9353930
_publ_section_title
;
Structure prediction by ZEFSAII (Michael W. Deem and Ramdas Pophale) SiO2 
 PCOD9353930
Probable space group: C C C 2
;
_chemical_formula_sum "Si O2"
_cell_formula_units_Z 48
_cell_length_a 8.931358
_cell_length_b 17.394106
_cell_length_c 15.486336
_cell_angle_alpha 90.000000
_cell_angle_beta 90.000000
_cell_angle_gamma 90.000000
_cell_volume 2405.848567
_symmetry_space_group_name_H-M "C C C 2"
_symmetry_group_IT_number 37
_symmetry_cell_setting 'orthorhombic'
loop_
_space_group_symop_operation_xyz
x,y,z
-x,-y,z
-x,y,1/2+z
x,-y,1/2+z
1/2+x,1/2+y,z
1/2-x,1/2-y,z
1/2-x,1/2+y,1/2+z
1/2+x,1/2-y,1/2+z
loop_
_atom_site_type_symbol
_atom_site_label
_atom_site_fract_x
_atom_site_fract_y
_atom_site_fract_z
Si Si1 0.340609 0.460406 0.445960
Si Si2 0.858150 0.812743 0.560609
Si Si3 0.098502 0.290127 0.151933
Si Si4 0.679687 0.504250 0.765977
Si Si5 0.343808 0.044823 0.091107
Si Si6 0.694331 0.167927 0.243469
O O1 0.500000 0.500000 0.434661
O O2 0.372108 0.382700 0.496991
O O3 0.278296 0.453023 0.349131
O O4 0.239035 0.513202 0.506989
O O5 0.750000 0.750000 0.518177
O O6 0.769077 0.837245 0.647561
O O7 0.007673 0.772847 0.595795
O O8 0.250000 0.250000 0.184344
O O9 0.133720 0.363880 0.092992
O O10 0.982304 0.321637 0.224560
O O11 0.500000 0.500000 0.753430
O O12 0.751960 0.475784 0.677421
O O13 0.744158 0.590180 0.786036
O O14 0.500000 0.000000 0.097481
O O15 0.750000 0.250000 0.280945
#
# Coordination Sequence:
#
# PCOD9353930 Si02
#       6
#     8   8   8   8   8   8
#     4  11  23  40  65  93 124 171 219 264 326 397
#     4   9  18  38  63  88 120 167 209 256 324 392
#     4  10  20  33  62  96 121 161 215 262 330 386
#     4  11  24  40  63  96 128 173 228 270 332 407
#     4  12  22  40  64  93 131 168 213 280 328 391
#     4   9  19  38  62  89 121 169 210 261 328 387
#
# _framework density 19.95138
#
# number of rings (size 3 to 8) (size 9 to 14) (size 15 to 20)
#    0.000    2.000    3.333    2.500    4.667    0.667 
#    0.000    5.000    0.000    0.000    0.000    0.000 
#    0.000    0.000    0.000    0.000    0.000    0.000 
#
# Total GULP energy -133901.763043 kJ/mol
# GULP energy per Si atom -5579.240127 kJ/mol
# Density = 1.990597 g / cm^3
# Si number density = 19.951380 Si / 1000 Ang^3
#
#
#
# Elastic Constant Matrix: (Units=GPa)
#
#
# Indices 1 2 3 4 5 6 
#
# 1 131.4045 26.9823 29.1518 0.0000 0.0000 0.0000
# 2 26.9823 69.9407 -9.0303 0.0000 0.0000 0.0000
# 3 29.1518 -9.0303 68.3713 0.0000 0.0000 0.0000
# 4 0.0000 0.0000 0.0000 -39.8743 0.0000 0.0000
# 5 0.0000 0.0000 0.0000 0.0000 -42.9974 0.0000
# 6 0.0000 0.0000 0.0000 0.0000 0.0000 28.2433
#
#
#
# Elastic Compliance Matrix: (Units=1/GPa)
#
#
# Indices 1 2 3 4 5 6 
#
# 1 0.009511 -0.004265 -0.004618 0.000000 0.000000 0.000000
# 2 -0.004265 0.016459 0.003992 0.000000 0.000000 0.000000
# 3 -0.004618 0.003992 0.017123 0.000000 0.000000 0.000000
# 4 0.000000 0.000000 0.000000 -0.025079 0.000000 0.000000
# 5 0.000000 0.000000 0.000000 0.000000 -0.023257 0.000000
# 6 0.000000 0.000000 0.000000 0.000000 0.000000 0.035407
#
#
# Mechanical properties :
#
#
# Convention : Reuss Voigt Hill
#
# Bulk Modulus (GPa) = 30.02164 40.43601 35.22882
# Shear Modulus (GPa) = 97.94684 3.91516 50.93100
#
# Velocity S-wave (km/s) = 7.01422 1.40236 5.05796
# Velocity P-wave (km/s) = 8.98216 4.78889 7.19766
#
# Compressibility (1/GPa) = 0.03330931
#
# Stress axis : x y z
#
# Youngs Moduli (GPa) = 105.14689 60.75768 58.40267
#
# Poissons Ratio (x) = 0.25915 0.26973
# Poissons Ratio (y) = 0.44849 -0.23317
# Poissons Ratio (z) = 0.48561 -0.24257
#
# Static dielectric constant tensor:
#      x y z
#    x 1.790430 0.000000 0.000000 
#    y 0.000000 1.838860 0.000000 
#    z 0.000000 0.000000 1.686590 
# 
# From -- ./inp_files/10699.got.cif
#   From: 2010.05.17/outbox.cif.g08.bks.cpg/sg37_6_cif.got.tgz:10699.got - 2010.06.03 17:53:42.
