data_PCOD9353182
_publ_section_title
;
Structure prediction by ZEFSAII (Michael W. Deem and Ramdas Pophale) SiO2 
 PCOD9353182
Probable space group: C M C 21
;
_chemical_formula_sum "Si O2"
_cell_formula_units_Z 32
_cell_length_a 12.085586
_cell_length_b 13.459139
_cell_length_c 9.858627
_cell_angle_alpha 90.000000
_cell_angle_beta 90.000000
_cell_angle_gamma 90.000000
_cell_volume 1603.619863
_symmetry_space_group_name_H-M "C M C 21"
_symmetry_group_IT_number 36
_symmetry_cell_setting 'orthorhombic'
loop_
_space_group_symop_operation_xyz
x,y,z
-x,-y,1/2+z
x,-y,1/2+z
-x,y,z
1/2+x,1/2+y,z
1/2-x,1/2-y,1/2+z
1/2+x,1/2-y,1/2+z
1/2-x,1/2+y,z
loop_
_atom_site_type_symbol
_atom_site_label
_atom_site_fract_x
_atom_site_fract_y
_atom_site_fract_z
Si Si1 0.741789 0.678448 0.402080
Si Si2 0.127689 0.986887 0.325427
Si Si3 0.229008 0.497616 0.069886
Si Si4 0.628253 0.199475 0.139385
O O1 0.647025 0.606793 0.337133
O O2 0.814696 0.596069 0.484271
O O3 0.686747 0.749295 0.511466
O O4 0.810596 0.725083 0.280231
O O5 0.183624 0.951604 0.465316
O O6 0.000000 0.961583 0.313111
O O7 0.199981 0.957354 0.195980
O O8 0.144870 0.580517 0.119834
O O9 0.500000 0.225918 0.144025
#
# Coordination Sequence:
#
# PCOD9353182 Si02
#       4
#     8   8   8   8
#     4   9  23  39  59  93 124 156 212 254 291 379
#     4   9  17  34  59  85 119 159 194 248 303 344
#     4   9  21  37  56  90 122 155 205 249 291 374
#     4  11  23  42  66  88 125 166 199 255 313 355
#
# _framework density 19.954853
#
# number of rings (size 3 to 8) (size 9 to 14) (size 15 to 20)
#    1.500    1.000    0.000    1.500    3.500    1.000 
#    0.000    6.250    0.000    0.000    0.000    0.000 
#    0.000    0.000    0.000    0.000    0.000    0.000 
#
# Total GULP energy -89090.024392 kJ/mol
# GULP energy per Si atom -5568.126524 kJ/mol
# Density = 1.990943 g / cm^3
# Si number density = 19.954853 Si / 1000 Ang^3
#
#
#
# Elastic Constant Matrix: (Units=GPa)
#
#
# Indices 1 2 3 4 5 6 
#
# 1 77.3569 28.3172 53.6788 0.0000 0.0000 0.0000
# 2 28.3172 53.7610 24.2626 0.0000 0.0000 0.0000
# 3 53.6788 24.2626 128.1237 0.0000 0.0000 0.0000
# 4 0.0000 0.0000 0.0000 44.1389 0.0000 0.0000
# 5 0.0000 0.0000 0.0000 0.0000 14.6926 0.0000
# 6 0.0000 0.0000 0.0000 0.0000 0.0000 10.6053
#
#
#
# Elastic Compliance Matrix: (Units=1/GPa)
#
#
# Indices 1 2 3 4 5 6 
#
# 1 0.020762 -0.007665 -0.007247 0.000000 0.000000 0.000000
# 2 -0.007665 0.023169 -0.001176 0.000000 0.000000 0.000000
# 3 -0.007247 -0.001176 0.011064 0.000000 0.000000 0.000000
# 4 0.000000 0.000000 0.000000 0.022656 0.000000 0.000000
# 5 0.000000 0.000000 0.000000 0.000000 0.068062 0.000000
# 6 0.000000 0.000000 0.000000 0.000000 0.000000 0.094293
#
#
# Mechanical properties :
#
#
# Convention : Reuss Voigt Hill
#
# Bulk Modulus (GPa) = 43.82422 52.41764 48.12093
# Shear Modulus (GPa) = 17.87078 24.08622 20.97850
#
# Velocity S-wave (km/s) = 2.99584 3.47801 3.24589
# Velocity P-wave (km/s) = 5.82890 6.51566 6.18183
#
# Compressibility (1/GPa) = 0.02281843
#
# Stress axis : x y z
#
# Youngs Moduli (GPa) = 48.16590 43.16113 90.38503
#
# Poissons Ratio (x) = 0.33083 0.65500
# Poissons Ratio (y) = 0.36920 0.10630
# Poissons Ratio (z) = 0.34905 0.05076
#
# Static dielectric constant tensor:
#      x y z
#    x 1.640580 0.000000 0.000000 
#    y 0.000000 1.773490 0.000000 
#    z 0.000000 0.000000 1.713010 
# 
# From -- ./inp_files/2920.got.cif
#   From: 2010.05.17/outbox.cif.g08.bks.cpg/sg36_2_cif.got.tgz:2920.got - 2010.06.03 17:41:39.
