data_PCOD9353769
_publ_section_title
;
Structure prediction by ZEFSAII (Michael W. Deem and Ramdas Pophale) SiO2 
 PCOD9353769
Probable space group: C C C 2
;
_chemical_formula_sum "Si O2"
_cell_formula_units_Z 48
_cell_length_a 18.069742
_cell_length_b 7.595348
_cell_length_c 15.164674
_cell_angle_alpha 90.000000
_cell_angle_beta 90.000000
_cell_angle_gamma 90.000000
_cell_volume 2081.290526
_symmetry_space_group_name_H-M "C C C 2"
_symmetry_group_IT_number 37
_symmetry_cell_setting 'orthorhombic'
loop_
_space_group_symop_operation_xyz
x,y,z
-x,-y,z
-x,y,1/2+z
x,-y,1/2+z
1/2+x,1/2+y,z
1/2-x,1/2-y,z
1/2-x,1/2+y,1/2+z
1/2+x,1/2-y,1/2+z
loop_
_atom_site_type_symbol
_atom_site_label
_atom_site_fract_x
_atom_site_fract_y
_atom_site_fract_z
Si Si1 0.467281 0.193308 0.169620
Si Si2 0.054869 0.848553 0.851302
Si Si3 0.274775 0.540209 0.988454
Si Si4 0.822348 0.496543 0.640370
Si Si5 0.584465 0.704370 0.541891
Si Si6 0.218245 0.948537 0.796008
O O1 0.483793 0.254158 0.268865
O O2 0.507588 0.308635 0.094876
O O3 0.500000 0.000000 0.156089
O O4 0.620216 0.842912 0.163845
O O5 0.129488 0.930133 0.807344
O O6 0.072073 0.734241 0.939411
O O7 0.000000 0.000000 0.883602
O O8 0.250000 0.750000 0.987460
O O9 0.224460 0.442048 0.056603
O O10 0.359516 0.543575 0.022057
O O11 0.261359 0.473231 0.890772
O O12 0.868459 0.665678 0.605823
O O13 0.762803 0.537890 0.716656
O O14 0.250000 0.750000 0.792746
#
# Coordination Sequence:
#
# PCOD9353769 Si02
#       6
#     8   8   8   8   8   8
#     4  10  22  39  63  96 129 175 222 275 335 401
#     4  11  24  42  67  96 135 177 222 285 339 408
#     4   8  17  34  60  83 118 166 209 264 322 391
#     4  10  19  35  64  95 123 172 220 270 335 405
#     4   9  21  41  59  92 131 177 217 269 343 398
#     4  10  19  38  62  92 130 171 221 276 343 397
#
# _framework density 23.062612999999999
#
# number of rings (size 3 to 8) (size 9 to 14) (size 15 to 20)
#    0.000    2.333    1.667    1.000    2.333    2.667 
#    6.000    0.000    0.000    3.000    0.000    0.000 
#    0.000    0.000    0.000    0.000    0.000    0.000 
#
# Total GULP energy -133695.436369 kJ/mol
# GULP energy per Si atom -5570.643182 kJ/mol
# Density = 2.301012 g / cm^3
# Si number density = 23.062613 Si / 1000 Ang^3
#
#
#
# Elastic Constant Matrix: (Units=GPa)
#
#
# Indices 1 2 3 4 5 6 
#
# 1 101.2692 13.0377 36.3711 0.0000 0.0000 0.0000
# 2 13.0377 50.6108 25.2870 0.0000 0.0000 0.0000
# 3 36.3711 25.2870 139.8089 0.0000 0.0000 0.0000
# 4 0.0000 0.0000 0.0000 34.7553 0.0000 0.0000
# 5 0.0000 0.0000 0.0000 0.0000 44.7378 0.0000
# 6 0.0000 0.0000 0.0000 0.0000 0.0000 22.3266
#
#
#
# Elastic Compliance Matrix: (Units=1/GPa)
#
#
# Indices 1 2 3 4 5 6 
#
# 1 0.011001 -0.001544 -0.002583 0.000000 0.000000 0.000000
# 2 -0.001544 0.021938 -0.003566 0.000000 0.000000 0.000000
# 3 -0.002583 -0.003566 0.008470 0.000000 0.000000 0.000000
# 4 0.000000 0.000000 0.000000 0.028773 0.000000 0.000000
# 5 0.000000 0.000000 0.000000 0.000000 0.022352 0.000000
# 6 0.000000 0.000000 0.000000 0.000000 0.000000 0.044790
#
#
# Mechanical properties :
#
#
# Convention : Reuss Voigt Hill
#
# Bulk Modulus (GPa) = 38.42685 49.00894 43.71789
# Shear Modulus (GPa) = 30.98221 34.83016 32.90618
#
# Velocity S-wave (km/s) = 3.66921 3.89040 3.78142
# Velocity P-wave (km/s) = 5.88634 6.44025 6.16951
#
# Compressibility (1/GPa) = 0.02602347
#
# Stress axis : x y z
#
# Youngs Moduli (GPa) = 90.90100 45.58271 118.07001
#
# Poissons Ratio (x) = 0.07036 0.30494
# Poissons Ratio (y) = 0.14031 0.42108
# Poissons Ratio (z) = 0.23477 0.16256
#
# Static dielectric constant tensor:
#      x y z
#    x 1.978770 0.000000 0.000000 
#    y 0.000000 1.857140 0.000000 
#    z 0.000000 0.000000 1.911540 
# 
# From -- ./inp_files/12835.got.cif
#   From: 2010.05.17/outbox.cif.g08.bks.cpg/sg37_7_cif.got.tgz:12835.got - 2010.06.03 17:53:42.
