data_PCOD9353841
_publ_section_title
;
Structure prediction by ZEFSAII (Michael W. Deem and Ramdas Pophale) SiO2 
 PCOD9353841
Probable space group: C C C 2
;
_chemical_formula_sum "Si O2"
_cell_formula_units_Z 64
_cell_length_a 9.157704
_cell_length_b 17.402092
_cell_length_c 18.807682
_cell_angle_alpha 90.000000
_cell_angle_beta 90.000000
_cell_angle_gamma 90.000000
_cell_volume 2997.252529
_symmetry_space_group_name_H-M "C C C 2"
_symmetry_group_IT_number 37
_symmetry_cell_setting 'orthorhombic'
loop_
_space_group_symop_operation_xyz
x,y,z
-x,-y,z
-x,y,1/2+z
x,-y,1/2+z
1/2+x,1/2+y,z
1/2-x,1/2-y,z
1/2-x,1/2+y,1/2+z
1/2+x,1/2-y,1/2+z
loop_
_atom_site_type_symbol
_atom_site_label
_atom_site_fract_x
_atom_site_fract_y
_atom_site_fract_z
Si Si1 0.491822 0.630071 0.685710
Si Si2 0.198427 0.335949 0.899083
Si Si3 0.656295 0.170706 0.907379
Si Si4 0.775081 0.587023 0.758632
Si Si5 0.023632 0.687221 0.697164
Si Si6 0.110620 0.706962 0.056182
Si Si7 0.242705 0.416140 0.273534
Si Si8 0.145128 0.181100 0.046215
O O1 0.656265 0.602529 0.697342
O O2 0.485412 0.721288 0.701918
O O3 0.406497 0.583763 0.745965
O O4 0.412781 0.625300 0.608610
O O5 0.250000 0.250000 0.881401
O O6 0.265893 0.392687 0.840164
O O7 0.020779 0.332960 0.897280
O O8 0.266525 0.350785 0.978247
O O9 0.750000 0.250000 0.893411
O O10 0.721872 0.108370 0.854395
O O11 0.670435 0.157377 0.991599
O O12 0.902427 0.647079 0.744479
O O13 0.823134 0.498938 0.757367
O O14 0.981497 0.665655 0.616527
O O15 0.170878 0.650999 0.725946
O O16 0.250000 0.750000 0.089745
O O17 0.001550 0.771991 0.024022
O O18 0.250000 0.250000 0.076055
#
# Coordination Sequence:
#
# PCOD9353841 Si02
#       8
#     8   8   8   8   8   8   8   8
#     4  11  23  42  68  97 126 172 226 270 328 396
#     4  11  22  40  67  98 126 173 222 275 327 393
#     4  11  23  40  66  98 132 169 225 274 329 391
#     4  12  26  42  63  98 138 177 215 270 333 392
#     4  11  21  41  69  95 125 172 227 272 326 389
#     4  10  20  36  61  99 128 160 217 290 329 376
#     4  12  26  41  62  96 139 175 214 274 330 390
#     4  10  19  38  64 100 127 163 220 285 332 381
#
# _framework density 21.352889000000001
#
# number of rings (size 3 to 8) (size 9 to 14) (size 15 to 20)
#    0.000    1.000    3.750    6.000    1.750    0.000 
#    0.000    1.250    2.750    4.500    0.000    0.000 
#    0.000    0.000    0.000    0.000    0.000    0.000 
#
# Total GULP energy -178459.358383 kJ/mol
# GULP energy per Si atom -5576.854949 kJ/mol
# Density = 2.130429 g / cm^3
# Si number density = 21.352889 Si / 1000 Ang^3
#
#
#
# Elastic Constant Matrix: (Units=GPa)
#
#
# Indices 1 2 3 4 5 6 
#
# 1 69.5503 0.0969 5.2718 0.0000 0.0000 0.0000
# 2 0.0969 58.9874 28.1842 0.0000 0.0000 0.0000
# 3 5.2718 28.1842 118.5204 0.0000 0.0000 0.0000
# 4 0.0000 0.0000 0.0000 -1.0136 0.0000 0.0000
# 5 0.0000 0.0000 0.0000 0.0000 27.3965 0.0000
# 6 0.0000 0.0000 0.0000 0.0000 0.0000 6.3713
#
#
#
# Elastic Compliance Matrix: (Units=1/GPa)
#
#
# Indices 1 2 3 4 5 6 
#
# 1 0.014432 0.000319 -0.000718 0.000000 0.000000 0.000000
# 2 0.000319 0.019133 -0.004564 0.000000 0.000000 0.000000
# 3 -0.000718 -0.004564 0.009555 0.000000 0.000000 0.000000
# 4 0.000000 0.000000 0.000000 -0.986595 0.000000 0.000000
# 5 0.000000 0.000000 0.000000 0.000000 0.036501 0.000000
# 6 0.000000 0.000000 0.000000 0.000000 0.000000 0.156954
#
#
# Mechanical properties :
#
#
# Convention : Reuss Voigt Hill
#
# Bulk Modulus (GPa) = 30.12555 34.90710 32.51632
# Shear Modulus (GPa) = -6.85842 20.78452 6.96305
#
# Velocity S-wave (km/s) = -1.79413 3.12329 1.80777
# Velocity P-wave (km/s) = 3.13802 5.42124 4.42928
#
# Compressibility (1/GPa) = 0.03319441
#
# Stress axis : x y z
#
# Youngs Moduli (GPa) = 69.29026 52.26591 104.66136
#
# Poissons Ratio (x) = -0.01669 0.07513
# Poissons Ratio (y) = -0.02212 0.47768
# Poissons Ratio (z) = 0.04974 0.23854
#
# Static dielectric constant tensor:
#      x y z
#    x 1.837800 0.000000 0.000000 
#    y 0.000000 1.752380 0.000000 
#    z 0.000000 0.000000 1.854080 
# 
# From -- ./inp_files/16523.got.cif
#   From: 2010.05.17/outbox.cif.g08.bks.cpg/sg37_9_cif.got.tgz:16523.got - 2010.06.03 17:53:42.
