data_PCOD9353453
_publ_section_title
;
Structure prediction by ZEFSAII (Michael W. Deem and Ramdas Pophale) SiO2 
 PCOD9353453
Probable space group: C C C 2
;
_chemical_formula_sum "Si O2"
_cell_formula_units_Z 64
_cell_length_a 25.810943
_cell_length_b 27.392620
_cell_length_c 5.212999
_cell_angle_alpha 90.000000
_cell_angle_beta 90.000000
_cell_angle_gamma 90.000000
_cell_volume 3685.743312
_symmetry_space_group_name_H-M "C C C 2"
_symmetry_group_IT_number 37
_symmetry_cell_setting 'orthorhombic'
loop_
_space_group_symop_operation_xyz
x,y,z
-x,-y,z
-x,y,1/2+z
x,-y,1/2+z
1/2+x,1/2+y,z
1/2-x,1/2-y,z
1/2-x,1/2+y,1/2+z
1/2+x,1/2-y,1/2+z
loop_
_atom_site_type_symbol
_atom_site_label
_atom_site_fract_x
_atom_site_fract_y
_atom_site_fract_z
Si Si1 0.027646 0.325539 0.470360
Si Si2 0.468855 0.293215 0.486490
Si Si3 0.357757 0.967933 0.567087
Si Si4 0.190986 0.367344 0.168384
Si Si5 0.523206 0.055079 0.663682
Si Si6 0.284479 0.700659 0.538095
Si Si7 0.350830 0.286408 0.551039
Si Si8 0.860847 0.328498 0.169028
O O1 0.031423 0.266051 0.480026
O O2 0.081368 0.343351 0.590256
O O3 0.981750 0.336431 0.672073
O O4 0.505550 0.309111 0.719984
O O5 0.408991 0.307033 0.529214
O O6 0.317912 0.924481 0.620260
O O7 0.416691 0.947791 0.597543
O O8 0.352698 0.990844 0.285707
O O9 0.246128 0.343731 0.103862
O O10 0.175954 0.354372 0.459961
O O11 0.152705 0.341891 0.960041
O O12 0.489108 0.077494 0.438113
O O13 0.500000 0.000000 0.695561
O O14 0.250000 0.750000 0.504347
O O15 0.316416 0.691227 0.278886
O O16 0.322286 0.709511 0.778601
O O17 0.354802 0.229239 0.626796
#
# Coordination Sequence:
#
# PCOD9353453 Si02
#       8
#     8   8   8   8   8   8   8   8
#     4   9  17  29  46  60  93 130 160 206 260 317
#     4   9  17  29  46  73  96 131 177 210 242 307
#     4  12  23  40  58  75  98 131 171 222 288 334
#     4  12  25  36  54  78 101 130 175 229 265 324
#     4  10  16  32  58  75  89 119 166 222 280 345
#     4  12  21  36  54  78 106 139 182 222 266 316
#     4  11  20  33  57  75 103 147 175 212 273 309
#     4  11  20  36  50  73 101 131 172 214 270 320
#
# _framework density 17.364203
#
# number of rings (size 3 to 8) (size 9 to 14) (size 15 to 20)
#    0.000    1.250    5.000    3.375    0.000    4.000 
#    0.000    3.750    0.000    0.000    0.000    0.000 
#    0.000    0.000    0.000    0.000    0.000   43.750 
#
# Total GULP energy -178854.811803 kJ/mol
# GULP energy per Si atom -5589.212869 kJ/mol
# Density = 1.732468 g / cm^3
# Si number density = 17.364203 Si / 1000 Ang^3
#
#
#
# Elastic Constant Matrix: (Units=GPa)
#
#
# Indices 1 2 3 4 5 6 
#
# 1 83.5974 13.2398 13.6077 0.0000 0.0000 0.0000
# 2 13.2398 29.8462 -12.1993 0.0000 0.0000 0.0000
# 3 13.6077 -12.1993 73.7028 0.0000 0.0000 0.0000
# 4 0.0000 0.0000 0.0000 18.4004 0.0000 0.0000
# 5 0.0000 0.0000 0.0000 0.0000 29.0362 0.0000
# 6 0.0000 0.0000 0.0000 0.0000 0.0000 20.3630
#
#
#
# Elastic Compliance Matrix: (Units=1/GPa)
#
#
# Indices 1 2 3 4 5 6 
#
# 1 0.013801 -0.007683 -0.003820 0.000000 0.000000 0.000000
# 2 -0.007683 0.040214 0.008075 0.000000 0.000000 0.000000
# 3 -0.003820 0.008075 0.015610 0.000000 0.000000 0.000000
# 4 0.000000 0.000000 0.000000 0.054347 0.000000 0.000000
# 5 0.000000 0.000000 0.000000 0.000000 0.034440 0.000000
# 6 0.000000 0.000000 0.000000 0.000000 0.000000 0.049109
#
#
# Mechanical properties :
#
#
# Convention : Reuss Voigt Hill
#
# Bulk Modulus (GPa) = 15.93172 24.04920 19.99046
# Shear Modulus (GPa) = 21.24957 25.05978 23.15467
#
# Velocity S-wave (km/s) = 3.50202 3.80305 3.65563
# Velocity P-wave (km/s) = 5.05442 5.75884 5.41809
#
# Compressibility (1/GPa) = 0.06276786
#
# Stress axis : x y z
#
# Youngs Moduli (GPa) = 72.46005 24.86701 64.06238
#
# Poissons Ratio (x) = 0.19106 0.24470
# Poissons Ratio (y) = 0.55673 -0.51729
# Poissons Ratio (z) = 0.27678 -0.20080
#
# Static dielectric constant tensor:
#      x y z
#    x 1.595140 0.000000 0.000000 
#    y 0.000000 1.287580 0.000000 
#    z 0.000000 0.000000 1.618080 
# 
# From -- ./inp_files/1100.got.cif
#   From: 2010.05.17/outbox.cif.g08.bks.cpg/sg37_1_cif.got.tgz:1100.got - 2010.06.03 17:53:42.
