data_PCOD9353476
_publ_section_title
;
Structure prediction by ZEFSAII (Michael W. Deem and Ramdas Pophale) SiO2 
 PCOD9353476
Probable space group: C C C 2
;
_chemical_formula_sum "Si O2"
_cell_formula_units_Z 56
_cell_length_a 14.777751
_cell_length_b 26.118199
_cell_length_c 5.471524
_cell_angle_alpha 90.000000
_cell_angle_beta 90.000000
_cell_angle_gamma 90.000000
_cell_volume 2111.834496
_symmetry_space_group_name_H-M "C C C 2"
_symmetry_group_IT_number 37
_symmetry_cell_setting 'orthorhombic'
loop_
_space_group_symop_operation_xyz
x,y,z
-x,-y,z
-x,y,1/2+z
x,-y,1/2+z
1/2+x,1/2+y,z
1/2-x,1/2-y,z
1/2-x,1/2+y,1/2+z
1/2+x,1/2-y,1/2+z
loop_
_atom_site_type_symbol
_atom_site_label
_atom_site_fract_x
_atom_site_fract_y
_atom_site_fract_z
Si Si1 0.331084 0.518654 0.205810
Si Si2 0.056143 0.736346 0.523829
Si Si3 0.008539 0.105543 0.006782
Si Si4 0.187800 0.136198 0.539686
Si Si5 0.188976 0.825949 0.533591
Si Si6 0.869222 0.517749 0.839013
Si Si7 0.054158 0.383201 0.018094
O O1 0.371362 0.512996 0.479257
O O2 0.313383 0.576116 0.106269
O O3 0.230656 0.498099 0.273213
O O4 0.146143 0.769983 0.553853
O O5 0.078968 0.676336 0.514299
O O6 0.994290 0.746911 0.764659
O O7 0.921907 0.144592 0.009872
O O8 0.000865 0.075934 0.256939
O O9 0.100818 0.136567 0.008290
O O10 0.231795 0.153619 0.284819
O O11 0.230734 0.166299 0.766158
O O12 0.909966 0.514631 0.564766
O O13 0.870778 0.575222 0.944317
O O14 0.983444 0.391315 0.792394
#
# Coordination Sequence:
#
# PCOD9353476 Si02
#       7
#     8   8   8   8   8   8   8
#     4  10  21  37  54  73  97 132 180 227 267 308
#     4  10  18  30  48  76 111 140 168 204 254 314
#     4   8  14  23  39  62  88 117 153 196 241 286
#     4  10  18  29  49  72  96 129 176 220 255 302
#     4  10  17  28  48  73 101 134 170 210 255 308
#     4  10  21  37  57  78 103 139 178 214 260 317
#     4  10  21  34  53  84 114 138 165 207 264 317
#
# _framework density 26.517230000000001
#
# number of rings (size 3 to 8) (size 9 to 14) (size 15 to 20)
#    0.000    2.286    0.000    5.143    0.000    1.714 
#    0.000    0.000    0.000   24.000    0.000    2.000 
#    0.000    0.000    0.000    0.000    0.000    0.000 
#
# Total GULP energy -156370.197128 kJ/mol
# GULP energy per Si atom -5584.649897 kJ/mol
# Density = 2.645688 g / cm^3
# Si number density = 26.517230 Si / 1000 Ang^3
#
#
#
# Elastic Constant Matrix: (Units=GPa)
#
#
# Indices 1 2 3 4 5 6 
#
# 1 49.0589 -0.7469 18.7591 0.0000 0.0000 0.0000
# 2 -0.7469 140.3627 72.9941 0.0000 0.0000 0.0000
# 3 18.7591 72.9941 316.6246 0.0000 0.0000 0.0000
# 4 0.0000 0.0000 0.0000 46.4843 0.0000 0.0000
# 5 0.0000 0.0000 0.0000 0.0000 26.0149 0.0000
# 6 0.0000 0.0000 0.0000 0.0000 0.0000 15.4989
#
#
#
# Elastic Compliance Matrix: (Units=1/GPa)
#
#
# Indices 1 2 3 4 5 6 
#
# 1 0.020947 0.000860 -0.001439 0.000000 0.000000 0.000000
# 2 0.000860 0.008130 -0.001925 0.000000 0.000000 0.000000
# 3 -0.001439 -0.001925 0.003687 0.000000 0.000000 0.000000
# 4 0.000000 0.000000 0.000000 0.021513 0.000000 0.000000
# 5 0.000000 0.000000 0.000000 0.000000 0.038440 0.000000
# 6 0.000000 0.000000 0.000000 0.000000 0.000000 0.064521
#
#
# Mechanical properties :
#
#
# Convention : Reuss Voigt Hill
#
# Bulk Modulus (GPa) = 36.02888 76.45100 56.23994
# Shear Modulus (GPa) = 29.15472 45.26894 37.21183
#
# Velocity S-wave (km/s) = 3.31941 4.13625 3.75014
# Velocity P-wave (km/s) = 5.32051 7.19060 6.32505
#
# Compressibility (1/GPa) = 0.02775551
#
# Stress axis : x y z
#
# Youngs Moduli (GPa) = 47.73924 122.99835 271.19100
#
# Poissons Ratio (x) = -0.10577 0.39033
# Poissons Ratio (y) = -0.04105 0.52212
# Poissons Ratio (z) = 0.06871 0.23681
#
# Static dielectric constant tensor:
#      x y z
#    x 2.178750 0.000000 0.000000 
#    y 0.000000 2.032180 0.000000 
#    z 0.000000 0.000000 2.186480 
# 
# From -- ./inp_files/1045.got.cif
#   From: 2010.05.17/outbox.cif.g08.bks.cpg/sg37_1_cif.got.tgz:1045.got - 2010.06.03 17:53:42.
