data_PCOD9353594
_publ_section_title
;
Structure prediction by ZEFSAII (Michael W. Deem and Ramdas Pophale) SiO2 
 PCOD9353594
Probable space group: C C C 2
;
_chemical_formula_sum "Si O2"
_cell_formula_units_Z 56
_cell_length_a 11.290706
_cell_length_b 13.724687
_cell_length_c 18.678065
_cell_angle_alpha 90.000000
_cell_angle_beta 90.000000
_cell_angle_gamma 90.000000
_cell_volume 2894.379211
_symmetry_space_group_name_H-M "C C C 2"
_symmetry_group_IT_number 37
_symmetry_cell_setting 'orthorhombic'
loop_
_space_group_symop_operation_xyz
x,y,z
-x,-y,z
-x,y,1/2+z
x,-y,1/2+z
1/2+x,1/2+y,z
1/2-x,1/2-y,z
1/2-x,1/2+y,1/2+z
1/2+x,1/2-y,1/2+z
loop_
_atom_site_type_symbol
_atom_site_label
_atom_site_fract_x
_atom_site_fract_y
_atom_site_fract_z
Si Si1 0.539945 0.896527 0.151520
Si Si2 0.639495 0.484034 0.989876
Si Si3 0.796757 0.357836 0.096279
Si Si4 0.634995 0.458511 0.829314
Si Si5 0.280674 0.361899 0.079143
Si Si6 0.437671 0.316308 0.211257
Si Si7 0.708157 0.645456 0.753755
O O1 0.438998 0.869696 0.091985
O O2 0.665606 0.912149 0.113339
O O3 0.561835 0.801004 0.200945
O O4 0.500000 0.000000 0.184548
O O5 0.500000 0.500000 0.001514
O O6 0.709572 0.424286 0.050025
O O7 0.689427 0.591909 0.003226
O O8 0.661723 0.439056 0.912135
O O9 0.750000 0.250000 0.080258
O O10 0.780099 0.371287 0.181302
O O11 0.500000 0.500000 0.828517
O O12 0.636289 0.366197 0.775888
O O13 0.712998 0.549282 0.801796
O O14 0.250000 0.250000 0.070995
O O15 0.386504 0.363434 0.137983
O O16 0.573048 0.343107 0.226771
O O17 0.750000 0.750000 0.784948
#
# Coordination Sequence:
#
# PCOD9353594 Si02
#       7
#     8   8   8   8   8   8   8
#     4  11  21  37  59  93 122 150 197 260 314 366
#     4  11  22  38  59  87 122 162 203 246 303 370
#     4  11  21  37  63  89 113 155 204 253 302 360
#     4   9  21  36  57  87 123 161 204 255 303 363
#     4  10  22  36  60  91 119 155 197 262 307 360
#     4  10  19  37  58  89 121 156 205 254 308 351
#     4  10  18  34  63  91 114 150 207 260 293 358
#
# _framework density 19.347845
#
# number of rings (size 3 to 8) (size 9 to 14) (size 15 to 20)
#    0.000    1.714    4.286    1.714    2.000    1.714 
#    0.000    2.143    0.000    3.429    0.000    0.000 
#    0.000    0.000    0.000    0.000    0.000    0.000 
#
# Total GULP energy -155981.789319 kJ/mol
# GULP energy per Si atom -5570.778190 kJ/mol
# Density = 1.930381 g / cm^3
# Si number density = 19.347845 Si / 1000 Ang^3
#
#
#
# Elastic Constant Matrix: (Units=GPa)
#
#
# Indices 1 2 3 4 5 6 
#
# 1 73.9432 28.2954 5.2672 0.0000 0.0000 0.0000
# 2 28.2954 108.4632 41.3783 0.0000 0.0000 0.0000
# 3 5.2672 41.3783 53.7241 0.0000 0.0000 0.0000
# 4 0.0000 0.0000 0.0000 9.9907 0.0000 0.0000
# 5 0.0000 0.0000 0.0000 0.0000 12.4099 0.0000
# 6 0.0000 0.0000 0.0000 0.0000 0.0000 31.7286
#
#
#
# Elastic Compliance Matrix: (Units=1/GPa)
#
#
# Indices 1 2 3 4 5 6 
#
# 1 0.015208 -0.004813 0.002216 0.000000 0.000000 0.000000
# 2 -0.004813 0.014579 -0.010757 0.000000 0.000000 0.000000
# 3 0.002216 -0.010757 0.026681 0.000000 0.000000 0.000000
# 4 0.000000 0.000000 0.000000 0.100093 0.000000 0.000000
# 5 0.000000 0.000000 0.000000 0.000000 0.080581 0.000000
# 6 0.000000 0.000000 0.000000 0.000000 0.000000 0.031517
#
#
# Mechanical properties :
#
#
# Convention : Reuss Voigt Hill
#
# Bulk Modulus (GPa) = 33.60175 42.89027 38.24601
# Shear Modulus (GPa) = 16.37804 21.57180 18.97492
#
# Velocity S-wave (km/s) = 2.91263 3.34270 3.13505
# Velocity P-wave (km/s) = 5.35874 6.09215 5.73718
#
# Compressibility (1/GPa) = 0.02976035
#
# Stress axis : x y z
#
# Youngs Moduli (GPa) = 65.75625 68.59225 37.47944
#
# Poissons Ratio (x) = 0.33011 -0.08304
# Poissons Ratio (y) = 0.31646 0.40316
# Poissons Ratio (z) = -0.14569 0.73784
#
# Static dielectric constant tensor:
#      x y z
#    x 1.732200 0.000000 0.000000 
#    y 0.000000 1.770080 0.000000 
#    z 0.000000 0.000000 1.652290 
# 
# From -- ./inp_files/11582.got.cif
#   From: 2010.05.17/outbox.cif.g08.bks.cpg/sg37_6_cif.got.tgz:11582.got - 2010.06.03 17:53:42.
