data_PCOD9353620
_publ_section_title
;
Structure prediction by ZEFSAII (Michael W. Deem and Ramdas Pophale) SiO2 
 PCOD9353620
Probable space group: C C C 2
;
_chemical_formula_sum "Si O2"
_cell_formula_units_Z 52
_cell_length_a 23.958050
_cell_length_b 10.276780
_cell_length_c 9.099772
_cell_angle_alpha 90.000000
_cell_angle_beta 90.000000
_cell_angle_gamma 90.000000
_cell_volume 2240.469506
_symmetry_space_group_name_H-M "C C C 2"
_symmetry_group_IT_number 37
_symmetry_cell_setting 'orthorhombic'
loop_
_space_group_symop_operation_xyz
x,y,z
-x,-y,z
-x,y,1/2+z
x,-y,1/2+z
1/2+x,1/2+y,z
1/2-x,1/2-y,z
1/2-x,1/2+y,1/2+z
1/2+x,1/2-y,1/2+z
loop_
_atom_site_type_symbol
_atom_site_label
_atom_site_fract_x
_atom_site_fract_y
_atom_site_fract_z
Si Si1 0.163400 0.423306 0.449850
Si Si2 0.374867 0.477080 0.847965
Si Si3 0.250000 0.250000 0.277186
Si Si4 0.195384 0.957186 0.604463
Si Si5 0.472720 0.355985 0.027897
Si Si6 0.291196 0.873350 0.246381
Si Si7 0.930035 0.249624 0.838052
O O1 0.214950 0.342591 0.381737
O O2 0.180808 0.568930 0.394712
O O3 0.160777 0.374626 0.619356
O O4 0.107083 0.376274 0.367764
O O5 0.358031 0.472159 0.678257
O O6 0.391867 0.624971 0.875846
O O7 0.317769 0.451557 0.935005
O O8 0.422919 0.387226 0.912632
O O9 0.204205 0.183463 0.173410
O O10 0.250216 0.028011 0.658796
O O11 0.500000 0.500000 0.064409
O O12 0.450210 0.284030 0.172649
O O13 0.517542 0.266982 0.945646
O O14 0.250000 0.750000 0.266577
#
# Coordination Sequence:
#
# PCOD9353620 Si02
#       7
#     8   8   4   8   8   8   8
#     4  11  22  44  67  94 140 176 224 279 344 411
#     4  11  19  35  58  94 135 172 220 283 344 396
#     4  10  18  36  62  90 136 178 208 262 342 406
#     4  11  21  35  61  95 133 178 217 276 338 405
#     4  10  21  36  62 101 135 175 235 288 347 404
#     4  11  24  44  65 101 137 182 227 276 337 418
#     4  11  22  40  64  93 135 181 225 292 348 397
#
# _framework density 23.209422
#
# number of rings (size 3 to 8) (size 9 to 14) (size 15 to 20)
#    0.000    1.231    3.846    4.154    2.154    0.000 
#   15.231    0.000    0.000    2.769    0.000    0.000 
#    0.000    0.000    0.000    0.000    0.000    0.000 
#
# Total GULP energy -145146.346775 kJ/mol
# GULP energy per Si atom -5582.551799 kJ/mol
# Density = 2.315660 g / cm^3
# Si number density = 23.209422 Si / 1000 Ang^3
#
#
#
# Elastic Constant Matrix: (Units=GPa)
#
#
# Indices 1 2 3 4 5 6 
#
# 1 91.4832 19.8294 36.8014 0.0000 0.0000 0.0000
# 2 19.8294 52.1892 39.7200 0.0000 0.0000 0.0000
# 3 36.8014 39.7200 118.0798 0.0000 0.0000 0.0000
# 4 0.0000 0.0000 0.0000 23.5121 0.0000 0.0000
# 5 0.0000 0.0000 0.0000 0.0000 41.4977 0.0000
# 6 0.0000 0.0000 0.0000 0.0000 0.0000 35.1734
#
#
#
# Elastic Compliance Matrix: (Units=1/GPa)
#
#
# Indices 1 2 3 4 5 6 
#
# 1 0.012725 -0.002442 -0.003145 0.000000 0.000000 0.000000
# 2 -0.002442 0.026223 -0.008060 0.000000 0.000000 0.000000
# 3 -0.003145 -0.008060 0.012160 0.000000 0.000000 0.000000
# 4 0.000000 0.000000 0.000000 0.042531 0.000000 0.000000
# 5 0.000000 0.000000 0.000000 0.000000 0.024098 0.000000
# 6 0.000000 0.000000 0.000000 0.000000 0.000000 0.028431
#
#
# Mechanical properties :
#
#
# Convention : Reuss Voigt Hill
#
# Bulk Modulus (GPa) = 41.98893 50.49486 46.24189
# Shear Modulus (GPa) = 27.56351 31.06339 29.31345
#
# Velocity S-wave (km/s) = 3.44990 3.66238 3.55772
# Velocity P-wave (km/s) = 5.83092 6.29980 6.06989
#
# Compressibility (1/GPa) = 0.02381580
#
# Stress axis : x y z
#
# Youngs Moduli (GPa) = 78.58401 38.13445 82.23561
#
# Poissons Ratio (x) = 0.09311 0.25861
# Poissons Ratio (y) = 0.19187 0.66282
# Poissons Ratio (z) = 0.24712 0.30736
#
# Static dielectric constant tensor:
#      x y z
#    x 1.926260 0.000000 0.000000 
#    y 0.000000 1.944730 0.000000 
#    z 0.000000 0.000000 1.924070 
# 
# From -- ./inp_files/4779.got.cif
#   From: 2010.05.17/outbox.cif.g08.bks.cpg/sg37_3_cif.got.tgz:4779.got - 2010.06.03 17:53:42.
