data_PCOD9353149
_publ_section_title
;
Structure prediction by ZEFSAII (Michael W. Deem and Ramdas Pophale) SiO2 
 PCOD9353149
Probable space group: C M C 21
;
_chemical_formula_sum "Si O2"
_cell_formula_units_Z 40
_cell_length_a 15.038198
_cell_length_b 15.799165
_cell_length_c 6.782090
_cell_angle_alpha 90.000000
_cell_angle_beta 90.000000
_cell_angle_gamma 90.000000
_cell_volume 1611.363352
_symmetry_space_group_name_H-M "C M C 21"
_symmetry_group_IT_number 36
_symmetry_cell_setting 'orthorhombic'
loop_
_space_group_symop_operation_xyz
x,y,z
-x,-y,1/2+z
x,-y,1/2+z
-x,y,z
1/2+x,1/2+y,z
1/2-x,1/2-y,1/2+z
1/2+x,1/2-y,1/2+z
1/2-x,1/2+y,z
loop_
_atom_site_type_symbol
_atom_site_label
_atom_site_fract_x
_atom_site_fract_y
_atom_site_fract_z
Si Si1 0.139543 0.220219 0.577500
Si Si2 0.830414 0.323028 0.933229
Si Si3 0.405189 0.120167 0.816547
Si Si4 0.242278 0.992819 0.823496
Si Si5 0.398286 0.524194 0.572274
O O1 0.125318 0.253701 0.796401
O O2 0.246456 0.215785 0.549861
O O3 0.104282 0.290649 0.428837
O O4 0.101152 0.126895 0.553283
O O5 0.785515 0.398684 0.808658
O O6 0.899521 0.360162 0.085693
O O7 0.500000 0.080954 0.872375
O O8 0.320155 0.062012 0.848611
O O9 0.126185 0.004084 0.824913
O O10 0.216950 0.990369 0.076640
O O11 0.500000 0.490819 0.577162
#
# Coordination Sequence:
#
# PCOD9353149 Si02
#       5
#     8   8   8   8   8
#     4  11  22  44  73 100 135 180 226 288 346 405
#     4  11  23  43  73  97 136 185 227 281 347 406
#     4  12  26  45  69 104 141 182 233 283 344 418
#     4  11  22  44  64  97 138 175 223 281 343 403
#     4  11  23  42  69 100 132 176 229 285 348 408
#
# _framework density 24.823699000000001
#
# number of rings (size 3 to 8) (size 9 to 14) (size 15 to 20)
#    0.000    0.800    6.000    2.400    0.000    2.400 
#    0.000    0.000    0.000    0.000    0.000    0.000 
#    0.000    0.000    0.000    0.000    0.000    0.000 
#
# Total GULP energy -111749.165801 kJ/mol
# GULP energy per Si atom -5587.458290 kJ/mol
# Density = 2.476720 g / cm^3
# Si number density = 24.823699 Si / 1000 Ang^3
#
#
#
# Elastic Constant Matrix: (Units=GPa)
#
#
# Indices 1 2 3 4 5 6 
#
# 1 192.5889 56.9867 74.9353 0.0000 0.0000 0.0000
# 2 56.9867 112.0643 51.4045 0.0000 0.0000 0.0000
# 3 74.9353 51.4045 139.3365 0.0000 0.0000 0.0000
# 4 0.0000 0.0000 0.0000 54.0554 0.0000 0.0000
# 5 0.0000 0.0000 0.0000 0.0000 -689.0002 0.0000
# 6 0.0000 0.0000 0.0000 0.0000 0.0000 7.6560
#
#
#
# Elastic Compliance Matrix: (Units=1/GPa)
#
#
# Indices 1 2 3 4 5 6 
#
# 1 0.006991 -0.002203 -0.002947 0.000000 0.000000 0.000000
# 2 -0.002203 0.011436 -0.003034 0.000000 0.000000 0.000000
# 3 -0.002947 -0.003034 0.009881 0.000000 0.000000 0.000000
# 4 0.000000 0.000000 0.000000 0.018500 0.000000 0.000000
# 5 0.000000 0.000000 0.000000 0.000000 -0.001451 0.000000
# 6 0.000000 0.000000 0.000000 0.000000 0.000000 0.130617
#
#
# Mechanical properties :
#
#
# Convention : Reuss Voigt Hill
#
# Bulk Modulus (GPa) = 83.75693 90.07140 86.91417
# Shear Modulus (GPa) = 25.46856 -108.08021 -41.30583
#
# Velocity S-wave (km/s) = 3.20656 -6.60558 -4.08360
# Velocity P-wave (km/s) = 6.89372 4.67065 3.58527
#
# Compressibility (1/GPa) = 0.01193931
#
# Stress axis : x y z
#
# Youngs Moduli (GPa) = 143.04146 87.44685 101.20430
#
# Poissons Ratio (x) = 0.19267 0.29824
# Poissons Ratio (y) = 0.31516 0.30704
# Poissons Ratio (z) = 0.42153 0.26531
#
# Static dielectric constant tensor:
#      x y z
#    x 2.188730 0.000000 0.000000 
#    y 0.000000 1.866000 0.000000 
#    z 0.000000 0.000000 2.199700 
# 
# From -- ./inp_files/3795.got.cif
#   From: 2010.05.17/outbox.cif.g08.bks.cpg/sg36_2_cif.got.tgz:3795.got - 2010.06.03 17:41:39.
