data_PCOD9353881
_publ_section_title
;
Structure prediction by ZEFSAII (Michael W. Deem and Ramdas Pophale) SiO2 
 PCOD9353881
Probable space group: C C C 2
;
_chemical_formula_sum "Si O2"
_cell_formula_units_Z 64
_cell_length_a 12.919661
_cell_length_b 17.505677
_cell_length_c 13.744092
_cell_angle_alpha 90.000000
_cell_angle_beta 90.000000
_cell_angle_gamma 90.000000
_cell_volume 3108.465724
_symmetry_space_group_name_H-M "C C C 2"
_symmetry_group_IT_number 37
_symmetry_cell_setting 'orthorhombic'
loop_
_space_group_symop_operation_xyz
x,y,z
-x,-y,z
-x,y,1/2+z
x,-y,1/2+z
1/2+x,1/2+y,z
1/2-x,1/2-y,z
1/2-x,1/2+y,1/2+z
1/2+x,1/2-y,1/2+z
loop_
_atom_site_type_symbol
_atom_site_label
_atom_site_fract_x
_atom_site_fract_y
_atom_site_fract_z
Si Si1 0.050091 0.379670 0.534700
Si Si2 0.872101 0.762542 0.424487
Si Si3 0.542888 0.693093 0.798909
Si Si4 0.331166 0.186092 0.718161
Si Si5 0.307711 0.435616 0.830536
Si Si6 0.334877 0.041161 0.019149
Si Si7 0.152096 0.028067 0.148543
Si Si8 0.454026 0.376370 0.589492
O O1 0.080594 0.318383 0.454328
O O2 0.089485 0.344065 0.637133
O O3 0.113262 0.457803 0.520524
O O4 0.929489 0.399651 0.524560
O O5 0.750000 0.750000 0.423354
O O6 0.917329 0.823883 0.501630
O O7 0.925494 0.791125 0.326105
O O8 0.611312 0.769753 0.806307
O O9 0.596279 0.621452 0.853258
O O10 0.553745 0.673126 0.686466
O O11 0.250000 0.250000 0.677646
O O12 0.266829 0.115271 0.760944
O O13 0.241053 0.453816 0.925799
O O14 0.348678 0.506251 0.763768
O O15 0.264555 0.051979 0.114226
O O16 0.067351 0.086045 0.104953
O O17 0.123410 0.947789 0.097228
#
# Coordination Sequence:
#
# PCOD9353881 Si02
#       8
#     8   8   8   8   8   8   8   8
#     4  11  23  40  60  93 128 169 218 264 318 405
#     4  12  24  41  66  96 130 173 218 272 334 393
#     4  10  22  40  64  94 124 162 221 270 319 392
#     4  10  19  40  70  90 120 174 224 267 324 397
#     4  10  21  40  68  89 125 171 216 268 331 386
#     4  11  23  41  59  94 131 166 215 264 332 388
#     4  10  21  40  64  92 123 168 216 270 322 385
#     4  10  22  40  66  93 126 166 219 268 325 386
#
# _framework density 20.588936
#
# number of rings (size 3 to 8) (size 9 to 14) (size 15 to 20)
#    0.000    1.500    2.500    2.625    1.750    2.000 
#    9.000    4.375    0.000    0.000    0.000    0.000 
#    0.000    0.000    0.000    0.000    0.000    0.000 
#
# Total GULP energy -178552.721952 kJ/mol
# GULP energy per Si atom -5579.772561 kJ/mol
# Density = 2.054207 g / cm^3
# Si number density = 20.588936 Si / 1000 Ang^3
#
#
#
# Elastic Constant Matrix: (Units=GPa)
#
#
# Indices 1 2 3 4 5 6 
#
# 1 153.4095 58.2558 43.0116 0.0000 0.0000 0.0000
# 2 58.2558 73.0743 19.4251 0.0000 0.0000 0.0000
# 3 43.0116 19.4251 55.3856 0.0000 0.0000 0.0000
# 4 0.0000 0.0000 0.0000 15.1737 0.0000 0.0000
# 5 0.0000 0.0000 0.0000 0.0000 32.4621 0.0000
# 6 0.0000 0.0000 0.0000 0.0000 0.0000 18.0872
#
#
#
# Elastic Compliance Matrix: (Units=1/GPa)
#
#
# Indices 1 2 3 4 5 6 
#
# 1 0.010884 -0.007091 -0.005965 0.000000 0.000000 0.000000
# 2 -0.007091 0.019712 -0.001407 0.000000 0.000000 0.000000
# 3 -0.005965 -0.001407 0.023181 0.000000 0.000000 0.000000
# 4 0.000000 0.000000 0.000000 0.065903 0.000000 0.000000
# 5 0.000000 0.000000 0.000000 0.000000 0.030805 0.000000
# 6 0.000000 0.000000 0.000000 0.000000 0.000000 0.055288
#
#
# Mechanical properties :
#
#
# Convention : Reuss Voigt Hill
#
# Bulk Modulus (GPa) = 40.24001 58.13937 49.18969
# Shear Modulus (GPa) = 20.57769 23.88973 22.23371
#
# Velocity S-wave (km/s) = 3.16484 3.41004 3.28973
# Velocity P-wave (km/s) = 5.73950 6.61846 6.19459
#
# Compressibility (1/GPa) = 0.02485089
#
# Stress axis : x y z
#
# Youngs Moduli (GPa) = 91.88097 50.73165 43.13874
#
# Poissons Ratio (x) = 0.35973 0.25733
# Poissons Ratio (y) = 0.65152 0.06068
# Poissons Ratio (z) = 0.54808 0.07136
#
# Static dielectric constant tensor:
#      x y z
#    x 1.786480 0.000000 0.000000 
#    y 0.000000 1.805390 0.000000 
#    z 0.000000 0.000000 1.751480 
# 
# From -- ./inp_files/11781.got.cif
#   From: 2010.05.17/outbox.cif.g08.bks.cpg/sg37_6_cif.got.tgz:11781.got - 2010.06.03 17:53:42.
