data_PCOD9353848
_publ_section_title
;
Structure prediction by ZEFSAII (Michael W. Deem and Ramdas Pophale) SiO2 
 PCOD9353848
Probable space group: C C C 2
;
_chemical_formula_sum "Si O2"
_cell_formula_units_Z 48
_cell_length_a 26.557499
_cell_length_b 7.251656
_cell_length_c 9.310321
_cell_angle_alpha 90.000000
_cell_angle_beta 90.000000
_cell_angle_gamma 90.000000
_cell_volume 1793.036055
_symmetry_space_group_name_H-M "C C C 2"
_symmetry_group_IT_number 37
_symmetry_cell_setting 'orthorhombic'
loop_
_space_group_symop_operation_xyz
x,y,z
-x,-y,z
-x,y,1/2+z
x,-y,1/2+z
1/2+x,1/2+y,z
1/2-x,1/2-y,z
1/2-x,1/2+y,1/2+z
1/2+x,1/2-y,1/2+z
loop_
_atom_site_type_symbol
_atom_site_label
_atom_site_fract_x
_atom_site_fract_y
_atom_site_fract_z
Si Si1 0.765602 0.967454 0.572490
Si Si2 0.641228 0.653254 0.416661
Si Si3 0.064481 0.271255 0.212615
Si Si4 0.392727 0.169994 0.697858
Si Si5 0.297260 0.982350 0.331599
Si Si6 0.480065 0.296330 0.906371
O O1 0.750000 0.750000 0.560178
O O2 0.819464 0.983456 0.495254
O O3 0.752786 0.013987 0.736048
O O4 0.722986 0.076919 0.485245
O O5 0.604537 0.625826 0.280241
O O6 0.607033 0.718212 0.550588
O O7 0.672574 0.830572 0.361562
O O8 0.092223 0.458668 0.166524
O O9 0.032657 0.212080 0.074269
O O10 0.026078 0.320851 0.341369
O O11 0.335582 0.158404 0.757295
O O12 0.430367 0.243237 0.818145
O O13 0.500000 0.500000 0.871774
#
# Coordination Sequence:
#
# PCOD9353848 Si02
#       6
#     8   8   8   8   8   8
#     4  10  20  40  63  99 147 182 234 313 365 427
#     4  10  22  42  70 103 141 191 250 312 368 444
#     4  11  24  45  73 108 141 197 263 312 373 469
#     4  11  22  43  77 106 140 196 260 314 370 458
#     4  10  19  38  68 100 143 182 249 309 359 435
#     4  12  27  47  72 108 156 194 246 325 403 462
#
# _framework density 26.770239
#
# number of rings (size 3 to 8) (size 9 to 14) (size 15 to 20)
#    0.000    1.333    3.333    4.000    2.333    1.333 
#    6.000    3.333    0.000    0.000    0.000    0.000 
#    0.000    0.000    0.000    0.000    0.000    0.000 
#
# Total GULP energy -134324.260290 kJ/mol
# GULP energy per Si atom -5596.844179 kJ/mol
# Density = 2.670931 g / cm^3
# Si number density = 26.770239 Si / 1000 Ang^3
#
#
#
# Elastic Constant Matrix: (Units=GPa)
#
#
# Indices 1 2 3 4 5 6 
#
# 1 125.5266 4.0678 57.8421 0.0000 0.0000 0.0000
# 2 4.0678 50.6069 -6.9368 0.0000 0.0000 0.0000
# 3 57.8421 -6.9368 156.2989 0.0000 0.0000 0.0000
# 4 0.0000 0.0000 0.0000 27.1550 0.0000 0.0000
# 5 0.0000 0.0000 0.0000 0.0000 69.7599 0.0000
# 6 0.0000 0.0000 0.0000 0.0000 0.0000 46.1958
#
#
#
# Elastic Compliance Matrix: (Units=1/GPa)
#
#
# Indices 1 2 3 4 5 6 
#
# 1 0.009686 -0.001278 -0.003641 0.000000 0.000000 0.000000
# 2 -0.001278 0.020050 0.001363 0.000000 0.000000 0.000000
# 3 -0.003641 0.001363 0.007806 0.000000 0.000000 0.000000
# 4 0.000000 0.000000 0.000000 0.036826 0.000000 0.000000
# 5 0.000000 0.000000 0.000000 0.000000 0.014335 0.000000
# 6 0.000000 0.000000 0.000000 0.000000 0.000000 0.021647
#
#
# Mechanical properties :
#
#
# Convention : Reuss Voigt Hill
#
# Bulk Modulus (GPa) = 32.86329 49.15315 41.00822
# Shear Modulus (GPa) = 39.18377 47.11944 43.15161
#
# Velocity S-wave (km/s) = 3.82999 4.19996 4.01923
# Velocity P-wave (km/s) = 5.64457 6.47460 6.07378
#
# Compressibility (1/GPa) = 0.03042909
#
# Stress axis : x y z
#
# Youngs Moduli (GPa) = 103.24554 49.87621 128.10739
#
# Poissons Ratio (x) = 0.06372 0.46645
# Poissons Ratio (y) = 0.13191 -0.17457
# Poissons Ratio (z) = 0.37593 -0.06796
#
# Static dielectric constant tensor:
#      x y z
#    x 2.129220 0.000000 0.000000 
#    y 0.000000 2.118100 0.000000 
#    z 0.000000 0.000000 2.011270 
# 
# From -- ./inp_files/4948.got.cif
#   From: 2010.05.17/outbox.cif.g08.bks.cpg/sg37_3_cif.got.tgz:4948.got - 2010.06.03 17:53:42.
