data_PCOD9353049
_publ_section_title
;
Structure prediction by ZEFSAII (Michael W. Deem and Ramdas Pophale) SiO2 
 PCOD9353049
Probable space group: C M C 21
;
_chemical_formula_sum "Si O2"
_cell_formula_units_Z 40
_cell_length_a 30.481781
_cell_length_b 4.988419
_cell_length_c 9.224458
_cell_angle_alpha 90.000000
_cell_angle_beta 90.000000
_cell_angle_gamma 90.000000
_cell_volume 1402.633222
_symmetry_space_group_name_H-M "C M C 21"
_symmetry_group_IT_number 36
_symmetry_cell_setting 'orthorhombic'
loop_
_space_group_symop_operation_xyz
x,y,z
-x,-y,1/2+z
x,-y,1/2+z
-x,y,z
1/2+x,1/2+y,z
1/2-x,1/2-y,1/2+z
1/2+x,1/2-y,1/2+z
1/2-x,1/2+y,z
loop_
_atom_site_type_symbol
_atom_site_label
_atom_site_fract_x
_atom_site_fract_y
_atom_site_fract_z
Si Si1 0.403259 0.990731 0.673320
Si Si2 0.500000 0.148321 0.171434
Si Si3 0.500000 0.626551 0.340650
Si Si4 0.911045 0.856060 0.442544
Si Si5 0.277884 0.743409 0.238250
Si Si6 0.669532 0.633264 0.521159
O O1 0.406589 0.904604 0.839701
O O2 0.359775 0.850006 0.609759
O O3 0.451717 0.908776 0.610112
O O4 0.404948 0.290533 0.612731
O O5 0.500000 0.941546 0.309296
O O6 0.500000 0.466357 0.190006
O O7 0.455878 0.502199 0.406337
O O8 0.867636 0.020632 0.412215
O O9 0.234831 0.553840 0.217427
O O10 0.310242 0.599394 0.123559
O O11 0.294203 0.726807 0.404762
#
# Coordination Sequence:
#
# PCOD9353049 Si02
#       6
#     8   4   4   8   8   8
#     4  11  27  47  78 117 165 217 272 335 397 481
#     4  10  25  47  75 110 164 216 269 317 390 456
#     4  10  25  49  73 114 160 224 265 323 380 458
#     4  11  27  46  79 115 166 215 275 329 397 480
#     4  12  30  55  82 114 156 208 268 341 426 509
#     4  12  28  48  82 117 161 207 269 339 413 497
#
# _framework density 28.517787999999999
#
# number of rings (size 3 to 8) (size 9 to 14) (size 15 to 20)
#    0.000    0.800    2.000    1.800   19.600    0.800 
#    0.000    0.000    0.000    0.000    0.000    0.000 
#    0.000    0.000    0.000    0.000    0.000    0.000 
#
# Total GULP energy -111839.410252 kJ/mol
# GULP energy per Si atom -5591.970513 kJ/mol
# Density = 2.845288 g / cm^3
# Si number density = 28.517788 Si / 1000 Ang^3
#
#
#
# Elastic Constant Matrix: (Units=GPa)
#
#
# Indices 1 2 3 4 5 6 
#
# 1 173.3555 13.3319 39.2305 0.0000 0.0000 0.0000
# 2 13.3319 85.7299 22.0094 0.0000 0.0000 0.0000
# 3 39.2305 22.0094 139.3554 0.0000 0.0000 0.0000
# 4 0.0000 0.0000 0.0000 49.3249 0.0000 0.0000
# 5 0.0000 0.0000 0.0000 0.0000 57.1420 0.0000
# 6 0.0000 0.0000 0.0000 0.0000 0.0000 56.1227
#
#
#
# Elastic Compliance Matrix: (Units=1/GPa)
#
#
# Indices 1 2 3 4 5 6 
#
# 1 0.006185 -0.000537 -0.001656 0.000000 0.000000 0.000000
# 2 -0.000537 0.012204 -0.001776 0.000000 0.000000 0.000000
# 3 -0.001656 -0.001776 0.007923 0.000000 0.000000 0.000000
# 4 0.000000 0.000000 0.000000 0.020274 0.000000 0.000000
# 5 0.000000 0.000000 0.000000 0.000000 0.017500 0.000000
# 6 0.000000 0.000000 0.000000 0.000000 0.000000 0.017818
#
#
# Mechanical properties :
#
#
# Convention : Reuss Voigt Hill
#
# Bulk Modulus (GPa) = 54.42831 60.84273 57.63552
# Shear Modulus (GPa) = 52.10163 54.10919 53.10541
#
# Velocity S-wave (km/s) = 4.27896 4.36062 4.31999
# Velocity P-wave (km/s) = 6.59848 6.83628 6.71843
#
# Compressibility (1/GPa) = 0.01837279
#
# Stress axis : x y z
#
# Youngs Moduli (GPa) = 161.69253 81.94009 126.21908
#
# Poissons Ratio (x) = 0.04396 0.20906
# Poissons Ratio (y) = 0.08676 0.22422
# Poissons Ratio (z) = 0.26781 0.14556
#
# Static dielectric constant tensor:
#      x y z
#    x 2.177060 0.000000 0.000000 
#    y 0.000000 2.203380 0.000000 
#    z 0.000000 0.000000 2.164720 
# 
# From -- ./inp_files/9563.got.cif
#   From: 2010.05.17/outbox.cif.g08.bks.cpg/sg36_5_cif.got.tgz:9563.got - 2010.06.03 17:41:39.
