data_PCOD9353366
_publ_section_title
;
Structure prediction by ZEFSAII (Michael W. Deem and Ramdas Pophale) SiO2 
 PCOD9353366
Probable space group: C M C 21
;
_chemical_formula_sum "Si O2"
_cell_formula_units_Z 24
_cell_length_a 30.000000
_cell_length_b 9.000000
_cell_length_c 9.000000
_cell_angle_alpha 90.000000
_cell_angle_beta 90.000000
_cell_angle_gamma 90.000000
_cell_volume 2430.000000
_symmetry_space_group_name_H-M "C M C 21"
_symmetry_group_IT_number 36
_symmetry_cell_setting 'orthorhombic'
loop_
_space_group_symop_operation_xyz
x,y,z
-x,-y,1/2+z
x,-y,1/2+z
-x,y,z
1/2+x,1/2+y,z
1/2-x,1/2-y,1/2+z
1/2+x,1/2-y,1/2+z
1/2-x,1/2+y,z
loop_
_atom_site_type_symbol
_atom_site_label
_atom_site_fract_x
_atom_site_fract_y
_atom_site_fract_z
Si Si1 0.447710 0.129357 0.883250
Si Si2 0.846957 0.813905 0.299004
Si Si3 0.194830 0.064861 0.489152
Si Si4 0.845898 0.683736 0.804862
Si Si5 0.304145 0.932368 0.992180
Si Si6 0.552381 0.195105 0.237587
O O1 0.500000 0.177755 0.842144
O O2 0.400699 0.194605 0.812732
O O3 0.445811 0.956581 0.834068
O O4 0.444334 0.155472 0.061282
O O5 0.825929 0.874774 0.144336
O O6 0.819568 0.669109 0.352183
O O7 0.900978 0.783729 0.279573
O O8 0.832525 0.919117 0.437630
O O9 0.180724 0.168541 0.349900
O O10 0.249528 0.052780 0.500469
O O11 0.826271 0.624985 0.647128
O O12 0.829420 0.581504 0.942678
O O13 0.500000 0.254261 0.258673
#
# Coordination Sequence:
#
# PCOD9353366 Si02
#       6
#     8   8   8   8   8   8
#     4  10  20  39  67  98 126 159 207 265 323 376
#     4  12  25  45  62  93 131 171 217 267 323 386
#     4  12  25  42  62  91 131 177 213 263 324 385
#     4  12  23  41  66  99 126 166 218 266 323 380
#     4  12  24  40  66  92 129 170 221 265 315 383
#     4  10  21  41  69  97 127 165 210 268 326 388
#
# _framework density 9.8765429999999999
#
# number of rings (size 3 to 8) (size 9 to 14) (size 15 to 20)
#    0.000    0.667    3.333    6.000    0.000    0.000 
#    0.000    1.667    0.000    0.000    0.000    0.000 
#    0.000    0.000    0.000    0.000    0.000    0.000 
#
# Total GULP energy -133696.073653 kJ/mol
# GULP energy per Si atom -5570.669736 kJ/mol
# Density = 0.985406 g / cm^3
# Si number density = 9.876543 Si / 1000 Ang^3
#
#
#
# Elastic Constant Matrix: (Units=GPa)
#
#
# Indices 1 2 3 4 5 6 
#
# 1 233.1029 8.2764 42.1424 0.0000 0.0000 0.0000
# 2 8.2764 37.6969 9.0063 0.0000 0.0000 0.0000
# 3 42.1424 9.0063 99.5084 0.0000 0.0000 0.0000
# 4 0.0000 0.0000 0.0000 42.4625 0.0000 0.0000
# 5 0.0000 0.0000 0.0000 0.0000 48.6142 0.0000
# 6 0.0000 0.0000 0.0000 0.0000 0.0000 27.1364
#
#
#
# Elastic Compliance Matrix: (Units=1/GPa)
#
#
# Indices 1 2 3 4 5 6 
#
# 1 0.004657 -0.000563 -0.001921 0.000000 0.000000 0.000000
# 2 -0.000563 0.027182 -0.002222 0.000000 0.000000 0.000000
# 3 -0.001921 -0.002222 0.011064 0.000000 0.000000 0.000000
# 4 0.000000 0.000000 0.000000 0.023550 0.000000 0.000000
# 5 0.000000 0.000000 0.000000 0.000000 0.020570 0.000000
# 6 0.000000 0.000000 0.000000 0.000000 0.000000 0.036851
#
#
# Mechanical properties :
#
#
# Convention : Reuss Voigt Hill
#
# Bulk Modulus (GPa) = 29.85915 54.35094 42.10504
# Shear Modulus (GPa) = 34.61385 44.36819 39.49102
#
# Velocity S-wave (km/s) = 4.19062 4.74449 4.47613
# Velocity P-wave (km/s) = 6.21000 7.58870 6.93370
#
# Compressibility (1/GPa) = 0.03349057
#
# Stress axis : x y z
#
# Youngs Moduli (GPa) = 214.71553 36.78922 90.38169
#
# Poissons Ratio (x) = 0.02073 0.17366
# Poissons Ratio (y) = 0.12099 0.20079
# Poissons Ratio (z) = 0.41256 0.08173
#
# Static dielectric constant tensor:
#      x y z
#    x 1.704370 0.000000 0.000000 
#    y 0.000000 2.084600 0.000000 
#    z 0.000000 0.000000 1.683460 
# 
# From -- ./inp_files/5965.got.cif
#   From: 2010.05.17/outbox.ucp.g08.bks.cvg/sg36_3_cif.got.tgz:5965.got - 2010.06.11 10:37:26.
