data_PCOD9353618
_publ_section_title
;
Structure prediction by ZEFSAII (Michael W. Deem and Ramdas Pophale) SiO2 
 PCOD9353618
Probable space group: C C C 2
;
_chemical_formula_sum "Si O2"
_cell_formula_units_Z 40
_cell_length_a 11.220535
_cell_length_b 19.743545
_cell_length_c 7.766764
_cell_angle_alpha 90.000000
_cell_angle_beta 90.000000
_cell_angle_gamma 90.000000
_cell_volume 1720.595599
_symmetry_space_group_name_H-M "C C C 2"
_symmetry_group_IT_number 37
_symmetry_cell_setting 'orthorhombic'
loop_
_space_group_symop_operation_xyz
x,y,z
-x,-y,z
-x,y,1/2+z
x,-y,1/2+z
1/2+x,1/2+y,z
1/2-x,1/2-y,z
1/2-x,1/2+y,1/2+z
1/2+x,1/2-y,1/2+z
loop_
_atom_site_type_symbol
_atom_site_label
_atom_site_fract_x
_atom_site_fract_y
_atom_site_fract_z
Si Si1 0.866062 0.842365 0.872020
Si Si2 0.840572 0.097008 0.030850
Si Si3 0.603370 0.197612 0.471417
Si Si4 0.684781 0.552859 0.169162
Si Si5 0.873147 0.360680 0.827223
O O1 0.902946 0.861690 0.680226
O O2 0.725346 0.822297 0.876939
O O3 0.932354 0.774113 0.927133
O O4 0.865150 0.903271 0.010745
O O5 0.814049 0.025299 0.122165
O O6 0.886636 0.073695 0.842817
O O7 0.725873 0.141737 0.975463
O O8 0.628591 0.194273 0.675373
O O9 0.500788 0.145442 0.415071
O O10 0.820539 0.574526 0.221572
#
# Coordination Sequence:
#
# PCOD9353618 Si02
#       5
#     8   8   8   8   8
#     4  10  19  36  56  79 109 150 190 238 273 332
#     4  10  18  36  61  82 115 148 185 230 290 331
#     4  10  20  37  51  78 117 150 194 229 272 342
#     4   9  19  34  60  84 113 144 191 225 284 340
#     4   9  20  35  53  80 117 148 189 228 280 340
#
# _framework density 23.247764
#
# number of rings (size 3 to 8) (size 9 to 14) (size 15 to 20)
#    1.200    1.200    2.000    1.200    0.000    0.000 
#   10.800   17.000    0.000    0.000    0.000    4.200 
#    0.000    0.000    0.000    0.000    0.000    0.000 
#
# Total GULP energy -111412.869124 kJ/mol
# GULP energy per Si atom -5570.643456 kJ/mol
# Density = 2.319485 g / cm^3
# Si number density = 23.247764 Si / 1000 Ang^3
#
#
#
# Elastic Constant Matrix: (Units=GPa)
#
#
# Indices 1 2 3 4 5 6 
#
# 1 101.5485 16.7523 34.1959 0.0000 0.0000 0.0000
# 2 16.7523 91.7583 59.6629 0.0000 0.0000 0.0000
# 3 34.1959 59.6629 172.2872 0.0000 0.0000 0.0000
# 4 0.0000 0.0000 0.0000 30.6854 0.0000 0.0000
# 5 0.0000 0.0000 0.0000 0.0000 16.2951 0.0000
# 6 0.0000 0.0000 0.0000 0.0000 0.0000 -2.2880
#
#
#
# Elastic Compliance Matrix: (Units=1/GPa)
#
#
# Indices 1 2 3 4 5 6 
#
# 1 0.010591 -0.000731 -0.001849 0.000000 0.000000 0.000000
# 2 -0.000731 0.014116 -0.004743 0.000000 0.000000 0.000000
# 3 -0.001849 -0.004743 0.007814 0.000000 0.000000 0.000000
# 4 0.000000 0.000000 0.000000 0.032589 0.000000 0.000000
# 5 0.000000 0.000000 0.000000 0.000000 0.061368 0.000000
# 6 0.000000 0.000000 0.000000 0.000000 0.000000 -0.437063
#
#
# Mechanical properties :
#
#
# Convention : Reuss Voigt Hill
#
# Bulk Modulus (GPa) = 55.94833 65.20179 60.57506
# Shear Modulus (GPa) = -17.24246 25.93736 4.34745
#
# Velocity S-wave (km/s) = -2.72634 3.34382 1.36898
# Velocity P-wave (km/s) = 3.76932 6.55863 5.34899
#
# Compressibility (1/GPa) = 0.01787363
#
# Stress axis : x y z
#
# Youngs Moduli (GPa) = 94.42207 70.84258 127.97954
#
# Poissons Ratio (x) = 0.05182 0.23661
# Poissons Ratio (y) = 0.06906 0.60702
# Poissons Ratio (z) = 0.17457 0.33601
#
# Static dielectric constant tensor:
#      x y z
#    x 1.930110 0.000000 0.000000 
#    y 0.000000 1.892350 0.000000 
#    z 0.000000 0.000000 1.884920 
# 
# From -- ./inp_files/2735.got.cif
#   From: 2010.05.17/outbox.cif.g08.bks.cpg/sg37_2_cif.got.tgz:2735.got - 2010.06.03 17:53:42.
