data_PCOD9353267
_publ_section_title
;
Structure prediction by ZEFSAII (Michael W. Deem and Ramdas Pophale) SiO2 
 PCOD9353267
Probable space group: C M C 21
;
_chemical_formula_sum "Si O2"
_cell_formula_units_Z 40
_cell_length_a 10.905814
_cell_length_b 18.466439
_cell_length_c 8.425111
_cell_angle_alpha 90.000000
_cell_angle_beta 90.000000
_cell_angle_gamma 90.000000
_cell_volume 1696.746155
_symmetry_space_group_name_H-M "C M C 21"
_symmetry_group_IT_number 36
_symmetry_cell_setting 'orthorhombic'
loop_
_space_group_symop_operation_xyz
x,y,z
-x,-y,1/2+z
x,-y,1/2+z
-x,y,z
1/2+x,1/2+y,z
1/2-x,1/2-y,1/2+z
1/2+x,1/2-y,1/2+z
1/2-x,1/2+y,z
loop_
_atom_site_type_symbol
_atom_site_label
_atom_site_fract_x
_atom_site_fract_y
_atom_site_fract_z
Si Si1 0.500000 0.412519 0.042220
Si Si2 0.500000 0.577185 0.920570
Si Si3 0.642025 0.767697 0.231611
Si Si4 0.269175 0.104445 0.529940
Si Si5 0.639840 0.021700 0.219898
Si Si6 0.246414 0.351740 0.533436
O O1 0.500000 0.415928 0.231907
O O2 0.500000 0.493282 0.970841
O O3 0.371903 0.376421 0.994476
O O4 0.621772 0.615213 0.987100
O O5 0.500000 0.747312 0.245232
O O6 0.689816 0.806856 0.389203
O O7 0.657376 0.826299 0.089171
O O8 0.727873 0.701368 0.180871
O O9 0.325539 0.061032 0.382985
O O10 0.274671 0.045795 0.674171
O O11 0.500000 0.996219 0.222747
O O12 0.659835 0.082830 0.086474
#
# Coordination Sequence:
#
# PCOD9353267 Si02
#       6
#     4   4   8   8   8   8
#     4  12  24  46  74 106 142 177 237 300 354 422
#     4  12  24  48  74 106 146 179 237 304 354 432
#     4  12  26  48  71 101 142 189 234 294 354 428
#     4  12  25  44  72 101 140 183 231 288 356 415
#     4  12  25  45  70 102 138 180 232 290 348 427
#     4  12  26  48  71 102 140 186 238 293 359 421
#
# _framework density 23.574535000000001
#
# number of rings (size 3 to 8) (size 9 to 14) (size 15 to 20)
#    0.000    0.000    5.000    6.000    0.000    0.000 
#   10.800    0.000    0.000    0.000    0.000    0.000 
#    0.000    0.000    0.000    0.000    0.000    0.000 
#
# Total GULP energy -112199.710889 kJ/mol
# GULP energy per Si atom -5609.985544 kJ/mol
# Density = 2.352088 g / cm^3
# Si number density = 23.574535 Si / 1000 Ang^3
#
#
#
# Elastic Constant Matrix: (Units=GPa)
#
#
# Indices 1 2 3 4 5 6 
#
# 1 125.3671 -1.0716 3.7934 0.0000 0.0000 0.0000
# 2 -1.0716 56.1750 1.5781 0.0000 0.0000 0.0000
# 3 3.7934 1.5781 74.8878 0.0000 0.0000 0.0000
# 4 0.0000 0.0000 0.0000 37.6291 0.0000 0.0000
# 5 0.0000 0.0000 0.0000 0.0000 33.5368 0.0000
# 6 0.0000 0.0000 0.0000 0.0000 0.0000 39.8767
#
#
#
# Elastic Compliance Matrix: (Units=1/GPa)
#
#
# Indices 1 2 3 4 5 6 
#
# 1 0.007990 0.000164 -0.000408 0.000000 0.000000 0.000000
# 2 0.000164 0.017815 -0.000384 0.000000 0.000000 0.000000
# 3 -0.000408 -0.000384 0.013382 0.000000 0.000000 0.000000
# 4 0.000000 0.000000 0.000000 0.026575 0.000000 0.000000
# 5 0.000000 0.000000 0.000000 0.000000 0.029818 0.000000
# 6 0.000000 0.000000 0.000000 0.000000 0.000000 0.025077
#
#
# Mechanical properties :
#
#
# Convention : Reuss Voigt Hill
#
# Bulk Modulus (GPa) = 26.36314 29.44776 27.90545
# Shear Modulus (GPa) = 37.15861 39.01718 38.08789
#
# Velocity S-wave (km/s) = 3.97447 4.07265 4.02386
# Velocity P-wave (km/s) = 5.68058 5.88505 5.78372
#
# Compressibility (1/GPa) = 0.03793175
#
# Stress axis : x y z
#
# Youngs Moduli (GPa) = 125.15135 56.13111 74.72679
#
# Poissons Ratio (x) = -0.00920 0.03050
# Poissons Ratio (y) = -0.02051 0.02868
# Poissons Ratio (z) = 0.05109 0.02154
#
# Static dielectric constant tensor:
#      x y z
#    x 1.814590 0.000000 0.000000 
#    y 0.000000 1.850850 0.000000 
#    z 0.000000 0.000000 1.910880 
# 
# From -- ./inp_files/3092.got.cif
#   From: 2010.05.17/outbox.cif.g08.bks.cpg/sg36_2_cif.got.tgz:3092.got - 2010.06.03 17:41:39.
