data_PCOD9353068
_publ_section_title
;
Structure prediction by ZEFSAII (Michael W. Deem and Ramdas Pophale) SiO2 
 PCOD9353068
Probable space group: C M C 21
;
_chemical_formula_sum "Si O2"
_cell_formula_units_Z 56
_cell_length_a 15.212516
_cell_length_b 18.240077
_cell_length_c 8.491173
_cell_angle_alpha 90.000000
_cell_angle_beta 90.000000
_cell_angle_gamma 90.000000
_cell_volume 2356.109144
_symmetry_space_group_name_H-M "C M C 21"
_symmetry_group_IT_number 36
_symmetry_cell_setting 'orthorhombic'
loop_
_space_group_symop_operation_xyz
x,y,z
-x,-y,1/2+z
x,-y,1/2+z
-x,y,z
1/2+x,1/2+y,z
1/2-x,1/2-y,1/2+z
1/2+x,1/2-y,1/2+z
1/2-x,1/2+y,z
loop_
_atom_site_type_symbol
_atom_site_label
_atom_site_fract_x
_atom_site_fract_y
_atom_site_fract_z
Si Si1 0.899165 0.178419 0.216500
Si Si2 0.854002 0.330140 0.279299
Si Si3 0.000000 0.006297 0.021342
Si Si4 0.000000 0.883024 0.225014
Si Si5 0.656016 0.286459 0.354370
Si Si6 0.396655 0.127075 0.421738
Si Si7 0.181380 0.962225 0.705860
Si Si8 0.695453 0.969731 0.424434
O O1 0.898445 0.252852 0.315385
O O2 0.842202 0.113552 0.291651
O O3 0.000000 0.156931 0.189431
O O4 0.858551 0.194763 0.041485
O O5 0.751269 0.310387 0.296146
O O6 0.866974 0.402947 0.380191
O O7 0.883704 0.352318 0.105168
O O8 0.907067 0.024360 0.106369
O O9 0.000000 0.918169 0.050380
O O10 0.000000 0.049474 0.855319
O O11 0.916706 0.832628 0.261618
O O12 0.641824 0.198961 0.334641
O O13 0.500000 0.121300 0.385452
O O14 0.349997 0.048497 0.405483
O O15 0.264834 0.954922 0.593775
O O16 0.215300 0.025646 0.819255
#
# Coordination Sequence:
#
# PCOD9353068 Si02
#       8
#     8   8   4   4   8   8   8   8
#     4  11  21  39  66  92 129 177 222 265 339 422
#     4  11  22  39  68  98 126 170 228 285 334 402
#     4  12  22  36  64 102 139 183 213 281 340 420
#     4  12  22  38  68  98 141 183 223 271 344 424
#     4  11  19  42  65  96 130 178 225 271 338 411
#     4  11  25  45  71  98 134 187 235 278 344 415
#     4  12  22  42  63 100 137 174 222 273 352 411
#     4  12  25  42  67 102 134 173 231 291 337 401
#
# _framework density 23.768001000000002
#
# number of rings (size 3 to 8) (size 9 to 14) (size 15 to 20)
#    0.000    0.571    6.429    3.857    0.000    1.143 
#    0.000    0.000    0.000    0.000    7.429    0.000 
#    0.000    0.000    0.000    0.000    0.000    0.000 
#
# Total GULP energy -156515.042755 kJ/mol
# GULP energy per Si atom -5589.822956 kJ/mol
# Density = 2.371390 g / cm^3
# Si number density = 23.768001 Si / 1000 Ang^3
#
#
#
# Elastic Constant Matrix: (Units=GPa)
#
#
# Indices 1 2 3 4 5 6 
#
# 1 78.7900 24.8757 -12.3191 0.0000 0.0000 0.0000
# 2 24.8757 151.1165 9.9302 0.0000 0.0000 0.0000
# 3 -12.3191 9.9302 26.5048 0.0000 0.0000 0.0000
# 4 0.0000 0.0000 0.0000 28.2285 0.0000 0.0000
# 5 0.0000 0.0000 0.0000 0.0000 30.6448 0.0000
# 6 0.0000 0.0000 0.0000 0.0000 0.0000 26.8985
#
#
#
# Elastic Compliance Matrix: (Units=1/GPa)
#
#
# Indices 1 2 3 4 5 6 
#
# 1 0.014889 -0.002979 0.008036 0.000000 0.000000 0.000000
# 2 -0.002979 0.007380 -0.004150 0.000000 0.000000 0.000000
# 3 0.008036 -0.004150 0.043019 0.000000 0.000000 0.000000
# 4 0.000000 0.000000 0.000000 0.035425 0.000000 0.000000
# 5 0.000000 0.000000 0.000000 0.000000 0.032632 0.000000
# 6 0.000000 0.000000 0.000000 0.000000 0.000000 0.037177
#
#
# Mechanical properties :
#
#
# Convention : Reuss Voigt Hill
#
# Bulk Modulus (GPa) = 14.90232 33.48722 24.19477
# Shear Modulus (GPa) = 26.16771 32.74932 29.45852
#
# Velocity S-wave (km/s) = 3.32168 3.71600 3.52436
# Velocity P-wave (km/s) = 4.58202 5.70362 5.17331
#
# Compressibility (1/GPa) = 0.06710364
#
# Stress axis : x y z
#
# Youngs Moduli (GPa) = 67.16357 135.49246 23.24555
#
# Poissons Ratio (x) = 0.40363 -0.18681
# Poissons Ratio (y) = 0.20008 0.09646
# Poissons Ratio (z) = -0.53975 0.56226
#
# Static dielectric constant tensor:
#      x y z
#    x 1.871010 0.000000 0.000000 
#    y 0.000000 1.971240 0.000000 
#    z 0.000000 0.000000 1.928590 
# 
# From -- ./inp_files/4248.got.cif
#   From: 2010.05.17/outbox.cif.g08.bks.cpg/sg36_3_cif.got.tgz:4248.got - 2010.06.03 17:41:39.
