data_PCOD9353426
_publ_section_title
;
Structure prediction by ZEFSAII (Michael W. Deem and Ramdas Pophale) SiO2 
 PCOD9353426
Probable space group: C C C 2
;
_chemical_formula_sum "Si O2"
_cell_formula_units_Z 48
_cell_length_a 24.380937
_cell_length_b 22.834943
_cell_length_c 5.056066
_cell_angle_alpha 90.000000
_cell_angle_beta 90.000000
_cell_angle_gamma 90.000000
_cell_volume 2814.900567
_symmetry_space_group_name_H-M "C C C 2"
_symmetry_group_IT_number 37
_symmetry_cell_setting 'orthorhombic'
loop_
_space_group_symop_operation_xyz
x,y,z
-x,-y,z
-x,y,1/2+z
x,-y,1/2+z
1/2+x,1/2+y,z
1/2-x,1/2-y,z
1/2-x,1/2+y,1/2+z
1/2+x,1/2-y,1/2+z
loop_
_atom_site_type_symbol
_atom_site_label
_atom_site_fract_x
_atom_site_fract_y
_atom_site_fract_z
Si Si1 0.759395 0.036853 0.203160
Si Si2 0.206402 0.158846 0.487862
Si Si3 0.524053 0.064782 0.225824
Si Si4 0.332297 0.166485 0.320062
Si Si5 0.855038 0.593650 0.802677
Si Si6 0.812559 0.224568 0.498484
O O1 0.792014 0.094188 0.109078
O O2 0.694780 0.054291 0.194043
O O3 0.770469 0.015130 0.497899
O O4 0.270858 0.173751 0.439109
O O5 0.183278 0.169383 0.196149
O O6 0.179041 0.202593 0.700616
O O7 0.486326 0.094664 0.445466
O O8 0.586602 0.062175 0.315660
O O9 0.500000 0.000000 0.174077
O O10 0.363269 0.145015 0.582945
O O11 0.345716 0.224489 0.149965
O O12 0.336395 0.117294 0.089607
O O13 0.750000 0.250000 0.492522
#
# Coordination Sequence:
#
# PCOD9353426 Si02
#       6
#     8   8   8   8   8   8
#     4  11  21  29  42  57  83 112 142 174 226 247
#     4  10  18  29  40  62  82 107 135 164 205 277
#     4  10  22  35  49  62  79 109 153 184 242 280
#     4  10  19  31  46  68  80 106 129 176 242 267
#     4  11  21  33  47  62  87 101 147 195 227 286
#     4  10  16  27  46  59  83 101 128 162 214 279
#
# _framework density 17.052111
#
# number of rings (size 3 to 8) (size 9 to 14) (size 15 to 20)
#    0.000    1.667    0.000   10.500    4.667    0.000 
#    0.000    0.000    0.000    0.000    0.000    0.000 
#    0.000    0.000    0.000    0.000    0.000    0.000 
#
# Total GULP energy -133616.047451 kJ/mol
# GULP energy per Si atom -5567.335310 kJ/mol
# Density = 1.701330 g / cm^3
# Si number density = 17.052111 Si / 1000 Ang^3
#
#
#
# Elastic Constant Matrix: (Units=GPa)
#
#
# Indices 1 2 3 4 5 6 
#
# 1 11.8975 4.9817 4.6774 0.0000 0.0000 0.0000
# 2 4.9817 43.0864 4.5430 0.0000 0.0000 0.0000
# 3 4.6774 4.5430 99.4728 0.0000 0.0000 0.0000
# 4 0.0000 0.0000 0.0000 -64.3705 0.0000 0.0000
# 5 0.0000 0.0000 0.0000 0.0000 9.9480 0.0000
# 6 0.0000 0.0000 0.0000 0.0000 0.0000 11.3803
#
#
#
# Elastic Compliance Matrix: (Units=1/GPa)
#
#
# Indices 1 2 3 4 5 6 
#
# 1 0.089708 -0.009975 -0.003763 0.000000 0.000000 0.000000
# 2 -0.009975 0.024431 -0.000647 0.000000 0.000000 0.000000
# 3 -0.003763 -0.000647 0.010259 0.000000 0.000000 0.000000
# 4 0.000000 0.000000 0.000000 -0.015535 0.000000 0.000000
# 5 0.000000 0.000000 0.000000 0.000000 0.100522 0.000000
# 6 0.000000 0.000000 0.000000 0.000000 0.000000 0.087871
#
#
# Mechanical properties :
#
#
# Convention : Reuss Voigt Hill
#
# Bulk Modulus (GPa) = 10.45716 20.31788 15.38752
# Shear Modulus (GPa) = 13.97032 0.74187 7.35609
#
# Velocity S-wave (km/s) = 2.86540 0.66031 2.07924
# Velocity P-wave (km/s) = 4.13438 3.53870 3.84808
#
# Compressibility (1/GPa) = 0.09562823
#
# Stress axis : x y z
#
# Youngs Moduli (GPa) = 11.14732 40.93200 97.47099
#
# Poissons Ratio (x) = 0.40832 0.36675
# Poissons Ratio (y) = 0.11120 0.06303
# Poissons Ratio (z) = 0.04194 0.02647
#
# Static dielectric constant tensor:
#      x y z
#    x 1.561350 0.000000 0.000000 
#    y 0.000000 4.024190 0.000000 
#    z 0.000000 0.000000 1.679000 
# 
# From -- ./inp_files/1388.got.cif
#   From: 2010.05.17/outbox.cif.g08.bks.cpg/sg37_1_cif.got.tgz:1388.got - 2010.06.03 17:53:42.
