data_PCOD9353288
_publ_section_title
;
Structure prediction by ZEFSAII (Michael W. Deem and Ramdas Pophale) SiO2 
 PCOD9353288
Probable space group: C M C 21
;
_chemical_formula_sum "Si O2"
_cell_formula_units_Z 48
_cell_length_a 7.510314
_cell_length_b 33.271751
_cell_length_c 9.534959
_cell_angle_alpha 90.000000
_cell_angle_beta 90.000000
_cell_angle_gamma 90.000000
_cell_volume 2382.607925
_symmetry_space_group_name_H-M "C M C 21"
_symmetry_group_IT_number 36
_symmetry_cell_setting 'orthorhombic'
loop_
_space_group_symop_operation_xyz
x,y,z
-x,-y,1/2+z
x,-y,1/2+z
-x,y,z
1/2+x,1/2+y,z
1/2-x,1/2-y,1/2+z
1/2+x,1/2-y,1/2+z
1/2-x,1/2+y,z
loop_
_atom_site_type_symbol
_atom_site_label
_atom_site_fract_x
_atom_site_fract_y
_atom_site_fract_z
Si Si1 0.202442 0.122526 0.696710
Si Si2 0.715802 0.710001 0.682745
Si Si3 0.218983 0.036184 0.662316
Si Si4 0.786338 0.039793 0.339690
Si Si5 0.788909 0.286327 0.852348
Si Si6 0.211187 0.626855 0.372839
O O1 0.283299 0.165994 0.731977
O O2 0.280277 0.078637 0.729270
O O3 0.200029 0.122823 0.525960
O O4 0.000000 0.122434 0.750255
O O5 0.500000 0.708080 0.692202
O O6 0.759912 0.716097 0.519229
O O7 0.784048 0.747609 0.772194
O O8 0.276291 0.034898 0.500171
O O9 0.000000 0.037208 0.662973
O O10 0.277852 0.996646 0.744092
O O11 0.741477 0.085161 0.293217
O O12 0.000000 0.037250 0.341912
O O13 0.725045 0.330947 0.808252
O O14 0.000000 0.285636 0.825538
O O15 0.000000 0.630563 0.398572
#
# Coordination Sequence:
#
# PCOD9353288 Si02
#       6
#     8   8   8   8   8   8
#     4   8  14  27  46  64  82 109 144 177 211 254
#     4   9  17  30  48  68  90 117 149 184 221 264
#     4   8  14  25  43  63  82 104 134 173 211 246
#     4   9  16  28  44  62  83 109 141 174 210 252
#     4   9  18  31  46  67  93 118 147 184 223 262
#     4   9  16  27  43  62  86 115 143 172 208 252
#
# _framework density 20.145992
#
# number of rings (size 3 to 8) (size 9 to 14) (size 15 to 20)
#    0.000    3.333    0.000    1.500    0.000    1.333 
#    0.000    5.000    0.000    4.000    0.000    0.000 
#    0.000    0.000    0.000    0.000    0.000    0.000 
#
# Total GULP energy -133610.505196 kJ/mol
# GULP energy per Si atom -5567.104383 kJ/mol
# Density = 2.010014 g / cm^3
# Si number density = 20.145992 Si / 1000 Ang^3
#
#
#
# Elastic Constant Matrix: (Units=GPa)
#
#
# Indices 1 2 3 4 5 6 
#
# 1 57.8980 -5.2519 -6.6641 0.0000 0.0000 0.0000
# 2 -5.2519 347.1842 95.8623 0.0000 0.0000 0.0000
# 3 -6.6641 95.8623 43.6294 0.0000 0.0000 0.0000
# 4 0.0000 0.0000 0.0000 35.4819 0.0000 0.0000
# 5 0.0000 0.0000 0.0000 0.0000 7.6583 0.0000
# 6 0.0000 0.0000 0.0000 0.0000 0.0000 13.7662
#
#
#
# Elastic Compliance Matrix: (Units=1/GPa)
#
#
# Indices 1 2 3 4 5 6 
#
# 1 0.017783 -0.001223 0.005403 0.000000 0.000000 0.000000
# 2 -0.001223 0.007407 -0.016462 0.000000 0.000000 0.000000
# 3 0.005403 -0.016462 0.059915 0.000000 0.000000 0.000000
# 4 0.000000 0.000000 0.000000 0.028183 0.000000 0.000000
# 5 0.000000 0.000000 0.000000 0.000000 0.130578 0.000000
# 6 0.000000 0.000000 0.000000 0.000000 0.000000 0.072642
#
#
# Mechanical properties :
#
#
# Convention : Reuss Voigt Hill
#
# Bulk Modulus (GPa) = 16.51752 68.51159 42.51455
# Shear Modulus (GPa) = 13.84078 35.69895 24.76987
#
# Velocity S-wave (km/s) = 2.62396 4.21409 3.51025
# Velocity P-wave (km/s) = 4.17096 7.59997 6.13011
#
# Compressibility (1/GPa) = 0.06054179
#
# Stress axis : x y z
#
# Youngs Moduli (GPa) = 56.23437 135.00580 16.69034
#
# Poissons Ratio (x) = 0.16509 -0.09018
# Poissons Ratio (y) = 0.06877 0.27475
# Poissons Ratio (z) = -0.30383 2.22241
#
# Static dielectric constant tensor:
#      x y z
#    x 1.778330 0.000000 0.000000 
#    y 0.000000 1.802170 0.000000 
#    z 0.000000 0.000000 1.655040 
# 
# From -- ./inp_files/6809.got.cif
#   From: 2010.05.17/outbox.cif.g08.bks.cpg/sg36_4_cif.got.tgz:6809.got - 2010.06.03 17:41:39.
