data_PCOD9353866
_publ_section_title
;
Structure prediction by ZEFSAII (Michael W. Deem and Ramdas Pophale) SiO2 
 PCOD9353866
Probable space group: C C C 2
;
_chemical_formula_sum "Si O2"
_cell_formula_units_Z 32
_cell_length_a 5.116891
_cell_length_b 14.065778
_cell_length_c 17.928850
_cell_angle_alpha 90.000000
_cell_angle_beta 90.000000
_cell_angle_gamma 90.000000
_cell_volume 1290.394069
_symmetry_space_group_name_H-M "C C C 2"
_symmetry_group_IT_number 37
_symmetry_cell_setting 'orthorhombic'
loop_
_space_group_symop_operation_xyz
x,y,z
-x,-y,z
-x,y,1/2+z
x,-y,1/2+z
1/2+x,1/2+y,z
1/2-x,1/2-y,z
1/2-x,1/2+y,1/2+z
1/2+x,1/2-y,1/2+z
loop_
_atom_site_type_symbol
_atom_site_label
_atom_site_fract_x
_atom_site_fract_y
_atom_site_fract_z
Si Si1 0.813967 0.891231 0.554280
Si Si2 0.989773 0.315183 0.346460
Si Si3 0.754664 0.060674 0.215546
Si Si4 0.674448 0.896198 0.993183
O O1 0.882033 0.894652 0.641245
O O2 0.529945 0.845208 0.547809
O O3 0.037356 0.852619 0.500509
O O4 0.746134 0.998531 0.524743
O O5 0.750000 0.250000 0.368918
O O6 0.882369 0.367013 0.272482
O O7 0.975372 0.390738 0.414197
O O8 0.250000 0.250000 0.338358
O O9 0.500000 0.000000 0.190822
O O10 0.000000 0.000000 0.249839
#
# Coordination Sequence:
#
# PCOD9353866 Si02
#       4
#     8   8   8   8
#     4  10  19  39  68 106 123 167 247 322 348 396
#     4  12  28  46  64 104 156 198 229 288 385 463
#     4  12  23  43  73 106 135 184 251 310 362 428
#     4  10  20  38  67  94 139 170 236 298 360 419
#
# _framework density 24.798627
#
# number of rings (size 3 to 8) (size 9 to 14) (size 15 to 20)
#    0.000    1.000    5.000    3.000    7.000    0.000 
#    0.000    5.000    0.000    0.000    0.000    0.000 
#    0.000    0.000    0.000    0.000    0.000    0.000 
#
# Total GULP energy -89112.053721 kJ/mol
# GULP energy per Si atom -5569.503358 kJ/mol
# Density = 2.474218 g / cm^3
# Si number density = 24.798627 Si / 1000 Ang^3
#
#
#
# Elastic Constant Matrix: (Units=GPa)
#
#
# Indices 1 2 3 4 5 6 
#
# 1 236.0317 33.3706 39.3701 0.0000 0.0000 0.0000
# 2 33.3706 90.0453 51.7201 0.0000 0.0000 0.0000
# 3 39.3701 51.7201 159.1497 0.0000 0.0000 0.0000
# 4 0.0000 0.0000 0.0000 -2.6763 0.0000 0.0000
# 5 0.0000 0.0000 0.0000 0.0000 29.6892 0.0000
# 6 0.0000 0.0000 0.0000 0.0000 0.0000 29.6073
#
#
#
# Elastic Compliance Matrix: (Units=1/GPa)
#
#
# Indices 1 2 3 4 5 6 
#
# 1 0.004535 -0.001274 -0.000708 0.000000 0.000000 0.000000
# 2 -0.001274 0.014012 -0.004238 0.000000 0.000000 0.000000
# 3 -0.000708 -0.004238 0.007836 0.000000 0.000000 0.000000
# 4 0.000000 0.000000 0.000000 -0.373646 0.000000 0.000000
# 5 0.000000 0.000000 0.000000 0.000000 0.033682 0.000000
# 6 0.000000 0.000000 0.000000 0.000000 0.000000 0.033775
#
#
# Mechanical properties :
#
#
# Convention : Reuss Voigt Hill
#
# Bulk Modulus (GPa) = 71.72419 81.57205 76.64812
# Shear Modulus (GPa) = -19.03188 35.37510 8.17161
#
# Velocity S-wave (km/s) = -2.77331 3.78099 1.81723
# Velocity P-wave (km/s) = 4.32787 7.21293 5.94798
#
# Compressibility (1/GPa) = 0.01394230
#
# Stress axis : x y z
#
# Youngs Moduli (GPa) = 220.51146 71.36645 127.61793
#
# Poissons Ratio (x) = 0.09093 0.09033
# Poissons Ratio (y) = 0.28095 0.54090
# Poissons Ratio (z) = 0.15607 0.30248
#
# Static dielectric constant tensor:
#      x y z
#    x 2.463210 0.000000 0.000000 
#    y 0.000000 3.169260 0.000000 
#    z 0.000000 0.000000 2.043990 
# 
# From -- ./inp_files/13589.got.cif
#   From: 2010.05.17/outbox.cif.g08.bks.cpg/sg37_7_cif.got.tgz:13589.got - 2010.06.03 17:53:42.
