data_PCOD9353851
_publ_section_title
;
Structure prediction by ZEFSAII (Michael W. Deem and Ramdas Pophale) SiO2 
 PCOD9353851
Probable space group: C C C 2
;
_chemical_formula_sum "Si O2"
_cell_formula_units_Z 40
_cell_length_a 12.713966
_cell_length_b 15.192606
_cell_length_c 8.496763
_cell_angle_alpha 90.000000
_cell_angle_beta 90.000000
_cell_angle_gamma 90.000000
_cell_volume 1641.220094
_symmetry_space_group_name_H-M "C C C 2"
_symmetry_group_IT_number 37
_symmetry_cell_setting 'orthorhombic'
loop_
_space_group_symop_operation_xyz
x,y,z
-x,-y,z
-x,y,1/2+z
x,-y,1/2+z
1/2+x,1/2+y,z
1/2-x,1/2-y,z
1/2-x,1/2+y,1/2+z
1/2+x,1/2-y,1/2+z
loop_
_atom_site_type_symbol
_atom_site_label
_atom_site_fract_x
_atom_site_fract_y
_atom_site_fract_z
Si Si1 0.904827 0.613888 0.467120
Si Si2 0.663923 0.328140 0.289146
Si Si3 0.468468 0.700458 0.966034
Si Si4 0.279254 0.657770 0.751761
Si Si5 0.822391 0.481617 0.239834
O O1 0.982620 0.693741 0.442764
O O2 0.794761 0.657823 0.410100
O O3 0.893327 0.523581 0.373882
O O4 0.898960 0.580806 0.642381
O O5 0.750000 0.250000 0.294909
O O6 0.585318 0.334279 0.438192
O O7 0.726469 0.419152 0.282230
O O8 0.591129 0.314655 0.131738
O O9 0.394870 0.660966 0.826316
O O10 0.250000 0.750000 0.670754
O O11 0.234043 0.570069 0.668475
#
# Coordination Sequence:
#
# PCOD9353851 Si02
#       5
#     8   8   8   8   8
#     4   9  19  40  70  98 138 192 226 297 354 424
#     4  12  24  46  72 106 144 186 240 302 348 430
#     4  11  22  45  73  98 149 192 233 293 378 416
#     4   8  17  37  68  97 139 184 225 286 355 419
#     4  10  19  38  73 100 141 183 233 296 351 416
#
# _framework density 24.372112999999999
#
# number of rings (size 3 to 8) (size 9 to 14) (size 15 to 20)
#    1.200    0.800    4.000    0.600    0.000    2.400 
#    3.600    6.000    0.000    0.000    0.000    0.000 
#    0.000    0.000    0.000    0.000    0.000    0.000 
#
# Total GULP energy -111482.549004 kJ/mol
# GULP energy per Si atom -5574.127450 kJ/mol
# Density = 2.431664 g / cm^3
# Si number density = 24.372113 Si / 1000 Ang^3
#
#
#
# Elastic Constant Matrix: (Units=GPa)
#
#
# Indices 1 2 3 4 5 6 
#
# 1 95.2357 22.4181 11.0653 0.0000 0.0000 0.0000
# 2 22.4181 135.6342 -0.5403 0.0000 0.0000 0.0000
# 3 11.0653 -0.5403 62.2269 0.0000 0.0000 0.0000
# 4 0.0000 0.0000 0.0000 32.0931 0.0000 0.0000
# 5 0.0000 0.0000 0.0000 0.0000 5.6996 0.0000
# 6 0.0000 0.0000 0.0000 0.0000 0.0000 17.5334
#
#
#
# Elastic Compliance Matrix: (Units=1/GPa)
#
#
# Indices 1 2 3 4 5 6 
#
# 1 0.011169 -0.001854 -0.002002 0.000000 0.000000 0.000000
# 2 -0.001854 0.007681 0.000396 0.000000 0.000000 0.000000
# 3 -0.002002 0.000396 0.016430 0.000000 0.000000 0.000000
# 4 0.000000 0.000000 0.000000 0.031159 0.000000 0.000000
# 5 0.000000 0.000000 0.000000 0.000000 0.175452 0.000000
# 6 0.000000 0.000000 0.000000 0.000000 0.000000 0.057034
#
#
# Mechanical properties :
#
#
# Convention : Reuss Voigt Hill
#
# Bulk Modulus (GPa) = 35.26098 39.88699 37.57398
# Shear Modulus (GPa) = 15.85797 28.40878 22.13338
#
# Velocity S-wave (km/s) = 2.55357 3.41783 3.01681
# Velocity P-wave (km/s) = 4.81596 5.65480 5.25215
#
# Compressibility (1/GPa) = 0.02835996
#
# Stress axis : x y z
#
# Youngs Moduli (GPa) = 89.53071 130.19479 60.86534
#
# Poissons Ratio (x) = 0.24139 0.12187
# Poissons Ratio (y) = 0.16600 -0.02413
# Poissons Ratio (z) = 0.17926 -0.05161
#
# Static dielectric constant tensor:
#      x y z
#    x 1.996520 0.000000 0.000000 
#    y 0.000000 1.964980 0.000000 
#    z 0.000000 0.000000 2.053950 
# 
# From -- ./inp_files/3348.got.cif
#   From: 2010.05.17/outbox.cif.g08.bks.cpg/sg37_2_cif.got.tgz:3348.got - 2010.06.03 17:53:42.
