data_PCOD9353819
_publ_section_title
;
Structure prediction by ZEFSAII (Michael W. Deem and Ramdas Pophale) SiO2 
 PCOD9353819
Probable space group: C C C 2
;
_chemical_formula_sum "Si O2"
_cell_formula_units_Z 44
_cell_length_a 13.644478
_cell_length_b 6.659331
_cell_length_c 23.027307
_cell_angle_alpha 90.000000
_cell_angle_beta 90.000000
_cell_angle_gamma 90.000000
_cell_volume 2092.332391
_symmetry_space_group_name_H-M "C C C 2"
_symmetry_group_IT_number 37
_symmetry_cell_setting 'orthorhombic'
loop_
_space_group_symop_operation_xyz
x,y,z
-x,-y,z
-x,y,1/2+z
x,-y,1/2+z
1/2+x,1/2+y,z
1/2-x,1/2-y,z
1/2-x,1/2+y,1/2+z
1/2+x,1/2-y,1/2+z
loop_
_atom_site_type_symbol
_atom_site_label
_atom_site_fract_x
_atom_site_fract_y
_atom_site_fract_z
Si Si1 0.907476 0.628559 0.383040
Si Si2 0.500000 0.500000 0.429681
Si Si3 0.750000 0.250000 0.191302
Si Si4 0.354062 0.367308 0.147115
Si Si5 0.149980 0.120260 0.018991
Si Si6 0.250000 0.250000 0.468038
Si Si7 0.651733 0.120435 0.752564
O O1 0.814166 0.608093 0.425326
O O2 0.893267 0.588389 0.315323
O O3 0.000000 0.500000 0.402708
O O4 0.932250 0.862898 0.390406
O O5 0.432919 0.640854 0.470324
O O6 0.676273 0.401681 0.158071
O O7 0.815956 0.405681 0.227541
O O8 0.250000 0.250000 0.143348
O O9 0.395925 0.345992 0.082725
O O10 0.402854 0.253938 0.202404
O O11 0.250000 0.250000 0.013218
O O12 0.183866 0.890131 0.008488
O O13 0.750000 0.250000 0.764004
#
# Coordination Sequence:
#
# PCOD9353819 Si02
#       7
#     8   4   4   8   8   4   8
#     4  11  22  38  55  82 116 149 192 240 289 349
#     4  10  24  38  54  82 116 150 192 242 290 342
#     4   8  15  30  54  84 106 147 182 224 292 330
#     4   8  16  30  54  81 110 142 187 229 275 343
#     4  10  19  37  59  83 112 152 192 236 292 344
#     4  10  21  36  58  82 112 151 196 236 286 346
#     4   9  18  34  54  82 112 142 187 233 279 348
#
# _framework density 21.029164000000002
#
# number of rings (size 3 to 8) (size 9 to 14) (size 15 to 20)
#    0.000    2.909    0.909    1.636    0.000    2.909 
#    1.636    2.727    0.000    0.000    0.000    0.000 
#    0.000    0.000    0.000    0.000    0.000    0.000 
#
# Total GULP energy -122486.590169 kJ/mol
# GULP energy per Si atom -5567.572280 kJ/mol
# Density = 2.098130 g / cm^3
# Si number density = 21.029164 Si / 1000 Ang^3
#
#
#
# Elastic Constant Matrix: (Units=GPa)
#
#
# Indices 1 2 3 4 5 6 
#
# 1 43.9493 7.3208 11.6541 0.0000 0.0000 0.0000
# 2 7.3208 92.4920 31.1311 0.0000 0.0000 0.0000
# 3 11.6541 31.1311 84.7589 0.0000 0.0000 0.0000
# 4 0.0000 0.0000 0.0000 60.2725 0.0000 0.0000
# 5 0.0000 0.0000 0.0000 0.0000 3.4513 0.0000
# 6 0.0000 0.0000 0.0000 0.0000 0.0000 29.5820
#
#
#
# Elastic Compliance Matrix: (Units=1/GPa)
#
#
# Indices 1 2 3 4 5 6 
#
# 1 0.023678 -0.000888 -0.002929 0.000000 0.000000 0.000000
# 2 -0.000888 0.012370 -0.004421 0.000000 0.000000 0.000000
# 3 -0.002929 -0.004421 0.013825 0.000000 0.000000 0.000000
# 4 0.000000 0.000000 0.000000 0.016591 0.000000 0.000000
# 5 0.000000 0.000000 0.000000 0.000000 0.289745 0.000000
# 6 0.000000 0.000000 0.000000 0.000000 0.000000 0.033804
#
#
# Mechanical properties :
#
#
# Convention : Reuss Voigt Hill
#
# Bulk Modulus (GPa) = 29.94423 35.71246 32.82834
# Shear Modulus (GPa) = 11.97250 30.06745 21.01997
#
# Velocity S-wave (km/s) = 2.38865 3.78537 3.16502
# Velocity P-wave (km/s) = 4.67737 6.01037 5.38528
#
# Compressibility (1/GPa) = 0.03339542
#
# Stress axis : x y z
#
# Youngs Moduli (GPa) = 42.23282 80.83958 72.33343
#
# Poissons Ratio (x) = 0.07180 0.21190
# Poissons Ratio (y) = 0.03751 0.31981
# Poissons Ratio (z) = 0.12372 0.35742
#
# Static dielectric constant tensor:
#      x y z
#    x 1.838280 0.000000 0.000000 
#    y 0.000000 1.738880 0.000000 
#    z 0.000000 0.000000 1.789520 
# 
# From -- ./inp_files/18956.got.cif
#   From: 2010.05.17/outbox.cif.g08.bks.cpg/sg37_10_cif.got.tgz:18956.got - 2010.06.03 17:53:42.
