data_PCOD9353215
_publ_section_title
;
Structure prediction by ZEFSAII (Michael W. Deem and Ramdas Pophale) SiO2 
 PCOD9353215
Probable space group: C M C 21
;
_chemical_formula_sum "Si O2"
_cell_formula_units_Z 32
_cell_length_a 27.081644
_cell_length_b 4.726636
_cell_length_c 9.705054
_cell_angle_alpha 90.000000
_cell_angle_beta 90.000000
_cell_angle_gamma 90.000000
_cell_volume 1242.296150
_symmetry_space_group_name_H-M "C M C 21"
_symmetry_group_IT_number 36
_symmetry_cell_setting 'orthorhombic'
loop_
_space_group_symop_operation_xyz
x,y,z
-x,-y,1/2+z
x,-y,1/2+z
-x,y,z
1/2+x,1/2+y,z
1/2-x,1/2-y,1/2+z
1/2+x,1/2-y,1/2+z
1/2-x,1/2+y,z
loop_
_atom_site_type_symbol
_atom_site_label
_atom_site_fract_x
_atom_site_fract_y
_atom_site_fract_z
Si Si1 0.500000 0.492729 0.271991
Si Si2 0.915157 0.652526 0.923426
Si Si3 0.284583 0.442477 0.651064
Si Si4 0.847730 0.117258 0.897293
Si Si5 0.500000 0.042026 0.617860
O O1 0.548695 0.651083 0.328802
O O2 0.500000 0.157230 0.256767
O O3 0.500000 0.617233 0.117774
O O4 0.882035 0.390282 0.867280
O O5 0.878593 0.885377 0.982707
O O6 0.950592 0.534832 0.039858
O O7 0.264784 0.759988 0.671154
O O8 0.327351 0.442035 0.766306
O O9 0.303633 0.328396 0.503964
#
# Coordination Sequence:
#
# PCOD9353215 Si02
#       5
#     4   8   8   8   4
#     4  11  24  43  70  95 149 187 234 290 349 424
#     4  11  26  43  66 109 137 190 238 291 358 419
#     4  12  26  48  72 103 142 185 236 300 374 428
#     4  12  26  44  76 103 143 184 244 294 352 444
#     4  11  24  43  70  95 149 187 234 290 349 424
#
# _framework density 25.758752999999999
#
# number of rings (size 3 to 8) (size 9 to 14) (size 15 to 20)
#    0.000    0.500    0.000    7.500   10.500    4.000 
#    0.000    0.000    0.000    0.000    0.000    0.000 
#    0.000    0.000    0.000    0.000    0.000    0.000 
#
# Total GULP energy -89324.502366 kJ/mol
# GULP energy per Si atom -5582.781398 kJ/mol
# Density = 2.570013 g / cm^3
# Si number density = 25.758753 Si / 1000 Ang^3
#
#
#
# Elastic Constant Matrix: (Units=GPa)
#
#
# Indices 1 2 3 4 5 6 
#
# 1 72.3168 14.4101 18.4267 0.0000 0.0000 0.0000
# 2 14.4101 107.1674 12.7492 0.0000 0.0000 0.0000
# 3 18.4267 12.7492 74.7598 0.0000 0.0000 0.0000
# 4 0.0000 0.0000 0.0000 37.8383 0.0000 0.0000
# 5 0.0000 0.0000 0.0000 0.0000 15.6760 0.0000
# 6 0.0000 0.0000 0.0000 0.0000 0.0000 28.7701
#
#
#
# Elastic Compliance Matrix: (Units=1/GPa)
#
#
# Indices 1 2 3 4 5 6 
#
# 1 0.015023 -0.001612 -0.003428 0.000000 0.000000 0.000000
# 2 -0.001612 0.009697 -0.001256 0.000000 0.000000 0.000000
# 3 -0.003428 -0.001256 0.014435 0.000000 0.000000 0.000000
# 4 0.000000 0.000000 0.000000 0.026428 0.000000 0.000000
# 5 0.000000 0.000000 0.000000 0.000000 0.063792 0.000000
# 6 0.000000 0.000000 0.000000 0.000000 0.000000 0.034758
#
#
# Mechanical properties :
#
#
# Convention : Reuss Voigt Hill
#
# Bulk Modulus (GPa) = 37.64689 38.37955 38.01322
# Shear Modulus (GPa) = 26.94241 30.36741 28.65491
#
# Velocity S-wave (km/s) = 3.23763 3.43726 3.33894
# Velocity P-wave (km/s) = 5.35007 5.53940 5.44556
#
# Compressibility (1/GPa) = 0.02656262
#
# Stress axis : x y z
#
# Youngs Moduli (GPa) = 66.56576 103.11991 69.27456
#
# Poissons Ratio (x) = 0.16625 0.23746
# Poissons Ratio (y) = 0.10732 0.08704
# Poissons Ratio (z) = 0.22818 0.12956
#
# Static dielectric constant tensor:
#      x y z
#    x 2.012430 0.000000 0.000000 
#    y 0.000000 1.952080 0.000000 
#    z 0.000000 0.000000 2.165240 
# 
# From -- ./inp_files/5895.got.cif
#   From: 2010.05.17/outbox.cif.g08.bks.cpg/sg36_3_cif.got.tgz:5895.got - 2010.06.03 17:41:39.
