data_PCOD9353580
_publ_section_title
;
Structure prediction by ZEFSAII (Michael W. Deem and Ramdas Pophale) SiO2 
 PCOD9353580
Probable space group: C C C 2
;
_chemical_formula_sum "Si O2"
_cell_formula_units_Z 60
_cell_length_a 23.950435
_cell_length_b 7.545120
_cell_length_c 14.094953
_cell_angle_alpha 90.000000
_cell_angle_beta 90.000000
_cell_angle_gamma 90.000000
_cell_volume 2547.083539
_symmetry_space_group_name_H-M "C C C 2"
_symmetry_group_IT_number 37
_symmetry_cell_setting 'orthorhombic'
loop_
_space_group_symop_operation_xyz
x,y,z
-x,-y,z
-x,y,1/2+z
x,-y,1/2+z
1/2+x,1/2+y,z
1/2-x,1/2-y,z
1/2-x,1/2+y,1/2+z
1/2+x,1/2-y,1/2+z
loop_
_atom_site_type_symbol
_atom_site_label
_atom_site_fract_x
_atom_site_fract_y
_atom_site_fract_z
Si Si1 0.133813 0.317897 0.503430
Si Si2 0.706286 0.379447 0.858955
Si Si3 0.553554 0.885830 0.991007
Si Si4 0.936504 0.985529 0.032575
Si Si5 0.549681 0.128250 0.722502
Si Si6 0.098703 0.024355 0.236642
Si Si7 0.138276 0.348322 0.727325
Si Si8 0.750000 0.250000 0.340272
O O1 0.184231 0.237116 0.445837
O O2 0.108610 0.502622 0.468442
O O3 0.146979 0.340831 0.614040
O O4 0.084246 0.171714 0.492814
O O5 0.750000 0.250000 0.807762
O O6 0.654438 0.422155 0.791246
O O7 0.730811 0.569311 0.891346
O O8 0.561792 0.681603 0.962702
O O9 0.547556 0.872702 0.106709
O O10 0.500000 0.000000 0.960140
O O11 0.896396 0.952330 0.122362
O O12 0.000000 0.000000 0.068633
O O13 0.551820 0.329002 0.760346
O O14 0.500000 0.000000 0.752872
O O15 0.607459 0.031445 0.749456
O O16 0.094830 0.813178 0.248257
O O17 0.196462 0.311322 0.778490
#
# Coordination Sequence:
#
# PCOD9353580 Si02
#       8
#     8   8   8   8   8   8   8   4
#     4  10  21  35  58  90 120 155 205 246 308 370
#     4  11  24  42  61  81 122 164 197 263 324 373
#     4   9  16  30  54  85 115 153 188 236 292 350
#     4  10  18  33  62  87 121 156 197 250 293 362
#     4   9  17  29  54  85 115 146 192 239 289 351
#     4   9  20  34  55  86 113 153 199 241 302 364
#     4   9  19  35  59  86 110 151 207 258 289 364
#     4  10  22  42  66  80 116 160 210 256 324 358
#
# _framework density 23.556355
#
# number of rings (size 3 to 8) (size 9 to 14) (size 15 to 20)
#    0.000    2.400    1.333    0.800    6.533    1.067 
#    0.000    1.333   13.200    0.000    0.000    0.000 
#    0.000    0.000    0.000    0.000    0.000    0.000 
#
# Total GULP energy -167533.614029 kJ/mol
# GULP energy per Si atom -5584.453801 kJ/mol
# Density = 2.350274 g / cm^3
# Si number density = 23.556355 Si / 1000 Ang^3
#
#
#
# Elastic Constant Matrix: (Units=GPa)
#
#
# Indices 1 2 3 4 5 6 
#
# 1 62.5012 10.5982 4.4134 0.0000 0.0000 0.0000
# 2 10.5982 118.7138 -5.3464 0.0000 0.0000 0.0000
# 3 4.4134 -5.3464 77.0680 0.0000 0.0000 0.0000
# 4 0.0000 0.0000 0.0000 -75.9270 0.0000 0.0000
# 5 0.0000 0.0000 0.0000 0.0000 43.6456 0.0000
# 6 0.0000 0.0000 0.0000 0.0000 0.0000 42.7501
#
#
#
# Elastic Compliance Matrix: (Units=1/GPa)
#
#
# Indices 1 2 3 4 5 6 
#
# 1 0.016328 -0.001505 -0.001039 0.000000 0.000000 0.000000
# 2 -0.001505 0.008589 0.000682 0.000000 0.000000 0.000000
# 3 -0.001039 0.000682 0.013082 0.000000 0.000000 0.000000
# 4 0.000000 0.000000 0.000000 -0.013171 0.000000 0.000000
# 5 0.000000 0.000000 0.000000 0.000000 0.022912 0.000000
# 6 0.000000 0.000000 0.000000 0.000000 0.000000 0.023392
#
#
# Mechanical properties :
#
#
# Convention : Reuss Voigt Hill
#
# Bulk Modulus (GPa) = 29.17551 30.84593 30.01072
# Shear Modulus (GPa) = 57.94995 18.66825 38.30910
#
# Velocity S-wave (km/s) = 4.96528 2.81818 4.03708
# Velocity P-wave (km/s) = 6.72936 4.86954 5.87353
#
# Compressibility (1/GPa) = 0.03427533
#
# Stress axis : x y z
#
# Youngs Moduli (GPa) = 61.24367 116.43276 76.43862
#
# Poissons Ratio (x) = 0.17518 0.07945
# Poissons Ratio (y) = 0.09214 -0.05213
# Poissons Ratio (z) = 0.06366 -0.07940
#
# Static dielectric constant tensor:
#      x y z
#    x 1.818630 0.000000 0.000000 
#    y 0.000000 1.951310 0.000000 
#    z 0.000000 0.000000 1.913740 
# 
# From -- ./inp_files/13131.got.cif
#   From: 2010.05.17/outbox.cif.g08.bks.cpg/sg37_7_cif.got.tgz:13131.got - 2010.06.03 17:53:42.
