data_PCOD9353430
_publ_section_title
;
Structure prediction by ZEFSAII (Michael W. Deem and Ramdas Pophale) SiO2 
 PCOD9353430
Probable space group: C C C 2
;
_chemical_formula_sum "Si O2"
_cell_formula_units_Z 52
_cell_length_a 21.630245
_cell_length_b 14.189442
_cell_length_c 8.943231
_cell_angle_alpha 90.000000
_cell_angle_beta 90.000000
_cell_angle_gamma 90.000000
_cell_volume 2744.866358
_symmetry_space_group_name_H-M "C C C 2"
_symmetry_group_IT_number 37
_symmetry_cell_setting 'orthorhombic'
loop_
_space_group_symop_operation_xyz
x,y,z
-x,-y,z
-x,y,1/2+z
x,-y,1/2+z
1/2+x,1/2+y,z
1/2-x,1/2-y,z
1/2-x,1/2+y,1/2+z
1/2+x,1/2-y,1/2+z
loop_
_atom_site_type_symbol
_atom_site_label
_atom_site_fract_x
_atom_site_fract_y
_atom_site_fract_z
Si Si1 0.133343 0.739609 0.059420
Si Si2 0.336343 0.118980 0.197685
Si Si3 0.949817 0.866660 0.720913
Si Si4 0.954761 0.300378 0.781719
Si Si5 0.000000 0.500000 0.170219
Si Si6 0.870198 0.536069 0.512589
Si Si7 0.500000 0.500000 0.966849
Si Si8 0.750000 0.250000 0.863606
O O1 0.112205 0.807808 0.190071
O O2 0.149500 0.631676 0.098125
O O3 0.191435 0.777456 0.965540
O O4 0.074892 0.721622 0.945307
O O5 0.393438 0.191457 0.177582
O O6 0.362303 0.057147 0.337971
O O7 0.275900 0.168311 0.258344
O O8 0.328970 0.051669 0.059269
O O9 0.001970 0.786119 0.739814
O O10 0.956166 0.937198 0.860214
O O11 0.963014 0.929473 0.574498
O O12 0.990507 0.400893 0.760730
O O13 0.060728 0.511737 0.067134
#
# Coordination Sequence:
#
# PCOD9353430 Si02
#       8
#     8   8   8   8   4   8   4   4
#     4  10  19  35  57  81 109 154 186 229 287 331
#     4   9  19  35  53  80 109 152 181 224 275 337
#     4  11  19  39  53  81 111 150 189 240 287 330
#     4   9  18  31  53  80 116 143 176 220 284 349
#     4  10  16  28  46  88 116 144 164 214 280 372
#     4   9  18  30  51  82 114 142 180 218 283 340
#     4  10  24  34  58  76 116 146 198 242 280 332
#     4   8  18  36  58  74 110 158 188 224 270 342
#
# _framework density 18.944457
#
# number of rings (size 3 to 8) (size 9 to 14) (size 15 to 20)
#    0.000    2.769    3.077    0.000    0.000    5.538 
#    5.538    3.077    0.000    3.692    0.000    0.000 
#    0.000    0.000    0.000    0.000    0.000    0.000 
#
# Total GULP energy -144769.888870 kJ/mol
# GULP energy per Si atom -5568.072649 kJ/mol
# Density = 1.890134 g / cm^3
# Si number density = 18.944457 Si / 1000 Ang^3
#
#
#
# Elastic Constant Matrix: (Units=GPa)
#
#
# Indices 1 2 3 4 5 6 
#
# 1 67.4756 27.3519 13.3367 0.0000 0.0000 0.0000
# 2 27.3519 86.5866 19.7969 0.0000 0.0000 0.0000
# 3 13.3367 19.7969 43.3708 0.0000 0.0000 0.0000
# 4 0.0000 0.0000 0.0000 38.3796 0.0000 0.0000
# 5 0.0000 0.0000 0.0000 0.0000 19.2545 0.0000
# 6 0.0000 0.0000 0.0000 0.0000 0.0000 27.4433
#
#
#
# Elastic Compliance Matrix: (Units=1/GPa)
#
#
# Indices 1 2 3 4 5 6 
#
# 1 0.017378 -0.004765 -0.003169 0.000000 0.000000 0.000000
# 2 -0.004765 0.014201 -0.005017 0.000000 0.000000 0.000000
# 3 -0.003169 -0.005017 0.026321 0.000000 0.000000 0.000000
# 4 0.000000 0.000000 0.000000 0.026056 0.000000 0.000000
# 5 0.000000 0.000000 0.000000 0.000000 0.051936 0.000000
# 6 0.000000 0.000000 0.000000 0.000000 0.000000 0.036439
#
#
# Mechanical properties :
#
#
# Convention : Reuss Voigt Hill
#
# Bulk Modulus (GPa) = 31.25081 35.37822 33.31452
# Shear Modulus (GPa) = 23.93497 26.14532 25.04015
#
# Velocity S-wave (km/s) = 3.55833 3.71901 3.63955
# Velocity P-wave (km/s) = 5.78049 6.09562 5.94015
#
# Compressibility (1/GPa) = 0.03199917
#
# Stress axis : x y z
#
# Youngs Moduli (GPa) = 57.54380 70.41528 37.99180
#
# Poissons Ratio (x) = 0.33553 0.12039
# Poissons Ratio (y) = 0.27420 0.19061
# Poissons Ratio (z) = 0.18234 0.35328
#
# Static dielectric constant tensor:
#      x y z
#    x 1.677170 0.000000 0.000000 
#    y 0.000000 1.711500 0.000000 
#    z 0.000000 0.000000 1.698300 
# 
# From -- ./inp_files/4625.got.cif
#   From: 2010.05.17/outbox.cif.g08.bks.cpg/sg37_3_cif.got.tgz:4625.got - 2010.06.03 17:53:42.
