data_PCOD9353152
_publ_section_title
;
Structure prediction by ZEFSAII (Michael W. Deem and Ramdas Pophale) SiO2 
 PCOD9353152
Probable space group: C M C 21
;
_chemical_formula_sum "Si O2"
_cell_formula_units_Z 64
_cell_length_a 21.798248
_cell_length_b 14.947270
_cell_length_c 8.425084
_cell_angle_alpha 90.000000
_cell_angle_beta 90.000000
_cell_angle_gamma 90.000000
_cell_volume 2745.097083
_symmetry_space_group_name_H-M "C M C 21"
_symmetry_group_IT_number 36
_symmetry_cell_setting 'orthorhombic'
loop_
_space_group_symop_operation_xyz
x,y,z
-x,-y,1/2+z
x,-y,1/2+z
-x,y,z
1/2+x,1/2+y,z
1/2-x,1/2-y,1/2+z
1/2+x,1/2-y,1/2+z
1/2-x,1/2+y,z
loop_
_atom_site_type_symbol
_atom_site_label
_atom_site_fract_x
_atom_site_fract_y
_atom_site_fract_z
Si Si1 0.335367 0.213881 0.416220
Si Si2 0.654525 0.537579 0.475361
Si Si3 0.071081 0.868436 0.391672
Si Si4 0.628266 0.950753 0.106816
Si Si5 0.606779 0.130046 0.929679
Si Si6 0.934453 0.178667 0.516063
Si Si7 0.225337 0.697272 0.079486
Si Si8 0.738704 0.487028 0.712047
O O1 0.387251 0.286701 0.454224
O O2 0.361143 0.116802 0.460723
O O3 0.273737 0.231563 0.517207
O O4 0.314646 0.223508 0.233195
O O5 0.605951 0.458744 0.445679
O O6 0.621519 0.629131 0.430433
O O7 0.679299 0.541060 0.653919
O O8 0.720646 0.525015 0.393643
O O9 0.068359 0.851314 0.200537
O O10 0.000000 0.868439 0.446007
O O11 0.593780 0.900683 0.250182
O O12 0.694837 0.974399 0.180894
O O13 0.600696 0.043262 0.042187
O O14 0.570022 0.215521 0.991632
O O15 0.677439 0.164443 0.946727
O O16 0.000000 0.146839 0.452184
O O17 0.263184 0.610706 0.134321
#
# Coordination Sequence:
#
# PCOD9353152 Si02
#       8
#     8   8   8   8   8   8   8   8
#     4  12  24  40  68 104 139 191 238 291 358 425
#     4  12  23  42  67  99 135 180 228 277 345 421
#     4  11  25  46  69 100 142 189 239 291 352 420
#     4  11  25  43  69 101 145 177 229 289 367 432
#     4  11  24  45  68 100 137 182 229 297 359 427
#     4  11  26  47  71  98 138 188 242 297 352 418
#     4  11  23  37  62 100 141 178 228 287 352 425
#     4  11  23  38  62  98 137 177 216 273 349 426
#
# _framework density 23.314291999999998
#
# number of rings (size 3 to 8) (size 9 to 14) (size 15 to 20)
#    0.000    0.750    3.750    4.875    7.000    0.000 
#    0.000    3.125    0.000    0.000    0.000    0.000 
#    0.000    0.000    0.000    0.000    0.000    0.000 
#
# Total GULP energy -178943.172195 kJ/mol
# GULP energy per Si atom -5591.974131 kJ/mol
# Density = 2.326123 g / cm^3
# Si number density = 23.314292 Si / 1000 Ang^3
#
#
#
# Elastic Constant Matrix: (Units=GPa)
#
#
# Indices 1 2 3 4 5 6 
#
# 1 39.9146 -0.8874 3.8438 0.0000 0.0000 0.0000
# 2 -0.8874 110.2342 5.9023 0.0000 0.0000 0.0000
# 3 3.8438 5.9023 48.3930 0.0000 0.0000 0.0000
# 4 0.0000 0.0000 0.0000 22.8768 0.0000 0.0000
# 5 0.0000 0.0000 0.0000 0.0000 9.0671 0.0000
# 6 0.0000 0.0000 0.0000 0.0000 0.0000 24.0009
#
#
#
# Elastic Compliance Matrix: (Units=1/GPa)
#
#
# Indices 1 2 3 4 5 6 
#
# 1 0.025257 0.000313 -0.002044 0.000000 0.000000 0.000000
# 2 0.000313 0.009135 -0.001139 0.000000 0.000000 0.000000
# 3 -0.002044 -0.001139 0.020965 0.000000 0.000000 0.000000
# 4 0.000000 0.000000 0.000000 0.043712 0.000000 0.000000
# 5 0.000000 0.000000 0.000000 0.000000 0.110289 0.000000
# 6 0.000000 0.000000 0.000000 0.000000 0.000000 0.041665
#
#
# Mechanical properties :
#
#
# Convention : Reuss Voigt Hill
#
# Bulk Modulus (GPa) = 20.15447 24.02879 22.09163
# Shear Modulus (GPa) = 18.29464 23.83451 21.06457
#
# Velocity S-wave (km/s) = 2.80428 3.20083 3.00910
# Velocity P-wave (km/s) = 4.37593 4.89788 4.64425
#
# Compressibility (1/GPa) = 0.04961679
#
# Stress axis : x y z
#
# Youngs Moduli (GPa) = 39.59254 109.46790 47.69754
#
# Poissons Ratio (x) = -0.03424 0.09751
# Poissons Ratio (y) = -0.01238 0.05433
# Poissons Ratio (z) = 0.08094 0.12469
#
# Static dielectric constant tensor:
#      x y z
#    x 1.837300 0.000000 0.000000 
#    y 0.000000 1.867160 0.000000 
#    z 0.000000 0.000000 2.042680 
# 
# From -- ./inp_files/5666.got.cif
#   From: 2010.05.17/outbox.cif.g08.bks.cpg/sg36_3_cif.got.tgz:5666.got - 2010.06.03 17:41:39.
