data_PCOD9353829
_publ_section_title
;
Structure prediction by ZEFSAII (Michael W. Deem and Ramdas Pophale) SiO2 
 PCOD9353829
Probable space group: C C C 2
;
_chemical_formula_sum "Si O2"
_cell_formula_units_Z 64
_cell_length_a 17.298507
_cell_length_b 9.738922
_cell_length_c 18.934768
_cell_angle_alpha 90.000000
_cell_angle_beta 90.000000
_cell_angle_gamma 90.000000
_cell_volume 3189.917840
_symmetry_space_group_name_H-M "C C C 2"
_symmetry_group_IT_number 37
_symmetry_cell_setting 'orthorhombic'
loop_
_space_group_symop_operation_xyz
x,y,z
-x,-y,z
-x,y,1/2+z
x,-y,1/2+z
1/2+x,1/2+y,z
1/2-x,1/2-y,z
1/2-x,1/2+y,1/2+z
1/2+x,1/2-y,1/2+z
loop_
_atom_site_type_symbol
_atom_site_label
_atom_site_fract_x
_atom_site_fract_y
_atom_site_fract_z
Si Si1 0.161655 0.739176 0.785880
Si Si2 0.928056 0.708839 0.154284
Si Si3 0.393541 0.289996 0.665376
Si Si4 0.087259 0.038427 0.797708
Si Si5 0.337743 0.795936 0.946236
Si Si6 0.174731 0.944710 0.588706
Si Si7 0.413972 0.500916 0.957814
Si Si8 0.650394 0.027196 0.083036
O O1 0.250000 0.750000 0.760788
O O2 0.102584 0.668138 0.732100
O O3 0.160856 0.667945 0.863063
O O4 0.134836 0.897518 0.792623
O O5 0.868089 0.827425 0.132181
O O6 0.915119 0.581869 0.102423
O O7 0.015012 0.763591 0.154340
O O8 0.382964 0.343783 0.745536
O O9 0.360685 0.412115 0.616922
O O10 0.352627 0.151651 0.639346
O O11 0.083973 0.069542 0.880965
O O12 0.000000 0.000000 0.774765
O O13 0.250000 0.750000 0.962864
O O14 0.389815 0.659972 0.951790
O O15 0.358576 0.907648 0.005105
O O16 0.146847 0.929279 0.508417
O O17 0.266712 0.953334 0.591254
O O18 0.500000 0.500000 0.988918
#
# Coordination Sequence:
#
# PCOD9353829 Si02
#       8
#     8   8   8   8   8   8   8   8
#     4  10  20  36  63  95 125 165 212 260 319 380
#     4  12  25  41  63  95 127 167 212 266 318 375
#     4  12  22  41  64  92 128 166 210 264 318 375
#     4  10  19  37  63  94 128 163 219 267 308 379
#     4  10  19  39  63  90 128 168 213 256 319 388
#     4  12  22  41  66  93 122 167 219 263 306 378
#     4  10  20  34  63  99 124 162 218 267 312 370
#     4  12  25  41  61  94 132 168 205 261 326 383
#
# _framework density 20.063213000000001
#
# number of rings (size 3 to 8) (size 9 to 14) (size 15 to 20)
#    0.000    1.000    5.000    3.000    0.000    0.000 
#    0.000    1.250    0.000    3.000    0.000    0.000 
#    0.000    0.000    0.000    0.000    0.000    0.000 
#
# Total GULP energy -178759.582660 kJ/mol
# GULP energy per Si atom -5586.236958 kJ/mol
# Density = 2.001755 g / cm^3
# Si number density = 20.063213 Si / 1000 Ang^3
#
#
#
# Elastic Constant Matrix: (Units=GPa)
#
#
# Indices 1 2 3 4 5 6 
#
# 1 91.6969 8.4131 2.1005 0.0000 0.0000 0.0000
# 2 8.4131 49.6792 2.4769 0.0000 0.0000 0.0000
# 3 2.1005 2.4769 67.8627 0.0000 0.0000 0.0000
# 4 0.0000 0.0000 0.0000 18.2347 0.0000 0.0000
# 5 0.0000 0.0000 0.0000 0.0000 27.0895 0.0000
# 6 0.0000 0.0000 0.0000 0.0000 0.0000 35.1331
#
#
#
# Elastic Compliance Matrix: (Units=1/GPa)
#
#
# Indices 1 2 3 4 5 6 
#
# 1 0.011083 -0.001863 -0.000275 0.000000 0.000000 0.000000
# 2 -0.001863 0.020479 -0.000690 0.000000 0.000000 0.000000
# 3 -0.000275 -0.000690 0.014769 0.000000 0.000000 0.000000
# 4 0.000000 0.000000 0.000000 0.054841 0.000000 0.000000
# 5 0.000000 0.000000 0.000000 0.000000 0.036915 0.000000
# 6 0.000000 0.000000 0.000000 0.000000 0.000000 0.028463
#
#
# Mechanical properties :
#
#
# Convention : Reuss Voigt Hill
#
# Bulk Modulus (GPa) = 24.58500 26.13553 25.36027
# Shear Modulus (GPa) = 26.91591 29.17469 28.04530
#
# Velocity S-wave (km/s) = 3.66670 3.81745 3.74283
# Velocity P-wave (km/s) = 5.49605 5.69960 5.59875
#
# Compressibility (1/GPa) = 0.04067520
#
# Stress axis : x y z
#
# Youngs Moduli (GPa) = 90.23040 48.83042 67.70795
#
# Poissons Ratio (x) = 0.09098 0.01862
# Poissons Ratio (y) = 0.16811 0.04670
# Poissons Ratio (z) = 0.02482 0.03368
#
# Static dielectric constant tensor:
#      x y z
#    x 1.714630 0.000000 0.000000 
#    y 0.000000 1.691710 0.000000 
#    z 0.000000 0.000000 1.787450 
# 
# From -- ./inp_files/16570.got.cif
#   From: 2010.05.17/outbox.cif.g08.bks.cpg/sg37_9_cif.got.tgz:16570.got - 2010.06.03 17:53:42.
