data_PCOD9353072
_publ_section_title
;
Structure prediction by ZEFSAII (Michael W. Deem and Ramdas Pophale) SiO2 
 PCOD9353072
Probable space group: C M C 21
;
_chemical_formula_sum "Si O2"
_cell_formula_units_Z 64
_cell_length_a 8.688097
_cell_length_b 20.682890
_cell_length_c 20.390573
_cell_angle_alpha 90.000000
_cell_angle_beta 90.000000
_cell_angle_gamma 90.000000
_cell_volume 3664.083089
_symmetry_space_group_name_H-M "C M C 21"
_symmetry_group_IT_number 36
_symmetry_cell_setting 'orthorhombic'
loop_
_space_group_symop_operation_xyz
x,y,z
-x,-y,1/2+z
x,-y,1/2+z
-x,y,z
1/2+x,1/2+y,z
1/2-x,1/2-y,1/2+z
1/2+x,1/2-y,1/2+z
1/2-x,1/2+y,z
loop_
_atom_site_type_symbol
_atom_site_label
_atom_site_fract_x
_atom_site_fract_y
_atom_site_fract_z
Si Si1 0.312247 0.916543 0.598390
Si Si2 0.184021 0.195419 0.327092
Si Si3 0.312843 0.200469 0.010951
Si Si4 0.684025 0.020049 0.489459
Si Si5 0.683957 0.920441 0.747948
Si Si6 0.182827 0.024052 0.849251
Si Si7 0.815415 0.158626 0.478793
Si Si8 0.314267 0.837945 0.362936
O O1 0.500000 0.915844 0.598899
O O2 0.261238 0.848211 0.567323
O O3 0.261857 0.926490 0.672856
O O4 0.265330 0.972897 0.548191
O O5 0.269177 0.149222 0.276749
O O6 0.213870 0.169962 0.401158
O O7 0.227235 0.271104 0.326662
O O8 0.000000 0.190907 0.317005
O O9 0.500000 0.201644 0.011182
O O10 0.263752 0.275119 0.013977
O O11 0.270028 0.172158 0.939488
O O12 0.500000 0.015662 0.484067
O O13 0.734187 0.093618 0.501267
O O14 0.753839 0.997129 0.420403
O O15 0.500000 0.926886 0.749688
O O16 0.755159 0.974635 0.794972
O O17 0.239373 0.097007 0.836710
O O18 0.000000 0.020994 0.850668
O O19 0.000000 0.151868 0.486306
O O20 0.500000 0.844114 0.361042
#
# Coordination Sequence:
#
# PCOD9353072 Si02
#       8
#     8   8   8   8   8   8   8   8
#     4   9  19  35  56  80 106 141 187 227 269 327
#     4   9  18  33  54  81 111 141 174 220 272 327
#     4   8  14  30  55  79 104 137 172 214 267 325
#     4  11  20  34  57  81 108 143 183 231 277 324
#     4  11  22  36  56  80 109 150 189 224 271 331
#     4  12  23  35  53  81 114 145 184 234 277 322
#     4   9  17  30  53  82 110 137 171 217 269 324
#     4   9  17  33  58  82 106 140 178 219 276 328
#
# _framework density 17.466853
#
# number of rings (size 3 to 8) (size 9 to 14) (size 15 to 20)
#    0.000    2.250    2.500    3.375    0.000    0.500 
#    0.000    5.625    0.000    3.000    0.000    0.000 
#    0.000    0.000    0.000    0.000    0.000    0.000 
#
# Total GULP energy -178523.396322 kJ/mol
# GULP energy per Si atom -5578.856135 kJ/mol
# Density = 1.742710 g / cm^3
# Si number density = 17.466853 Si / 1000 Ang^3
#
#
#
# Elastic Constant Matrix: (Units=GPa)
#
#
# Indices 1 2 3 4 5 6 
#
# 1 41.7706 46.2872 40.5042 0.0000 0.0000 0.0000
# 2 46.2872 166.3955 87.5746 0.0000 0.0000 0.0000
# 3 40.5042 87.5746 123.1144 0.0000 0.0000 0.0000
# 4 0.0000 0.0000 0.0000 22.5976 0.0000 0.0000
# 5 0.0000 0.0000 0.0000 0.0000 10.4184 0.0000
# 6 0.0000 0.0000 0.0000 0.0000 0.0000 31.6789
#
#
#
# Elastic Compliance Matrix: (Units=1/GPa)
#
#
# Indices 1 2 3 4 5 6 
#
# 1 0.039198 -0.006580 -0.008215 0.000000 0.000000 0.000000
# 2 -0.006580 0.010711 -0.005454 0.000000 0.000000 0.000000
# 3 -0.008215 -0.005454 0.014705 0.000000 0.000000 0.000000
# 4 0.000000 0.000000 0.000000 0.044252 0.000000 0.000000
# 5 0.000000 0.000000 0.000000 0.000000 0.095984 0.000000
# 6 0.000000 0.000000 0.000000 0.000000 0.000000 0.031567
#
#
# Mechanical properties :
#
#
# Convention : Reuss Voigt Hill
#
# Bulk Modulus (GPa) = 41.46837 75.55694 58.51266
# Shear Modulus (GPa) = 17.54665 23.39996 20.47331
#
# Velocity S-wave (km/s) = 3.17293 3.66413 3.42734
# Velocity P-wave (km/s) = 6.10050 7.82639 7.01671
#
# Compressibility (1/GPa) = 0.02411476
#
# Stress axis : x y z
#
# Youngs Moduli (GPa) = 25.51129 93.36510 68.00463
#
# Poissons Ratio (x) = 0.61436 0.55869
# Poissons Ratio (y) = 0.16787 0.37089
# Poissons Ratio (z) = 0.20959 0.50920
#
# Static dielectric constant tensor:
#      x y z
#    x 1.590620 0.000000 0.000000 
#    y 0.000000 1.603320 0.000000 
#    z 0.000000 0.000000 1.574980 
# 
# From -- ./inp_files/15811.got.cif
#   From: 2010.05.17/outbox.cif.g08.bks.cpg/sg36_8_cif.got.tgz:15811.got - 2010.06.03 17:41:39.
