data_PCOD9353253
_publ_section_title
;
Structure prediction by ZEFSAII (Michael W. Deem and Ramdas Pophale) SiO2 
 PCOD9353253
Probable space group: C M C 21
;
_chemical_formula_sum "Si O2"
_cell_formula_units_Z 56
_cell_length_a 23.728457
_cell_length_b 14.083932
_cell_length_c 8.133740
_cell_angle_alpha 90.000000
_cell_angle_beta 90.000000
_cell_angle_gamma 90.000000
_cell_volume 2718.214366
_symmetry_space_group_name_H-M "C M C 21"
_symmetry_group_IT_number 36
_symmetry_cell_setting 'orthorhombic'
loop_
_space_group_symop_operation_xyz
x,y,z
-x,-y,1/2+z
x,-y,1/2+z
-x,y,z
1/2+x,1/2+y,z
1/2-x,1/2-y,1/2+z
1/2+x,1/2-y,1/2+z
1/2-x,1/2+y,z
loop_
_atom_site_type_symbol
_atom_site_label
_atom_site_fract_x
_atom_site_fract_y
_atom_site_fract_z
Si Si1 0.500000 0.945906 0.856180
Si Si2 0.500000 0.848106 0.217594
Si Si3 0.383397 0.882008 0.695934
Si Si4 0.162127 0.543132 0.518073
Si Si5 0.705040 0.351470 0.534106
Si Si6 0.320759 0.269694 0.029429
Si Si7 0.784026 0.045493 0.681079
Si Si8 0.120140 0.277095 0.190681
O O1 0.444523 0.905927 0.764672
O O2 0.500000 0.061410 0.843287
O O3 0.500000 0.902463 0.039877
O O4 0.554240 0.779385 0.230942
O O5 0.366328 0.776495 0.652148
O O6 0.368488 0.942724 0.534183
O O7 0.340125 0.920395 0.833635
O O8 0.222842 0.543834 0.597451
O O9 0.127820 0.616179 0.628007
O O10 0.759837 0.282720 0.557924
O O11 0.714287 0.406492 0.361033
O O12 0.698888 0.435775 0.667855
O O13 0.648464 0.288555 0.549568
O O14 0.317475 0.380392 0.067746
O O15 0.341702 0.246586 0.847382
#
# Coordination Sequence:
#
# PCOD9353253 Si02
#       8
#     4   4   8   8   8   8   8   8
#     4  12  24  40  64  95 127 182 214 268 322 394
#     4  12  28  44  68  95 139 178 226 270 332 390
#     4  12  24  37  60  94 138 172 220 264 327 398
#     4  12  21  37  61  94 135 174 213 267 324 398
#     4  12  24  42  66  97 136 174 219 275 334 395
#     4  12  25  39  66  98 133 175 216 274 332 399
#     4  12  25  40  67  98 133 175 217 271 340 401
#     4  12  25  44  64  96 136 176 222 269 331 398
#
# _framework density 20.601759000000001
#
# number of rings (size 3 to 8) (size 9 to 14) (size 15 to 20)
#    0.000    0.000    7.143    3.429    4.000    0.000 
#    0.000    0.000    0.000    4.286    0.000    0.000 
#    0.000    0.000    0.000    0.000    0.000    0.000 
#
# Total GULP energy -156541.752941 kJ/mol
# GULP energy per Si atom -5590.776891 kJ/mol
# Density = 2.055487 g / cm^3
# Si number density = 20.601759 Si / 1000 Ang^3
#
#
#
# Elastic Constant Matrix: (Units=GPa)
#
#
# Indices 1 2 3 4 5 6 
#
# 1 108.4114 52.3817 7.3428 0.0000 0.0000 0.0000
# 2 52.3817 67.3352 6.5695 0.0000 0.0000 0.0000
# 3 7.3428 6.5695 83.7476 0.0000 0.0000 0.0000
# 4 0.0000 0.0000 0.0000 34.5042 0.0000 0.0000
# 5 0.0000 0.0000 0.0000 0.0000 20.5569 0.0000
# 6 0.0000 0.0000 0.0000 0.0000 0.0000 30.3365
#
#
#
# Elastic Compliance Matrix: (Units=1/GPa)
#
#
# Indices 1 2 3 4 5 6 
#
# 1 0.014792 -0.011469 -0.000397 0.000000 0.000000 0.000000
# 2 -0.011469 0.023857 -0.000866 0.000000 0.000000 0.000000
# 3 -0.000397 -0.000866 0.012043 0.000000 0.000000 0.000000
# 4 0.000000 0.000000 0.000000 0.028982 0.000000 0.000000
# 5 0.000000 0.000000 0.000000 0.000000 0.048646 0.000000
# 6 0.000000 0.000000 0.000000 0.000000 0.000000 0.032964
#
#
# Mechanical properties :
#
#
# Convention : Reuss Voigt Hill
#
# Bulk Modulus (GPa) = 39.63633 43.56470 41.60052
# Shear Modulus (GPa) = 25.62031 29.95951 27.78991
#
# Velocity S-wave (km/s) = 3.53029 3.81756 3.67673
# Velocity P-wave (km/s) = 5.99152 6.37367 6.18555
#
# Compressibility (1/GPa) = 0.02522938
#
# Stress axis : x y z
#
# Youngs Moduli (GPa) = 67.60240 41.91595 83.03299
#
# Poissons Ratio (x) = 0.48072 0.03299
# Poissons Ratio (y) = 0.77530 0.07190
# Poissons Ratio (z) = 0.02686 0.03630
#
# Static dielectric constant tensor:
#      x y z
#    x 1.787050 0.000000 0.000000 
#    y 0.000000 1.756590 0.000000 
#    z 0.000000 0.000000 1.817580 
# 
# From -- ./inp_files/5631.got.cif
#   From: 2010.05.17/outbox.cif.g08.bks.cpg/sg36_3_cif.got.tgz:5631.got - 2010.06.03 17:41:39.
