data_PCOD9353228
_publ_section_title
;
Structure prediction by ZEFSAII (Michael W. Deem and Ramdas Pophale) SiO2 
 PCOD9353228
Probable space group: C M C 21
;
_chemical_formula_sum "Si O2"
_cell_formula_units_Z 40
_cell_length_a 13.553950
_cell_length_b 9.672092
_cell_length_c 13.339181
_cell_angle_alpha 90.000000
_cell_angle_beta 90.000000
_cell_angle_gamma 90.000000
_cell_volume 1748.700618
_symmetry_space_group_name_H-M "C M C 21"
_symmetry_group_IT_number 36
_symmetry_cell_setting 'orthorhombic'
loop_
_space_group_symop_operation_xyz
x,y,z
-x,-y,1/2+z
x,-y,1/2+z
-x,y,z
1/2+x,1/2+y,z
1/2-x,1/2-y,1/2+z
1/2+x,1/2-y,1/2+z
1/2-x,1/2+y,z
loop_
_atom_site_type_symbol
_atom_site_label
_atom_site_fract_x
_atom_site_fract_y
_atom_site_fract_z
Si Si1 0.000000 0.673965 0.862761
Si Si2 0.667325 0.371644 0.833102
Si Si3 0.500000 0.144387 0.411512
Si Si4 0.294448 0.914880 0.645637
Si Si5 0.000000 0.270862 0.597358
Si Si6 0.500000 0.588261 0.776144
Si Si7 0.795476 0.319869 0.026279
O O1 0.901999 0.738194 0.814545
O O2 0.000000 0.509852 0.866809
O O3 0.000000 0.734375 0.976794
O O4 0.756261 0.381955 0.755507
O O5 0.594980 0.500834 0.811539
O O6 0.714501 0.360131 0.942731
O O7 0.500000 0.263835 0.329313
O O8 0.597551 0.162253 0.478142
O O9 0.403072 0.855500 0.628148
O O10 0.226092 0.832112 0.566767
O O11 0.287165 0.074565 0.618265
O O12 0.000000 0.125724 0.657691
#
# Coordination Sequence:
#
# PCOD9353228 Si02
#       7
#     4   8   4   8   4   4   8
#     4  11  24  49  73 100 153 186 243 300 364 428
#     4  11  26  47  70 107 141 191 237 306 362 437
#     4  12  24  44  71 106 140 193 236 304 363 428
#     4  12  26  43  75 102 144 190 239 296 367 429
#     4  12  22  48  69 107 139 193 234 304 352 434
#     4  11  26  43  75 103 142 184 245 296 365 440
#     4  12  24  45  69 104 144 186 243 297 362 431
#
# _framework density 22.874127999999999
#
# number of rings (size 3 to 8) (size 9 to 14) (size 15 to 20)
#    0.000    0.400    4.000    3.600    0.000    8.000 
#    0.000    0.000    0.000    0.000    0.000    0.000 
#    0.000    0.000    0.000    0.000    0.000    0.000 
#
# Total GULP energy -112118.103428 kJ/mol
# GULP energy per Si atom -5605.905171 kJ/mol
# Density = 2.282207 g / cm^3
# Si number density = 22.874128 Si / 1000 Ang^3
#
#
#
# Elastic Constant Matrix: (Units=GPa)
#
#
# Indices 1 2 3 4 5 6 
#
# 1 102.5220 17.9701 -11.2536 0.0000 0.0000 0.0000
# 2 17.9701 108.4435 9.6853 0.0000 0.0000 0.0000
# 3 -11.2536 9.6853 63.7523 0.0000 0.0000 0.0000
# 4 0.0000 0.0000 0.0000 38.0593 0.0000 0.0000
# 5 0.0000 0.0000 0.0000 0.0000 37.4930 0.0000
# 6 0.0000 0.0000 0.0000 0.0000 0.0000 10.8843
#
#
#
# Elastic Compliance Matrix: (Units=1/GPa)
#
#
# Indices 1 2 3 4 5 6 
#
# 1 0.010318 -0.001898 0.002110 0.000000 0.000000 0.000000
# 2 -0.001898 0.009697 -0.001808 0.000000 0.000000 0.000000
# 3 0.002110 -0.001808 0.016333 0.000000 0.000000 0.000000
# 4 0.000000 0.000000 0.000000 0.026275 0.000000 0.000000
# 5 0.000000 0.000000 0.000000 0.000000 0.026672 0.000000
# 6 0.000000 0.000000 0.000000 0.000000 0.000000 0.091875
#
#
# Mechanical properties :
#
#
# Convention : Reuss Voigt Hill
#
# Bulk Modulus (GPa) = 30.16136 34.16904 32.16520
# Shear Modulus (GPa) = 25.58648 34.50838 30.04743
#
# Velocity S-wave (km/s) = 3.34814 3.88831 3.62829
# Velocity P-wave (km/s) = 5.30671 5.92696 5.62539
#
# Compressibility (1/GPa) = 0.03315500
#
# Stress axis : x y z
#
# Youngs Moduli (GPa) = 96.91501 103.11982 61.22629
#
# Poissons Ratio (x) = 0.19575 -0.12917
# Poissons Ratio (y) = 0.18397 0.11072
# Poissons Ratio (z) = -0.20447 0.18647
#
# Static dielectric constant tensor:
#      x y z
#    x 1.820470 0.000000 0.000000 
#    y 0.000000 1.799580 0.000000 
#    z 0.000000 0.000000 1.849510 
# 
# From -- ./inp_files/11975.got.cif
#   From: 2010.05.17/outbox.cif.g08.bks.cpg/sg36_6_cif.got.tgz:11975.got - 2010.06.03 17:41:39.
