data_PCOD9353840
_publ_section_title
;
Structure prediction by ZEFSAII (Michael W. Deem and Ramdas Pophale) SiO2 
 PCOD9353840
Probable space group: C C C 2
;
_chemical_formula_sum "Si O2"
_cell_formula_units_Z 60
_cell_length_a 11.731196
_cell_length_b 26.779939
_cell_length_c 9.202424
_cell_angle_alpha 90.000000
_cell_angle_beta 90.000000
_cell_angle_gamma 90.000000
_cell_volume 2891.040088
_symmetry_space_group_name_H-M "C C C 2"
_symmetry_group_IT_number 37
_symmetry_cell_setting 'orthorhombic'
loop_
_space_group_symop_operation_xyz
x,y,z
-x,-y,z
-x,y,1/2+z
x,-y,1/2+z
1/2+x,1/2+y,z
1/2-x,1/2-y,z
1/2-x,1/2+y,1/2+z
1/2+x,1/2-y,1/2+z
loop_
_atom_site_type_symbol
_atom_site_label
_atom_site_fract_x
_atom_site_fract_y
_atom_site_fract_z
Si Si1 0.000000 0.000000 0.111470
Si Si2 0.446131 0.054924 0.436861
Si Si3 0.422084 0.660881 0.167132
Si Si4 0.365224 0.593185 0.704441
Si Si5 0.125383 0.395745 0.135266
Si Si6 0.865635 0.721507 0.194884
Si Si7 0.017117 0.226515 0.928308
Si Si8 0.803569 0.926124 0.523366
O O1 0.937191 0.957306 0.201032
O O2 0.102235 0.970087 0.032018
O O3 0.417652 0.072725 0.274186
O O4 0.536217 0.092742 0.508967
O O5 0.326211 0.055531 0.524679
O O6 0.500000 0.000000 0.438108
O O7 0.549059 0.636759 0.160730
O O8 0.416525 0.688161 0.321941
O O9 0.424409 0.698433 0.030703
O O10 0.334563 0.615686 0.142833
O O11 0.255236 0.587858 0.602966
O O12 0.322184 0.600472 0.867903
O O13 0.138117 0.337740 0.176605
O O14 0.750000 0.750000 0.235670
O O15 0.956322 0.736016 0.317843
O O16 0.903696 0.745116 0.041639
#
# Coordination Sequence:
#
# PCOD9353840 Si02
#       8
#     4   8   8   8   8   8   8   8
#     4  10  20  34  60 100 122 160 208 268 316 400
#     4  11  24  42  64  91 131 177 228 273 325 392
#     4  10  19  38  63  95 124 167 207 275 333 403
#     4  10  20  37  63  86 129 163 206 259 337 382
#     4  11  23  43  64  90 129 174 222 265 331 394
#     4  11  24  43  68  96 134 178 221 280 344 408
#     4  10  21  40  64  95 129 163 224 265 337 395
#     4  10  21  37  60  92 129 166 217 261 339 381
#
# _framework density 20.753775999999998
#
# number of rings (size 3 to 8) (size 9 to 14) (size 15 to 20)
#    0.000    1.600    1.333    4.000    1.867    1.067 
#    7.200    1.333    0.000    0.000    0.000    0.000 
#    0.000    0.000    0.000    0.000    0.000    0.000 
#
# Total GULP energy -167527.833887 kJ/mol
# GULP energy per Si atom -5584.261130 kJ/mol
# Density = 2.070654 g / cm^3
# Si number density = 20.753776 Si / 1000 Ang^3
#
#
#
# Elastic Constant Matrix: (Units=GPa)
#
#
# Indices 1 2 3 4 5 6 
#
# 1 96.5220 26.7296 5.5395 0.0000 0.0000 0.0000
# 2 26.7296 103.2947 9.6575 0.0000 0.0000 0.0000
# 3 5.5395 9.6575 60.2198 0.0000 0.0000 0.0000
# 4 0.0000 0.0000 0.0000 18.2996 0.0000 0.0000
# 5 0.0000 0.0000 0.0000 0.0000 9.8124 0.0000
# 6 0.0000 0.0000 0.0000 0.0000 0.0000 26.1973
#
#
#
# Elastic Compliance Matrix: (Units=1/GPa)
#
#
# Indices 1 2 3 4 5 6 
#
# 1 0.011180 -0.002839 -0.000573 0.000000 0.000000 0.000000
# 2 -0.002839 0.010550 -0.001431 0.000000 0.000000 0.000000
# 3 -0.000573 -0.001431 0.016888 0.000000 0.000000 0.000000
# 4 0.000000 0.000000 0.000000 0.054646 0.000000 0.000000
# 5 0.000000 0.000000 0.000000 0.000000 0.101912 0.000000
# 6 0.000000 0.000000 0.000000 0.000000 0.000000 0.038172
#
#
# Mechanical properties :
#
#
# Convention : Reuss Voigt Hill
#
# Bulk Modulus (GPa) = 34.56504 38.20997 36.38751
# Shear Modulus (GPa) = 19.78815 25.40252 22.59533
#
# Velocity S-wave (km/s) = 3.09118 3.50236 3.30318
# Velocity P-wave (km/s) = 5.42508 5.89970 5.66736
#
# Compressibility (1/GPa) = 0.02893096
#
# Stress axis : x y z
#
# Youngs Moduli (GPa) = 89.44928 94.79085 59.21367
#
# Poissons Ratio (x) = 0.26915 0.03393
# Poissons Ratio (y) = 0.25398 0.08471
# Poissons Ratio (z) = 0.05126 0.13561
#
# Static dielectric constant tensor:
#      x y z
#    x 2.199750 0.000000 0.000000 
#    y 0.000000 1.796850 0.000000 
#    z 0.000000 0.000000 1.740120 
# 
# From -- ./inp_files/3044.got.cif
#   From: 2010.05.17/outbox.cif.g08.bks.cpg/sg37_2_cif.got.tgz:3044.got - 2010.06.03 17:53:42.
