data_PCOD9353643
_publ_section_title
;
Structure prediction by ZEFSAII (Michael W. Deem and Ramdas Pophale) SiO2 
 PCOD9353643
Probable space group: C C C 2
;
_chemical_formula_sum "Si O2"
_cell_formula_units_Z 60
_cell_length_a 13.162100
_cell_length_b 8.085985
_cell_length_c 27.330595
_cell_angle_alpha 90.000000
_cell_angle_beta 90.000000
_cell_angle_gamma 90.000000
_cell_volume 2908.755410
_symmetry_space_group_name_H-M "C C C 2"
_symmetry_group_IT_number 37
_symmetry_cell_setting 'orthorhombic'
loop_
_space_group_symop_operation_xyz
x,y,z
-x,-y,z
-x,y,1/2+z
x,-y,1/2+z
1/2+x,1/2+y,z
1/2-x,1/2-y,z
1/2-x,1/2+y,1/2+z
1/2+x,1/2-y,1/2+z
loop_
_atom_site_type_symbol
_atom_site_label
_atom_site_fract_x
_atom_site_fract_y
_atom_site_fract_z
Si Si1 0.179658 0.049246 0.996770
Si Si2 0.882807 0.546161 0.308168
Si Si3 0.270011 0.067244 0.717822
Si Si4 0.923946 0.363243 0.652578
Si Si5 0.924799 0.142576 0.742353
Si Si6 0.250000 0.750000 0.583068
Si Si7 0.175566 0.406697 0.416442
Si Si8 0.016686 0.175230 0.460066
O O1 0.105080 0.888645 0.997291
O O2 0.405520 0.309945 0.983693
O O3 0.263745 0.021133 0.954783
O O4 0.232786 0.094958 0.046981
O O5 0.822404 0.430290 0.270925
O O6 0.885050 0.729994 0.283707
O O7 0.838362 0.527641 0.362033
O O8 0.000000 0.500000 0.309274
O O9 0.250000 0.250000 0.700226
O O10 0.345821 0.973566 0.682939
O O11 0.170998 0.955694 0.721746
O O12 0.969809 0.245048 0.695643
O O13 0.852780 0.268059 0.614433
O O14 0.000000 0.500000 0.630658
O O15 0.000000 0.000000 0.761058
O O16 0.250000 0.250000 0.412157
O O17 0.067060 0.330106 0.433833
O O18 0.000000 0.000000 0.429634
#
# Coordination Sequence:
#
# PCOD9353643 Si02
#       8
#     8   8   8   8   8   4   8   8
#     4   8  20  36  60  81 118 158 199 265 312 372
#     4  11  23  37  57  95 128 165 215 256 310 390
#     4  11  21  42  63  91 125 164 207 262 319 381
#     4  11  23  42  64  92 128 164 211 266 323 391
#     4  11  21  41  66  90 131 170 204 267 325 382
#     4  12  22  42  58  92 122 160 214 262 336 380
#     4  10  18  38  61  84 121 166 206 262 322 373
#     4   7  17  38  57  82 111 156 205 253 310 380
#
# _framework density 20.627379000000001
#
# number of rings (size 3 to 8) (size 9 to 14) (size 15 to 20)
#    0.800    1.067    1.333    5.200    0.000    2.667 
#    8.400    2.000    0.000    0.000    0.000    0.000 
#    0.000    0.000    0.000    0.000    0.000    0.000 
#
# Total GULP energy -167105.953886 kJ/mol
# GULP energy per Si atom -5570.198463 kJ/mol
# Density = 2.058043 g / cm^3
# Si number density = 20.627379 Si / 1000 Ang^3
#
#
#
# Elastic Constant Matrix: (Units=GPa)
#
#
# Indices 1 2 3 4 5 6 
#
# 1 55.8222 13.9645 2.0894 0.0000 0.0000 0.0000
# 2 13.9645 48.0296 11.5224 0.0000 0.0000 0.0000
# 3 2.0894 11.5224 76.7318 0.0000 0.0000 0.0000
# 4 0.0000 0.0000 0.0000 4.5524 0.0000 0.0000
# 5 0.0000 0.0000 0.0000 0.0000 18.7329 0.0000
# 6 0.0000 0.0000 0.0000 0.0000 0.0000 41.2008
#
#
#
# Elastic Compliance Matrix: (Units=1/GPa)
#
#
# Indices 1 2 3 4 5 6 
#
# 1 0.019327 -0.005698 0.000329 0.000000 0.000000 0.000000
# 2 -0.005698 0.023279 -0.003340 0.000000 0.000000 0.000000
# 3 0.000329 -0.003340 0.013525 0.000000 0.000000 0.000000
# 4 0.000000 0.000000 0.000000 0.219666 0.000000 0.000000
# 5 0.000000 0.000000 0.000000 0.000000 0.053382 0.000000
# 6 0.000000 0.000000 0.000000 0.000000 0.000000 0.024271
#
#
# Mechanical properties :
#
#
# Convention : Reuss Voigt Hill
#
# Bulk Modulus (GPa) = 25.83172 26.19290 26.01231
# Shear Modulus (GPa) = 13.02854 23.09771 18.06312
#
# Velocity S-wave (km/s) = 2.51592 3.34991 2.96241
# Velocity P-wave (km/s) = 4.58149 5.26196 4.93347
#
# Compressibility (1/GPa) = 0.03871209
#
# Stress axis : x y z
#
# Youngs Moduli (GPa) = 51.74052 42.95783 73.93684
#
# Poissons Ratio (x) = 0.24479 -0.02436
# Poissons Ratio (y) = 0.29484 0.24698
# Poissons Ratio (z) = -0.01704 0.14350
#
# Static dielectric constant tensor:
#      x y z
#    x 1.921190 0.000000 0.000000 
#    y 0.000000 1.849180 0.000000 
#    z 0.000000 0.000000 1.748990 
# 
# From -- ./inp_files/19784.got.cif
#   From: 2010.05.17/outbox.cif.g08.bks.cpg/sg37_10_cif.got.tgz:19784.got - 2010.06.03 17:53:42.
