data_PCOD9353802
_publ_section_title
;
Structure prediction by ZEFSAII (Michael W. Deem and Ramdas Pophale) SiO2 
 PCOD9353802
Probable space group: C C C 2
;
_chemical_formula_sum "Si O2"
_cell_formula_units_Z 64
_cell_length_a 8.991368
_cell_length_b 15.115673
_cell_length_c 22.301537
_cell_angle_alpha 90.000000
_cell_angle_beta 90.000000
_cell_angle_gamma 90.000000
_cell_volume 3031.014795
_symmetry_space_group_name_H-M "C C C 2"
_symmetry_group_IT_number 37
_symmetry_cell_setting 'orthorhombic'
loop_
_space_group_symop_operation_xyz
x,y,z
-x,-y,z
-x,y,1/2+z
x,-y,1/2+z
1/2+x,1/2+y,z
1/2-x,1/2-y,z
1/2-x,1/2+y,1/2+z
1/2+x,1/2-y,1/2+z
loop_
_atom_site_type_symbol
_atom_site_label
_atom_site_fract_x
_atom_site_fract_y
_atom_site_fract_z
Si Si1 0.084713 0.745247 0.167730
Si Si2 0.589752 0.858828 0.778512
Si Si3 0.774182 0.457825 0.775748
Si Si4 0.451516 0.099921 0.090178
Si Si5 0.654545 0.168907 0.412991
Si Si6 0.144315 0.666895 0.978360
Si Si7 0.323858 0.512859 0.913359
Si Si8 0.815793 0.150810 0.660336
O O1 0.250000 0.750000 0.144868
O O2 0.083613 0.728974 0.238616
O O3 0.016658 0.653211 0.145960
O O4 0.986304 0.826798 0.146830
O O5 0.426815 0.902662 0.785632
O O6 0.657791 0.834008 0.841674
O O7 0.687714 0.941862 0.755054
O O8 0.699533 0.464980 0.841889
O O9 0.696404 0.408392 0.719993
O O10 0.276042 0.112686 0.103627
O O11 0.500000 0.000000 0.092307
O O12 0.535361 0.141678 0.033503
O O13 0.750000 0.250000 0.437949
O O14 0.482028 0.182454 0.428485
O O15 0.728612 0.075132 0.430074
O O16 0.250000 0.750000 0.990626
O O17 0.250572 0.589233 0.953931
O O18 0.500000 0.500000 0.923601
O O19 0.750000 0.250000 0.673065
#
# Coordination Sequence:
#
# PCOD9353802 Si02
#       8
#     8   8   8   8   8   8   8   8
#     4  11  23  39  62  95 133 164 216 278 328 401
#     4  10  19  36  62  93 135 176 214 265 326 399
#     4  10  19  36  63  94 133 174 220 263 328 405
#     4  11  23  44  67  88 118 169 222 274 339 406
#     4  11  23  41  65  99 134 178 221 268 335 398
#     4  12  26  45  70  95 128 172 224 287 345 404
#     4  11  24  43  66 102 143 179 225 280 335 413
#     4  10  21  37  63  95 125 169 217 263 331 401
#
# _framework density 21.115041000000002
#
# number of rings (size 3 to 8) (size 9 to 14) (size 15 to 20)
#    0.000    1.250    3.750    3.375    0.000    6.000 
#    0.000    8.125    0.000    0.000    0.000    0.000 
#    0.000    0.000    0.000    0.000    0.000    0.000 
#
# Total GULP energy -178519.173017 kJ/mol
# GULP energy per Si atom -5578.724157 kJ/mol
# Density = 2.106698 g / cm^3
# Si number density = 21.115041 Si / 1000 Ang^3
#
#
#
# Elastic Constant Matrix: (Units=GPa)
#
#
# Indices 1 2 3 4 5 6 
#
# 1 135.2002 56.9707 17.9003 0.0000 0.0000 0.0000
# 2 56.9707 112.7636 39.3766 0.0000 0.0000 0.0000
# 3 17.9003 39.3766 60.5400 0.0000 0.0000 0.0000
# 4 0.0000 0.0000 0.0000 -4.3417 0.0000 0.0000
# 5 0.0000 0.0000 0.0000 0.0000 7.1793 0.0000
# 6 0.0000 0.0000 0.0000 0.0000 0.0000 16.3047
#
#
#
# Elastic Compliance Matrix: (Units=1/GPa)
#
#
# Indices 1 2 3 4 5 6 
#
# 1 0.009404 -0.004891 0.000401 0.000000 0.000000 0.000000
# 2 -0.004891 0.014018 -0.007671 0.000000 0.000000 0.000000
# 3 0.000401 -0.007671 0.021389 0.000000 0.000000 0.000000
# 4 0.000000 0.000000 0.000000 -0.230327 0.000000 0.000000
# 5 0.000000 0.000000 0.000000 0.000000 0.139289 0.000000
# 6 0.000000 0.000000 0.000000 0.000000 0.000000 0.061332
#
#
# Mechanical properties :
#
#
# Convention : Reuss Voigt Hill
#
# Bulk Modulus (GPa) = 48.80965 59.66655 54.23810
# Shear Modulus (GPa) = 108.08709 16.77888 62.43299
#
# Velocity S-wave (km/s) = 7.16245 2.82200 5.44355
# Velocity P-wave (km/s) = 9.56908 6.23998 8.07789
#
# Compressibility (1/GPa) = 0.02048775
#
# Stress axis : x y z
#
# Youngs Moduli (GPa) = 106.33241 71.33618 46.75249
#
# Poissons Ratio (x) = 0.34892 -0.01873
# Poissons Ratio (y) = 0.52010 0.35866
# Poissons Ratio (z) = -0.04261 0.54725
#
# Static dielectric constant tensor:
#      x y z
#    x 1.818830 0.000000 0.000000 
#    y 0.000000 1.752130 0.000000 
#    z 0.000000 0.000000 1.821990 
# 
# From -- ./inp_files/18476.got.cif
#   From: 2010.05.17/outbox.cif.g08.bks.cpg/sg37_10_cif.got.tgz:18476.got - 2010.06.03 17:53:42.
