data_PCOD9353317
_publ_section_title
;
Structure prediction by ZEFSAII (Michael W. Deem and Ramdas Pophale) SiO2 
 PCOD9353317
Probable space group: C M C 21
;
_chemical_formula_sum "Si O2"
_cell_formula_units_Z 32
_cell_length_a 9.000000
_cell_length_b 30.000000
_cell_length_c 12.000000
_cell_angle_alpha 90.000000
_cell_angle_beta 90.000000
_cell_angle_gamma 90.000000
_cell_volume 3240.000000
_symmetry_space_group_name_H-M "C M C 21"
_symmetry_group_IT_number 36
_symmetry_cell_setting 'orthorhombic'
loop_
_space_group_symop_operation_xyz
x,y,z
-x,-y,1/2+z
x,-y,1/2+z
-x,y,z
1/2+x,1/2+y,z
1/2-x,1/2-y,1/2+z
1/2+x,1/2-y,1/2+z
1/2-x,1/2+y,z
loop_
_atom_site_type_symbol
_atom_site_label
_atom_site_fract_x
_atom_site_fract_y
_atom_site_fract_z
Si Si1 0.320962 0.082272 0.398720
Si Si2 0.677455 0.568665 0.628798
Si Si3 0.178602 0.634484 0.792577
Si Si4 0.826999 0.089327 0.002369
Si Si5 0.329181 0.816353 0.870338
Si Si6 0.177359 0.972113 0.698464
Si Si7 0.834470 0.335696 0.615349
Si Si8 0.329842 0.775064 0.400684
O O1 0.500000 0.081455 0.400336
O O2 0.250672 0.061548 0.508933
O O3 0.271578 0.134315 0.399160
O O4 0.263986 0.056368 0.289959
O O5 0.500000 0.572894 0.619308
O O6 0.748276 0.612074 0.685625
O O7 0.709034 0.524659 0.702605
O O8 0.228820 0.685332 0.819490
O O9 0.000000 0.634530 0.785546
O O10 0.229847 0.603745 0.896783
O O11 0.789327 0.045525 0.073238
O O12 0.792737 0.128764 0.090495
O O13 0.000000 0.087998 0.969874
O O14 0.500000 0.814687 0.907861
O O15 0.323827 0.815337 0.736411
O O16 0.249743 0.771882 0.908816
O O17 0.000000 0.965560 0.714812
O O18 0.827520 0.298633 0.520706
O O19 0.000000 0.357439 0.606917
O O20 0.500000 0.766890 0.367482
#
# Coordination Sequence:
#
# PCOD9353317 Si02
#       8
#     8   8   8   8   8   8   8   8
#     4  11  24  42  64  93 126 160 204 256 309 367
#     4  11  25  43  63  89 127 169 206 253 309 369
#     4  10  22  41  61  88 124 160 205 257 305 362
#     4  10  19  34  60  89 115 151 197 250 303 359
#     4  10  21  37  59  86 120 156 200 254 306 363
#     4  10  23  41  62  89 121 158 203 251 301 364
#     4   9  18  36  55  79 114 153 197 251 304 354
#     4   9  20  36  58  85 117 157 204 254 307 364
#
# _framework density 9.8765429999999999
#
# number of rings (size 3 to 8) (size 9 to 14) (size 15 to 20)
#    0.000    2.000    1.250    2.250    1.750    6.500 
#    0.000    2.500    0.000    0.000    0.000    0.000 
#    0.000    0.000    0.000    0.000    0.000    0.000 
#
# Total GULP energy -178520.371691 kJ/mol
# GULP energy per Si atom -5578.761615 kJ/mol
# Density = 0.985406 g / cm^3
# Si number density = 9.876543 Si / 1000 Ang^3
#
#
#
# Elastic Constant Matrix: (Units=GPa)
#
#
# Indices 1 2 3 4 5 6 
#
# 1 47.0763 41.8855 20.0591 0.0000 0.0000 0.0000
# 2 41.8855 110.4532 17.4992 0.0000 0.0000 0.0000
# 3 20.0591 17.4992 46.5800 0.0000 0.0000 0.0000
# 4 0.0000 0.0000 0.0000 4.1203 0.0000 0.0000
# 5 0.0000 0.0000 0.0000 0.0000 27.8481 0.0000
# 6 0.0000 0.0000 0.0000 0.0000 0.0000 23.5948
#
#
#
# Elastic Compliance Matrix: (Units=1/GPa)
#
#
# Indices 1 2 3 4 5 6 
#
# 1 0.036928 -0.012211 -0.011315 0.000000 0.000000 0.000000
# 2 -0.012211 0.013664 0.000125 0.000000 0.000000 0.000000
# 3 -0.011315 0.000125 0.026294 0.000000 0.000000 0.000000
# 4 0.000000 0.000000 0.000000 0.242699 0.000000 0.000000
# 5 0.000000 0.000000 0.000000 0.000000 0.035909 0.000000
# 6 0.000000 0.000000 0.000000 0.000000 0.000000 0.042382
#
#
# Mechanical properties :
#
#
# Convention : Reuss Voigt Hill
#
# Bulk Modulus (GPa) = 33.23978 40.33300 36.78639
# Shear Modulus (GPa) = 10.99609 19.42369 15.20989
#
# Velocity S-wave (km/s) = 2.36196 3.13920 2.77790
# Velocity P-wave (km/s) = 4.92977 5.79675 5.38075
#
# Compressibility (1/GPa) = 0.03008443
#
# Stress axis : x y z
#
# Youngs Moduli (GPa) = 27.07976 73.18301 38.03125
#
# Poissons Ratio (x) = 0.89363 0.43033
# Poissons Ratio (y) = 0.33067 -0.00476
# Poissons Ratio (z) = 0.30641 -0.00915
#
# Static dielectric constant tensor:
#      x y z
#    x 1.687700 0.000000 0.000000 
#    y 0.000000 1.703770 0.000000 
#    z 0.000000 0.000000 1.713300 
# 
# From -- ./inp_files/7273.got.cif
#   From: 2010.05.17/outbox.ucp.g08.bks.cvg/sg36_4_cif.got.tgz:7273.got - 2010.06.11 10:37:26.
