data_PCOD9353352
_publ_section_title
;
Structure prediction by ZEFSAII (Michael W. Deem and Ramdas Pophale) SiO2 
 PCOD9353352
Probable space group: C M C 21
;
_chemical_formula_sum "Si O2"
_cell_formula_units_Z 32
_cell_length_a 9.000000
_cell_length_b 15.000000
_cell_length_c 24.000000
_cell_angle_alpha 90.000000
_cell_angle_beta 90.000000
_cell_angle_gamma 90.000000
_cell_volume 3240.000000
_symmetry_space_group_name_H-M "C M C 21"
_symmetry_group_IT_number 36
_symmetry_cell_setting 'orthorhombic'
loop_
_space_group_symop_operation_xyz
x,y,z
-x,-y,1/2+z
x,-y,1/2+z
-x,y,z
1/2+x,1/2+y,z
1/2-x,1/2-y,1/2+z
1/2+x,1/2-y,1/2+z
1/2-x,1/2+y,z
loop_
_atom_site_type_symbol
_atom_site_label
_atom_site_fract_x
_atom_site_fract_y
_atom_site_fract_z
Si Si1 0.679827 0.408422 0.481900
Si Si2 0.678128 0.243126 0.412061
Si Si3 0.323732 0.607340 0.494790
Si Si4 0.823343 0.853214 0.606037
Si Si5 0.171974 0.832079 0.118669
Si Si6 0.175906 0.914517 0.241069
Si Si7 0.321731 0.255177 0.794422
Si Si8 0.822527 0.595333 0.217606
O O1 0.500000 0.406003 0.483395
O O2 0.724807 0.341288 0.433453
O O3 0.723172 0.510145 0.474053
O O4 0.726988 0.376777 0.543491
O O5 0.500000 0.240134 0.403748
O O6 0.727069 0.179575 0.462659
O O7 0.762787 0.218990 0.355577
O O8 0.500000 0.621329 0.483212
O O9 0.308052 0.612358 0.561837
O O10 0.784446 0.749991 0.616007
O O11 0.735519 0.904852 0.654044
O O12 0.000000 0.870222 0.611261
O O13 0.190277 0.884215 0.176309
O O14 0.000000 0.798495 0.118137
O O15 0.253057 0.840559 0.279056
O O16 0.000000 0.921928 0.253298
O O17 0.260247 0.007249 0.246753
O O18 0.500000 0.255578 0.791801
O O19 0.252631 0.321727 0.748844
O O20 0.000000 0.601749 0.219548
#
# Coordination Sequence:
#
# PCOD9353352 Si02
#       8
#     8   8   8   8   8   8   8   8
#     4   9  20  38  62  90 123 164 204 247 307 373
#     4  11  23  42  63  88 121 161 210 264 314 371
#     4  10  20  38  62  90 124 164 206 250 304 374
#     4  11  20  36  63  93 127 167 207 252 312 379
#     4  10  20  35  61  93 129 165 203 251 310 374
#     4  11  23  42  67  96 129 168 207 255 315 379
#     4  12  26  45  66  91 122 165 215 267 318 373
#     4  12  25  42  64  95 129 166 210 260 314 377
#
# _framework density 9.8765429999999999
#
# number of rings (size 3 to 8) (size 9 to 14) (size 15 to 20)
#    0.000    1.250    2.500    4.125    0.000    3.500 
#    0.000    7.500    0.000    0.000    0.000    0.000 
#    0.000    0.000    0.000    0.000    0.000    0.000 
#
# Total GULP energy -178848.918308 kJ/mol
# GULP energy per Si atom -5589.028697 kJ/mol
# Density = 0.985406 g / cm^3
# Si number density = 9.876543 Si / 1000 Ang^3
#
#
#
# Elastic Constant Matrix: (Units=GPa)
#
#
# Indices 1 2 3 4 5 6 
#
# 1 107.7392 14.0099 20.6903 0.0000 0.0000 0.0000
# 2 14.0099 59.1022 -15.8021 0.0000 0.0000 0.0000
# 3 20.6903 -15.8021 52.9542 0.0000 0.0000 0.0000
# 4 0.0000 0.0000 0.0000 14.1681 0.0000 0.0000
# 5 0.0000 0.0000 0.0000 0.0000 33.0103 0.0000
# 6 0.0000 0.0000 0.0000 0.0000 0.0000 29.1193
#
#
#
# Elastic Compliance Matrix: (Units=1/GPa)
#
#
# Indices 1 2 3 4 5 6 
#
# 1 0.010850 -0.004027 -0.005441 0.000000 0.000000 0.000000
# 2 -0.004027 0.019881 0.007506 0.000000 0.000000 0.000000
# 3 -0.005441 0.007506 0.023250 0.000000 0.000000 0.000000
# 4 0.000000 0.000000 0.000000 0.070581 0.000000 0.000000
# 5 0.000000 0.000000 0.000000 0.000000 0.030294 0.000000
# 6 0.000000 0.000000 0.000000 0.000000 0.000000 0.034341
#
#
# Mechanical properties :
#
#
# Convention : Reuss Voigt Hill
#
# Bulk Modulus (GPa) = 19.97671 28.62131 24.29901
# Shear Modulus (GPa) = 23.83144 28.65272 26.24208
#
# Velocity S-wave (km/s) = 3.47719 3.81273 3.64882
# Velocity P-wave (km/s) = 5.12409 5.82268 5.48452
#
# Compressibility (1/GPa) = 0.05005829
#
# Stress axis : x y z
#
# Youngs Moduli (GPa) = 92.16431 50.29855 43.01059
#
# Poissons Ratio (x) = 0.20254 0.23402
# Poissons Ratio (y) = 0.37112 -0.32284
# Poissons Ratio (z) = 0.50147 -0.37755
#
# Static dielectric constant tensor:
#      x y z
#    x 1.652360 0.000000 0.000000 
#    y 0.000000 1.749070 0.000000 
#    z 0.000000 0.000000 1.693480 
# 
# From -- ./inp_files/16606.got.cif
#   From: 2010.05.17/outbox.ucp.g08.bks.cvg/sg36_9_cif.got.tgz:16606.got - 2010.06.11 10:37:26.
