data_PCOD9353725
_publ_section_title
;
Structure prediction by ZEFSAII (Michael W. Deem and Ramdas Pophale) SiO2 
 PCOD9353725
Probable space group: C C C 2
;
_chemical_formula_sum "Si O2"
_cell_formula_units_Z 48
_cell_length_a 7.815401
_cell_length_b 26.244892
_cell_length_c 9.499521
_cell_angle_alpha 90.000000
_cell_angle_beta 90.000000
_cell_angle_gamma 90.000000
_cell_volume 1948.488124
_symmetry_space_group_name_H-M "C C C 2"
_symmetry_group_IT_number 37
_symmetry_cell_setting 'orthorhombic'
loop_
_space_group_symop_operation_xyz
x,y,z
-x,-y,z
-x,y,1/2+z
x,-y,1/2+z
1/2+x,1/2+y,z
1/2-x,1/2-y,z
1/2-x,1/2+y,1/2+z
1/2+x,1/2-y,1/2+z
loop_
_atom_site_type_symbol
_atom_site_label
_atom_site_fract_x
_atom_site_fract_y
_atom_site_fract_z
Si Si1 0.622673 0.322546 0.027570
Si Si2 0.427346 0.221942 0.958931
Si Si3 0.696093 0.935404 0.806368
Si Si4 0.693685 0.519580 0.091444
Si Si5 0.475395 0.158803 0.692416
Si Si6 0.439628 0.614952 0.755091
O O1 0.557761 0.265237 0.010340
O O2 0.795150 0.330094 0.114937
O O3 0.481380 0.350983 0.120702
O O4 0.640213 0.351695 0.879227
O O5 0.250000 0.250000 0.930556
O O6 0.398122 0.175521 0.068428
O O7 0.498266 0.198525 0.816785
O O8 0.546401 0.896311 0.763540
O O9 0.876116 0.904711 0.810634
O O10 0.717630 0.975049 0.679365
O O11 0.696795 0.963419 0.956464
O O12 0.500000 0.500000 0.048552
O O13 0.662425 0.566211 0.199033
#
# Coordination Sequence:
#
# PCOD9353725 Si02
#       6
#     8   8   8   8   8   8
#     4  11  22  41  68 108 143 179 228 298 358 415
#     4  12  25  46  70  98 136 189 234 292 358 434
#     4  10  21  38  61 102 145 186 235 293 343 412
#     4  10  19  33  64 104 145 191 234 285 348 415
#     4  11  27  47  69 104 145 173 242 300 356 431
#     4  10  19  33  61 105 149 181 226 287 353 415
#
# _framework density 24.634484
#
# number of rings (size 3 to 8) (size 9 to 14) (size 15 to 20)
#    0.000    1.333    1.667    6.000    4.667    2.667 
#    0.000    0.000    0.000    3.000    0.000    0.000 
#    0.000    0.000    0.000    0.000    0.000    0.000 
#
# Total GULP energy -134476.287136 kJ/mol
# GULP energy per Si atom -5603.178631 kJ/mol
# Density = 2.457842 g / cm^3
# Si number density = 24.634484 Si / 1000 Ang^3
#
#
#
# Elastic Constant Matrix: (Units=GPa)
#
#
# Indices 1 2 3 4 5 6 
#
# 1 48.0763 7.9919 -11.5421 0.0000 0.0000 0.0000
# 2 7.9919 110.9900 37.4573 0.0000 0.0000 0.0000
# 3 -11.5421 37.4573 124.8112 0.0000 0.0000 0.0000
# 4 0.0000 0.0000 0.0000 51.5371 0.0000 0.0000
# 5 0.0000 0.0000 0.0000 0.0000 25.4658 0.0000
# 6 0.0000 0.0000 0.0000 0.0000 0.0000 15.1583
#
#
#
# Elastic Compliance Matrix: (Units=1/GPa)
#
#
# Indices 1 2 3 4 5 6 
#
# 1 0.021885 -0.002513 0.002778 0.000000 0.000000 0.000000
# 2 -0.002513 0.010314 -0.003328 0.000000 0.000000 0.000000
# 3 0.002778 -0.003328 0.009268 0.000000 0.000000 0.000000
# 4 0.000000 0.000000 0.000000 0.019404 0.000000 0.000000
# 5 0.000000 0.000000 0.000000 0.000000 0.039268 0.000000
# 6 0.000000 0.000000 0.000000 0.000000 0.000000 0.065970
#
#
# Mechanical properties :
#
#
# Convention : Reuss Voigt Hill
#
# Bulk Modulus (GPa) = 28.29606 39.07685 33.68645
# Shear Modulus (GPa) = 27.17169 35.09693 31.13431
#
# Velocity S-wave (km/s) = 3.32474 3.77862 3.55892
# Velocity P-wave (km/s) = 5.12346 5.91054 5.53101
#
# Compressibility (1/GPa) = 0.03534061
#
# Stress axis : x y z
#
# Youngs Moduli (GPa) = 45.69329 96.95691 107.90151
#
# Poissons Ratio (x) = 0.24369 -0.29977
# Poissons Ratio (y) = 0.11485 0.35907
# Poissons Ratio (z) = -0.12694 0.32265
#
# Static dielectric constant tensor:
#      x y z
#    x 2.006540 0.000000 0.000000 
#    y 0.000000 2.083480 0.000000 
#    z 0.000000 0.000000 1.918030 
# 
# From -- ./inp_files/2402.got.cif
#   From: 2010.05.17/outbox.cif.g08.bks.cpg/sg37_2_cif.got.tgz:2402.got - 2010.06.03 17:53:42.
