data_PCOD9353254
_publ_section_title
;
Structure prediction by ZEFSAII (Michael W. Deem and Ramdas Pophale) SiO2 
 PCOD9353254
Probable space group: C M C 21
;
_chemical_formula_sum "Si O2"
_cell_formula_units_Z 48
_cell_length_a 15.632388
_cell_length_b 18.934361
_cell_length_c 7.365981
_cell_angle_alpha 90.000000
_cell_angle_beta 90.000000
_cell_angle_gamma 90.000000
_cell_volume 2180.251396
_symmetry_space_group_name_H-M "C M C 21"
_symmetry_group_IT_number 36
_symmetry_cell_setting 'orthorhombic'
loop_
_space_group_symop_operation_xyz
x,y,z
-x,-y,1/2+z
x,-y,1/2+z
-x,y,z
1/2+x,1/2+y,z
1/2-x,1/2-y,1/2+z
1/2+x,1/2-y,1/2+z
1/2-x,1/2+y,z
loop_
_atom_site_type_symbol
_atom_site_label
_atom_site_fract_x
_atom_site_fract_y
_atom_site_fract_z
Si Si1 0.739543 0.957997 0.363240
Si Si2 0.909402 0.410964 0.096544
Si Si3 0.597125 0.357453 0.409733
Si Si4 0.320530 0.090797 0.241347
Si Si5 0.140503 0.260114 0.196691
Si Si6 0.833021 0.248629 0.623737
O O1 0.827931 0.915269 0.382136
O O2 0.682803 0.936728 0.537040
O O3 0.675337 0.935096 0.203040
O O4 0.754049 0.042021 0.332817
O O5 0.895942 0.423904 0.882676
O O6 0.861419 0.253802 0.414809
O O7 0.000000 0.442183 0.157581
O O8 0.912247 0.327114 0.131519
O O9 0.500000 0.384889 0.413206
O O10 0.615284 0.311387 0.591654
O O11 0.608420 0.301285 0.245767
O O12 0.320698 0.174606 0.215812
O O13 0.236677 0.279820 0.134820
#
# Coordination Sequence:
#
# PCOD9353254 Si02
#       6
#     8   8   8   8   8   8
#     4  12  26  47  72  95 148 196 233 294 363 442
#     4  12  25  41  67 104 142 179 230 296 368 438
#     4  12  27  46  71 110 147 189 249 304 357 433
#     4  12  24  44  68  99 134 190 238 284 361 434
#     4  12  21  41  72 106 137 177 234 304 370 420
#     4  12  22  41  75 102 138 183 231 300 368 429
#
# _framework density 22.015809999999998
#
# number of rings (size 3 to 8) (size 9 to 14) (size 15 to 20)
#    0.000    0.000   10.000    0.500    0.000    2.667 
#    0.000    0.833    0.000    0.000    0.000    0.000 
#    0.000    0.000    0.000    0.000    0.000    0.000 
#
# Total GULP energy -133889.061128 kJ/mol
# GULP energy per Si atom -5578.710880 kJ/mol
# Density = 2.196570 g / cm^3
# Si number density = 22.015810 Si / 1000 Ang^3
#
#
#
# Elastic Constant Matrix: (Units=GPa)
#
#
# Indices 1 2 3 4 5 6 
#
# 1 144.1104 40.8075 43.0110 0.0000 0.0000 0.0000
# 2 40.8075 94.1907 37.8965 0.0000 0.0000 0.0000
# 3 43.0110 37.8965 148.0260 0.0000 0.0000 0.0000
# 4 0.0000 0.0000 0.0000 27.3579 0.0000 0.0000
# 5 0.0000 0.0000 0.0000 0.0000 -62.8903 0.0000
# 6 0.0000 0.0000 0.0000 0.0000 0.0000 7.7941
#
#
#
# Elastic Compliance Matrix: (Units=1/GPa)
#
#
# Indices 1 2 3 4 5 6 
#
# 1 0.008257 -0.002912 -0.001654 0.000000 0.000000 0.000000
# 2 -0.002912 0.012863 -0.002447 0.000000 0.000000 0.000000
# 3 -0.001654 -0.002447 0.007863 0.000000 0.000000 0.000000
# 4 0.000000 0.000000 0.000000 0.036553 0.000000 0.000000
# 5 0.000000 0.000000 0.000000 0.000000 -0.015901 0.000000
# 6 0.000000 0.000000 0.000000 0.000000 0.000000 0.128302
#
#
# Mechanical properties :
#
#
# Convention : Reuss Voigt Hill
#
# Bulk Modulus (GPa) = 66.85716 69.97301 68.41509
# Shear Modulus (GPa) = 25.38740 12.09313 18.74026
#
# Velocity S-wave (km/s) = 3.39948 2.34624 2.92073
# Velocity P-wave (km/s) = 6.77070 6.26034 6.52051
#
# Compressibility (1/GPa) = 0.01495726
#
# Stress axis : x y z
#
# Youngs Moduli (GPa) = 121.10486 77.74310 127.18550
#
# Poissons Ratio (x) = 0.22639 0.21033
# Poissons Ratio (y) = 0.35266 0.31121
# Poissons Ratio (z) = 0.20028 0.19023
#
# Static dielectric constant tensor:
#      x y z
#    x 2.853810 0.000000 0.000000 
#    y 0.000000 1.923290 0.000000 
#    z 0.000000 0.000000 1.825510 
# 
# From -- ./inp_files/4074.got.cif
#   From: 2010.05.17/outbox.cif.g08.bks.cpg/sg36_3_cif.got.tgz:4074.got - 2010.06.03 17:41:39.
