data_PCOD9353275
_publ_section_title
;
Structure prediction by ZEFSAII (Michael W. Deem and Ramdas Pophale) SiO2 
 PCOD9353275
Probable space group: C M C 21
;
_chemical_formula_sum "Si O2"
_cell_formula_units_Z 24
_cell_length_a 9.860674
_cell_length_b 14.264369
_cell_length_c 7.369193
_cell_angle_alpha 90.000000
_cell_angle_beta 90.000000
_cell_angle_gamma 90.000000
_cell_volume 1036.523366
_symmetry_space_group_name_H-M "C M C 21"
_symmetry_group_IT_number 36
_symmetry_cell_setting 'orthorhombic'
loop_
_space_group_symop_operation_xyz
x,y,z
-x,-y,1/2+z
x,-y,1/2+z
-x,y,z
1/2+x,1/2+y,z
1/2-x,1/2-y,1/2+z
1/2+x,1/2-y,1/2+z
1/2-x,1/2+y,z
loop_
_atom_site_type_symbol
_atom_site_label
_atom_site_fract_x
_atom_site_fract_y
_atom_site_fract_z
Si Si1 0.655785 0.435395 0.327390
Si Si2 0.354382 0.164630 0.089333
Si Si3 0.724608 0.365298 0.957755
O O1 0.500000 0.404436 0.296657
O O2 0.727606 0.386682 0.497198
O O3 0.651403 0.546138 0.365311
O O4 0.751617 0.407774 0.157707
O O5 0.500000 0.120549 0.044451
O O6 0.334860 0.163318 0.306904
O O7 0.350409 0.269232 0.007738
#
# Coordination Sequence:
#
# PCOD9353275 Si02
#       3
#     8   8   8
#     4  12  26  48  78 109 145 197 250 302 367 446
#     4  12  28  48  74 112 152 193 244 311 374 430
#     4  12  26  48  74 109 149 194 248 297 367 446
#
# _framework density 23.154328
#
# number of rings (size 3 to 8) (size 9 to 14) (size 15 to 20)
#    0.000    0.000    6.667    3.000    0.000    5.333 
#    0.000    0.000    0.000    0.000    0.000    0.000 
#    0.000    0.000    0.000    0.000    0.000    0.000 
#
# Total GULP energy -66909.917679 kJ/mol
# GULP energy per Si atom -5575.826473 kJ/mol
# Density = 2.310163 g / cm^3
# Si number density = 23.154328 Si / 1000 Ang^3
#
#
#
# Elastic Constant Matrix: (Units=GPa)
#
#
# Indices 1 2 3 4 5 6 
#
# 1 80.8112 47.9630 34.7338 0.0000 0.0000 0.0000
# 2 47.9630 119.9984 26.9815 0.0000 0.0000 0.0000
# 3 34.7338 26.9815 155.6554 0.0000 0.0000 0.0000
# 4 0.0000 0.0000 0.0000 60.1834 0.0000 0.0000
# 5 0.0000 0.0000 0.0000 0.0000 -0.6494 0.0000
# 6 0.0000 0.0000 0.0000 0.0000 0.0000 6.5893
#
#
#
# Elastic Compliance Matrix: (Units=1/GPa)
#
#
# Indices 1 2 3 4 5 6 
#
# 1 0.017299 -0.006292 -0.002770 0.000000 0.000000 0.000000
# 2 -0.006292 0.010960 -0.000496 0.000000 0.000000 0.000000
# 3 -0.002770 -0.000496 0.007128 0.000000 0.000000 0.000000
# 4 0.000000 0.000000 0.000000 0.016616 0.000000 0.000000
# 5 0.000000 0.000000 0.000000 0.000000 -1.539810 0.000000
# 6 0.000000 0.000000 0.000000 0.000000 0.000000 0.151761
#
#
# Mechanical properties :
#
#
# Convention : Reuss Voigt Hill
#
# Bulk Modulus (GPa) = 61.45121 63.98014 62.71567
# Shear Modulus (GPa) = -3.81241 29.67711 12.93235
#
# Velocity S-wave (km/s) = -1.28456 3.58398 2.36588
# Velocity P-wave (km/s) = 4.93936 6.69467 5.88285
#
# Compressibility (1/GPa) = 0.01627307
#
# Stress axis : x y z
#
# Youngs Moduli (GPa) = 57.80618 91.24341 140.28349
#
# Poissons Ratio (x) = 0.57407 0.38853
# Poissons Ratio (y) = 0.36370 0.06955
# Poissons Ratio (z) = 0.16010 0.04524
#
# Static dielectric constant tensor:
#      x y z
#    x 1.823740 0.000000 0.000000 
#    y 0.000000 1.894260 0.000000 
#    z 0.000000 0.000000 1.887420 
# 
# From -- ./inp_files/2173.got.cif
#   From: 2010.05.17/outbox.cif.g08.bks.cpg/sg36_2_cif.got.tgz:2173.got - 2010.06.03 17:41:39.
