data_PCOD9353929
_publ_section_title
;
Structure prediction by ZEFSAII (Michael W. Deem and Ramdas Pophale) SiO2 
 PCOD9353929
Probable space group: C C C 2
;
_chemical_formula_sum "Si O2"
_cell_formula_units_Z 40
_cell_length_a 7.492052
_cell_length_b 17.421879
_cell_length_c 11.928537
_cell_angle_alpha 90.000000
_cell_angle_beta 90.000000
_cell_angle_gamma 90.000000
_cell_volume 1556.979728
_symmetry_space_group_name_H-M "C C C 2"
_symmetry_group_IT_number 37
_symmetry_cell_setting 'orthorhombic'
loop_
_space_group_symop_operation_xyz
x,y,z
-x,-y,z
-x,y,1/2+z
x,-y,1/2+z
1/2+x,1/2+y,z
1/2-x,1/2-y,z
1/2-x,1/2+y,1/2+z
1/2+x,1/2-y,1/2+z
loop_
_atom_site_type_symbol
_atom_site_label
_atom_site_fract_x
_atom_site_fract_y
_atom_site_fract_z
Si Si1 0.490461 0.291284 0.090040
Si Si2 0.270707 0.071342 0.603375
Si Si3 0.175112 0.599982 0.542513
Si Si4 0.043992 0.769340 0.836773
Si Si5 0.374375 0.570055 0.342913
O O1 0.640869 0.357845 0.073998
O O2 0.304281 0.338712 0.101550
O O3 0.527186 0.247672 0.209291
O O4 0.482634 0.249782 0.966871
O O5 0.473992 0.096083 0.582770
O O6 0.220906 0.049140 0.728865
O O7 0.251091 0.987878 0.547884
O O8 0.213592 0.609578 0.411766
O O9 0.250000 0.750000 0.836766
O O10 0.010168 0.859931 0.829859
O O11 0.500000 0.500000 0.377714
#
# Coordination Sequence:
#
# PCOD9353929 Si02
#       5
#     8   8   8   8   8
#     4  10  21  42  66  92 134 182 231 294 358 416
#     4  10  20  33  59  97 133 175 229 288 356 425
#     4  10  20  33  59  97 133 175 229 288 356 425
#     4  10  22  43  70  96 133 184 238 285 352 437
#     4  10  20  38  67  97 140 187 232 303 378 423
#
# _framework density 25.690766
#
# number of rings (size 3 to 8) (size 9 to 14) (size 15 to 20)
#    0.000    2.000    0.000    5.400    0.000    4.800 
#    3.600    1.000    4.400    0.000    0.000    0.000 
#    0.000    0.000    0.000    0.000    0.000    0.000 
#
# Total GULP energy -111528.290022 kJ/mol
# GULP energy per Si atom -5576.414501 kJ/mol
# Density = 2.563229 g / cm^3
# Si number density = 25.690766 Si / 1000 Ang^3
#
#
#
# Elastic Constant Matrix: (Units=GPa)
#
#
# Indices 1 2 3 4 5 6 
#
# 1 164.8858 36.6139 45.9838 0.0000 0.0000 0.0000
# 2 36.6139 83.4528 19.5064 0.0000 0.0000 0.0000
# 3 45.9838 19.5064 133.0437 0.0000 0.0000 0.0000
# 4 0.0000 0.0000 0.0000 -10.8795 0.0000 0.0000
# 5 0.0000 0.0000 0.0000 0.0000 38.8192 0.0000
# 6 0.0000 0.0000 0.0000 0.0000 0.0000 43.3616
#
#
#
# Elastic Compliance Matrix: (Units=1/GPa)
#
#
# Indices 1 2 3 4 5 6 
#
# 1 0.007251 -0.002687 -0.002112 0.000000 0.000000 0.000000
# 2 -0.002687 0.013404 -0.001036 0.000000 0.000000 0.000000
# 3 -0.002112 -0.001036 0.008398 0.000000 0.000000 0.000000
# 4 0.000000 0.000000 0.000000 -0.091916 0.000000 0.000000
# 5 0.000000 0.000000 0.000000 0.000000 0.025760 0.000000
# 6 0.000000 0.000000 0.000000 0.000000 0.000000 0.023062
#
#
# Mechanical properties :
#
#
# Convention : Reuss Voigt Hill
#
# Bulk Modulus (GPa) = 57.53311 65.06560 61.29935
# Shear Modulus (GPa) = 1459.88375 32.87880 746.38127
#
# Velocity S-wave (km/s) = 23.86390 3.58130 17.06329
# Velocity P-wave (km/s) = 27.95993 6.51785 20.30074
#
# Compressibility (1/GPa) = 0.01738130
#
# Stress axis : x y z
#
# Youngs Moduli (GPa) = 137.92040 74.60373 119.07254
#
# Poissons Ratio (x) = 0.20049 0.25148
# Poissons Ratio (y) = 0.37065 0.12341
# Poissons Ratio (z) = 0.29129 0.07732
#
# Static dielectric constant tensor:
#      x y z
#    x 1.974500 0.000000 0.000000 
#    y 0.000000 2.110610 0.000000 
#    z 0.000000 0.000000 2.158710 
# 
# From -- ./inp_files/6144.got.cif
#   From: 2010.05.17/outbox.cif.g08.bks.cpg/sg37_4_cif.got.tgz:6144.got - 2010.06.03 17:53:42.
