data_PCOD9353431
_publ_section_title
;
Structure prediction by ZEFSAII (Michael W. Deem and Ramdas Pophale) SiO2 
 PCOD9353431
Probable space group: C C C 2
;
_chemical_formula_sum "Si O2"
_cell_formula_units_Z 60
_cell_length_a 25.432606
_cell_length_b 17.833304
_cell_length_c 5.192231
_cell_angle_alpha 90.000000
_cell_angle_beta 90.000000
_cell_angle_gamma 90.000000
_cell_volume 2354.922841
_symmetry_space_group_name_H-M "C C C 2"
_symmetry_group_IT_number 37
_symmetry_cell_setting 'orthorhombic'
loop_
_space_group_symop_operation_xyz
x,y,z
-x,-y,z
-x,y,1/2+z
x,-y,1/2+z
1/2+x,1/2+y,z
1/2-x,1/2-y,z
1/2-x,1/2+y,1/2+z
1/2+x,1/2-y,1/2+z
loop_
_atom_site_type_symbol
_atom_site_label
_atom_site_fract_x
_atom_site_fract_y
_atom_site_fract_z
Si Si1 0.984798 0.242788 0.047620
Si Si2 0.144209 0.398098 0.966984
Si Si3 0.680018 0.343040 0.108131
Si Si4 0.250000 0.250000 0.993108
Si Si5 0.631578 0.799015 0.469487
Si Si6 0.029999 0.592858 0.509926
Si Si7 0.251199 0.910785 0.691250
Si Si8 0.642965 0.458305 0.446502
O O1 0.004950 0.198094 0.289653
O O2 0.023088 0.315814 0.016702
O O3 0.926345 0.274681 0.058486
O O4 0.129098 0.346046 0.210485
O O5 0.087235 0.435034 0.922346
O O6 0.193954 0.445116 0.081030
O O7 0.155351 0.351469 0.701757
O O8 0.658293 0.281652 0.910160
O O9 0.720390 0.399733 0.964157
O O10 0.708247 0.288392 0.307313
O O11 0.634667 0.384824 0.270352
O O12 0.266220 0.177332 0.152155
O O13 0.986646 0.571954 0.297069
O O14 0.205925 0.942706 0.502734
O O15 0.626838 0.477631 0.738404
#
# Coordination Sequence:
#
# PCOD9353431 Si02
#       8
#     8   8   8   4   8   8   8   8
#     4  10  16  30  45  68 104 159 185 211 250 319
#     4  12  21  31  51  78 117 154 182 216 271 334
#     4  11  23  36  55  82 113 149 188 230 283 339
#     4  10  18  32  48  78 120 144 168 212 268 344
#     4  12  21  31  51  78 117 154 182 216 271 334
#     4  10  16  30  45  68 104 159 185 211 250 319
#     4  11  23  36  55  82 113 149 188 230 283 339
#     4  11  24  45  62  73 100 149 194 246 286 325
#
# _framework density 25.478541
#
# number of rings (size 3 to 8) (size 9 to 14) (size 15 to 20)
#    0.000    1.067    8.000    2.000    3.733    0.000 
#    0.000    0.000    0.000    0.000    0.000    0.000 
#    0.000    6.400    0.000    0.000    0.000    0.000 
#
# Total GULP energy -167058.060647 kJ/mol
# GULP energy per Si atom -5568.602022 kJ/mol
# Density = 2.542055 g / cm^3
# Si number density = 25.478541 Si / 1000 Ang^3
#
#
#
# Elastic Constant Matrix: (Units=GPa)
#
#
# Indices 1 2 3 4 5 6 
#
# 1 56.4531 -19.9698 -8.8551 0.0000 0.0000 0.0000
# 2 -19.9698 62.0647 13.4777 0.0000 0.0000 0.0000
# 3 -8.8551 13.4777 130.4253 0.0000 0.0000 0.0000
# 4 0.0000 0.0000 0.0000 26.5035 0.0000 0.0000
# 5 0.0000 0.0000 0.0000 0.0000 22.6102 0.0000
# 6 0.0000 0.0000 0.0000 0.0000 0.0000 7.3430
#
#
#
# Elastic Compliance Matrix: (Units=1/GPa)
#
#
# Indices 1 2 3 4 5 6 
#
# 1 0.020053 0.006298 0.000711 0.000000 0.000000 0.000000
# 2 0.006298 0.018460 -0.001480 0.000000 0.000000 0.000000
# 3 0.000711 -0.001480 0.007868 0.000000 0.000000 0.000000
# 4 0.000000 0.000000 0.000000 0.037731 0.000000 0.000000
# 5 0.000000 0.000000 0.000000 0.000000 0.044228 0.000000
# 6 0.000000 0.000000 0.000000 0.000000 0.000000 0.136184
#
#
# Mechanical properties :
#
#
# Convention : Reuss Voigt Hill
#
# Bulk Modulus (GPa) = 17.40981 24.24983 20.82982
# Shear Modulus (GPa) = 18.34103 28.91071 23.62587
#
# Velocity S-wave (km/s) = 2.68594 3.37220 3.04844
# Velocity P-wave (km/s) = 4.05795 4.96998 4.53694
#
# Compressibility (1/GPa) = 0.05743887
#
# Stress axis : x y z
#
# Youngs Moduli (GPa) = 49.86747 54.17107 127.09044
#
# Poissons Ratio (x) = -0.34117 -0.09032
# Poissons Ratio (y) = -0.31406 0.18809
# Poissons Ratio (z) = -0.03544 0.08017
#
# Static dielectric constant tensor:
#      x y z
#    x 2.166680 0.000000 0.000000 
#    y 0.000000 2.136770 0.000000 
#    z 0.000000 0.000000 2.133520 
# 
# From -- ./inp_files/1525.got.cif
#   From: 2010.05.17/outbox.cif.g08.bks.cpg/sg37_1_cif.got.tgz:1525.got - 2010.06.03 17:53:42.
