data_PCOD9353601
_publ_section_title
;
Structure prediction by ZEFSAII (Michael W. Deem and Ramdas Pophale) SiO2 
 PCOD9353601
Probable space group: C C C 2
;
_chemical_formula_sum "Si O2"
_cell_formula_units_Z 40
_cell_length_a 5.463754
_cell_length_b 18.792188
_cell_length_c 16.494113
_cell_angle_alpha 90.000000
_cell_angle_beta 90.000000
_cell_angle_gamma 90.000000
_cell_volume 1693.547771
_symmetry_space_group_name_H-M "C C C 2"
_symmetry_group_IT_number 37
_symmetry_cell_setting 'orthorhombic'
loop_
_space_group_symop_operation_xyz
x,y,z
-x,-y,z
-x,y,1/2+z
x,-y,1/2+z
1/2+x,1/2+y,z
1/2-x,1/2-y,z
1/2-x,1/2+y,1/2+z
1/2+x,1/2-y,1/2+z
loop_
_atom_site_type_symbol
_atom_site_label
_atom_site_fract_x
_atom_site_fract_y
_atom_site_fract_z
Si Si1 0.290151 0.173160 0.476350
Si Si2 0.249178 0.587080 0.216941
Si Si3 0.250185 0.985340 0.984869
Si Si4 0.710395 0.673259 0.874164
Si Si5 0.749089 0.428960 0.652926
O O1 0.250000 0.250000 0.518504
O O2 0.256150 0.095658 0.515181
O O3 0.565846 0.171016 0.439221
O O4 0.062995 0.172172 0.411670
O O5 0.254844 0.612687 0.308502
O O6 0.249815 0.501584 0.206033
O O7 0.501935 0.611565 0.174896
O O8 0.996248 0.611581 0.175237
O O9 0.500000 0.000000 0.938488
O O10 0.248370 0.038747 0.061964
O O11 0.000000 0.000000 0.938930
O O12 0.750000 0.750000 0.832885
#
# Coordination Sequence:
#
# PCOD9353601 Si02
#       5
#     8   8   8   8   8
#     4  10  23  42  61  87 122 159 199 246 298 355
#     4  10  18  35  57  81 111 154 184 235 299 337
#     4  12  21  40  63  86 123 156 198 253 298 344
#     4  10  21  40  61  84 120 158 197 242 292 359
#     4  10  19  35  57  78 118 149 182 244 293 333
#
# _framework density 23.619054999999999
#
# number of rings (size 3 to 8) (size 9 to 14) (size 15 to 20)
#    0.000    1.600    4.000    2.400    0.000    0.000 
#   21.600    1.000    0.000    2.400    0.000    0.000 
#    0.000    0.000    0.000    0.000    0.000    0.000 
#
# Total GULP energy -111566.213214 kJ/mol
# GULP energy per Si atom -5578.310661 kJ/mol
# Density = 2.356530 g / cm^3
# Si number density = 23.619055 Si / 1000 Ang^3
#
#
#
# Elastic Constant Matrix: (Units=GPa)
#
#
# Indices 1 2 3 4 5 6 
#
# 1 216.4120 17.2925 12.1510 0.0000 0.0000 0.0000
# 2 17.2925 70.2139 8.5127 0.0000 0.0000 0.0000
# 3 12.1510 8.5127 21.5537 0.0000 0.0000 0.0000
# 4 0.0000 0.0000 0.0000 8.2654 0.0000 0.0000
# 5 0.0000 0.0000 0.0000 0.0000 21.2516 0.0000
# 6 0.0000 0.0000 0.0000 0.0000 0.0000 24.7817
#
#
#
# Elastic Compliance Matrix: (Units=1/GPa)
#
#
# Indices 1 2 3 4 5 6 
#
# 1 0.004826 -0.000902 -0.002364 0.000000 0.000000 0.000000
# 2 -0.000902 0.015127 -0.005466 0.000000 0.000000 0.000000
# 3 -0.002364 -0.005466 0.049887 0.000000 0.000000 0.000000
# 4 0.000000 0.000000 0.000000 0.120986 0.000000 0.000000
# 5 0.000000 0.000000 0.000000 0.000000 0.047055 0.000000
# 6 0.000000 0.000000 0.000000 0.000000 0.000000 0.040352
#
#
# Mechanical properties :
#
#
# Convention : Reuss Voigt Hill
#
# Bulk Modulus (GPa) = 19.09281 42.67690 30.88486
# Shear Modulus (GPa) = 15.96644 28.87463 22.42053
#
# Velocity S-wave (km/s) = 2.60282 3.50024 3.08434
# Velocity P-wave (km/s) = 4.13933 5.86887 5.07827
#
# Compressibility (1/GPa) = 0.05237573
#
# Stress axis : x y z
#
# Youngs Moduli (GPa) = 207.22693 66.10700 20.04515
#
# Poissons Ratio (x) = 0.05962 0.04739
# Poissons Ratio (y) = 0.18688 0.10957
# Poissons Ratio (z) = 0.48995 0.36134
#
# Static dielectric constant tensor:
#      x y z
#    x 2.044600 0.000000 0.000000 
#    y 0.000000 1.912310 0.000000 
#    z 0.000000 0.000000 1.872490 
# 
# From -- ./inp_files/13722.got.cif
#   From: 2010.05.17/outbox.cif.g08.bks.cpg/sg37_7_cif.got.tgz:13722.got - 2010.06.03 17:53:42.
