data_PCOD9353345
_publ_section_title
;
Structure prediction by ZEFSAII (Michael W. Deem and Ramdas Pophale) SiO2 
 PCOD9353345
Probable space group: C M C 21
;
_chemical_formula_sum "Si O2"
_cell_formula_units_Z 32
_cell_length_a 9.000000
_cell_length_b 15.000000
_cell_length_c 24.000000
_cell_angle_alpha 90.000000
_cell_angle_beta 90.000000
_cell_angle_gamma 90.000000
_cell_volume 3240.000000
_symmetry_space_group_name_H-M "C M C 21"
_symmetry_group_IT_number 36
_symmetry_cell_setting 'orthorhombic'
loop_
_space_group_symop_operation_xyz
x,y,z
-x,-y,1/2+z
x,-y,1/2+z
-x,y,z
1/2+x,1/2+y,z
1/2-x,1/2-y,1/2+z
1/2+x,1/2-y,1/2+z
1/2-x,1/2+y,z
loop_
_atom_site_type_symbol
_atom_site_label
_atom_site_fract_x
_atom_site_fract_y
_atom_site_fract_z
Si Si1 0.822951 0.029192 0.150060
Si Si2 0.823472 0.477314 0.535120
Si Si3 0.678506 0.895643 0.236722
Si Si4 0.177170 0.805477 0.713502
Si Si5 0.820897 0.625154 0.443806
Si Si6 0.176560 0.684761 0.960809
Si Si7 0.330101 0.636984 0.849927
Si Si8 0.831165 0.649963 0.323333
O O1 0.769133 0.002059 0.089505
O O2 0.779043 0.132160 0.162205
O O3 0.000000 0.021290 0.155690
O O4 0.743339 0.967831 0.195215
O O5 0.787221 0.546481 0.486079
O O6 0.793510 0.377584 0.513566
O O7 0.000000 0.485180 0.546485
O O8 0.500000 0.898670 0.238353
O O9 0.728395 0.796794 0.215596
O O10 0.744103 0.906630 0.298568
O O11 0.233334 0.855867 0.768698
O O12 0.000000 0.801514 0.715361
O O13 0.749900 0.718191 0.463006
O O14 0.773165 0.606031 0.380097
O O15 0.000000 0.636669 0.441213
O O16 0.242835 0.632881 0.907585
O O17 0.000000 0.693606 0.953615
O O18 0.500000 0.606058 0.854127
O O19 0.334715 0.743857 0.837162
O O20 0.000000 0.620360 0.311816
#
# Coordination Sequence:
#
# PCOD9353345 Si02
#       8
#     8   8   8   8   8   8   8   8
#     4  11  24  40  56  79 110 144 187 233 277 328
#     4  10  23  41  57  77 108 146 190 233 273 324
#     4  10  20  37  60  84 111 145 183 225 275 327
#     4   9  20  37  56  80 111 144 177 219 271 327
#     4   9  19  37  58  80 110 146 180 220 274 330
#     4  10  20  35  57  86 115 143 181 229 277 326
#     4   9  17  32  55  85 117 146 178 219 272 331
#     4   8  15  29  53  83 110 138 174 216 265 323
#
# _framework density 9.8765429999999999
#
# number of rings (size 3 to 8) (size 9 to 14) (size 15 to 20)
#    0.000    2.500    0.000    2.250    0.000    8.000 
#    0.000    5.000    0.000    0.000    0.000    0.000 
#    0.000    0.000    0.000    0.000    0.000    0.000 
#
# Total GULP energy -178590.444721 kJ/mol
# GULP energy per Si atom -5580.951398 kJ/mol
# Density = 0.985406 g / cm^3
# Si number density = 9.876543 Si / 1000 Ang^3
#
#
#
# Elastic Constant Matrix: (Units=GPa)
#
#
# Indices 1 2 3 4 5 6 
#
# 1 0.5346 19.8844 15.2186 0.0000 0.0000 0.0000
# 2 19.8844 65.1499 21.7988 0.0000 0.0000 0.0000
# 3 15.2186 21.7988 51.7125 0.0000 0.0000 0.0000
# 4 0.0000 0.0000 0.0000 16.5083 0.0000 0.0000
# 5 0.0000 0.0000 0.0000 0.0000 28.4056 0.0000
# 6 0.0000 0.0000 0.0000 0.0000 0.0000 19.3626
#
#
#
# Elastic Compliance Matrix: (Units=1/GPa)
#
#
# Indices 1 2 3 4 5 6 
#
# 1 -0.139158 0.033494 0.026835 0.000000 0.000000 0.000000
# 2 0.033494 0.009808 -0.013992 0.000000 0.000000 0.000000
# 3 0.026835 -0.013992 0.017338 0.000000 0.000000 0.000000
# 4 0.000000 0.000000 0.000000 0.060575 0.000000 0.000000
# 5 0.000000 0.000000 0.000000 0.000000 0.035204 0.000000
# 6 0.000000 0.000000 0.000000 0.000000 0.000000 0.051646
#
#
# Mechanical properties :
#
#
# Convention : Reuss Voigt Hill
#
# Bulk Modulus (GPa) = -51.71083 25.68895 -13.01094
# Shear Modulus (GPa) = -78.48558 16.88831 -30.79864
#
# Velocity S-wave (km/s) = -6.31028 2.92716 -3.95293
# Velocity P-wave (km/s) = 8.90664 4.94546 5.23787
#
# Compressibility (1/GPa) = -0.01933831
#
# Stress axis : x y z
#
# Youngs Moduli (GPa) = -7.18605 101.95677 57.67531
#
# Poissons Ratio (x) = -3.41492 -1.54769
# Poissons Ratio (y) = 0.24069 0.80696
# Poissons Ratio (z) = 0.19283 1.42653
#
# Static dielectric constant tensor:
#      x y z
#    x 1.663850 0.000000 0.000000 
#    y 0.000000 1.715340 0.000000 
#    z 0.000000 0.000000 1.702440 
# 
# From -- ./inp_files/16639.got.cif
#   From: 2010.05.17/outbox.ucp.g08.bks.cvg/sg36_9_cif.got.tgz:16639.got - 2010.06.11 10:37:26.
