data_PCOD9353003
_publ_section_title
;
Structure prediction by ZEFSAII (Michael W. Deem and Ramdas Pophale) SiO2 
 PCOD9353003
Probable space group: C M C 21
;
_chemical_formula_sum "Si O2"
_cell_formula_units_Z 40
_cell_length_a 27.584173
_cell_length_b 5.157604
_cell_length_c 12.799435
_cell_angle_alpha 90.000000
_cell_angle_beta 90.000000
_cell_angle_gamma 90.000000
_cell_volume 1820.953103
_symmetry_space_group_name_H-M "C M C 21"
_symmetry_group_IT_number 36
_symmetry_cell_setting 'orthorhombic'
loop_
_space_group_symop_operation_xyz
x,y,z
-x,-y,1/2+z
x,-y,1/2+z
-x,y,z
1/2+x,1/2+y,z
1/2-x,1/2-y,1/2+z
1/2+x,1/2-y,1/2+z
1/2-x,1/2+y,z
loop_
_atom_site_type_symbol
_atom_site_label
_atom_site_fract_x
_atom_site_fract_y
_atom_site_fract_z
Si Si1 0.821228 0.089694 0.669790
Si Si2 0.000000 0.386220 0.505346
Si Si3 0.077025 0.709140 0.185885
Si Si4 0.781001 0.782560 0.950211
Si Si5 0.500000 0.384214 0.355590
Si Si6 0.161254 0.412981 0.274956
O O1 0.879028 0.108459 0.648601
O O2 0.793337 0.196177 0.571352
O O3 0.815507 0.303485 0.760593
O O4 0.812200 0.794995 0.700507
O O5 0.954961 0.367221 0.586329
O O6 0.000000 0.651059 0.439807
O O7 0.000000 0.150336 0.421454
O O8 0.045339 0.843922 0.276440
O O9 0.106230 0.468172 0.238906
O O10 0.744088 0.552867 0.925162
O O11 0.829752 0.710357 0.887329
#
# Coordination Sequence:
#
# PCOD9353003 Si02
#       6
#     8   4   8   8   4   8
#     4  10  24  42  69  92 135 174 223 275 334 402
#     4  11  26  43  70 102 138 175 224 283 328 402
#     4   9  26  44  68 101 133 179 228 261 348 401
#     4  12  26  43  67 101 132 175 233 277 343 402
#     4  11  26  41  72  98 142 175 224 283 328 402
#     4  10  24  44  67  95 134 177 220 279 333 406
#
# _framework density 21.966519999999999
#
# number of rings (size 3 to 8) (size 9 to 14) (size 15 to 20)
#    1.200    0.400    0.000    2.400    8.400    6.400 
#    0.000    0.000    0.000    0.000    0.000    0.000 
#    0.000    0.000    0.000    0.000    0.000    0.000 
#
# Total GULP energy -111548.488356 kJ/mol
# GULP energy per Si atom -5577.424418 kJ/mol
# Density = 2.191652 g / cm^3
# Si number density = 21.966520 Si / 1000 Ang^3
#
#
#
# Elastic Constant Matrix: (Units=GPa)
#
#
# Indices 1 2 3 4 5 6 
#
# 1 72.0478 35.1032 32.3403 0.0000 0.0000 0.0000
# 2 35.1032 120.0136 3.9320 0.0000 0.0000 0.0000
# 3 32.3403 3.9320 40.6782 0.0000 0.0000 0.0000
# 4 0.0000 0.0000 0.0000 37.1637 0.0000 0.0000
# 5 0.0000 0.0000 0.0000 0.0000 33.4319 0.0000
# 6 0.0000 0.0000 0.0000 0.0000 0.0000 -9.2438
#
#
#
# Elastic Compliance Matrix: (Units=1/GPa)
#
#
# Indices 1 2 3 4 5 6 
#
# 1 0.026463 -0.007073 -0.020355 0.000000 0.000000 0.000000
# 2 -0.007073 0.010249 0.004633 0.000000 0.000000 0.000000
# 3 -0.020355 0.004633 0.040318 0.000000 0.000000 0.000000
# 4 0.000000 0.000000 0.000000 0.026908 0.000000 0.000000
# 5 0.000000 0.000000 0.000000 0.000000 0.029912 0.000000
# 6 0.000000 0.000000 0.000000 0.000000 0.000000 -0.108181
#
#
# Mechanical properties :
#
#
# Convention : Reuss Voigt Hill
#
# Bulk Modulus (GPa) = 31.80719 41.72118 36.76418
# Shear Modulus (GPa) = 61.16984 23.02796 42.09890
#
# Velocity S-wave (km/s) = 5.28274 3.24129 4.38254
# Velocity P-wave (km/s) = 7.19173 5.74824 6.51012
#
# Compressibility (1/GPa) = 0.03143943
#
# Stress axis : x y z
#
# Youngs Moduli (GPa) = 37.78914 97.56575 24.80281
#
# Poissons Ratio (x) = 0.69011 0.50486
# Poissons Ratio (y) = 0.26729 -0.11490
# Poissons Ratio (z) = 0.76919 -0.45200
#
# Static dielectric constant tensor:
#      x y z
#    x 1.841840 0.000000 0.000000 
#    y 0.000000 1.779380 0.000000 
#    z 0.000000 0.000000 1.806290 
# 
# From -- ./inp_files/9681.got.cif
#   From: 2010.05.17/outbox.cif.g08.bks.cpg/sg36_5_cif.got.tgz:9681.got - 2010.06.03 17:41:39.
