data_PCOD9353611
_publ_section_title
;
Structure prediction by ZEFSAII (Michael W. Deem and Ramdas Pophale) SiO2 
 PCOD9353611
Probable space group: C C C 2
;
_chemical_formula_sum "Si O2"
_cell_formula_units_Z 56
_cell_length_a 25.511344
_cell_length_b 5.211925
_cell_length_c 21.973173
_cell_angle_alpha 90.000000
_cell_angle_beta 90.000000
_cell_angle_gamma 90.000000
_cell_volume 2921.623651
_symmetry_space_group_name_H-M "C C C 2"
_symmetry_group_IT_number 37
_symmetry_cell_setting 'orthorhombic'
loop_
_space_group_symop_operation_xyz
x,y,z
-x,-y,z
-x,y,1/2+z
x,-y,1/2+z
1/2+x,1/2+y,z
1/2-x,1/2-y,z
1/2-x,1/2+y,1/2+z
1/2+x,1/2-y,1/2+z
loop_
_atom_site_type_symbol
_atom_site_label
_atom_site_fract_x
_atom_site_fract_y
_atom_site_fract_z
Si Si1 0.910318 0.384249 0.243750
Si Si2 0.438288 0.016328 0.109161
Si Si3 0.031599 0.259556 0.854959
Si Si4 0.141600 0.881410 0.789353
Si Si5 0.634408 0.391771 0.417330
Si Si6 0.062689 0.979035 0.031351
Si Si7 0.750000 0.750000 0.310257
Si Si8 0.750000 0.250000 0.394959
O O1 0.912632 0.430896 0.172242
O O2 0.960190 0.280559 0.281969
O O3 0.899081 0.665122 0.270852
O O4 0.869278 0.159866 0.261007
O O5 0.427750 0.800990 0.058765
O O6 0.500000 0.000000 0.122084
O O7 0.427489 0.297753 0.081733
O O8 0.089415 0.278870 0.884444
O O9 0.000000 0.500000 0.878568
O O10 0.000000 0.000000 0.868549
O O11 0.198462 0.785386 0.770749
O O12 0.141980 0.902141 0.862870
O O13 0.603401 0.482284 0.476582
O O14 0.693255 0.283402 0.428256
O O15 0.000000 0.000000 0.014900
O O16 0.756324 0.499029 0.352263
#
# Coordination Sequence:
#
# PCOD9353611 Si02
#       8
#     8   8   8   8   8   8   4   4
#     4  11  21  36  55  83 115 149 189 227 277 340
#     4  10  22  38  56  78 108 152 195 227 272 338
#     4  11  22  33  54  85 119 150 174 227 291 341
#     4  10  21  34  59  85 113 147 179 236 290 335
#     4  10  22  39  58  87 117 145 192 233 289 346
#     4  10  22  37  57  81 111 151 190 237 282 332
#     4  10  18  36  54  85 116 143 188 224 286 356
#     4  10  22  36  60  81 114 157 186 234 280 340
#
# _framework density 19.167425999999999
#
# number of rings (size 3 to 8) (size 9 to 14) (size 15 to 20)
#    0.000    1.714    0.000    6.000    0.000   10.286 
#    0.000    0.000    0.000    5.143    0.000    0.000 
#    0.000    0.000    0.000    0.000    0.000    0.000 
#
# Total GULP energy -156048.085940 kJ/mol
# GULP energy per Si atom -5573.145926 kJ/mol
# Density = 1.912380 g / cm^3
# Si number density = 19.167426 Si / 1000 Ang^3
#
#
#
# Elastic Constant Matrix: (Units=GPa)
#
#
# Indices 1 2 3 4 5 6 
#
# 1 115.1151 28.8967 31.0280 0.0000 0.0000 0.0000
# 2 28.8967 87.6459 3.6629 0.0000 0.0000 0.0000
# 3 31.0280 3.6629 68.1837 0.0000 0.0000 0.0000
# 4 0.0000 0.0000 0.0000 12.5015 0.0000 0.0000
# 5 0.0000 0.0000 0.0000 0.0000 4.8439 0.0000
# 6 0.0000 0.0000 0.0000 0.0000 0.0000 29.2943
#
#
#
# Elastic Compliance Matrix: (Units=1/GPa)
#
#
# Indices 1 2 3 4 5 6 
#
# 1 0.010809 -0.003366 -0.004738 0.000000 0.000000 0.000000
# 2 -0.003366 0.012483 0.000861 0.000000 0.000000 0.000000
# 3 -0.004738 0.000861 0.016776 0.000000 0.000000 0.000000
# 4 0.000000 0.000000 0.000000 0.079991 0.000000 0.000000
# 5 0.000000 0.000000 0.000000 0.000000 0.206447 0.000000
# 6 0.000000 0.000000 0.000000 0.000000 0.000000 0.034136
#
#
# Mechanical properties :
#
#
# Convention : Reuss Voigt Hill
#
# Bulk Modulus (GPa) = 39.08855 44.23556 41.66205
# Shear Modulus (GPa) = 13.03253 23.15172 18.09213
#
# Velocity S-wave (km/s) = 2.61038 3.47921 3.07563
# Velocity P-wave (km/s) = 5.43350 6.26646 5.86478
#
# Compressibility (1/GPa) = 0.02558294
#
# Stress axis : x y z
#
# Youngs Moduli (GPa) = 92.51653 80.10754 59.60869
#
# Poissons Ratio (x) = 0.26962 0.28242
# Poissons Ratio (y) = 0.31138 -0.05132
# Poissons Ratio (z) = 0.43834 -0.06897
#
# Static dielectric constant tensor:
#      x y z
#    x 1.753560 0.000000 0.000000 
#    y 0.000000 1.699850 0.000000 
#    z 0.000000 0.000000 1.698880 
# 
# From -- ./inp_files/17581.got.cif
#   From: 2010.05.17/outbox.cif.g08.bks.cpg/sg37_9_cif.got.tgz:17581.got - 2010.06.03 17:53:42.
