data_PCOD9353895
_publ_section_title
;
Structure prediction by ZEFSAII (Michael W. Deem and Ramdas Pophale) SiO2 
 PCOD9353895
Probable space group: C C C 2
;
_chemical_formula_sum "Si O2"
_cell_formula_units_Z 44
_cell_length_a 15.835337
_cell_length_b 8.776916
_cell_length_c 13.538869
_cell_angle_alpha 90.000000
_cell_angle_beta 90.000000
_cell_angle_gamma 90.000000
_cell_volume 1881.705431
_symmetry_space_group_name_H-M "C C C 2"
_symmetry_group_IT_number 37
_symmetry_cell_setting 'orthorhombic'
loop_
_space_group_symop_operation_xyz
x,y,z
-x,-y,z
-x,y,1/2+z
x,-y,1/2+z
1/2+x,1/2+y,z
1/2-x,1/2-y,z
1/2-x,1/2+y,1/2+z
1/2+x,1/2-y,1/2+z
loop_
_atom_site_type_symbol
_atom_site_label
_atom_site_fract_x
_atom_site_fract_y
_atom_site_fract_z
Si Si1 0.000000 0.000000 0.449180
Si Si2 0.750000 0.750000 0.371456
Si Si3 0.250000 0.250000 0.030346
Si Si4 0.000000 0.500000 0.603768
Si Si5 0.175109 0.943877 0.047716
Si Si6 0.250000 0.750000 0.204899
Si Si7 0.637645 0.013048 0.772898
Si Si8 0.432919 0.193885 0.934994
O O1 0.977130 0.154901 0.391053
O O2 0.080557 0.019371 0.518941
O O3 0.783157 0.879742 0.446864
O O4 0.823125 0.673890 0.305621
O O5 0.270925 0.409490 0.083724
O O6 0.337059 0.228613 0.970509
O O7 0.918323 0.490909 0.674088
O O8 0.988581 0.358568 0.528694
O O9 0.179682 0.816631 0.131315
O O10 0.286988 0.890385 0.263903
O O11 0.580626 0.942124 0.859156
#
# Coordination Sequence:
#
# PCOD9353895 Si02
#       8
#     4   4   4   4   8   4   8   8
#     4  10  24  38  76  98 138 186 228 292 378 418
#     4  11  26  43  72  96 144 192 245 299 366 434
#     4  10  19  41  77  99 136 198 233 297 367 449
#     4  12  28  44  70 102 148 188 238 300 376 438
#     4  10  22  44  71 103 140 190 234 300 369 435
#     4  11  25  44  69 105 140 182 252 286 355 445
#     4  12  27  46  72 107 142 195 247 308 361 454
#     4  11  24  47  69 102 144 185 241 301 372 435
#
# _framework density 23.383043000000001
#
# number of rings (size 3 to 8) (size 9 to 14) (size 15 to 20)
#    0.000    1.091    1.818    3.273   10.182    4.364 
#    0.000    5.455    0.000    0.000    0.000    0.000 
#    0.000    0.000    0.000    0.000    0.000    0.000 
#
# Total GULP energy -122974.928184 kJ/mol
# GULP energy per Si atom -5589.769463 kJ/mol
# Density = 2.332982 g / cm^3
# Si number density = 23.383043 Si / 1000 Ang^3
#
#
#
# Elastic Constant Matrix: (Units=GPa)
#
#
# Indices 1 2 3 4 5 6 
#
# 1 107.5907 38.0659 19.0749 0.0000 0.0000 0.0000
# 2 38.0659 122.6804 30.2655 0.0000 0.0000 0.0000
# 3 19.0749 30.2655 81.7477 0.0000 0.0000 0.0000
# 4 0.0000 0.0000 0.0000 34.7260 0.0000 0.0000
# 5 0.0000 0.0000 0.0000 0.0000 11.2650 0.0000
# 6 0.0000 0.0000 0.0000 0.0000 0.0000 50.9259
#
#
#
# Elastic Compliance Matrix: (Units=1/GPa)
#
#
# Indices 1 2 3 4 5 6 
#
# 1 0.010580 -0.002943 -0.001379 0.000000 0.000000 0.000000
# 2 -0.002943 0.009789 -0.002938 0.000000 0.000000 0.000000
# 3 -0.001379 -0.002938 0.013642 0.000000 0.000000 0.000000
# 4 0.000000 0.000000 0.000000 0.028797 0.000000 0.000000
# 5 0.000000 0.000000 0.000000 0.000000 0.088771 0.000000
# 6 0.000000 0.000000 0.000000 0.000000 0.000000 0.019636
#
#
# Mechanical properties :
#
#
# Convention : Reuss Voigt Hill
#
# Bulk Modulus (GPa) = 51.30210 54.09238 52.69724
# Shear Modulus (GPa) = 26.01031 34.35757 30.18394
#
# Velocity S-wave (km/s) = 3.33882 3.83735 3.59673
# Velocity P-wave (km/s) = 6.07051 6.54348 6.31143
#
# Compressibility (1/GPa) = 0.01949238
#
# Stress axis : x y z
#
# Youngs Moduli (GPa) = 94.51700 102.15549 73.30205
#
# Poissons Ratio (x) = 0.30060 0.10111
# Poissons Ratio (y) = 0.27812 0.21533
# Poissons Ratio (z) = 0.13037 0.30009
#
# Static dielectric constant tensor:
#      x y z
#    x 1.872400 0.000000 0.000000 
#    y 0.000000 1.970160 0.000000 
#    z 0.000000 0.000000 1.864240 
# 
# From -- ./inp_files/10565.got.cif
#   From: 2010.05.17/outbox.cif.g08.bks.cpg/sg37_6_cif.got.tgz:10565.got - 2010.06.03 17:53:42.
