data_PCOD9353297
_publ_section_title
;
Structure prediction by ZEFSAII (Michael W. Deem and Ramdas Pophale) SiO2 
 PCOD9353297
Probable space group: C M C 21
;
_chemical_formula_sum "Si O2"
_cell_formula_units_Z 32
_cell_length_a 9.000000
_cell_length_b 21.000000
_cell_length_c 21.000000
_cell_angle_alpha 90.000000
_cell_angle_beta 90.000000
_cell_angle_gamma 90.000000
_cell_volume 3969.000000
_symmetry_space_group_name_H-M "C M C 21"
_symmetry_group_IT_number 36
_symmetry_cell_setting 'orthorhombic'
loop_
_space_group_symop_operation_xyz
x,y,z
-x,-y,1/2+z
x,-y,1/2+z
-x,y,z
1/2+x,1/2+y,z
1/2-x,1/2-y,1/2+z
1/2+x,1/2-y,1/2+z
1/2-x,1/2+y,z
loop_
_atom_site_type_symbol
_atom_site_label
_atom_site_fract_x
_atom_site_fract_y
_atom_site_fract_z
Si Si1 0.179594 0.169424 0.910720
Si Si2 0.821178 0.087407 0.537158
Si Si3 0.680011 0.227698 0.156608
Si Si4 0.180429 0.164407 0.760108
Si Si5 0.679125 0.084681 0.136903
Si Si6 0.178513 0.053183 0.000873
Si Si7 0.679455 0.731539 0.511671
Si Si8 0.821016 0.556490 0.673934
O O1 0.221613 0.172914 0.835263
O O2 0.220005 0.100869 0.943192
O O3 0.000000 0.175217 0.913161
O O4 0.248329 0.223828 0.957221
O O5 0.784288 0.155927 0.506278
O O6 0.741306 0.080796 0.605627
O O7 0.000000 0.087667 0.548084
O O8 0.784824 0.022666 0.497737
O O9 0.500000 0.229668 0.157105
O O10 0.726427 0.276982 0.212562
O O11 0.724681 0.153443 0.165368
O O12 0.724236 0.248301 0.084339
O O13 0.249298 0.100506 0.728660
O O14 0.000000 0.160067 0.757694
O O15 0.500000 0.085394 0.130852
O O16 0.717429 0.019451 0.174807
O O17 0.747714 0.077822 0.066303
O O18 0.000000 0.057100 0.007392
O O19 0.500000 0.738549 0.507662
O O20 0.000000 0.562245 0.675536
#
# Coordination Sequence:
#
# PCOD9353297 Si02
#       8
#     8   8   8   8   8   8   8   8
#     4  10  21  34  50  74 103 135 167 208 255 298
#     4   9  17  31  51  73  98 129 165 200 245 302
#     4   9  16  30  52  73  93 128 172 204 239 298
#     4  10  20  36  53  69  99 140 175 200 244 312
#     4   9  17  30  49  73  97 121 158 205 250 288
#     4   9  17  30  48  72  99 126 160 201 245 292
#     4  10  18  31  53  75  96 130 170 206 245 298
#     4  10  19  30  48  75 101 123 157 210 255 288
#
# _framework density 8.0624839999999995
#
# number of rings (size 3 to 8) (size 9 to 14) (size 15 to 20)
#    0.000    2.500    2.500    0.375    0.000    1.500 
#    0.000    1.875    0.000    0.000    0.000    0.000 
#    0.000    0.000    0.000    0.000    0.000    0.000 
#
# Total GULP energy -178228.661088 kJ/mol
# GULP energy per Si atom -5569.645659 kJ/mol
# Density = 0.804413 g / cm^3
# Si number density = 8.062484 Si / 1000 Ang^3
#
#
#
# Elastic Constant Matrix: (Units=GPa)
#
#
# Indices 1 2 3 4 5 6 
#
# 1 19.2586 27.6955 23.8969 0.0000 0.0000 0.0000
# 2 27.6955 173.2987 85.4295 0.0000 0.0000 0.0000
# 3 23.8969 85.4295 133.2146 0.0000 0.0000 0.0000
# 4 0.0000 0.0000 0.0000 31.2783 0.0000 0.0000
# 5 0.0000 0.0000 0.0000 0.0000 24.0978 0.0000
# 6 0.0000 0.0000 0.0000 0.0000 0.0000 24.2114
#
#
#
# Elastic Compliance Matrix: (Units=1/GPa)
#
#
# Indices 1 2 3 4 5 6 
#
# 1 0.073096 -0.007630 -0.008219 0.000000 0.000000 0.000000
# 2 -0.007630 0.009234 -0.004553 0.000000 0.000000 0.000000
# 3 -0.008219 -0.004553 0.011901 0.000000 0.000000 0.000000
# 4 0.000000 0.000000 0.000000 0.031971 0.000000 0.000000
# 5 0.000000 0.000000 0.000000 0.000000 0.041498 0.000000
# 6 0.000000 0.000000 0.000000 0.000000 0.000000 0.041303
#
#
# Mechanical properties :
#
#
# Convention : Reuss Voigt Hill
#
# Bulk Modulus (GPa) = 18.71733 66.64618 42.68175
# Shear Modulus (GPa) = 18.68344 28.50084 23.59214
#
# Velocity S-wave (km/s) = 3.40761 4.20872 3.82917
# Velocity P-wave (km/s) = 5.20723 8.06465 6.78800
#
# Compressibility (1/GPa) = 0.05342642
#
# Stress axis : x y z
#
# Youngs Moduli (GPa) = 13.68063 108.29217 84.02616
#
# Poissons Ratio (x) = 0.82625 0.69065
# Poissons Ratio (y) = 0.10438 0.38259
# Poissons Ratio (z) = 0.11245 0.49307
#
# Static dielectric constant tensor:
#      x y z
#    x 1.539820 0.000000 0.000000 
#    y 0.000000 1.581560 0.000000 
#    z 0.000000 0.000000 1.515880 
# 
# From -- ./inp_files/13799.got.cif
#   From: 2010.05.17/outbox.ucp.g08.bks.cvg/sg36_7_cif.got.tgz:13799.got - 2010.06.11 10:37:26.
