data_PCOD9353188
_publ_section_title
;
Structure prediction by ZEFSAII (Michael W. Deem and Ramdas Pophale) SiO2 
 PCOD9353188
Probable space group: C M C 21
;
_chemical_formula_sum "Si O2"
_cell_formula_units_Z 32
_cell_length_a 12.899859
_cell_length_b 19.414692
_cell_length_c 5.008068
_cell_angle_alpha 90.000000
_cell_angle_beta 90.000000
_cell_angle_gamma 90.000000
_cell_volume 1254.254551
_symmetry_space_group_name_H-M "C M C 21"
_symmetry_group_IT_number 36
_symmetry_cell_setting 'orthorhombic'
loop_
_space_group_symop_operation_xyz
x,y,z
-x,-y,1/2+z
x,-y,1/2+z
-x,y,z
1/2+x,1/2+y,z
1/2-x,1/2-y,1/2+z
1/2+x,1/2-y,1/2+z
1/2-x,1/2+y,z
loop_
_atom_site_type_symbol
_atom_site_label
_atom_site_fract_x
_atom_site_fract_y
_atom_site_fract_z
Si Si1 0.162747 0.681397 0.395660
Si Si2 0.661433 0.460091 0.366526
Si Si3 0.113641 0.592868 0.892849
Si Si4 0.611845 0.681767 0.589179
O O1 0.126593 0.656686 0.686150
O O2 0.287885 0.683289 0.399873
O O3 0.123423 0.754026 0.289902
O O4 0.124851 0.624354 0.186710
O O5 0.629985 0.479667 0.663519
O O6 0.786656 0.454204 0.346138
O O7 0.619958 0.388270 0.258437
O O8 0.000000 0.561625 0.854218
O O9 0.500000 0.685641 0.453696
#
# Coordination Sequence:
#
# PCOD9353188 Si02
#       4
#     8   8   8   8
#     4  11  24  43  69 107 135 162 225 286 336 411
#     4  11  25  43  62  94 135 176 229 271 305 386
#     4  11  23  43  71 101 137 175 215 279 349 398
#     4  11  24  45  72  98 135 181 219 274 346 399
#
# _framework density 25.513165000000001
#
# number of rings (size 3 to 8) (size 9 to 14) (size 15 to 20)
#    0.000    1.000    0.000    8.250    0.000    4.000 
#    0.000   27.500    0.000    0.000    0.000    0.000 
#    0.000    0.000    0.000    0.000    0.000    0.000 
#
# Total GULP energy -89784.113162 kJ/mol
# GULP energy per Si atom -5611.507073 kJ/mol
# Density = 2.545510 g / cm^3
# Si number density = 25.513165 Si / 1000 Ang^3
#
#
#
# Elastic Constant Matrix: (Units=GPa)
#
#
# Indices 1 2 3 4 5 6 
#
# 1 195.8031 -1.7604 16.1281 0.0000 0.0000 0.0000
# 2 -1.7604 82.8982 -4.1148 0.0000 0.0000 0.0000
# 3 16.1281 -4.1148 54.9351 0.0000 0.0000 0.0000
# 4 0.0000 0.0000 0.0000 29.5741 0.0000 0.0000
# 5 0.0000 0.0000 0.0000 0.0000 20.6956 0.0000
# 6 0.0000 0.0000 0.0000 0.0000 0.0000 -31.2726
#
#
#
# Elastic Compliance Matrix: (Units=1/GPa)
#
#
# Indices 1 2 3 4 5 6 
#
# 1 0.005234 0.000035 -0.001534 0.000000 0.000000 0.000000
# 2 0.000035 0.012108 0.000897 0.000000 0.000000 0.000000
# 3 -0.001534 0.000897 0.018721 0.000000 0.000000 0.000000
# 4 0.000000 0.000000 0.000000 0.033813 0.000000 0.000000
# 5 0.000000 0.000000 0.000000 0.000000 0.048320 0.000000
# 6 0.000000 0.000000 0.000000 0.000000 0.000000 -0.031977
#
#
# Mechanical properties :
#
#
# Convention : Reuss Voigt Hill
#
# Bulk Modulus (GPa) = 28.68754 39.34913 34.01834
# Shear Modulus (GPa) = 50.48317 25.35832 37.92075
#
# Velocity S-wave (km/s) = 4.45310 3.15609 3.85947
# Velocity P-wave (km/s) = 6.14074 5.36076 5.76396
#
# Compressibility (1/GPa) = 0.03485834
#
# Stress axis : x y z
#
# Youngs Moduli (GPa) = 191.06448 82.58843 53.41647
#
# Poissons Ratio (x) = -0.00289 0.08194
# Poissons Ratio (y) = -0.00669 -0.04790
# Poissons Ratio (z) = 0.29308 -0.07406
#
# Static dielectric constant tensor:
#      x y z
#    x 2.013180 0.000000 0.000000 
#    y 0.000000 1.943340 0.000000 
#    z 0.000000 0.000000 1.921500 
# 
# From -- ./inp_files/658.got.cif
#   From: 2010.05.17/outbox.cif.g08.bks.cpg/sg36_1_cif.got.tgz:658.got - 2010.06.03 17:41:39.
