data_PCOD9353876
_publ_section_title
;
Structure prediction by ZEFSAII (Michael W. Deem and Ramdas Pophale) SiO2 
 PCOD9353876
Probable space group: C C C 2
;
_chemical_formula_sum "Si O2"
_cell_formula_units_Z 48
_cell_length_a 10.535825
_cell_length_b 11.643565
_cell_length_c 18.308877
_cell_angle_alpha 90.000000
_cell_angle_beta 90.000000
_cell_angle_gamma 90.000000
_cell_volume 2246.033489
_symmetry_space_group_name_H-M "C C C 2"
_symmetry_group_IT_number 37
_symmetry_cell_setting 'orthorhombic'
loop_
_space_group_symop_operation_xyz
x,y,z
-x,-y,z
-x,y,1/2+z
x,-y,1/2+z
1/2+x,1/2+y,z
1/2-x,1/2-y,z
1/2-x,1/2+y,1/2+z
1/2+x,1/2-y,1/2+z
loop_
_atom_site_type_symbol
_atom_site_label
_atom_site_fract_x
_atom_site_fract_y
_atom_site_fract_z
Si Si1 0.705979 0.458375 0.745710
Si Si2 0.363578 0.046248 0.115649
Si Si3 0.454260 0.284736 0.147147
Si Si4 0.585999 0.614935 0.385498
Si Si5 0.327195 0.364903 0.549216
Si Si6 0.109577 0.208915 0.779663
O O1 0.834549 0.476360 0.701582
O O2 0.634427 0.368170 0.693753
O O3 0.698282 0.408089 0.826932
O O4 0.631272 0.577922 0.751963
O O5 0.377933 0.183242 0.108112
O O6 0.500000 0.000000 0.092862
O O7 0.254916 0.976148 0.072329
O O8 0.540279 0.356104 0.091760
O O9 0.548067 0.231002 0.209099
O O10 0.500000 0.500000 0.393106
O O11 0.642408 0.641846 0.463717
O O12 0.489920 0.704423 0.346231
O O13 0.250000 0.250000 0.570805
O O14 0.250000 0.250000 0.799666
#
# Coordination Sequence:
#
# PCOD9353876 Si02
#       6
#     8   8   8   8   8   8
#     4  10  22  43  68  98 133 171 229 282 330 404
#     4  12  24  40  66 102 131 172 232 278 339 401
#     4  11  22  40  68  99 127 178 229 278 337 409
#     4   9  23  42  65  95 133 182 224 264 349 411
#     4  12  25  44  65  92 145 180 217 294 349 394
#     4  10  19  40  69 100 134 175 221 282 343 403
#
# _framework density 21.371009999999998
#
# number of rings (size 3 to 8) (size 9 to 14) (size 15 to 20)
#    0.000    1.333    3.333    3.500    2.333    2.667 
#    6.000    0.833    0.000    0.000    0.000    0.000 
#    0.000    0.000    0.000    0.000    0.000    0.000 
#
# Total GULP energy -134025.108839 kJ/mol
# GULP energy per Si atom -5584.379535 kJ/mol
# Density = 2.132237 g / cm^3
# Si number density = 21.371010 Si / 1000 Ang^3
#
#
#
# Elastic Constant Matrix: (Units=GPa)
#
#
# Indices 1 2 3 4 5 6 
#
# 1 85.9655 42.6833 44.3025 0.0000 0.0000 0.0000
# 2 42.6833 107.1938 29.1240 0.0000 0.0000 0.0000
# 3 44.3025 29.1240 131.4895 0.0000 0.0000 0.0000
# 4 0.0000 0.0000 0.0000 13.6619 0.0000 0.0000
# 5 0.0000 0.0000 0.0000 0.0000 23.5676 0.0000
# 6 0.0000 0.0000 0.0000 0.0000 0.0000 37.7081
#
#
#
# Elastic Compliance Matrix: (Units=1/GPa)
#
#
# Indices 1 2 3 4 5 6 
#
# 1 0.016580 -0.005410 -0.004388 0.000000 0.000000 0.000000
# 2 -0.005410 0.011691 -0.000767 0.000000 0.000000 0.000000
# 3 -0.004388 -0.000767 0.009253 0.000000 0.000000 0.000000
# 4 0.000000 0.000000 0.000000 0.073196 0.000000 0.000000
# 5 0.000000 0.000000 0.000000 0.000000 0.042431 0.000000
# 6 0.000000 0.000000 0.000000 0.000000 0.000000 0.026519
#
#
# Mechanical properties :
#
#
# Convention : Reuss Voigt Hill
#
# Bulk Modulus (GPa) = 60.99226 61.87426 61.43326
# Shear Modulus (GPa) = 24.24053 28.89014 26.56533
#
# Velocity S-wave (km/s) = 3.37155 3.68072 3.52952
# Velocity P-wave (km/s) = 6.61499 6.86141 6.73933
#
# Compressibility (1/GPa) = 0.01639552
#
# Stress axis : x y z
#
# Youngs Moduli (GPa) = 60.31371 85.53338 108.06751
#
# Poissons Ratio (x) = 0.46271 0.47420
# Poissons Ratio (y) = 0.32628 0.08287
# Poissons Ratio (z) = 0.26466 0.06559
#
# Static dielectric constant tensor:
#      x y z
#    x 1.848220 0.000000 0.000000 
#    y 0.000000 1.833540 0.000000 
#    z 0.000000 0.000000 1.751770 
# 
# From -- ./inp_files/15004.got.cif
#   From: 2010.05.17/outbox.cif.g08.bks.cpg/sg37_8_cif.got.tgz:15004.got - 2010.06.03 17:53:42.
