data_PCOD9353304
_publ_section_title
;
Structure prediction by ZEFSAII (Michael W. Deem and Ramdas Pophale) SiO2 
 PCOD9353304
Probable space group: C M C 21
;
_chemical_formula_sum "Si O2"
_cell_formula_units_Z 32
_cell_length_a 9.000000
_cell_length_b 21.000000
_cell_length_c 21.000000
_cell_angle_alpha 90.000000
_cell_angle_beta 90.000000
_cell_angle_gamma 90.000000
_cell_volume 3969.000000
_symmetry_space_group_name_H-M "C M C 21"
_symmetry_group_IT_number 36
_symmetry_cell_setting 'orthorhombic'
loop_
_space_group_symop_operation_xyz
x,y,z
-x,-y,1/2+z
x,-y,1/2+z
-x,y,z
1/2+x,1/2+y,z
1/2-x,1/2-y,1/2+z
1/2+x,1/2-y,1/2+z
1/2-x,1/2+y,z
loop_
_atom_site_type_symbol
_atom_site_label
_atom_site_fract_x
_atom_site_fract_y
_atom_site_fract_z
Si Si1 0.677629 0.556475 0.765030
Si Si2 0.819290 0.726517 0.600645
Si Si3 0.320587 0.411969 0.116109
Si Si4 0.679524 0.727710 0.245129
Si Si5 0.820029 0.666101 0.850116
Si Si6 0.320355 0.830222 0.501928
Si Si7 0.320933 0.046824 0.088141
Si Si8 0.319939 0.416677 0.723448
O O1 0.500000 0.561391 0.774615
O O2 0.709548 0.580201 0.692444
O O3 0.757609 0.601911 0.816277
O O4 0.716860 0.480720 0.763848
O O5 0.752228 0.654878 0.593764
O O6 0.778142 0.749334 0.673263
O O7 0.755573 0.776124 0.547409
O O8 0.000000 0.725149 0.596659
O O9 0.500000 0.410894 0.107789
O O10 0.252651 0.476077 0.083485
O O11 0.500000 0.729613 0.246447
O O12 0.728153 0.775250 0.302598
O O13 0.721654 0.652788 0.251434
O O14 0.000000 0.663753 0.848602
O O15 0.778912 0.672581 0.925864
O O16 0.500000 0.821615 0.505511
O O17 0.287283 0.900097 0.533464
O O18 0.500000 0.040067 0.091520
O O19 0.257162 0.074776 0.154694
O O20 0.500000 0.417532 0.714408
#
# Coordination Sequence:
#
# PCOD9353304 Si02
#       8
#     8   8   8   8   8   8   8   8
#     4   9  18  31  50  76 105 134 170 222 270 313
#     4  11  20  33  57  84 109 142 183 227 270 323
#     4  10  20  34  54  80 110 138 172 225 278 323
#     4   9  17  31  54  80 104 138 181 221 262 316
#     4  10  20  36  55  75 107 147 183 218 268 331
#     4  10  22  37  53  77 112 151 183 224 276 324
#     4  10  19  32  51  77 106 139 180 221 265 319
#     4   9  17  32  52  77 105 133 172 222 271 313
#
# _framework density 8.0624839999999995
#
# number of rings (size 3 to 8) (size 9 to 14) (size 15 to 20)
#    0.000    2.250    2.500    1.875    0.000    3.000 
#    0.000    1.875    0.000    1.500    0.000    0.000 
#    0.000    0.000    0.000    0.000    0.000    0.000 
#
# Total GULP energy -178300.037359 kJ/mol
# GULP energy per Si atom -5571.876167 kJ/mol
# Density = 0.804413 g / cm^3
# Si number density = 8.062484 Si / 1000 Ang^3
#
#
#
# Elastic Constant Matrix: (Units=GPa)
#
#
# Indices 1 2 3 4 5 6 
#
# 1 52.3004 42.8735 33.2573 0.0000 0.0000 0.0000
# 2 42.8735 180.6734 79.6974 0.0000 0.0000 0.0000
# 3 33.2573 79.6974 127.7681 0.0000 0.0000 0.0000
# 4 0.0000 0.0000 0.0000 32.5277 0.0000 0.0000
# 5 0.0000 0.0000 0.0000 0.0000 26.1223 0.0000
# 6 0.0000 0.0000 0.0000 0.0000 0.0000 31.7250
#
#
#
# Elastic Compliance Matrix: (Units=1/GPa)
#
#
# Indices 1 2 3 4 5 6 
#
# 1 0.025060 -0.004234 -0.003882 0.000000 0.000000 0.000000
# 2 -0.004234 0.008351 -0.004107 0.000000 0.000000 0.000000
# 3 -0.003882 -0.004107 0.011399 0.000000 0.000000 0.000000
# 4 0.000000 0.000000 0.000000 0.030743 0.000000 0.000000
# 5 0.000000 0.000000 0.000000 0.000000 0.038282 0.000000
# 6 0.000000 0.000000 0.000000 0.000000 0.000000 0.031521
#
#
# Mechanical properties :
#
#
# Convention : Reuss Voigt Hill
#
# Bulk Modulus (GPa) = 49.10682 74.71092 61.90887
# Shear Modulus (GPa) = 28.31422 31.73590 30.02506
#
# Velocity S-wave (km/s) = 4.19492 4.44116 4.31980
# Velocity P-wave (km/s) = 7.34732 8.52828 7.95974
#
# Compressibility (1/GPa) = 0.02036377
#
# Stress axis : x y z
#
# Youngs Moduli (GPa) = 39.90461 119.74093 87.72762
#
# Poissons Ratio (x) = 0.50703 0.34053
# Poissons Ratio (y) = 0.16897 0.36031
# Poissons Ratio (z) = 0.15490 0.49179
#
# Static dielectric constant tensor:
#      x y z
#    x 1.541870 0.000000 0.000000 
#    y 0.000000 1.563500 0.000000 
#    z 0.000000 0.000000 1.529510 
# 
# From -- ./inp_files/13845.got.cif
#   From: 2010.05.17/outbox.ucp.g08.bks.cvg/sg36_7_cif.got.tgz:13845.got - 2010.06.11 10:37:26.
