data_PCOD9353842
_publ_section_title
;
Structure prediction by ZEFSAII (Michael W. Deem and Ramdas Pophale) SiO2 
 PCOD9353842
Probable space group: C C C 2
;
_chemical_formula_sum "Si O2"
_cell_formula_units_Z 64
_cell_length_a 15.023114
_cell_length_b 11.912906
_cell_length_c 19.298522
_cell_angle_alpha 90.000000
_cell_angle_beta 90.000000
_cell_angle_gamma 90.000000
_cell_volume 3453.836121
_symmetry_space_group_name_H-M "C C C 2"
_symmetry_group_IT_number 37
_symmetry_cell_setting 'orthorhombic'
loop_
_space_group_symop_operation_xyz
x,y,z
-x,-y,z
-x,y,1/2+z
x,-y,1/2+z
1/2+x,1/2+y,z
1/2-x,1/2-y,z
1/2-x,1/2+y,1/2+z
1/2+x,1/2-y,1/2+z
loop_
_atom_site_type_symbol
_atom_site_label
_atom_site_fract_x
_atom_site_fract_y
_atom_site_fract_z
Si Si1 0.244768 0.432056 0.989160
Si Si2 0.003257 0.632028 0.126409
Si Si3 0.503965 0.679057 0.384701
Si Si4 0.794772 0.361263 0.088942
Si Si5 0.103517 0.245526 0.012522
Si Si6 0.239083 0.618798 0.247238
Si Si7 0.649642 0.503985 0.357396
Si Si8 0.465332 0.115643 0.784509
O O1 0.164219 0.344146 0.979160
O O2 0.329195 0.359944 0.018049
O O3 0.277654 0.483559 0.916994
O O4 0.216350 0.530907 0.040680
O O5 0.102869 0.667046 0.105785
O O6 0.991166 0.638666 0.209055
O O7 0.000000 0.500000 0.107760
O O8 0.932886 0.705188 0.084241
O O9 0.479868 0.715108 0.463205
O O10 0.599117 0.621917 0.368941
O O11 0.428232 0.587289 0.368226
O O12 0.485614 0.783164 0.335049
O O13 0.750000 0.250000 0.058305
O O14 0.751171 0.385647 0.164283
O O15 0.250000 0.750000 0.268617
O O16 0.303898 0.532194 0.285758
O O17 0.137903 0.595455 0.267884
O O18 0.500000 0.000000 0.815204
#
# Coordination Sequence:
#
# PCOD9353842 Si02
#       8
#     8   8   8   8   8   8   8   8
#     4  10  21  38  58  86 112 153 197 235 284 345
#     4  10  20  38  59  84 113 152 192 235 285 344
#     4  10  21  38  57  87 115 150 193 239 287 334
#     4  10  22  37  59  88 118 148 190 246 292 339
#     4  10  21  37  62  80 111 157 197 231 280 352
#     4  10  19  38  64  84 110 158 200 229 282 355
#     4  10  21  37  61  84 117 150 195 243 277 340
#     4  10  21  37  60  85 115 147 191 239 287 344
#
# _framework density 18.530121000000001
#
# number of rings (size 3 to 8) (size 9 to 14) (size 15 to 20)
#    0.000    2.000    2.500    0.750    3.500    1.500 
#    2.250    0.625    0.000    0.000    0.000    0.000 
#    0.000    0.000    0.000    0.000    0.000    0.000 
#
# Total GULP energy -178475.834877 kJ/mol
# GULP energy per Si atom -5577.369840 kJ/mol
# Density = 1.848795 g / cm^3
# Si number density = 18.530121 Si / 1000 Ang^3
#
#
#
# Elastic Constant Matrix: (Units=GPa)
#
#
# Indices 1 2 3 4 5 6 
#
# 1 41.7095 6.6139 9.2168 0.0000 0.0000 0.0000
# 2 6.6139 73.6554 13.9184 0.0000 0.0000 0.0000
# 3 9.2168 13.9184 48.1047 0.0000 0.0000 0.0000
# 4 0.0000 0.0000 0.0000 21.7398 0.0000 0.0000
# 5 0.0000 0.0000 0.0000 0.0000 -38.0169 0.0000
# 6 0.0000 0.0000 0.0000 0.0000 0.0000 24.6259
#
#
#
# Elastic Compliance Matrix: (Units=1/GPa)
#
#
# Indices 1 2 3 4 5 6 
#
# 1 0.025176 -0.001427 -0.004411 0.000000 0.000000 0.000000
# 2 -0.001427 0.014443 -0.003905 0.000000 0.000000 0.000000
# 3 -0.004411 -0.003905 0.022763 0.000000 0.000000 0.000000
# 4 0.000000 0.000000 0.000000 0.045999 0.000000 0.000000
# 5 0.000000 0.000000 0.000000 0.000000 -0.026304 0.000000
# 6 0.000000 0.000000 0.000000 0.000000 0.000000 0.040608
#
#
# Mechanical properties :
#
#
# Convention : Reuss Voigt Hill
#
# Bulk Modulus (GPa) = 23.31249 24.77420 24.04335
# Shear Modulus (GPa) = 31.95507 10.58448 21.26977
#
# Velocity S-wave (km/s) = 4.15721 2.39258 3.39167
# Velocity P-wave (km/s) = 5.97087 4.58599 5.32366
#
# Compressibility (1/GPa) = 0.04289545
#
# Stress axis : x y z
#
# Youngs Moduli (GPa) = 39.71979 69.23831 43.93081
#
# Poissons Ratio (x) = 0.09882 0.19377
# Poissons Ratio (y) = 0.05669 0.17157
# Poissons Ratio (z) = 0.17520 0.27040
#
# Static dielectric constant tensor:
#      x y z
#    x 1.754720 0.000000 0.000000 
#    y 0.000000 1.668130 0.000000 
#    z 0.000000 0.000000 1.635750 
# 
# From -- ./inp_files/15303.got.cif
#   From: 2010.05.17/outbox.cif.g08.bks.cpg/sg37_8_cif.got.tgz:15303.got - 2010.06.03 17:53:42.
