data_PCOD9353567
_publ_section_title
;
Structure prediction by ZEFSAII (Michael W. Deem and Ramdas Pophale) SiO2 
 PCOD9353567
Probable space group: C C C 2
;
_chemical_formula_sum "Si O2"
_cell_formula_units_Z 56
_cell_length_a 25.585262
_cell_length_b 5.392335
_cell_length_c 21.352664
_cell_angle_alpha 90.000000
_cell_angle_beta 90.000000
_cell_angle_gamma 90.000000
_cell_volume 2945.905422
_symmetry_space_group_name_H-M "C C C 2"
_symmetry_group_IT_number 37
_symmetry_cell_setting 'orthorhombic'
loop_
_space_group_symop_operation_xyz
x,y,z
-x,-y,z
-x,y,1/2+z
x,-y,1/2+z
1/2+x,1/2+y,z
1/2-x,1/2-y,z
1/2-x,1/2+y,1/2+z
1/2+x,1/2-y,1/2+z
loop_
_atom_site_type_symbol
_atom_site_label
_atom_site_fract_x
_atom_site_fract_y
_atom_site_fract_z
Si Si1 0.250000 0.750000 0.565701
Si Si2 0.834605 0.381600 0.100608
Si Si3 0.409861 0.040143 0.200785
Si Si4 0.694301 0.369762 0.976783
Si Si5 0.305779 0.959175 0.785490
Si Si6 0.750000 0.250000 0.185453
Si Si7 0.839123 0.038636 0.346450
Si Si8 0.442876 0.459314 0.761178
O O1 0.209723 0.591114 0.604704
O O2 0.285733 0.589617 0.520246
O O3 0.887622 0.472449 0.132042
O O4 0.802593 0.187604 0.145154
O O5 0.835119 0.303280 0.027909
O O6 0.358755 0.038970 0.244621
O O7 0.442348 0.805048 0.225822
O O8 0.433755 0.311517 0.212766
O O9 0.750000 0.250000 0.955316
O O10 0.660549 0.472061 0.919798
O O11 0.263209 0.031293 0.733943
O O12 0.312658 0.193973 0.832918
O O13 0.306634 0.694180 0.818785
O O14 0.895356 0.038583 0.311406
O O15 0.500000 0.500000 0.790494
#
# Coordination Sequence:
#
# PCOD9353567 Si02
#       8
#     4   8   8   8   8   4   8   8
#     4  10  20  33  54  78 111 168 202 222 266 328
#     4  10  20  35  51  81 114 156 199 228 276 335
#     4   9  20  35  58  86 113 139 188 238 293 347
#     4  10  22  35  51  78 116 161 199 233 271 334
#     4   9  21  32  50  76 108 146 184 230 282 326
#     4  10  18  33  46  74 109 150 190 230 264 330
#     4  10  22  37  52  82 112 146 189 236 285 339
#     4  10  20  39  62  88 111 145 186 245 310 351
#
# _framework density 19.009435
#
# number of rings (size 3 to 8) (size 9 to 14) (size 15 to 20)
#    0.000    2.286    2.143    0.429    8.000    3.429 
#    0.000    0.000    0.000    0.857    0.000    0.000 
#    0.000    0.000    0.000    0.000    0.000    0.000 
#
# Total GULP energy -155980.410723 kJ/mol
# GULP energy per Si atom -5570.728954 kJ/mol
# Density = 1.896617 g / cm^3
# Si number density = 19.009435 Si / 1000 Ang^3
#
#
#
# Elastic Constant Matrix: (Units=GPa)
#
#
# Indices 1 2 3 4 5 6 
#
# 1 49.5079 1.1089 17.1467 0.0000 0.0000 0.0000
# 2 1.1089 92.5993 18.0566 0.0000 0.0000 0.0000
# 3 17.1467 18.0566 90.4590 0.0000 0.0000 0.0000
# 4 0.0000 0.0000 0.0000 -0.1565 0.0000 0.0000
# 5 0.0000 0.0000 0.0000 0.0000 14.5221 0.0000
# 6 0.0000 0.0000 0.0000 0.0000 0.0000 14.4004
#
#
#
# Elastic Compliance Matrix: (Units=1/GPa)
#
#
# Indices 1 2 3 4 5 6 
#
# 1 0.021646 0.000563 -0.004215 0.000000 0.000000 0.000000
# 2 0.000563 0.011251 -0.002353 0.000000 0.000000 0.000000
# 3 -0.004215 -0.002353 0.012323 0.000000 0.000000 0.000000
# 4 0.000000 0.000000 0.000000 -6.390619 0.000000 0.000000
# 5 0.000000 0.000000 0.000000 0.000000 0.068861 0.000000
# 6 0.000000 0.000000 0.000000 0.000000 0.000000 0.069443
#
#
# Mechanical properties :
#
#
# Convention : Reuss Voigt Hill
#
# Bulk Modulus (GPa) = 30.11106 33.91008 32.01057
# Shear Modulus (GPa) = -0.80854 18.83679 9.01413
#
# Velocity S-wave (km/s) = -0.65288 3.15130 2.17996
# Velocity P-wave (km/s) = 3.91230 5.57837 4.81790
#
# Compressibility (1/GPa) = 0.03321039
#
# Stress axis : x y z
#
# Youngs Moduli (GPa) = 46.19753 88.87931 81.14665
#
# Poissons Ratio (x) = -0.05002 0.34207
# Poissons Ratio (y) = -0.02600 0.19090
# Poissons Ratio (z) = 0.19474 0.20909
#
# Static dielectric constant tensor:
#      x y z
#    x 1.680740 0.000000 0.000000 
#    y 0.000000 1.831250 0.000000 
#    z 0.000000 0.000000 1.704060 
# 
# From -- ./inp_files/16006.got.cif
#   From: 2010.05.17/outbox.cif.g08.bks.cpg/sg37_9_cif.got.tgz:16006.got - 2010.06.03 17:53:42.
