data_PCOD9353056
_publ_section_title
;
Structure prediction by ZEFSAII (Michael W. Deem and Ramdas Pophale) SiO2 
 PCOD9353056
Probable space group: C M C 21
;
_chemical_formula_sum "Si O2"
_cell_formula_units_Z 36
_cell_length_a 20.130045
_cell_length_b 9.117845
_cell_length_c 8.353172
_cell_angle_alpha 90.000000
_cell_angle_beta 90.000000
_cell_angle_gamma 90.000000
_cell_volume 1533.163159
_symmetry_space_group_name_H-M "C M C 21"
_symmetry_group_IT_number 36
_symmetry_cell_setting 'orthorhombic'
loop_
_space_group_symop_operation_xyz
x,y,z
-x,-y,1/2+z
x,-y,1/2+z
-x,y,z
1/2+x,1/2+y,z
1/2-x,1/2-y,1/2+z
1/2+x,1/2-y,1/2+z
1/2-x,1/2+y,z
loop_
_atom_site_type_symbol
_atom_site_label
_atom_site_fract_x
_atom_site_fract_y
_atom_site_fract_z
Si Si1 0.860795 0.050758 0.825400
Si Si2 0.384621 0.725187 0.502399
Si Si3 0.370638 0.168122 0.518059
Si Si4 0.500000 0.029313 0.032698
Si Si5 0.296030 0.065735 0.829726
O O1 0.881536 0.132387 0.664187
O O2 0.876180 0.164187 0.968363
O O3 0.781181 0.032441 0.824373
O O4 0.892940 0.894257 0.862135
O O5 0.442176 0.844589 0.510217
O O6 0.317255 0.817015 0.466179
O O7 0.322466 0.135213 0.665918
O O8 0.441489 0.095424 0.551429
O O9 0.337634 0.080748 0.368522
#
# Coordination Sequence:
#
# PCOD9353056 Si02
#       5
#     8   8   8   4   8
#     4  12  23  42  67  99 128 169 215 271 333 378
#     4  11  26  41  65  93 133 169 214 273 318 392
#     4  11  24  41  71  94 134 176 211 269 318 394
#     4  10  26  48  62  94 128 174 226 254 324 384
#     4  11  22  41  66 101 131 166 213 268 333 389
#
# _framework density 23.480868000000001
#
# number of rings (size 3 to 8) (size 9 to 14) (size 15 to 20)
#    0.000    0.889    0.000    8.000    0.000    9.778 
#    0.000    0.000    0.000    0.000    0.000    0.000 
#    0.000    0.000    0.000    0.000    0.000    0.000 
#
# Total GULP energy -100338.010110 kJ/mol
# GULP energy per Si atom -5574.333895 kJ/mol
# Density = 2.342742 g / cm^3
# Si number density = 23.480868 Si / 1000 Ang^3
#
#
#
# Elastic Constant Matrix: (Units=GPa)
#
#
# Indices 1 2 3 4 5 6 
#
# 1 119.8863 13.1227 -3.8936 0.0000 0.0000 0.0000
# 2 13.1227 93.9942 -15.0833 0.0000 0.0000 0.0000
# 3 -3.8936 -15.0833 63.3976 0.0000 0.0000 0.0000
# 4 0.0000 0.0000 0.0000 28.9926 0.0000 0.0000
# 5 0.0000 0.0000 0.0000 0.0000 -28.7802 0.0000
# 6 0.0000 0.0000 0.0000 0.0000 0.0000 3.6424
#
#
#
# Elastic Compliance Matrix: (Units=1/GPa)
#
#
# Indices 1 2 3 4 5 6 
#
# 1 0.008474 -0.001143 0.000248 0.000000 0.000000 0.000000
# 2 -0.001143 0.011215 0.002598 0.000000 0.000000 0.000000
# 3 0.000248 0.002598 0.016407 0.000000 0.000000 0.000000
# 4 0.000000 0.000000 0.000000 0.034492 0.000000 0.000000
# 5 0.000000 0.000000 0.000000 0.000000 -0.034746 0.000000
# 6 0.000000 0.000000 0.000000 0.000000 0.000000 0.274548
#
#
# Mechanical properties :
#
#
# Convention : Reuss Voigt Hill
#
# Bulk Modulus (GPa) = 25.31423 29.50775 27.41099
# Shear Modulus (GPa) = 15.61762 19.64644 17.63203
#
# Velocity S-wave (km/s) = 2.58179 2.89571 2.74325
# Velocity P-wave (km/s) = 4.43754 4.87588 4.66186
#
# Compressibility (1/GPa) = 0.03950347
#
# Stress axis : x y z
#
# Youngs Moduli (GPa) = 118.00184 89.16242 60.95005
#
# Poissons Ratio (x) = 0.10194 -0.01514
# Poissons Ratio (y) = 0.13491 -0.15836
# Poissons Ratio (z) = -0.02932 -0.23166
#
# Static dielectric constant tensor:
#      x y z
#    x 1.802610 0.000000 0.000000 
#    y 0.000000 1.874040 0.000000 
#    z 0.000000 0.000000 2.029850 
# 
# From -- ./inp_files/5038.got.cif
#   From: 2010.05.17/outbox.cif.g08.bks.cpg/sg36_3_cif.got.tgz:5038.got - 2010.06.03 17:41:39.
