data_PCOD9353569
_publ_section_title
;
Structure prediction by ZEFSAII (Michael W. Deem and Ramdas Pophale) SiO2 
 PCOD9353569
Probable space group: C C C 2
;
_chemical_formula_sum "Si O2"
_cell_formula_units_Z 56
_cell_length_a 25.699390
_cell_length_b 5.680288
_cell_length_c 13.869624
_cell_angle_alpha 90.000000
_cell_angle_beta 90.000000
_cell_angle_gamma 90.000000
_cell_volume 2024.686833
_symmetry_space_group_name_H-M "C C C 2"
_symmetry_group_IT_number 37
_symmetry_cell_setting 'orthorhombic'
loop_
_space_group_symop_operation_xyz
x,y,z
-x,-y,z
-x,y,1/2+z
x,-y,1/2+z
1/2+x,1/2+y,z
1/2-x,1/2-y,z
1/2-x,1/2+y,1/2+z
1/2+x,1/2-y,1/2+z
loop_
_atom_site_type_symbol
_atom_site_label
_atom_site_fract_x
_atom_site_fract_y
_atom_site_fract_z
Si Si1 0.940036 1.000000 0.206250
Si Si2 0.899266 0.500000 0.509973
Si Si3 0.778225 0.500000 0.538344
Si Si4 0.685479 0.500000 0.340591
Si Si5 0.299925 0.000000 0.266196
Si Si6 0.098906 0.000000 0.996318
Si Si7 0.940574 0.500000 0.720218
O O1 0.901723 1.000000 0.113786
O O2 0.934577 0.241783 0.264437
O O3 0.934577 0.758217 0.264437
O O4 0.000000 0.000000 0.167803
O O5 0.836743 0.500000 0.494351
O O6 0.924063 0.743167 0.474791
O O7 0.905424 0.500001 0.625374
O O8 0.924063 0.256834 0.474791
O O9 0.750000 0.250000 0.516497
O O10 0.783522 0.500000 0.654942
O O11 0.750000 0.750000 0.516497
O O12 0.673065 0.749956 0.288493
O O13 0.748214 0.500000 0.332897
O O14 0.653892 0.500000 0.440334
O O15 0.673065 0.250044 0.288493
O O16 0.000000 0.500000 0.684577
#
# Coordination Sequence:
#
# PCOD9353569 Si02
#       7
#     8   8   8   8   8   8   8
#     4   8  14  25  44  66  94 127 150 178 222 284
#     4  10  21  33  47  76 103 126 154 190 249 296
#     4  12  21  38  52  66  95 128 169 206 229 281
#     4  10  18  33  51  66  88 121 155 208 223 268
#     4  10  19  35  51  64  82 118 178 200 222 260
#     4  10  19  33  47  74 105 121 153 192 244 297
#     4   8  14  27  46  66  94 125 153 184 223 284
#
# _framework density 27.658598000000001
#
# number of rings (size 3 to 8) (size 9 to 14) (size 15 to 20)
#    0.000    2.286    2.857    1.714    0.000    0.000 
#   15.429    0.000    0.000    0.000    0.000    2.000 
#    0.000    0.000    0.000    0.000    0.000    0.000 
#
# Total GULP energy -156255.814440 kJ/mol
# GULP energy per Si atom -5580.564801 kJ/mol
# Density = 2.759565 g / cm^3
# Si number density = 27.658598 Si / 1000 Ang^3
#
#
#
# Elastic Constant Matrix: (Units=GPa)
#
#
# Indices 1 2 3 4 5 6 
#
# 1 109.5152 -1.3726 -5.7601 0.0000 0.0000 0.0000
# 2 -1.3726 412.1385 41.8101 0.0000 0.0000 0.0000
# 3 -5.7601 41.8101 121.7586 0.0000 0.0000 0.0000
# 4 0.0000 0.0000 0.0000 135.0557 0.0000 0.0000
# 5 0.0000 0.0000 0.0000 0.0000 14.5324 0.0000
# 6 0.0000 0.0000 0.0000 0.0000 0.0000 -6.4626
#
#
#
# Elastic Compliance Matrix: (Units=1/GPa)
#
#
# Indices 1 2 3 4 5 6 
#
# 1 0.009154 -0.000014 0.000438 0.000000 0.000000 0.000000
# 2 -0.000014 0.002514 -0.000864 0.000000 0.000000 0.000000
# 3 0.000438 -0.000864 0.008530 0.000000 0.000000 0.000000
# 4 0.000000 0.000000 0.000000 0.007404 0.000000 0.000000
# 5 0.000000 0.000000 0.000000 0.000000 0.068812 0.000000
# 6 0.000000 0.000000 0.000000 0.000000 0.000000 -0.154736
#
#
# Mechanical properties :
#
#
# Convention : Reuss Voigt Hill
#
# Bulk Modulus (GPa) = 51.76442 79.19634 65.48038
# Shear Modulus (GPa) = -98.03570 69.20743 -14.41413
#
# Velocity S-wave (km/s) = -5.96002 5.00763 -2.28534
# Velocity P-wave (km/s) = 5.34849 7.88231 4.09417
#
# Compressibility (1/GPa) = 0.01931829
#
# Stress axis : x y z
#
# Youngs Moduli (GPa) = 109.24181 397.77821 117.22865
#
# Poissons Ratio (x) = 0.00554 -0.05133
# Poissons Ratio (y) = 0.00152 0.10128
# Poissons Ratio (z) = -0.04783 0.34365
#
# Static dielectric constant tensor:
#      x y z
#    x 2.110820 0.000000 0.000000 
#    y 0.000000 2.154960 0.000000 
#    z 0.000000 0.000000 2.059980 
# 
# From -- ./inp_files/17553.got.cif
#   From: 2010.05.17/outbox.cif.g08.bks.cpg/sg37_9_cif.got.tgz:17553.got - 2010.06.03 17:53:42.
