data_PCOD9353899
_publ_section_title
;
Structure prediction by ZEFSAII (Michael W. Deem and Ramdas Pophale) SiO2 
 PCOD9353899
Probable space group: C C C 2
;
_chemical_formula_sum "Si O2"
_cell_formula_units_Z 40
_cell_length_a 4.857133
_cell_length_b 20.798512
_cell_length_c 14.950122
_cell_angle_alpha 90.000000
_cell_angle_beta 90.000000
_cell_angle_gamma 90.000000
_cell_volume 1510.278352
_symmetry_space_group_name_H-M "C C C 2"
_symmetry_group_IT_number 37
_symmetry_cell_setting 'orthorhombic'
loop_
_space_group_symop_operation_xyz
x,y,z
-x,-y,z
-x,y,1/2+z
x,-y,1/2+z
1/2+x,1/2+y,z
1/2-x,1/2-y,z
1/2-x,1/2+y,1/2+z
1/2+x,1/2-y,1/2+z
loop_
_atom_site_type_symbol
_atom_site_label
_atom_site_fract_x
_atom_site_fract_y
_atom_site_fract_z
Si Si1 0.429696 0.065160 0.791410
Si Si2 0.750000 0.250000 0.215747
Si Si3 0.132792 0.182288 0.882799
Si Si4 0.500000 0.500000 0.149069
Si Si5 0.165483 0.646694 0.642776
Si Si6 0.351988 0.377919 0.541853
O O1 0.324698 0.121942 0.854601
O O2 0.660482 0.097095 0.726433
O O3 0.216312 0.034900 0.717782
O O4 0.500000 0.000000 0.844540
O O5 0.941843 0.208893 0.285486
O O6 0.965723 0.296482 0.171093
O O7 0.250000 0.250000 0.924897
O O8 0.903777 0.150717 0.944663
O O9 0.492724 0.442226 0.075170
O O10 0.967108 0.617432 0.564735
O O11 0.458021 0.667871 0.605038
#
# Coordination Sequence:
#
# PCOD9353899 Si02
#       6
#     8   4   8   4   8   8
#     4  10  19  43  65  94 132 176 230 276 334 411
#     4   8  20  40  66  94 130 180 222 264 340 410
#     4   9  22  42  62 100 141 174 221 284 353 405
#     4  10  22  38  72  96 126 178 234 274 334 402
#     4  10  22  40  69  93 128 176 226 272 327 408
#     4  11  23  42  65  99 132 173 222 286 334 398
#
# _framework density 26.485182999999999
#
# number of rings (size 3 to 8) (size 9 to 14) (size 15 to 20)
#    0.600    1.600    2.000    0.000    2.800    0.800 
#   10.800    4.000    0.000    0.000    0.000    0.000 
#    0.000    0.000    0.000    0.000    0.000    0.000 
#
# Total GULP energy -111395.530665 kJ/mol
# GULP energy per Si atom -5569.776533 kJ/mol
# Density = 2.642490 g / cm^3
# Si number density = 26.485183 Si / 1000 Ang^3
#
#
#
# Elastic Constant Matrix: (Units=GPa)
#
#
# Indices 1 2 3 4 5 6 
#
# 1 110.9028 31.9234 14.1685 0.0000 0.0000 0.0000
# 2 31.9234 165.8801 30.0173 0.0000 0.0000 0.0000
# 3 14.1685 30.0173 68.4281 0.0000 0.0000 0.0000
# 4 0.0000 0.0000 0.0000 9.3602 0.0000 0.0000
# 5 0.0000 0.0000 0.0000 0.0000 12.5432 0.0000
# 6 0.0000 0.0000 0.0000 0.0000 0.0000 29.5990
#
#
#
# Elastic Compliance Matrix: (Units=1/GPa)
#
#
# Indices 1 2 3 4 5 6 
#
# 1 0.009649 -0.001624 -0.001285 0.000000 0.000000 0.000000
# 2 -0.001624 0.006822 -0.002656 0.000000 0.000000 0.000000
# 3 -0.001285 -0.002656 0.016045 0.000000 0.000000 0.000000
# 4 0.000000 0.000000 0.000000 0.106835 0.000000 0.000000
# 5 0.000000 0.000000 0.000000 0.000000 0.079725 0.000000
# 6 0.000000 0.000000 0.000000 0.000000 0.000000 0.033785
#
#
# Mechanical properties :
#
#
# Convention : Reuss Voigt Hill
#
# Bulk Modulus (GPa) = 46.76377 55.26993 51.01685
# Shear Modulus (GPa) = 18.44204 28.24059 23.34132
#
# Velocity S-wave (km/s) = 2.64164 3.26894 2.97189
# Velocity P-wave (km/s) = 5.19608 5.92971 5.57498
#
# Compressibility (1/GPa) = 0.02138408
#
# Stress axis : x y z
#
# Youngs Moduli (GPa) = 103.64128 146.59111 62.32401
#
# Poissons Ratio (x) = 0.23811 0.08010
# Poissons Ratio (y) = 0.16834 0.16554
# Poissons Ratio (z) = 0.13321 0.38937
#
# Static dielectric constant tensor:
#      x y z
#    x 2.205670 0.000000 0.000000 
#    y 0.000000 2.390480 0.000000 
#    z 0.000000 0.000000 2.151400 
# 
# From -- ./inp_files/13843.got.cif
#   From: 2010.05.17/outbox.cif.g08.bks.cpg/sg37_7_cif.got.tgz:13843.got - 2010.06.03 17:53:42.
