data_PCOD9353612
_publ_section_title
;
Structure prediction by ZEFSAII (Michael W. Deem and Ramdas Pophale) SiO2 
 PCOD9353612
Probable space group: C C C 2
;
_chemical_formula_sum "Si O2"
_cell_formula_units_Z 56
_cell_length_a 24.452478
_cell_length_b 12.761933
_cell_length_c 8.378954
_cell_angle_alpha 90.000000
_cell_angle_beta 90.000000
_cell_angle_gamma 90.000000
_cell_volume 2614.743808
_symmetry_space_group_name_H-M "C C C 2"
_symmetry_group_IT_number 37
_symmetry_cell_setting 'orthorhombic'
loop_
_space_group_symop_operation_xyz
x,y,z
-x,-y,z
-x,y,1/2+z
x,-y,1/2+z
1/2+x,1/2+y,z
1/2-x,1/2-y,z
1/2-x,1/2+y,1/2+z
1/2+x,1/2-y,1/2+z
loop_
_atom_site_type_symbol
_atom_site_label
_atom_site_fract_x
_atom_site_fract_y
_atom_site_fract_z
Si Si1 0.914834 0.176952 0.667510
Si Si2 0.345416 0.531801 0.879124
Si Si3 0.200314 0.666213 0.256395
Si Si4 0.620528 0.347124 0.199091
Si Si5 0.268355 0.873688 0.924256
Si Si6 0.488245 0.625566 0.361120
Si Si7 0.191503 0.317235 0.107421
O O1 0.880446 0.079179 0.734627
O O2 0.955268 0.153759 0.521003
O O3 0.866265 0.255095 0.618239
O O4 0.957639 0.191378 0.815661
O O5 0.353868 0.409316 0.851810
O O6 0.282646 0.559331 0.866490
O O7 0.363115 0.593276 0.037541
O O8 0.250000 0.750000 0.269516
O O9 0.147116 0.733274 0.204887
O O10 0.192877 0.625333 0.436145
O O11 0.214271 0.596451 0.102834
O O12 0.556210 0.352642 0.223135
O O13 0.250000 0.750000 0.939328
O O14 0.309146 0.876577 0.776495
O O15 0.500000 0.500000 0.363727
O O16 0.250000 0.250000 0.111575
#
# Coordination Sequence:
#
# PCOD9353612 Si02
#       7
#     8   8   8   8   8   8   8
#     4  12  22  37  49  73 105 152 200 247 283 332
#     4  12  23  35  53  78 107 141 199 252 286 337
#     4  10  19  35  57  78  99 141 198 240 292 352
#     4  12  23  36  54  75 109 153 199 238 282 336
#     4  10  18  36  55  77 101 134 186 250 304 344
#     4  12  25  35  48  71 109 158 199 233 274 325
#     4  10  19  33  58  77  96 129 201 252 292 335
#
# _framework density 21.417012
#
# number of rings (size 3 to 8) (size 9 to 14) (size 15 to 20)
#    0.000    0.857    8.571    2.143    0.000    0.000 
#    0.000    0.000    0.000    0.000    0.000    0.000 
#    0.000    0.000    0.000    1.286   19.714    8.143 
#
# Total GULP energy -156203.310454 kJ/mol
# GULP energy per Si atom -5578.689659 kJ/mol
# Density = 2.136827 g / cm^3
# Si number density = 21.417012 Si / 1000 Ang^3
#
#
#
# Elastic Constant Matrix: (Units=GPa)
#
#
# Indices 1 2 3 4 5 6 
#
# 1 150.3086 29.1528 39.3442 0.0000 0.0000 0.0000
# 2 29.1528 24.4015 13.4749 0.0000 0.0000 0.0000
# 3 39.3442 13.4749 164.5080 0.0000 0.0000 0.0000
# 4 0.0000 0.0000 0.0000 -24.5961 0.0000 0.0000
# 5 0.0000 0.0000 0.0000 0.0000 32.1748 0.0000
# 6 0.0000 0.0000 0.0000 0.0000 0.0000 30.9406
#
#
#
# Elastic Compliance Matrix: (Units=1/GPa)
#
#
# Indices 1 2 3 4 5 6 
#
# 1 0.008925 -0.009934 -0.001321 0.000000 0.000000 0.000000
# 2 -0.009934 0.053979 -0.002046 0.000000 0.000000 0.000000
# 3 -0.001321 -0.002046 0.006562 0.000000 0.000000 0.000000
# 4 0.000000 0.000000 0.000000 -0.040657 0.000000 0.000000
# 5 0.000000 0.000000 0.000000 0.000000 0.031080 0.000000
# 6 0.000000 0.000000 0.000000 0.000000 0.000000 0.032320
#
#
# Mechanical properties :
#
#
# Convention : Reuss Voigt Hill
#
# Bulk Modulus (GPa) = 23.32869 55.90687 39.61778
# Shear Modulus (GPa) = 37.56589 24.85362 31.20976
#
# Velocity S-wave (km/s) = 4.19265 3.41025 3.82152
# Velocity P-wave (km/s) = 5.86123 6.45500 6.16527
#
# Compressibility (1/GPa) = 0.04286568
#
# Stress axis : x y z
#
# Youngs Moduli (GPa) = 112.03895 18.52573 152.38775
#
# Poissons Ratio (x) = 0.18403 0.20130
# Poissons Ratio (y) = 1.11299 0.31172
# Poissons Ratio (z) = 0.14800 0.03790
#
# Static dielectric constant tensor:
#      x y z
#    x 1.798940 0.000000 0.000000 
#    y 0.000000 1.882460 0.000000 
#    z 0.000000 0.000000 1.881960 
# 
# From -- ./inp_files/4178.got.cif
#   From: 2010.05.17/outbox.cif.g08.bks.cpg/sg37_3_cif.got.tgz:4178.got - 2010.06.03 17:53:42.
