data_PCOD9353974
_publ_section_title
;
Structure prediction by ZEFSAII (Michael W. Deem and Ramdas Pophale) SiO2 
 PCOD9353974
Probable space group: C C C 2
;
_chemical_formula_sum "Si O2"
_cell_formula_units_Z 48
_cell_length_a 16.858711
_cell_length_b 9.417989
_cell_length_c 14.445794
_cell_angle_alpha 90.000000
_cell_angle_beta 90.000000
_cell_angle_gamma 90.000000
_cell_volume 2293.633178
_symmetry_space_group_name_H-M "C C C 2"
_symmetry_group_IT_number 37
_symmetry_cell_setting 'orthorhombic'
loop_
_space_group_symop_operation_xyz
x,y,z
-x,-y,z
-x,y,1/2+z
x,-y,1/2+z
1/2+x,1/2+y,z
1/2-x,1/2-y,z
1/2-x,1/2+y,1/2+z
1/2+x,1/2-y,1/2+z
loop_
_atom_site_type_symbol
_atom_site_label
_atom_site_fract_x
_atom_site_fract_y
_atom_site_fract_z
Si Si1 0.341167 0.462052 0.367670
Si Si2 0.061121 0.366232 0.054301
Si Si3 0.438880 0.366231 0.735260
Si Si4 0.658834 0.962050 0.421891
Si Si5 0.089364 0.194792 0.529268
Si Si6 0.089365 0.694793 0.760293
O O1 0.375520 0.594052 0.312104
O O2 0.250000 0.470778 0.394781
O O3 0.390592 0.432550 0.460814
O O4 0.358849 0.326035 0.300612
O O5 0.101975 0.336249 0.152547
O O6 0.000000 0.500000 0.065740
O O7 0.002621 0.240290 0.024676
O O8 0.124480 0.405951 0.977457
O O9 0.500000 0.500000 0.723821
O O10 0.398026 0.336251 0.637014
O O11 0.497380 0.240290 0.764885
O O12 0.641150 0.826033 0.488948
O O13 0.609410 0.932548 0.328746
#
# Coordination Sequence:
#
# PCOD9353974 Si02
#       6
#     8   8   8   8   8   8
#     4  10  20  35  58  86 114 146 183 232 288 335
#     4   9  19  34  55  84 113 149 191 232 278 335
#     4   9  19  34  55  84 113 149 191 232 278 335
#     4  10  20  35  58  86 114 146 183 232 288 335
#     4   9  18  34  55  81 114 148 188 232 278 332
#     4   9  18  34  55  81 114 148 188 232 278 332
#
# _framework density 20.927495
#
# number of rings (size 3 to 8) (size 9 to 14) (size 15 to 20)
#    0.000    2.667    0.000    2.000    0.000    8.000 
#    0.000    0.000    0.000    0.000    0.000   56.000 
#    0.000    0.000    0.000    0.000    0.000    0.000 
#
# Total GULP energy -134068.004431 kJ/mol
# GULP energy per Si atom -5586.166851 kJ/mol
# Density = 2.087986 g / cm^3
# Si number density = 20.927495 Si / 1000 Ang^3
#
#
#
# Elastic Constant Matrix: (Units=GPa)
#
#
# Indices 1 2 3 4 5 6 
#
# 1 105.8251 44.1455 131.0110 0.0000 0.0000 0.0000
# 2 44.1455 29.6077 49.4854 0.0000 0.0000 0.0000
# 3 131.0110 49.4854 180.6166 0.0000 0.0000 0.0000
# 4 0.0000 0.0000 0.0000 36.0114 0.0000 0.0000
# 5 0.0000 0.0000 0.0000 0.0000 -32.2269 0.0000
# 6 0.0000 0.0000 0.0000 0.0000 0.0000 16.3402
#
#
#
# Elastic Compliance Matrix: (Units=1/GPa)
#
#
# Indices 1 2 3 4 5 6 
#
# 1 0.152582 -0.078443 -0.089185 0.000000 0.000000 0.000000
# 2 -0.078443 0.102634 0.028779 0.000000 0.000000 0.000000
# 3 -0.089185 0.028779 0.062342 0.000000 0.000000 0.000000
# 4 0.000000 0.000000 0.000000 0.027769 0.000000 0.000000
# 5 0.000000 0.000000 0.000000 0.000000 -0.031030 0.000000
# 6 0.000000 0.000000 0.000000 0.000000 0.000000 0.061199
#
#
# Mechanical properties :
#
#
# Convention : Reuss Voigt Hill
#
# Bulk Modulus (GPa) = 25.08648 85.03700 55.06174
# Shear Modulus (GPa) = 7.50210 10.11876 8.81043
#
# Velocity S-wave (km/s) = 1.89541 2.20128 2.05405
# Velocity P-wave (km/s) = 4.09920 6.86900 5.65626
#
# Compressibility (1/GPa) = 0.03986211
#
# Stress axis : x y z
#
# Youngs Moduli (GPa) = 6.55383 9.74337 16.04052
#
# Poissons Ratio (x) = 0.76430 1.43057
# Poissons Ratio (y) = 0.51410 -0.46163
# Poissons Ratio (z) = 0.58450 -0.28040
#
# Static dielectric constant tensor:
#      x y z
#    x 1.706600 0.000000 0.000000 
#    y 0.000000 1.840140 0.000000 
#    z 0.000000 0.000000 1.743790 
# 
# From -- ./inp_files/12608.got.cif
#   From: 2010.05.17/outbox.cif.g08.bks.cpg/sg37_7_cif.got.tgz:12608.got - 2010.06.03 17:53:42.
