data_PCOD9353025
_publ_section_title
;
Structure prediction by ZEFSAII (Michael W. Deem and Ramdas Pophale) SiO2 
 PCOD9353025
Probable space group: C M C 21
;
_chemical_formula_sum "Si O2"
_cell_formula_units_Z 40
_cell_length_a 9.928176
_cell_length_b 11.305238
_cell_length_c 16.198201
_cell_angle_alpha 90.000000
_cell_angle_beta 90.000000
_cell_angle_gamma 90.000000
_cell_volume 1818.092439
_symmetry_space_group_name_H-M "C M C 21"
_symmetry_group_IT_number 36
_symmetry_cell_setting 'orthorhombic'
loop_
_space_group_symop_operation_xyz
x,y,z
-x,-y,1/2+z
x,-y,1/2+z
-x,y,z
1/2+x,1/2+y,z
1/2-x,1/2-y,1/2+z
1/2+x,1/2-y,1/2+z
1/2-x,1/2+y,z
loop_
_atom_site_type_symbol
_atom_site_label
_atom_site_fract_x
_atom_site_fract_y
_atom_site_fract_z
Si Si1 0.210532 0.664866 0.956820
Si Si2 0.000000 0.879366 0.525631
Si Si3 0.788813 0.582637 0.769030
Si Si4 0.000000 0.702268 0.654083
Si Si5 0.500000 0.658924 0.526629
Si Si6 0.000000 0.612150 0.309475
Si Si7 0.000000 0.139428 0.719754
Si Si8 0.000000 0.531845 0.496810
O O1 0.203940 0.641887 0.859315
O O2 0.129255 0.555266 0.997846
O O3 0.363301 0.667264 0.985234
O O4 0.129536 0.780716 0.984517
O O5 0.000000 0.834563 0.619841
O O6 0.000000 0.019462 0.515822
O O7 0.869932 0.667304 0.706961
O O8 0.870846 0.460224 0.775588
O O9 0.636306 0.569872 0.740067
O O10 0.000000 0.619201 0.573137
O O11 0.500000 0.680991 0.624748
O O12 0.000000 0.744551 0.277677
O O13 0.000000 0.596504 0.408199
#
# Coordination Sequence:
#
# PCOD9353025 Si02
#       8
#     8   4   8   4   4   4   4   4
#     4  10  24  47  72 100 138 185 228 283 343 411
#     4  12  27  41  74 107 134 186 231 283 342 414
#     4  10  24  45  69 103 136 179 232 280 346 406
#     4  11  24  44  73  98 142 177 228 286 340 408
#     4  11  27  45  67 102 145 180 233 280 347 408
#     4   9  23  45  68  98 134 182 221 280 345 405
#     4  12  25  40  71 101 136 177 225 285 339 408
#     4   9  22  43  75  96 135 182 228 280 345 409
#
# _framework density 22.001082
#
# number of rings (size 3 to 8) (size 9 to 14) (size 15 to 20)
#    0.000    1.600    0.000    3.600   14.000    3.200 
#    0.000    3.000    0.000    0.000    0.000    0.000 
#    0.000    0.000    0.000    0.000    0.000    0.000 
#
# Total GULP energy -112042.695922 kJ/mol
# GULP energy per Si atom -5602.134796 kJ/mol
# Density = 2.195101 g / cm^3
# Si number density = 22.001082 Si / 1000 Ang^3
#
#
#
# Elastic Constant Matrix: (Units=GPa)
#
#
# Indices 1 2 3 4 5 6 
#
# 1 206.7973 53.0319 45.9491 0.0000 0.0000 0.0000
# 2 53.0319 73.7661 11.3114 0.0000 0.0000 0.0000
# 3 45.9491 11.3114 75.5255 0.0000 0.0000 0.0000
# 4 0.0000 0.0000 0.0000 -41.4717 0.0000 0.0000
# 5 0.0000 0.0000 0.0000 0.0000 22.0159 0.0000
# 6 0.0000 0.0000 0.0000 0.0000 0.0000 -1.8792
#
#
#
# Elastic Compliance Matrix: (Units=1/GPa)
#
#
# Indices 1 2 3 4 5 6 
#
# 1 0.006698 -0.004289 -0.003433 0.000000 0.000000 0.000000
# 2 -0.004289 0.016622 0.000120 0.000000 0.000000 0.000000
# 3 -0.003433 0.000120 0.015311 0.000000 0.000000 0.000000
# 4 0.000000 0.000000 0.000000 -0.024113 0.000000 0.000000
# 5 0.000000 0.000000 0.000000 0.000000 0.045422 0.000000
# 6 0.000000 0.000000 0.000000 0.000000 0.000000 -0.532141
#
#
# Mechanical properties :
#
#
# Convention : Reuss Voigt Hill
#
# Bulk Modulus (GPa) = 42.68555 64.07486 53.38021
# Shear Modulus (GPa) = -11.13119 12.11942 0.49412
#
# Velocity S-wave (km/s) = -2.25175 2.34958 0.47442
# Velocity P-wave (km/s) = 3.56135 6.04545 4.96138
#
# Compressibility (1/GPa) = 0.02342713
#
# Stress axis : x y z
#
# Youngs Moduli (GPa) = 149.29076 60.16297 65.31218
#
# Poissons Ratio (x) = 0.25805 0.22421
# Poissons Ratio (y) = 0.64033 -0.00784
# Poissons Ratio (z) = 0.51249 -0.00723
#
# Static dielectric constant tensor:
#      x y z
#    x 1.785150 0.000000 0.000000 
#    y 0.000000 1.850970 0.000000 
#    z 0.000000 0.000000 1.780190 
# 
# From -- ./inp_files/13340.got.cif
#   From: 2010.05.17/outbox.cif.g08.bks.cpg/sg36_7_cif.got.tgz:13340.got - 2010.06.03 17:41:39.
