data_PCOD9353421
_publ_section_title
;
Structure prediction by ZEFSAII (Michael W. Deem and Ramdas Pophale) SiO2 
 PCOD9353421
Probable space group: C C C 2
;
_chemical_formula_sum "Si O2"
_cell_formula_units_Z 56
_cell_length_a 24.890678
_cell_length_b 17.088539
_cell_length_c 5.493763
_cell_angle_alpha 90.000000
_cell_angle_beta 90.000000
_cell_angle_gamma 90.000000
_cell_volume 2336.746391
_symmetry_space_group_name_H-M "C C C 2"
_symmetry_group_IT_number 37
_symmetry_cell_setting 'orthorhombic'
loop_
_space_group_symop_operation_xyz
x,y,z
-x,-y,z
-x,y,1/2+z
x,-y,1/2+z
1/2+x,1/2+y,z
1/2-x,1/2-y,z
1/2-x,1/2+y,1/2+z
1/2+x,1/2-y,1/2+z
loop_
_atom_site_type_symbol
_atom_site_label
_atom_site_fract_x
_atom_site_fract_y
_atom_site_fract_z
Si Si1 0.201556 0.981584 0.792200
Si Si2 0.306724 0.905397 0.288376
Si Si3 0.936776 0.789666 0.180807
Si Si4 0.938365 0.028709 0.566903
Si Si5 0.940847 0.725057 0.682332
Si Si6 0.073561 0.457343 0.743152
Si Si7 0.272433 0.164158 0.290612
O O1 0.221024 0.893226 0.798781
O O2 0.173378 0.996305 0.539550
O O3 0.255753 0.035652 0.786165
O O4 0.361621 0.952078 0.255745
O O5 0.304843 0.862030 0.548882
O O6 0.301206 0.850858 0.049705
O O7 0.934238 0.882886 0.167509
O O8 0.914065 0.753862 0.431158
O O9 0.999515 0.762882 0.180664
O O10 0.913236 0.754454 0.930819
O O11 0.919080 0.025832 0.288342
O O12 0.000000 0.000000 0.534111
O O13 0.945600 0.631491 0.698177
O O14 0.058001 0.509157 0.508362
O O15 0.250000 0.250000 0.264918
#
# Coordination Sequence:
#
# PCOD9353421 Si02
#       7
#     8   8   8   8   8   8   8
#     4   8  14  25  41  61  89 123 146 172 228 277
#     4  10  19  33  50  70 103 133 155 201 253 288
#     4  10  19  35  49  70 110 138 163 223 286 325
#     4  10  16  25  46  74  98 122 153 195 252 321
#     4  10  20  34  51  69  97 141 177 215 275 326
#     4  12  23  37  54  75  97 135 188 227 256 312
#     4  10  18  29  48  75 102 124 151 191 239 299
#
# _framework density 23.964945
#
# number of rings (size 3 to 8) (size 9 to 14) (size 15 to 20)
#    0.000    2.000    0.000    9.000    0.000    0.000 
#    0.000    8.571    0.000    0.000    0.000    0.000 
#    0.000  130.286    0.000    0.000    0.000    0.000 
#
# Total GULP energy -156549.658109 kJ/mol
# GULP energy per Si atom -5591.059218 kJ/mol
# Density = 2.391040 g / cm^3
# Si number density = 23.964945 Si / 1000 Ang^3
#
#
#
# Elastic Constant Matrix: (Units=GPa)
#
#
# Indices 1 2 3 4 5 6 
#
# 1 57.5036 -16.8724 15.9430 0.0000 0.0000 0.0000
# 2 -16.8724 137.3650 52.9193 0.0000 0.0000 0.0000
# 3 15.9430 52.9193 253.8176 0.0000 0.0000 0.0000
# 4 0.0000 0.0000 0.0000 43.5657 0.0000 0.0000
# 5 0.0000 0.0000 0.0000 0.0000 -61.5240 0.0000
# 6 0.0000 0.0000 0.0000 0.0000 0.0000 -22.3799
#
#
#
# Elastic Compliance Matrix: (Units=1/GPa)
#
#
# Indices 1 2 3 4 5 6 
#
# 1 0.018771 0.003001 -0.001805 0.000000 0.000000 0.000000
# 2 0.003001 0.008395 -0.001939 0.000000 0.000000 0.000000
# 3 -0.001805 -0.001939 0.004457 0.000000 0.000000 0.000000
# 4 0.000000 0.000000 0.000000 0.022954 0.000000 0.000000
# 5 0.000000 0.000000 0.000000 0.000000 -0.016254 0.000000
# 6 0.000000 0.000000 0.000000 0.000000 0.000000 -0.044683
#
#
# Mechanical properties :
#
#
# Convention : Reuss Voigt Hill
#
# Bulk Modulus (GPa) = 33.18013 61.40732 47.29372
# Shear Modulus (GPa) = 966.61951 18.37878 492.49915
#
# Velocity S-wave (km/s) = 20.10530 2.77230 14.35111
# Velocity P-wave (km/s) = 23.51253 5.99391 17.15760
#
# Compressibility (1/GPa) = 0.03013852
#
# Stress axis : x y z
#
# Youngs Moduli (GPa) = 53.27342 119.11257 224.34393
#
# Poissons Ratio (x) = -0.35744 0.40488
# Poissons Ratio (y) = -0.15987 0.43498
# Poissons Ratio (z) = 0.09614 0.23095
#
# Static dielectric constant tensor:
#      x y z
#    x 2.112490 0.000000 0.000000 
#    y 0.000000 1.839630 0.000000 
#    z 0.000000 0.000000 1.999840 
# 
# From -- ./inp_files/1480.got.cif
#   From: 2010.05.17/outbox.cif.g08.bks.cpg/sg37_1_cif.got.tgz:1480.got - 2010.06.03 17:53:42.
