data_PCOD9353906
_publ_section_title
;
Structure prediction by ZEFSAII (Michael W. Deem and Ramdas Pophale) SiO2 
 PCOD9353906
Probable space group: C C C 2
;
_chemical_formula_sum "Si O2"
_cell_formula_units_Z 64
_cell_length_a 13.497026
_cell_length_b 22.823252
_cell_length_c 9.373470
_cell_angle_alpha 90.000000
_cell_angle_beta 90.000000
_cell_angle_gamma 90.000000
_cell_volume 2887.460180
_symmetry_space_group_name_H-M "C C C 2"
_symmetry_group_IT_number 37
_symmetry_cell_setting 'orthorhombic'
loop_
_space_group_symop_operation_xyz
x,y,z
-x,-y,z
-x,y,1/2+z
x,-y,1/2+z
1/2+x,1/2+y,z
1/2-x,1/2-y,z
1/2-x,1/2+y,1/2+z
1/2+x,1/2-y,1/2+z
loop_
_atom_site_type_symbol
_atom_site_label
_atom_site_fract_x
_atom_site_fract_y
_atom_site_fract_z
Si Si1 0.405282 0.915070 0.475970
Si Si2 0.175419 0.058256 0.980121
Si Si3 0.376422 0.196217 0.148211
Si Si4 0.123578 0.696217 0.971513
Si Si5 0.324581 0.441744 0.639603
Si Si6 0.859317 0.171303 0.650063
Si Si7 0.359317 0.328697 0.469661
Si Si8 0.905282 0.415070 0.143754
O O1 0.294483 0.936937 0.512442
O O2 0.404821 0.846714 0.520646
O O3 0.419478 0.924523 0.309862
O O4 0.500000 0.939154 0.559862
O O5 0.127267 0.117852 0.041727
O O6 0.138839 0.000000 0.059862
O O7 0.163772 0.054356 0.809862
O O8 0.412462 0.181291 0.309862
O O9 0.258258 0.185049 0.156115
O O10 0.399713 0.263904 0.118285
O O11 0.241742 0.685049 0.963610
O O12 0.100287 0.763904 0.001439
O O13 0.095179 0.653286 0.099078
O O14 0.372733 0.382148 0.577997
O O15 0.205517 0.436937 0.607282
O O16 0.891238 0.153749 0.809862
#
# Coordination Sequence:
#
# PCOD9353906 Si02
#       8
#     8   8   8   8   8   8   8   8
#     4  10  20  31  43  60  83 113 147 181 214 249
#     4  10  20  31  43  60  83 113 147 181 214 249
#     4   8  14  26  44  63  82 105 133 168 212 257
#     4   8  14  26  44  63  82 105 133 168 212 257
#     4  10  20  31  43  60  83 113 147 181 214 249
#     4   8  14  26  44  63  82 105 133 168 212 257
#     4   8  14  26  44  63  82 105 133 168 212 257
#     4  10  20  31  43  60  83 113 147 181 214 249
#
# _framework density 22.164809000000002
#
# number of rings (size 3 to 8) (size 9 to 14) (size 15 to 20)
#    0.000    3.000    0.000    3.000    0.000    4.500 
#    0.000    7.500    0.000    0.000    0.000    0.000 
#    0.000    1.000    0.000   10.500    0.000    5.500 
#
# Total GULP energy -178418.346951 kJ/mol
# GULP energy per Si atom -5575.573342 kJ/mol
# Density = 2.211436 g / cm^3
# Si number density = 22.164809 Si / 1000 Ang^3
#
#
#
# Elastic Constant Matrix: (Units=GPa)
#
#
# Indices 1 2 3 4 5 6 
#
# 1 33.1061 -19.7143 10.8205 0.0000 0.0000 0.0000
# 2 -19.7143 141.3045 70.3672 0.0000 0.0000 0.0000
# 3 10.8205 70.3672 80.9701 0.0000 0.0000 0.0000
# 4 0.0000 0.0000 0.0000 11.7356 0.0000 0.0000
# 5 0.0000 0.0000 0.0000 0.0000 15.1686 0.0000
# 6 0.0000 0.0000 0.0000 0.0000 0.0000 -10.9505
#
#
#
# Elastic Compliance Matrix: (Units=1/GPa)
#
#
# Indices 1 2 3 4 5 6 
#
# 1 0.047434 0.017232 -0.021314 0.000000 0.000000 0.000000
# 2 0.017232 0.018736 -0.018586 0.000000 0.000000 0.000000
# 3 -0.021314 -0.018586 0.031350 0.000000 0.000000 0.000000
# 4 0.000000 0.000000 0.000000 0.085211 0.000000 0.000000
# 5 0.000000 0.000000 0.000000 0.000000 0.065926 0.000000
# 6 0.000000 0.000000 0.000000 0.000000 0.000000 -0.091320
#
#
# Mechanical properties :
#
#
# Convention : Reuss Voigt Hill
#
# Bulk Modulus (GPa) = 19.16276 42.03639 30.59958
# Shear Modulus (GPa) = 22.72028 16.11791 19.41909
#
# Velocity S-wave (km/s) = 3.20513 2.69956 2.96315
# Velocity P-wave (km/s) = 4.72879 5.35942 5.05395
#
# Compressibility (1/GPa) = 0.05218454
#
# Stress axis : x y z
#
# Youngs Moduli (GPa) = 21.08206 53.37204 31.89743
#
# Poissons Ratio (x) = -0.91970 0.67987
# Poissons Ratio (y) = -0.36328 0.59284
# Poissons Ratio (z) = 0.44935 0.99196
#
# Static dielectric constant tensor:
#      x y z
#    x 1.922300 0.000000 0.000000 
#    y 0.000000 1.811730 0.000000 
#    z 0.000000 0.000000 1.774330 
# 
# From -- ./inp_files/4474.got.cif
#   From: 2010.05.17/outbox.cif.g08.bks.cpg/sg37_3_cif.got.tgz:4474.got - 2010.06.03 17:53:42.
