data_PCOD9353153
_publ_section_title
;
Structure prediction by ZEFSAII (Michael W. Deem and Ramdas Pophale) SiO2 
 PCOD9353153
Probable space group: C M C 21
;
_chemical_formula_sum "Si O2"
_cell_formula_units_Z 64
_cell_length_a 23.417893
_cell_length_b 14.211280
_cell_length_c 8.817939
_cell_angle_alpha 90.000000
_cell_angle_beta 90.000000
_cell_angle_gamma 90.000000
_cell_volume 2934.594531
_symmetry_space_group_name_H-M "C M C 21"
_symmetry_group_IT_number 36
_symmetry_cell_setting 'orthorhombic'
loop_
_space_group_symop_operation_xyz
x,y,z
-x,-y,1/2+z
x,-y,1/2+z
-x,y,z
1/2+x,1/2+y,z
1/2-x,1/2-y,1/2+z
1/2+x,1/2-y,1/2+z
1/2-x,1/2+y,z
loop_
_atom_site_type_symbol
_atom_site_label
_atom_site_fract_x
_atom_site_fract_y
_atom_site_fract_z
Si Si1 0.327296 0.202301 0.425120
Si Si2 0.627203 0.484569 0.428375
Si Si3 0.935852 0.804732 0.360170
Si Si4 0.659360 0.030429 0.204201
Si Si5 0.632092 0.135947 0.900917
Si Si6 0.932844 0.183407 0.500386
Si Si7 0.267770 0.770029 0.244541
Si Si8 0.710736 0.444249 0.688422
O O1 0.389420 0.245175 0.451955
O O2 0.335925 0.101124 0.347585
O O3 0.288065 0.201388 0.575810
O O4 0.297685 0.268684 0.296361
O O5 0.576084 0.414466 0.390826
O O6 0.602534 0.587684 0.468702
O O7 0.667636 0.436447 0.551074
O O8 0.672985 0.493065 0.296339
O O9 0.928138 0.791484 0.179166
O O10 0.000000 0.778996 0.401286
O O11 0.726276 0.014007 0.160465
O O12 0.626121 0.938977 0.264211
O O13 0.631188 0.082128 0.061333
O O14 0.695944 0.174496 0.869171
O O15 0.592099 0.227312 0.908480
O O16 0.000000 0.168531 0.466917
O O17 0.281710 0.659222 0.256486
#
# Coordination Sequence:
#
# PCOD9353153 Si02
#       8
#     8   8   8   8   8   8   8   8
#     4  11  23  42  66 103 138 183 237 286 354 413
#     4  12  22  42  65 101 139 176 225 272 337 416
#     4  11  24  42  69 100 141 186 232 282 340 418
#     4  11  25  41  66 100 137 176 228 287 357 420
#     4  12  24  46  66  98 135 178 228 291 354 421
#     4  11  25  45  69  98 136 184 234 289 346 416
#     4  11  23  39  66  99 140 181 226 288 351 420
#     4  11  23  37  63  99 134 176 215 273 343 416
#
# _framework density 21.808805
#
# number of rings (size 3 to 8) (size 9 to 14) (size 15 to 20)
#    0.000    0.750    5.000    3.375    1.750    1.000 
#    0.000    3.125    0.000    0.000    0.000    0.000 
#    0.000    0.000    0.000    0.000    0.000    0.000 
#
# Total GULP energy -178800.186982 kJ/mol
# GULP energy per Si atom -5587.505843 kJ/mol
# Density = 2.175917 g / cm^3
# Si number density = 21.808805 Si / 1000 Ang^3
#
#
#
# Elastic Constant Matrix: (Units=GPa)
#
#
# Indices 1 2 3 4 5 6 
#
# 1 97.5477 29.6175 15.2699 0.0000 0.0000 0.0000
# 2 29.6175 111.4433 14.6780 0.0000 0.0000 0.0000
# 3 15.2699 14.6780 47.4854 0.0000 0.0000 0.0000
# 4 0.0000 0.0000 0.0000 36.7714 0.0000 0.0000
# 5 0.0000 0.0000 0.0000 0.0000 18.7404 0.0000
# 6 0.0000 0.0000 0.0000 0.0000 0.0000 48.3149
#
#
#
# Elastic Compliance Matrix: (Units=1/GPa)
#
#
# Indices 1 2 3 4 5 6 
#
# 1 0.011516 -0.002682 -0.002874 0.000000 0.000000 0.000000
# 2 -0.002682 0.009979 -0.002222 0.000000 0.000000 0.000000
# 3 -0.002874 -0.002222 0.022670 0.000000 0.000000 0.000000
# 4 0.000000 0.000000 0.000000 0.027195 0.000000 0.000000
# 5 0.000000 0.000000 0.000000 0.000000 0.053361 0.000000
# 6 0.000000 0.000000 0.000000 0.000000 0.000000 0.020698
#
#
# Mechanical properties :
#
#
# Convention : Reuss Voigt Hill
#
# Bulk Modulus (GPa) = 34.95484 41.73414 38.34449
# Shear Modulus (GPa) = 29.32387 33.89275 31.60831
#
# Velocity S-wave (km/s) = 3.67084 3.94647 3.81115
# Velocity P-wave (km/s) = 5.83347 6.32013 6.08167
#
# Compressibility (1/GPa) = 0.02860834
#
# Stress axis : x y z
#
# Youngs Moduli (GPa) = 86.83894 100.21475 44.11087
#
# Poissons Ratio (x) = 0.26876 0.12678
# Poissons Ratio (y) = 0.23289 0.09801
# Poissons Ratio (z) = 0.24958 0.22268
#
# Static dielectric constant tensor:
#      x y z
#    x 1.752520 0.000000 0.000000 
#    y 0.000000 1.759820 0.000000 
#    z 0.000000 0.000000 1.760850 
# 
# From -- ./inp_files/5667.got.cif
#   From: 2010.05.17/outbox.cif.g08.bks.cpg/sg36_3_cif.got.tgz:5667.got - 2010.06.03 17:41:39.
