data_PCOD9353873
_publ_section_title
;
Structure prediction by ZEFSAII (Michael W. Deem and Ramdas Pophale) SiO2 
 PCOD9353873
Probable space group: C C C 2
;
_chemical_formula_sum "Si O2"
_cell_formula_units_Z 48
_cell_length_a 13.995177
_cell_length_b 5.694034
_cell_length_c 27.102610
_cell_angle_alpha 90.000000
_cell_angle_beta 90.000000
_cell_angle_gamma 90.000000
_cell_volume 2159.780259
_symmetry_space_group_name_H-M "C C C 2"
_symmetry_group_IT_number 37
_symmetry_cell_setting 'orthorhombic'
loop_
_space_group_symop_operation_xyz
x,y,z
-x,-y,z
-x,y,1/2+z
x,-y,1/2+z
1/2+x,1/2+y,z
1/2-x,1/2-y,z
1/2-x,1/2+y,1/2+z
1/2+x,1/2-y,1/2+z
loop_
_atom_site_type_symbol
_atom_site_label
_atom_site_fract_x
_atom_site_fract_y
_atom_site_fract_z
Si Si1 0.611028 0.553916 0.196970
Si Si2 0.394883 0.115502 0.105551
Si Si3 0.750000 0.250000 0.969235
Si Si4 0.649874 0.395431 0.406577
Si Si5 0.600089 0.869890 0.000974
Si Si6 0.250000 0.750000 0.134067
Si Si7 0.805459 0.004428 0.804189
O O1 0.500000 0.500000 0.198665
O O2 0.623620 0.763516 0.157998
O O3 0.669991 0.352778 0.170002
O O4 0.648439 0.576499 0.252265
O O5 0.500000 0.000000 0.108858
O O6 0.308780 0.932212 0.101732
O O7 0.391070 0.263285 0.054129
O O8 0.671899 0.361879 0.933293
O O9 0.807896 0.457772 0.996078
O O10 0.750000 0.250000 0.402849
O O11 0.591828 0.262455 0.448812
O O12 0.623910 0.442997 0.349950
O O13 0.500000 0.000000 0.006449
O O14 0.750000 0.250000 0.819009
O O15 0.750000 0.750000 0.796290
#
# Coordination Sequence:
#
# PCOD9353873 Si02
#       7
#     8   8   4   8   8   4   8
#     4  12  26  45  69 104 140 187 242 304 367 446
#     4  11  24  44  69 101 144 187 244 297 367 444
#     4  10  19  40  66  92 134 178 225 280 358 424
#     4   9  20  40  66  98 136 179 234 289 357 431
#     4  10  23  41  65 102 139 181 234 293 352 437
#     4  12  23  44  72 100 140 186 235 300 370 430
#     4  11  23  45  76 105 141 193 245 304 371 435
#
# _framework density 22.224482999999999
#
# number of rings (size 3 to 8) (size 9 to 14) (size 15 to 20)
#    0.000    1.333    3.333    2.000    0.000    6.000 
#    3.000    0.000    0.000    0.000    0.000    0.000 
#    0.000    0.000    0.000    0.000    0.000    0.000 
#
# Total GULP energy -133671.368054 kJ/mol
# GULP energy per Si atom -5569.640336 kJ/mol
# Density = 2.217390 g / cm^3
# Si number density = 22.224483 Si / 1000 Ang^3
#
#
#
# Elastic Constant Matrix: (Units=GPa)
#
#
# Indices 1 2 3 4 5 6 
#
# 1 82.8536 17.9790 33.2073 0.0000 0.0000 0.0000
# 2 17.9790 72.0009 44.0566 0.0000 0.0000 0.0000
# 3 33.2073 44.0566 236.1529 0.0000 0.0000 0.0000
# 4 0.0000 0.0000 0.0000 35.0081 0.0000 0.0000
# 5 0.0000 0.0000 0.0000 0.0000 34.3149 0.0000
# 6 0.0000 0.0000 0.0000 0.0000 0.0000 26.5999
#
#
#
# Elastic Compliance Matrix: (Units=1/GPa)
#
#
# Indices 1 2 3 4 5 6 
#
# 1 0.013157 -0.002431 -0.001397 0.000000 0.000000 0.000000
# 2 -0.002431 0.016128 -0.002667 0.000000 0.000000 0.000000
# 3 -0.001397 -0.002667 0.004928 0.000000 0.000000 0.000000
# 4 0.000000 0.000000 0.000000 0.028565 0.000000 0.000000
# 5 0.000000 0.000000 0.000000 0.000000 0.029142 0.000000
# 6 0.000000 0.000000 0.000000 0.000000 0.000000 0.037594
#
#
# Mechanical properties :
#
#
# Convention : Reuss Voigt Hill
#
# Bulk Modulus (GPa) = 47.11607 64.61036 55.86322
# Shear Modulus (GPa) = 33.42762 38.90219 36.16491
#
# Velocity S-wave (km/s) = 3.88247 4.18834 4.03830
# Velocity P-wave (km/s) = 6.42994 7.24737 6.85086
#
# Compressibility (1/GPa) = 0.02122418
#
# Stress axis : x y z
#
# Youngs Moduli (GPa) = 76.00690 62.00561 202.90248
#
# Poissons Ratio (x) = 0.15072 0.28337
# Poissons Ratio (y) = 0.18475 0.54113
# Poissons Ratio (z) = 0.10615 0.16537
#
# Static dielectric constant tensor:
#      x y z
#    x 1.802690 0.000000 0.000000 
#    y 0.000000 1.912830 0.000000 
#    z 0.000000 0.000000 1.868690 
# 
# From -- ./inp_files/19374.got.cif
#   From: 2010.05.17/outbox.cif.g08.bks.cpg/sg37_10_cif.got.tgz:19374.got - 2010.06.03 17:53:42.
