data_PCOD9353875
_publ_section_title
;
Structure prediction by ZEFSAII (Michael W. Deem and Ramdas Pophale) SiO2 
 PCOD9353875
Probable space group: C C C 2
;
_chemical_formula_sum "Si O2"
_cell_formula_units_Z 36
_cell_length_a 8.037460
_cell_length_b 13.952583
_cell_length_c 14.663965
_cell_angle_alpha 90.000000
_cell_angle_beta 90.000000
_cell_angle_gamma 90.000000
_cell_volume 1644.465833
_symmetry_space_group_name_H-M "C C C 2"
_symmetry_group_IT_number 37
_symmetry_cell_setting 'orthorhombic'
loop_
_space_group_symop_operation_xyz
x,y,z
-x,-y,z
-x,y,1/2+z
x,-y,1/2+z
1/2+x,1/2+y,z
1/2-x,1/2-y,z
1/2-x,1/2+y,1/2+z
1/2+x,1/2-y,1/2+z
loop_
_atom_site_type_symbol
_atom_site_label
_atom_site_fract_x
_atom_site_fract_y
_atom_site_fract_z
Si Si1 0.250000 0.750000 0.239990
Si Si2 0.594894 0.145636 0.982403
Si Si3 0.042067 0.388700 0.283539
Si Si4 0.414491 0.353407 0.575370
Si Si5 0.779370 0.364031 0.588340
O O1 0.124354 0.677088 0.288071
O O2 0.369893 0.686656 0.175291
O O3 0.635570 0.136149 0.876734
O O4 0.579154 0.257572 0.011864
O O5 0.743877 0.099413 0.041004
O O6 0.416750 0.104719 0.014427
O O7 0.000000 0.500000 0.287095
O O8 0.141224 0.374635 0.189073
O O9 0.592570 0.403444 0.576926
O O10 0.750000 0.250000 0.577804
#
# Coordination Sequence:
#
# PCOD9353875 Si02
#       5
#     4   8   8   8   8
#     4  10  20  42  66  92 130 172 232 270 338 416
#     4   9  20  37  60  97 131 164 225 269 337 408
#     4  12  25  40  69 101 140 178 222 296 351 405
#     4   9  18  38  67  94 120 181 224 269 335 401
#     4  10  19  40  68  92 125 181 219 271 345 399
#
# _framework density 21.891604999999998
#
# number of rings (size 3 to 8) (size 9 to 14) (size 15 to 20)
#    0.000    2.222    6.667    0.000    7.778    0.889 
#    0.000    1.111    0.000    0.000    0.000    0.000 
#    0.000    0.000    0.000    0.000    0.000    0.000 
#
# Total GULP energy -100395.513878 kJ/mol
# GULP energy per Si atom -5577.528549 kJ/mol
# Density = 2.184178 g / cm^3
# Si number density = 21.891605 Si / 1000 Ang^3
#
#
#
# Elastic Constant Matrix: (Units=GPa)
#
#
# Indices 1 2 3 4 5 6 
#
# 1 151.9350 28.9853 18.6168 0.0000 0.0000 0.0000
# 2 28.9853 67.7024 -5.2594 0.0000 0.0000 0.0000
# 3 18.6168 -5.2594 69.0243 0.0000 0.0000 0.0000
# 4 0.0000 0.0000 0.0000 25.8532 0.0000 0.0000
# 5 0.0000 0.0000 0.0000 0.0000 -43.0147 0.0000
# 6 0.0000 0.0000 0.0000 0.0000 0.0000 30.5226
#
#
#
# Elastic Compliance Matrix: (Units=1/GPa)
#
#
# Indices 1 2 3 4 5 6 
#
# 1 0.007509 -0.003392 -0.002284 0.000000 0.000000 0.000000
# 2 -0.003392 0.016391 0.002164 0.000000 0.000000 0.000000
# 3 -0.002284 0.002164 0.015268 0.000000 0.000000 0.000000
# 4 0.000000 0.000000 0.000000 0.038680 0.000000 0.000000
# 5 0.000000 0.000000 0.000000 0.000000 -0.023248 0.000000
# 6 0.000000 0.000000 0.000000 0.000000 0.000000 0.032763
#
#
# Mechanical properties :
#
#
# Convention : Reuss Voigt Hill
#
# Bulk Modulus (GPa) = 31.10985 41.48302 36.29644
# Shear Modulus (GPa) = 47.57313 19.09349 33.33331
#
# Velocity S-wave (km/s) = 4.66673 2.95648 3.90635
# Velocity P-wave (km/s) = 6.57872 5.53577 6.07965
#
# Compressibility (1/GPa) = 0.03214416
#
# Stress axis : x y z
#
# Youngs Moduli (GPa) = 133.17871 61.00956 65.49449
#
# Poissons Ratio (x) = 0.20695 0.14957
# Poissons Ratio (y) = 0.45175 -0.14172
# Poissons Ratio (z) = 0.30414 -0.13201
#
# Static dielectric constant tensor:
#      x y z
#    x 1.914460 0.000000 0.000000 
#    y 0.000000 1.841170 0.000000 
#    z 0.000000 0.000000 1.753280 
# 
# From -- ./inp_files/10275.got.cif
#   From: 2010.05.17/outbox.cif.g08.bks.cpg/sg37_6_cif.got.tgz:10275.got - 2010.06.03 17:53:42.
