data_PCOD9353914
_publ_section_title
;
Structure prediction by ZEFSAII (Michael W. Deem and Ramdas Pophale) SiO2 
 PCOD9353914
Probable space group: C C C 2
;
_chemical_formula_sum "Si O2"
_cell_formula_units_Z 36
_cell_length_a 18.960704
_cell_length_b 8.584125
_cell_length_c 9.589820
_cell_angle_alpha 90.000000
_cell_angle_beta 90.000000
_cell_angle_gamma 90.000000
_cell_volume 1560.849203
_symmetry_space_group_name_H-M "C C C 2"
_symmetry_group_IT_number 37
_symmetry_cell_setting 'orthorhombic'
loop_
_space_group_symop_operation_xyz
x,y,z
-x,-y,z
-x,y,1/2+z
x,-y,1/2+z
1/2+x,1/2+y,z
1/2-x,1/2-y,z
1/2-x,1/2+y,1/2+z
1/2+x,1/2-y,1/2+z
loop_
_atom_site_type_symbol
_atom_site_label
_atom_site_fract_x
_atom_site_fract_y
_atom_site_fract_z
Si Si1 0.500000 0.000000 0.012270
Si Si2 0.792710 0.443188 0.912429
Si Si3 0.834233 0.949303 0.232666
Si Si4 0.750000 0.750000 0.656203
Si Si5 0.923717 0.319854 0.763005
Si Si6 0.250000 0.250000 0.011351
O O1 0.546508 0.897727 0.121795
O O2 0.464745 0.878511 0.901973
O O3 0.713387 0.403563 0.865223
O O4 0.846421 0.389266 0.795626
O O5 0.796629 0.629037 0.924934
O O6 0.798898 0.363633 0.061467
O O7 0.910081 0.867182 0.251640
O O8 0.809561 0.128560 0.216027
O O9 0.800391 0.858789 0.102024
#
# Coordination Sequence:
#
# PCOD9353914 Si02
#       6
#     4   8   8   4   8   4
#     4  10  26  40  70 102 140 214 248 284 346 406
#     4  11  20  36  61 100 135 172 223 300 373 431
#     4  11  20  37  63 100 136 173 223 301 374 431
#     4  10  22  34  60 108 134 171 213 288 408 419
#     4  11  21  43  67 101 143 189 255 291 341 441
#     4  10  20  32  56 102 136 169 211 270 392 429
#
# _framework density 23.064368999999999
#
# number of rings (size 3 to 8) (size 9 to 14) (size 15 to 20)
#    0.000    1.333    4.444    2.000    3.111    0.000 
#    0.000    0.000    0.000    4.000    0.000    0.000 
#    0.000    0.000    0.000    0.000    0.000    0.000 
#
# Total GULP energy -100226.506595 kJ/mol
# GULP energy per Si atom -5568.139255 kJ/mol
# Density = 2.301187 g / cm^3
# Si number density = 23.064369 Si / 1000 Ang^3
#
#
#
# Elastic Constant Matrix: (Units=GPa)
#
#
# Indices 1 2 3 4 5 6 
#
# 1 60.4987 52.3843 47.7162 0.0000 0.0000 0.0000
# 2 52.3843 193.1520 69.1579 0.0000 0.0000 0.0000
# 3 47.7162 69.1579 119.4868 0.0000 0.0000 0.0000
# 4 0.0000 0.0000 0.0000 50.7971 0.0000 0.0000
# 5 0.0000 0.0000 0.0000 0.0000 32.6115 0.0000
# 6 0.0000 0.0000 0.0000 0.0000 0.0000 43.3375
#
#
#
# Elastic Compliance Matrix: (Units=1/GPa)
#
#
# Indices 1 2 3 4 5 6 
#
# 1 0.026711 -0.004320 -0.008166 0.000000 0.000000 0.000000
# 2 -0.004320 0.007229 -0.002459 0.000000 0.000000 0.000000
# 3 -0.008166 -0.002459 0.013054 0.000000 0.000000 0.000000
# 4 0.000000 0.000000 0.000000 0.019686 0.000000 0.000000
# 5 0.000000 0.000000 0.000000 0.000000 0.030664 0.000000
# 6 0.000000 0.000000 0.000000 0.000000 0.000000 0.023075
#
#
# Mechanical properties :
#
#
# Convention : Reuss Voigt Hill
#
# Bulk Modulus (GPa) = 58.47031 79.07271 68.77151
# Shear Modulus (GPa) = 32.04901 38.94117 35.49509
#
# Velocity S-wave (km/s) = 3.73171 4.11343 3.92721
# Velocity P-wave (km/s) = 6.63125 7.54443 7.10253
#
# Compressibility (1/GPa) = 0.01710270
#
# Stress axis : x y z
#
# Youngs Moduli (GPa) = 37.43775 138.32368 76.60745
#
# Poissons Ratio (x) = 0.59760 0.62560
# Poissons Ratio (y) = 0.16174 0.18838
# Poissons Ratio (z) = 0.30573 0.34014
#
# Static dielectric constant tensor:
#      x y z
#    x 1.908360 0.000000 0.000000 
#    y 0.000000 2.004660 0.000000 
#    z 0.000000 0.000000 2.043990 
# 
# From -- ./inp_files/4271.got.cif
#   From: 2010.05.17/outbox.cif.g08.bks.cpg/sg37_3_cif.got.tgz:4271.got - 2010.06.03 17:53:42.
