data_PCOD9353925
_publ_section_title
;
Structure prediction by ZEFSAII (Michael W. Deem and Ramdas Pophale) SiO2 
 PCOD9353925
Probable space group: C C C 2
;
_chemical_formula_sum "Si O2"
_cell_formula_units_Z 44
_cell_length_a 20.364342
_cell_length_b 15.028663
_cell_length_c 8.555648
_cell_angle_alpha 90.000000
_cell_angle_beta 90.000000
_cell_angle_gamma 90.000000
_cell_volume 2618.446087
_symmetry_space_group_name_H-M "C C C 2"
_symmetry_group_IT_number 37
_symmetry_cell_setting 'orthorhombic'
loop_
_space_group_symop_operation_xyz
x,y,z
-x,-y,z
-x,y,1/2+z
x,-y,1/2+z
1/2+x,1/2+y,z
1/2-x,1/2-y,z
1/2-x,1/2+y,1/2+z
1/2+x,1/2-y,1/2+z
loop_
_atom_site_type_symbol
_atom_site_label
_atom_site_fract_x
_atom_site_fract_y
_atom_site_fract_z
Si Si1 0.250000 0.250000 0.922861
Si Si2 0.916794 0.068417 0.138912
Si Si3 0.762881 0.084291 0.201717
Si Si4 0.157094 0.760273 0.710375
Si Si5 0.454217 0.617239 0.783188
Si Si6 0.234269 0.392475 0.348176
O O1 0.256818 0.162835 0.817993
O O2 0.187377 0.238369 0.036934
O O3 0.841410 0.088683 0.174323
O O4 0.968085 0.118409 0.252534
O O5 0.928099 0.963971 0.174854
O O6 0.936224 0.092283 0.961311
O O7 0.744666 0.988300 0.271082
O O8 0.730478 0.097564 0.033189
O O9 0.083804 0.794632 0.730968
O O10 0.173657 0.663775 0.780096
O O11 0.202454 0.831656 0.804397
#
# Coordination Sequence:
#
# PCOD9353925 Si02
#       6
#     4   8   8   8   8   8
#     4  10  24  30  56  76 110 140 182 226 280 328
#     4  11  22  32  53  75 109 154 176 223 264 321
#     4  12  20  36  53  81 111 142 181 225 276 330
#     4  10  20  36  50  79 108 146 182 222 266 331
#     4  11  22  35  52  76 114 146 193 210 268 329
#     4  10  20  33  54  75 110 145 175 224 277 315
#
# _framework density 16.803861000000001
#
# number of rings (size 3 to 8) (size 9 to 14) (size 15 to 20)
#    0.000    1.455    3.636    5.455    5.091    0.000 
#    0.000    0.000    0.000    0.000    0.000    1.273 
#    0.000    0.000    0.000    0.000    0.000    0.000 
#
# Total GULP energy -122825.740438 kJ/mol
# GULP energy per Si atom -5582.988202 kJ/mol
# Density = 1.676561 g / cm^3
# Si number density = 16.803861 Si / 1000 Ang^3
#
#
#
# Elastic Constant Matrix: (Units=GPa)
#
#
# Indices 1 2 3 4 5 6 
#
# 1 58.7438 35.5137 19.4280 0.0000 0.0000 0.0000
# 2 35.5137 118.8928 62.7271 0.0000 0.0000 0.0000
# 3 19.4280 62.7271 136.0159 0.0000 0.0000 0.0000
# 4 0.0000 0.0000 0.0000 32.5747 0.0000 0.0000
# 5 0.0000 0.0000 0.0000 0.0000 15.9412 0.0000
# 6 0.0000 0.0000 0.0000 0.0000 0.0000 29.5592
#
#
#
# Elastic Compliance Matrix: (Units=1/GPa)
#
#
# Indices 1 2 3 4 5 6 
#
# 1 0.020777 -0.006132 -0.000140 0.000000 0.000000 0.000000
# 2 -0.006132 0.012926 -0.005085 0.000000 0.000000 0.000000
# 3 -0.000140 -0.005085 0.009717 0.000000 0.000000 0.000000
# 4 0.000000 0.000000 0.000000 0.030699 0.000000 0.000000
# 5 0.000000 0.000000 0.000000 0.000000 0.062730 0.000000
# 6 0.000000 0.000000 0.000000 0.000000 0.000000 0.033830
#
#
# Mechanical properties :
#
#
# Convention : Reuss Voigt Hill
#
# Bulk Modulus (GPa) = 48.29681 60.99888 54.64784
# Shear Modulus (GPa) = 24.96327 28.68062 26.82195
#
# Velocity S-wave (km/s) = 3.85849 4.13581 3.99955
# Velocity P-wave (km/s) = 6.97527 7.69324 7.34304
#
# Compressibility (1/GPa) = 0.02070530
#
# Stress axis : x y z
#
# Youngs Moduli (GPa) = 48.13113 77.36636 102.91159
#
# Poissons Ratio (x) = 0.47444 0.01436
# Poissons Ratio (y) = 0.29516 0.52330
# Poissons Ratio (z) = 0.00672 0.39341
#
# Static dielectric constant tensor:
#      x y z
#    x 1.584730 0.000000 0.000000 
#    y 0.000000 1.557270 0.000000 
#    z 0.000000 0.000000 1.586000 
# 
# From -- ./inp_files/4568.got.cif
#   From: 2010.05.17/outbox.cif.g08.bks.cpg/sg37_3_cif.got.tgz:4568.got - 2010.06.03 17:53:42.
