data_PCOD9353029
_publ_section_title
;
Structure prediction by ZEFSAII (Michael W. Deem and Ramdas Pophale) SiO2 
 PCOD9353029
Probable space group: C M C 21
;
_chemical_formula_sum "Si O2"
_cell_formula_units_Z 36
_cell_length_a 7.505532
_cell_length_b 20.163905
_cell_length_c 9.928973
_cell_angle_alpha 90.000000
_cell_angle_beta 90.000000
_cell_angle_gamma 90.000000
_cell_volume 1502.659057
_symmetry_space_group_name_H-M "C M C 21"
_symmetry_group_IT_number 36
_symmetry_cell_setting 'orthorhombic'
loop_
_space_group_symop_operation_xyz
x,y,z
-x,-y,1/2+z
x,-y,1/2+z
-x,y,z
1/2+x,1/2+y,z
1/2-x,1/2-y,1/2+z
1/2+x,1/2-y,1/2+z
1/2-x,1/2+y,z
loop_
_atom_site_type_symbol
_atom_site_label
_atom_site_fract_x
_atom_site_fract_y
_atom_site_fract_z
Si Si1 0.712850 0.573968 0.462040
Si Si2 0.715041 0.546296 0.767739
Si Si3 0.201597 0.825424 0.580701
Si Si4 0.000000 0.392789 0.456593
Si Si5 0.202997 0.717464 0.367479
O O1 0.500000 0.582753 0.454967
O O2 0.756497 0.546165 0.609477
O O3 0.760898 0.521230 0.347451
O O4 0.793106 0.645919 0.437729
O O5 0.500000 0.557596 0.781511
O O6 0.840798 0.598867 0.841967
O O7 0.343195 0.883411 0.572325
O O8 0.272747 0.771917 0.471757
O O9 0.201165 0.790693 0.725822
O O10 0.000000 0.846718 0.551396
O O11 0.000000 0.736525 0.337654
#
# Coordination Sequence:
#
# PCOD9353029 Si02
#       5
#     8   8   8   4   8
#     4  10  24  45  72 104 144 186 236 295 357 420
#     4  10  25  45  71 106 141 188 235 292 355 422
#     4  11  27  46  71 105 142 186 239 293 352 420
#     4  12  26  44  74 102 142 190 238 288 352 424
#     4  11  26  45  72 104 142 187 239 293 354 425
#
# _framework density 23.957532
#
# number of rings (size 3 to 8) (size 9 to 14) (size 15 to 20)
#    0.000    1.333    1.111    1.333   12.444    0.000 
#    0.000    0.000    0.000    0.000    0.000    0.000 
#    0.000    0.000    0.000    0.000    0.000    0.000 
#
# Total GULP energy -100229.977080 kJ/mol
# GULP energy per Si atom -5568.332060 kJ/mol
# Density = 2.390300 g / cm^3
# Si number density = 23.957532 Si / 1000 Ang^3
#
#
#
# Elastic Constant Matrix: (Units=GPa)
#
#
# Indices 1 2 3 4 5 6 
#
# 1 121.2132 17.4371 28.3658 0.0000 0.0000 0.0000
# 2 17.4371 74.4277 45.1318 0.0000 0.0000 0.0000
# 3 28.3658 45.1318 77.7180 0.0000 0.0000 0.0000
# 4 0.0000 0.0000 0.0000 43.4625 0.0000 0.0000
# 5 0.0000 0.0000 0.0000 0.0000 32.7791 0.0000
# 6 0.0000 0.0000 0.0000 0.0000 0.0000 -2.8042
#
#
#
# Elastic Compliance Matrix: (Units=1/GPa)
#
#
# Indices 1 2 3 4 5 6 
#
# 1 0.009022 -0.000181 -0.003188 0.000000 0.000000 0.000000
# 2 -0.000181 0.020742 -0.011979 0.000000 0.000000 0.000000
# 3 -0.003188 -0.011979 0.020987 0.000000 0.000000 0.000000
# 4 0.000000 0.000000 0.000000 0.023008 0.000000 0.000000
# 5 0.000000 0.000000 0.000000 0.000000 0.030507 0.000000
# 6 0.000000 0.000000 0.000000 0.000000 0.000000 -0.356613
#
#
# Mechanical properties :
#
#
# Convention : Reuss Voigt Hill
#
# Bulk Modulus (GPa) = 49.86161 50.58092 50.22127
# Shear Modulus (GPa) = -23.25964 26.84911 1.79473
#
# Velocity S-wave (km/s) = -3.11926 3.35131 0.86646
# Velocity P-wave (km/s) = 2.80796 6.01113 4.69139
#
# Compressibility (1/GPa) = 0.02005551
#
# Stress axis : x y z
#
# Youngs Moduli (GPa) = 110.84081 48.21070 47.64808
#
# Poissons Ratio (x) = 0.00870 0.15190
# Poissons Ratio (y) = 0.02001 0.57080
# Poissons Ratio (z) = 0.35337 0.57754
#
# Static dielectric constant tensor:
#      x y z
#    x 1.904170 0.000000 0.000000 
#    y 0.000000 1.993300 0.000000 
#    z 0.000000 0.000000 1.906850 
# 
# From -- ./inp_files/2329.got.cif
#   From: 2010.05.17/outbox.cif.g08.bks.cpg/sg36_2_cif.got.tgz:2329.got - 2010.06.03 17:41:39.
