data_PCOD9353218
_publ_section_title
;
Structure prediction by ZEFSAII (Michael W. Deem and Ramdas Pophale) SiO2 
 PCOD9353218
Probable space group: C M C 21
;
_chemical_formula_sum "Si O2"
_cell_formula_units_Z 44
_cell_length_a 11.714472
_cell_length_b 14.066236
_cell_length_c 13.446577
_cell_angle_alpha 90.000000
_cell_angle_beta 90.000000
_cell_angle_gamma 90.000000
_cell_volume 2215.707162
_symmetry_space_group_name_H-M "C M C 21"
_symmetry_group_IT_number 36
_symmetry_cell_setting 'orthorhombic'
loop_
_space_group_symop_operation_xyz
x,y,z
-x,-y,1/2+z
x,-y,1/2+z
-x,y,z
1/2+x,1/2+y,z
1/2-x,1/2-y,1/2+z
1/2+x,1/2-y,1/2+z
1/2-x,1/2+y,z
loop_
_atom_site_type_symbol
_atom_site_label
_atom_site_fract_x
_atom_site_fract_y
_atom_site_fract_z
Si Si1 0.000000 0.558684 0.324530
Si Si2 0.000000 0.639146 0.894264
Si Si3 0.636292 0.624264 0.930329
Si Si4 0.257132 0.736191 0.581883
Si Si5 0.708439 0.758651 0.299500
Si Si6 0.000000 0.666786 0.115123
Si Si7 0.253235 0.917956 0.911702
O O1 0.887231 0.578795 0.387992
O O2 0.000000 0.445492 0.315938
O O3 0.000000 0.608455 0.217514
O O4 0.888625 0.699561 0.870664
O O5 0.000000 0.609015 0.009969
O O6 0.500000 0.615662 0.935983
O O7 0.675585 0.691698 0.838740
O O8 0.696025 0.521160 0.918973
O O9 0.689109 0.680613 0.024186
O O10 0.193720 0.716627 0.685231
O O11 0.384128 0.772069 0.609312
O O12 0.264571 0.644893 0.510455
O O13 0.707197 0.646277 0.320335
#
# Coordination Sequence:
#
# PCOD9353218 Si02
#       7
#     4   4   8   8   8   4   8
#     4  12  24  44  76  98 134 183 234 288 334 413
#     4  12  24  46  66 104 142 172 232 295 334 410
#     4  11  26  45  66 101 140 177 229 284 341 422
#     4  11  26  42  70 100 136 182 231 280 350 408
#     4  11  25  44  68  99 137 182 225 286 347 403
#     4  12  22  44  72  98 140 177 230 283 346 407
#     4  11  24  44  69  97 136 181 226 282 347 402
#
# _framework density 19.858219999999999
#
# number of rings (size 3 to 8) (size 9 to 14) (size 15 to 20)
#    0.000    0.727    7.273    0.000   10.182    4.364 
#    0.000    1.818    0.000    0.000    0.000    0.000 
#    0.000    0.000    0.000    0.000    0.000    0.000 
#
# Total GULP energy -122836.679380 kJ/mol
# GULP energy per Si atom -5583.485426 kJ/mol
# Density = 1.981302 g / cm^3
# Si number density = 19.858220 Si / 1000 Ang^3
#
#
#
# Elastic Constant Matrix: (Units=GPa)
#
#
# Indices 1 2 3 4 5 6 
#
# 1 129.1601 39.5786 33.7113 0.0000 0.0000 0.0000
# 2 39.5786 114.0628 34.0455 0.0000 0.0000 0.0000
# 3 33.7113 34.0455 115.2645 0.0000 0.0000 0.0000
# 4 0.0000 0.0000 0.0000 24.3552 0.0000 0.0000
# 5 0.0000 0.0000 0.0000 0.0000 40.7961 0.0000
# 6 0.0000 0.0000 0.0000 0.0000 0.0000 24.7701
#
#
#
# Elastic Compliance Matrix: (Units=1/GPa)
#
#
# Indices 1 2 3 4 5 6 
#
# 1 0.009020 -0.002569 -0.001879 0.000000 0.000000 0.000000
# 2 -0.002569 0.010346 -0.002305 0.000000 0.000000 0.000000
# 3 -0.001879 -0.002305 0.009906 0.000000 0.000000 0.000000
# 4 0.000000 0.000000 0.000000 0.041059 0.000000 0.000000
# 5 0.000000 0.000000 0.000000 0.000000 0.024512 0.000000
# 6 0.000000 0.000000 0.000000 0.000000 0.000000 0.040371
#
#
# Mechanical properties :
#
#
# Convention : Reuss Voigt Hill
#
# Bulk Modulus (GPa) = 63.42481 63.68424 63.55453
# Shear Modulus (GPa) = 32.47256 34.72775 33.60016
#
# Velocity S-wave (km/s) = 4.04817 4.18638 4.11786
# Velocity P-wave (km/s) = 7.33883 7.45029 7.39477
#
# Compressibility (1/GPa) = 0.01576670
#
# Stress axis : x y z
#
# Youngs Moduli (GPa) = 110.86436 96.65210 100.94830
#
# Poissons Ratio (x) = 0.24829 0.18971
# Poissons Ratio (y) = 0.28480 0.23265
# Poissons Ratio (z) = 0.20835 0.22275
#
# Static dielectric constant tensor:
#      x y z
#    x 1.634890 0.000000 0.000000 
#    y 0.000000 1.709250 0.000000 
#    z 0.000000 0.000000 1.700060 
# 
# From -- ./inp_files/11500.got.cif
#   From: 2010.05.17/outbox.cif.g08.bks.cpg/sg36_6_cif.got.tgz:11500.got - 2010.06.03 17:41:39.
