data_PCOD9353825
_publ_section_title
;
Structure prediction by ZEFSAII (Michael W. Deem and Ramdas Pophale) SiO2 
 PCOD9353825
Probable space group: C C C 2
;
_chemical_formula_sum "Si O2"
_cell_formula_units_Z 60
_cell_length_a 20.015478
_cell_length_b 6.489156
_cell_length_c 21.514636
_cell_angle_alpha 90.000000
_cell_angle_beta 90.000000
_cell_angle_gamma 90.000000
_cell_volume 2794.397498
_symmetry_space_group_name_H-M "C C C 2"
_symmetry_group_IT_number 37
_symmetry_cell_setting 'orthorhombic'
loop_
_space_group_symop_operation_xyz
x,y,z
-x,-y,z
-x,y,1/2+z
x,-y,1/2+z
1/2+x,1/2+y,z
1/2-x,1/2-y,z
1/2-x,1/2+y,1/2+z
1/2+x,1/2-y,1/2+z
loop_
_atom_site_type_symbol
_atom_site_label
_atom_site_fract_x
_atom_site_fract_y
_atom_site_fract_z
Si Si1 0.152364 0.832854 0.354170
Si Si2 0.750000 0.750000 0.760265
Si Si3 0.441127 0.338132 0.401772
Si Si4 0.825535 0.309122 0.489190
Si Si5 0.572162 0.029256 0.791035
Si Si6 0.073913 0.048456 0.538894
Si Si7 0.176762 0.644274 0.080737
Si Si8 0.816957 0.389558 0.696463
O O1 0.210901 0.894281 0.307608
O O2 0.171709 0.700500 0.414535
O O3 0.103840 0.688345 0.312966
O O4 0.124370 0.038805 0.382901
O O5 0.796330 0.617291 0.717994
O O6 0.500000 0.500000 0.386575
O O7 0.442583 0.147980 0.355598
O O8 0.442496 0.319496 0.475992
O O9 0.750000 0.250000 0.508862
O O10 0.832333 0.540414 0.513417
O O11 0.881878 0.149733 0.515685
O O12 0.622601 0.153044 0.744720
O O13 0.500000 0.000000 0.759707
O O14 0.120657 0.179373 0.584936
O O15 0.000000 0.000000 0.564674
O O16 0.250000 0.750000 0.086371
O O17 0.165259 0.445669 0.125590
O O18 0.750000 0.250000 0.699364
#
# Coordination Sequence:
#
# PCOD9353825 Si02
#       8
#     8   4   8   8   8   8   8   8
#     4  10  20  35  62  94 130 157 199 264 320 384
#     4  10  20  38  62  90 122 158 206 258 320 372
#     4  10  19  37  62  92 132 162 198 254 333 393
#     4  11  21  39  67 100 130 169 214 270 330 400
#     4  11  22  40  63  94 125 168 218 258 320 393
#     4  10  24  43  66 100 133 170 216 269 339 397
#     4  12  24  43  67  91 126 174 229 273 327 392
#     4  11  25  43  64  88 126 171 219 271 323 378
#
# _framework density 21.471534999999999
#
# number of rings (size 3 to 8) (size 9 to 14) (size 15 to 20)
#    0.000    1.333    4.000    2.000    0.000    0.533 
#    2.400    0.667    0.000    0.000    0.000    0.000 
#    0.000    0.000    0.000    0.000    0.000    0.000 
#
# Total GULP energy -167115.018114 kJ/mol
# GULP energy per Si atom -5570.500604 kJ/mol
# Density = 2.142266 g / cm^3
# Si number density = 21.471535 Si / 1000 Ang^3
#
#
#
# Elastic Constant Matrix: (Units=GPa)
#
#
# Indices 1 2 3 4 5 6 
#
# 1 120.4557 21.5578 13.7975 0.0000 0.0000 0.0000
# 2 21.5578 33.7667 7.4115 0.0000 0.0000 0.0000
# 3 13.7975 7.4115 50.6005 0.0000 0.0000 0.0000
# 4 0.0000 0.0000 0.0000 23.7120 0.0000 0.0000
# 5 0.0000 0.0000 0.0000 0.0000 17.9192 0.0000
# 6 0.0000 0.0000 0.0000 0.0000 0.0000 35.1721
#
#
#
# Elastic Compliance Matrix: (Units=1/GPa)
#
#
# Indices 1 2 3 4 5 6 
#
# 1 0.009523 -0.005693 -0.001763 0.000000 0.000000 0.000000
# 2 -0.005693 0.034002 -0.003428 0.000000 0.000000 0.000000
# 3 -0.001763 -0.003428 0.020745 0.000000 0.000000 0.000000
# 4 0.000000 0.000000 0.000000 0.042173 0.000000 0.000000
# 5 0.000000 0.000000 0.000000 0.000000 0.055806 0.000000
# 6 0.000000 0.000000 0.000000 0.000000 0.000000 0.028432
#
#
# Mechanical properties :
#
#
# Convention : Reuss Voigt Hill
#
# Bulk Modulus (GPa) = 23.52780 32.26183 27.89482
# Shear Modulus (GPa) = 22.06390 26.16438 24.11414
#
# Velocity S-wave (km/s) = 3.20908 3.49458 3.35487
# Velocity P-wave (km/s) = 4.97115 5.59828 5.29401
#
# Compressibility (1/GPa) = 0.04250292
#
# Stress axis : x y z
#
# Youngs Moduli (GPa) = 105.01425 29.41027 48.20340
#
# Poissons Ratio (x) = 0.16742 0.08497
# Poissons Ratio (y) = 0.59780 0.16524
# Poissons Ratio (z) = 0.18512 0.10082
#
# Static dielectric constant tensor:
#      x y z
#    x 1.888390 0.000000 0.000000 
#    y 0.000000 1.824820 0.000000 
#    z 0.000000 0.000000 1.807570 
# 
# From -- ./inp_files/18104.got.cif
#   From: 2010.05.17/outbox.cif.g08.bks.cpg/sg37_10_cif.got.tgz:18104.got - 2010.06.03 17:53:42.
