data_PCOD9353931
_publ_section_title
;
Structure prediction by ZEFSAII (Michael W. Deem and Ramdas Pophale) SiO2 
 PCOD9353931
Probable space group: C C C 2
;
_chemical_formula_sum "Si O2"
_cell_formula_units_Z 36
_cell_length_a 7.027163
_cell_length_b 26.094036
_cell_length_c 7.211151
_cell_angle_alpha 90.000000
_cell_angle_beta 90.000000
_cell_angle_gamma 90.000000
_cell_volume 1322.287445
_symmetry_space_group_name_H-M "C C C 2"
_symmetry_group_IT_number 37
_symmetry_cell_setting 'orthorhombic'
loop_
_space_group_symop_operation_xyz
x,y,z
-x,-y,z
-x,y,1/2+z
x,-y,1/2+z
1/2+x,1/2+y,z
1/2-x,1/2-y,z
1/2-x,1/2+y,1/2+z
1/2+x,1/2-y,1/2+z
loop_
_atom_site_type_symbol
_atom_site_label
_atom_site_fract_x
_atom_site_fract_y
_atom_site_fract_z
Si Si1 0.809765 0.057123 0.635180
Si Si2 0.830468 0.833172 0.144537
Si Si3 0.276926 0.165720 0.710960
Si Si4 0.750000 0.250000 0.957571
Si Si5 0.743286 0.945595 0.709742
O O1 0.770459 0.111319 0.726672
O O2 0.754268 0.063411 0.425587
O O3 0.039325 0.052574 0.635134
O O4 0.700247 0.006476 0.698697
O O5 0.792655 0.793115 0.304204
O O6 0.060007 0.833775 0.133659
O O7 0.746377 0.826257 0.935041
O O8 0.369458 0.214745 0.607654
O O9 0.350446 0.108643 0.651610
#
# Coordination Sequence:
#
# PCOD9353931 Si02
#       5
#     8   8   8   4   8
#     4   9  16  24  42  66  96 129 158 187 234 304
#     4  10  20  34  49  74 103 136 170 203 247 294
#     4  10  20  34  49  74 103 136 170 203 247 294
#     4  12  22  32  56  66 104 142 166 214 240 302
#     4   9  16  24  42  66  96 129 158 187 234 304
#
# _framework density 27.225549999999998
#
# number of rings (size 3 to 8) (size 9 to 14) (size 15 to 20)
#    0.000    2.222    2.222    3.333    6.222    0.000 
#    0.000    0.000    0.000    0.000    0.000    0.000 
#    0.000    5.333    0.000    0.000    0.000    0.000 
#
# Total GULP energy -100229.352900 kJ/mol
# GULP energy per Si atom -5568.297383 kJ/mol
# Density = 2.716358 g / cm^3
# Si number density = 27.225550 Si / 1000 Ang^3
#
#
#
# Elastic Constant Matrix: (Units=GPa)
#
#
# Indices 1 2 3 4 5 6 
#
# 1 85.5565 6.2961 10.9245 0.0000 0.0000 0.0000
# 2 6.2961 271.9581 69.9066 0.0000 0.0000 0.0000
# 3 10.9245 69.9066 136.4826 0.0000 0.0000 0.0000
# 4 0.0000 0.0000 0.0000 53.5972 0.0000 0.0000
# 5 0.0000 0.0000 0.0000 0.0000 1.3020 0.0000
# 6 0.0000 0.0000 0.0000 0.0000 0.0000 4.9895
#
#
#
# Elastic Compliance Matrix: (Units=1/GPa)
#
#
# Indices 1 2 3 4 5 6 
#
# 1 0.011809 -0.000035 -0.000927 0.000000 0.000000 0.000000
# 2 -0.000035 0.004235 -0.002166 0.000000 0.000000 0.000000
# 3 -0.000927 -0.002166 0.008511 0.000000 0.000000 0.000000
# 4 0.000000 0.000000 0.000000 0.018658 0.000000 0.000000
# 5 0.000000 0.000000 0.000000 0.000000 0.768073 0.000000
# 6 0.000000 0.000000 0.000000 0.000000 0.000000 0.200422
#
#
# Mechanical properties :
#
#
# Convention : Reuss Voigt Hill
#
# Bulk Modulus (GPa) = 54.65237 74.25016 64.45127
# Shear Modulus (GPa) = 4.88251 39.10239 21.99245
#
# Velocity S-wave (km/s) = 1.34062 3.79389 2.84524
# Velocity P-wave (km/s) = 4.74488 6.82077 5.87523
#
# Compressibility (1/GPa) = 0.01829747
#
# Stress axis : x y z
#
# Youngs Moduli (GPa) = 84.68003 236.14602 117.49920
#
# Poissons Ratio (x) = 0.00827 0.10896
# Poissons Ratio (y) = 0.00297 0.25453
# Poissons Ratio (z) = 0.07852 0.51154
#
# Static dielectric constant tensor:
#      x y z
#    x 2.291650 0.000000 0.000000 
#    y 0.000000 2.340670 0.000000 
#    z 0.000000 0.000000 2.019660 
# 
# From -- ./inp_files/2267.got.cif
#   From: 2010.05.17/outbox.cif.g08.bks.cpg/sg37_2_cif.got.tgz:2267.got - 2010.06.03 17:53:42.
