data_PCOD9353811
_publ_section_title
;
Structure prediction by ZEFSAII (Michael W. Deem and Ramdas Pophale) SiO2 
 PCOD9353811
Probable space group: C C C 2
;
_chemical_formula_sum "Si O2"
_cell_formula_units_Z 56
_cell_length_a 12.848595
_cell_length_b 14.033494
_cell_length_c 14.933058
_cell_angle_alpha 90.000000
_cell_angle_beta 90.000000
_cell_angle_gamma 90.000000
_cell_volume 2692.589855
_symmetry_space_group_name_H-M "C C C 2"
_symmetry_group_IT_number 37
_symmetry_cell_setting 'orthorhombic'
loop_
_space_group_symop_operation_xyz
x,y,z
-x,-y,z
-x,y,1/2+z
x,-y,1/2+z
1/2+x,1/2+y,z
1/2-x,1/2-y,z
1/2-x,1/2+y,1/2+z
1/2+x,1/2-y,1/2+z
loop_
_atom_site_type_symbol
_atom_site_label
_atom_site_fract_x
_atom_site_fract_y
_atom_site_fract_z
Si Si1 0.738497 0.855760 0.080840
Si Si2 0.542102 0.405317 0.602289
Si Si3 0.407077 0.922670 0.938198
Si Si4 0.494198 0.186435 0.094134
Si Si5 0.972275 0.693924 0.805170
Si Si6 0.228976 0.588267 0.385142
Si Si7 0.443296 0.592364 0.297825
O O1 0.750000 0.750000 0.120160
O O2 0.833678 0.915989 0.120973
O O3 0.614881 0.873255 0.087874
O O4 0.762817 0.857452 0.975024
O O5 0.500000 0.500000 0.552664
O O6 0.527209 0.297096 0.566007
O O7 0.476976 0.404076 0.694250
O O8 0.431537 0.858794 0.851684
O O9 0.500000 0.000000 0.942182
O O10 0.305059 0.984472 0.921358
O O11 0.422295 0.860226 0.027341
O O12 0.525739 0.185360 0.197985
O O13 0.868857 0.643271 0.842955
O O14 0.974563 0.804010 0.833528
O O15 0.321432 0.582755 0.315194
O O16 0.500000 0.500000 0.337216
#
# Coordination Sequence:
#
# PCOD9353811 Si02
#       7
#     8   8   8   8   8   8   8
#     4  10  19  36  65  93 120 167 215 255 311 386
#     4   9  21  39  61  95 127 167 218 256 319 396
#     4  10  21  39  59  98 129 156 217 262 320 390
#     4  10  20  39  66  93 132 164 209 281 320 380
#     4  10  21  39  67  93 124 170 210 266 328 379
#     4  11  22  40  65  91 124 170 218 258 318 392
#     4  10  22  41  63  89 126 168 216 259 308 393
#
# _framework density 20.797820999999999
#
# number of rings (size 3 to 8) (size 9 to 14) (size 15 to 20)
#    0.000    2.000    2.857    1.286    2.000    4.571 
#    5.143    2.143    0.000    0.000    0.000    0.000 
#    0.000    0.000    0.000    0.000    0.000    0.000 
#
# Total GULP energy -156049.586699 kJ/mol
# GULP energy per Si atom -5573.199525 kJ/mol
# Density = 2.075048 g / cm^3
# Si number density = 20.797821 Si / 1000 Ang^3
#
#
#
# Elastic Constant Matrix: (Units=GPa)
#
#
# Indices 1 2 3 4 5 6 
#
# 1 61.5418 32.8662 14.2754 0.0000 0.0000 0.0000
# 2 32.8662 136.7370 27.4388 0.0000 0.0000 0.0000
# 3 14.2754 27.4388 98.8585 0.0000 0.0000 0.0000
# 4 0.0000 0.0000 0.0000 48.6136 0.0000 0.0000
# 5 0.0000 0.0000 0.0000 0.0000 -26.0317 0.0000
# 6 0.0000 0.0000 0.0000 0.0000 0.0000 33.1800
#
#
#
# Elastic Compliance Matrix: (Units=1/GPa)
#
#
# Indices 1 2 3 4 5 6 
#
# 1 0.018864 -0.004223 -0.001552 0.000000 0.000000 0.000000
# 2 -0.004223 0.008690 -0.001802 0.000000 0.000000 0.000000
# 3 -0.001552 -0.001802 0.010840 0.000000 0.000000 0.000000
# 4 0.000000 0.000000 0.000000 0.020570 0.000000 0.000000
# 5 0.000000 0.000000 0.000000 0.000000 -0.038415 0.000000
# 6 0.000000 0.000000 0.000000 0.000000 0.000000 0.030139
#
#
# Mechanical properties :
#
#
# Convention : Reuss Voigt Hill
#
# Bulk Modulus (GPa) = 43.02906 49.58870 46.30888
# Shear Modulus (GPa) = 67.94507 25.98952 46.96730
#
# Velocity S-wave (km/s) = 5.72191 3.53884 4.75729
# Velocity P-wave (km/s) = 8.02420 6.37125 7.24502
#
# Compressibility (1/GPa) = 0.02324011
#
# Stress axis : x y z
#
# Youngs Moduli (GPa) = 53.01018 115.07556 92.25275
#
# Poissons Ratio (x) = 0.48594 0.14318
# Poissons Ratio (y) = 0.22385 0.16625
# Poissons Ratio (z) = 0.08227 0.20739
#
# Static dielectric constant tensor:
#      x y z
#    x 1.758640 0.000000 0.000000 
#    y 0.000000 1.842430 0.000000 
#    z 0.000000 0.000000 1.737470 
# 
# From -- ./inp_files/11625.got.cif
#   From: 2010.05.17/outbox.cif.g08.bks.cpg/sg37_6_cif.got.tgz:11625.got - 2010.06.03 17:53:42.
