data_PCOD9353183
_publ_section_title
;
Structure prediction by ZEFSAII (Michael W. Deem and Ramdas Pophale) SiO2 
 PCOD9353183
Probable space group: C M C 21
;
_chemical_formula_sum "Si O2"
_cell_formula_units_Z 64
_cell_length_a 30.550076
_cell_length_b 11.207681
_cell_length_c 9.247772
_cell_angle_alpha 90.000000
_cell_angle_beta 90.000000
_cell_angle_gamma 90.000000
_cell_volume 3166.395576
_symmetry_space_group_name_H-M "C M C 21"
_symmetry_group_IT_number 36
_symmetry_cell_setting 'orthorhombic'
loop_
_space_group_symop_operation_xyz
x,y,z
-x,-y,1/2+z
x,-y,1/2+z
-x,y,z
1/2+x,1/2+y,z
1/2-x,1/2-y,1/2+z
1/2+x,1/2-y,1/2+z
1/2-x,1/2+y,z
loop_
_atom_site_type_symbol
_atom_site_label
_atom_site_fract_x
_atom_site_fract_y
_atom_site_fract_z
Si Si1 0.050378 0.836448 0.608440
Si Si2 0.362225 0.333435 0.944928
Si Si3 0.327910 0.755681 0.721188
Si Si4 0.052019 0.979439 0.888365
Si Si5 0.116950 0.652008 0.731583
Si Si6 0.797423 0.969383 0.349628
Si Si7 0.845034 0.533681 0.449305
Si Si8 0.260084 0.907394 0.598737
O O1 0.054799 0.949847 0.717840
O O2 0.074042 0.724525 0.681856
O O3 0.000000 0.804433 0.597670
O O4 0.063823 0.890281 0.452670
O O5 0.410267 0.391799 0.948258
O O6 0.354887 0.261168 0.796053
O O7 0.324056 0.430942 0.937363
O O8 0.357895 0.244828 0.079615
O O9 0.330958 0.621486 0.776709
O O10 0.335637 0.858705 0.837243
O O11 0.279401 0.785300 0.661503
O O12 0.000000 0.958104 0.925975
O O13 0.123215 0.555488 0.859673
O O14 0.132726 0.588921 0.588596
O O15 0.773145 0.890012 0.468813
O O16 0.763930 0.022340 0.229903
O O17 0.800648 0.475624 0.517913
#
# Coordination Sequence:
#
# PCOD9353183 Si02
#       8
#     8   8   8   8   8   8   8   8
#     4   9  20  38  66  98 132 169 206 263 329 396
#     4  11  25  43  63 100 131 164 213 276 321 391
#     4  12  27  42  66  88 127 170 219 267 325 383
#     4   9  20  39  65  96 133 167 202 255 330 398
#     4  11  23  42  67  89 129 166 221 265 322 386
#     4  12  28  41  62  93 125 167 217 274 327 382
#     4  12  24  44  64  89 119 179 219 266 317 387
#     4  12  25  45  58  87 124 170 218 264 323 377
#
# _framework density 20.212257999999999
#
# number of rings (size 3 to 8) (size 9 to 14) (size 15 to 20)
#    0.000    1.000    5.000    0.000   10.500    0.000 
#    0.000    0.625    0.000    2.250    0.000    0.000 
#    0.000    0.000    0.000    0.000    0.000    0.000 
#
# Total GULP energy -178202.366233 kJ/mol
# GULP energy per Si atom -5568.823945 kJ/mol
# Density = 2.016625 g / cm^3
# Si number density = 20.212258 Si / 1000 Ang^3
#
#
#
# Elastic Constant Matrix: (Units=GPa)
#
#
# Indices 1 2 3 4 5 6 
#
# 1 46.1541 25.9972 33.4394 0.0000 0.0000 0.0000
# 2 25.9972 59.3082 24.5601 0.0000 0.0000 0.0000
# 3 33.4394 24.5601 99.1374 0.0000 0.0000 0.0000
# 4 0.0000 0.0000 0.0000 37.7312 0.0000 0.0000
# 5 0.0000 0.0000 0.0000 0.0000 18.3115 0.0000
# 6 0.0000 0.0000 0.0000 0.0000 0.0000 21.1120
#
#
#
# Elastic Compliance Matrix: (Units=1/GPa)
#
#
# Indices 1 2 3 4 5 6 
#
# 1 0.034507 -0.011484 -0.008794 0.000000 0.000000 0.000000
# 2 -0.011484 0.022610 -0.001728 0.000000 0.000000 0.000000
# 3 -0.008794 -0.001728 0.013481 0.000000 0.000000 0.000000
# 4 0.000000 0.000000 0.000000 0.026503 0.000000 0.000000
# 5 0.000000 0.000000 0.000000 0.000000 0.054610 0.000000
# 6 0.000000 0.000000 0.000000 0.000000 0.000000 0.047367
#
#
# Mechanical properties :
#
#
# Convention : Reuss Voigt Hill
#
# Bulk Modulus (GPa) = 37.61313 41.39923 39.50618
# Shear Modulus (GPa) = 19.84497 23.47113 21.65805
#
# Velocity S-wave (km/s) = 3.13681 3.41138 3.27698
# Velocity P-wave (km/s) = 5.63639 6.00362 5.82290
#
# Compressibility (1/GPa) = 0.02658646
#
# Stress axis : x y z
#
# Youngs Moduli (GPa) = 28.97994 44.22731 74.17620
#
# Poissons Ratio (x) = 0.50790 0.65232
# Poissons Ratio (y) = 0.33280 0.12817
# Poissons Ratio (z) = 0.25486 0.07642
#
# Static dielectric constant tensor:
#      x y z
#    x 1.730600 0.000000 0.000000 
#    y 0.000000 1.760570 0.000000 
#    z 0.000000 0.000000 1.757560 
# 
# From -- ./inp_files/6096.got.cif
#   From: 2010.05.17/outbox.cif.g08.bks.cpg/sg36_4_cif.got.tgz:6096.got - 2010.06.03 17:41:39.
