data_PCOD9353456
_publ_section_title
;
Structure prediction by ZEFSAII (Michael W. Deem and Ramdas Pophale) SiO2 
 PCOD9353456
Probable space group: C C C 2
;
_chemical_formula_sum "Si O2"
_cell_formula_units_Z 40
_cell_length_a 11.476871
_cell_length_b 24.137756
_cell_length_c 5.215343
_cell_angle_alpha 90.000000
_cell_angle_beta 90.000000
_cell_angle_gamma 90.000000
_cell_volume 1444.785150
_symmetry_space_group_name_H-M "C C C 2"
_symmetry_group_IT_number 37
_symmetry_cell_setting 'orthorhombic'
loop_
_space_group_symop_operation_xyz
x,y,z
-x,-y,z
-x,y,1/2+z
x,-y,1/2+z
1/2+x,1/2+y,z
1/2-x,1/2-y,z
1/2-x,1/2+y,1/2+z
1/2+x,1/2-y,1/2+z
loop_
_atom_site_type_symbol
_atom_site_label
_atom_site_fract_x
_atom_site_fract_y
_atom_site_fract_z
Si Si1 0.835849 0.471597 0.845510
Si Si2 0.365338 0.801901 0.592889
Si Si3 0.073711 0.824591 0.524982
Si Si4 0.582892 0.561414 0.218651
Si Si5 0.371741 0.850644 0.084987
O O1 0.877098 0.482484 0.553574
O O2 0.696220 0.473733 0.796004
O O3 0.865002 0.413314 0.982486
O O4 0.375974 0.736876 0.550268
O O5 0.314172 0.812842 0.870028
O O6 0.495515 0.828985 0.619804
O O7 0.313730 0.835488 0.354213
O O8 0.135081 0.878490 0.645602
O O9 0.036583 0.827354 0.226444
O O10 0.499793 0.556247 0.467562
#
# Coordination Sequence:
#
# PCOD9353456 Si02
#       5
#     8   8   8   8   8
#     4  12  26  44  61  85 128 170 217 279 317 349
#     4  10  17  35  61  91 125 163 196 239 314 396
#     4  10  16  32  60  92 120 154 187 247 308 375
#     4  10  23  40  66  92 118 157 217 262 322 390
#     4  10  20  35  60  91 121 166 204 249 308 380
#
# _framework density 27.685779
#
# number of rings (size 3 to 8) (size 9 to 14) (size 15 to 20)
#    0.000    1.600    4.000    2.400    0.000    2.400 
#    0.000   13.000    0.000    2.400    0.000    0.000 
#    0.000    0.000    0.000    0.000    0.000    0.000 
#
# Total GULP energy -111749.929838 kJ/mol
# GULP energy per Si atom -5587.496492 kJ/mol
# Density = 2.762276 g / cm^3
# Si number density = 27.685779 Si / 1000 Ang^3
#
#
#
# Elastic Constant Matrix: (Units=GPa)
#
#
# Indices 1 2 3 4 5 6 
#
# 1 108.6589 3.2976 32.5347 0.0000 0.0000 0.0000
# 2 3.2976 127.0483 53.4052 0.0000 0.0000 0.0000
# 3 32.5347 53.4052 237.6258 0.0000 0.0000 0.0000
# 4 0.0000 0.0000 0.0000 78.0102 0.0000 0.0000
# 5 0.0000 0.0000 0.0000 0.0000 32.7056 0.0000
# 6 0.0000 0.0000 0.0000 0.0000 0.0000 -38.2119
#
#
#
# Elastic Compliance Matrix: (Units=1/GPa)
#
#
# Indices 1 2 3 4 5 6 
#
# 1 0.009609 0.000335 -0.001391 0.000000 0.000000 0.000000
# 2 0.000335 0.008704 -0.002002 0.000000 0.000000 0.000000
# 3 -0.001391 -0.002002 0.004849 0.000000 0.000000 0.000000
# 4 0.000000 0.000000 0.000000 0.012819 0.000000 0.000000
# 5 0.000000 0.000000 0.000000 0.000000 0.030576 0.000000
# 6 0.000000 0.000000 0.000000 0.000000 0.000000 -0.026170
#
#
# Mechanical properties :
#
#
# Convention : Reuss Voigt Hill
#
# Bulk Modulus (GPa) = 58.66323 72.42311 65.54317
# Shear Modulus (GPa) = 95.81382 40.10715 67.96048
#
# Velocity S-wave (km/s) = 5.88920 3.81025 4.95988
# Velocity P-wave (km/s) = 8.21453 6.75078 7.51837
#
# Compressibility (1/GPa) = 0.01704645
#
# Stress axis : x y z
#
# Youngs Moduli (GPa) = 104.06425 114.89111 206.24047
#
# Poissons Ratio (x) = -0.03852 0.28689
# Poissons Ratio (y) = -0.03489 0.41291
# Poissons Ratio (z) = 0.14476 0.23002
#
# Static dielectric constant tensor:
#      x y z
#    x 3.655170 0.000000 0.000000 
#    y 0.000000 2.154870 0.000000 
#    z 0.000000 0.000000 2.164730 
# 
# From -- ./inp_files/522.got.cif
#   From: 2010.05.17/outbox.cif.g08.bks.cpg/sg37_1_cif.got.tgz:522.got - 2010.06.03 17:53:42.
