data_PCOD9353092
_publ_section_title
;
Structure prediction by ZEFSAII (Michael W. Deem and Ramdas Pophale) SiO2 
 PCOD9353092
Probable space group: C M C 21
;
_chemical_formula_sum "Si O2"
_cell_formula_units_Z 48
_cell_length_a 7.994685
_cell_length_b 15.845481
_cell_length_c 14.407812
_cell_angle_alpha 90.000000
_cell_angle_beta 90.000000
_cell_angle_gamma 90.000000
_cell_volume 1825.176283
_symmetry_space_group_name_H-M "C M C 21"
_symmetry_group_IT_number 36
_symmetry_cell_setting 'orthorhombic'
loop_
_space_group_symop_operation_xyz
x,y,z
-x,-y,1/2+z
x,-y,1/2+z
-x,y,z
1/2+x,1/2+y,z
1/2-x,1/2-y,1/2+z
1/2+x,1/2-y,1/2+z
1/2-x,1/2+y,z
loop_
_atom_site_type_symbol
_atom_site_label
_atom_site_fract_x
_atom_site_fract_y
_atom_site_fract_z
Si Si1 0.694687 0.812623 0.072410
Si Si2 0.188610 0.905304 0.245825
Si Si3 0.805988 0.288090 0.398752
Si Si4 0.694273 0.060529 0.358934
Si Si5 0.801710 0.541772 0.023527
Si Si6 0.794749 0.648592 0.186519
O O1 0.500000 0.830424 0.068316
O O2 0.775156 0.883307 0.138865
O O3 0.726143 0.729127 0.134097
O O4 0.753039 0.787001 0.968807
O O5 0.208151 0.819052 0.307310
O O6 0.302885 0.975647 0.294579
O O7 0.000000 0.935094 0.257332
O O8 0.789004 0.371472 0.464567
O O9 0.000000 0.279309 0.374678
O O10 0.500000 0.081674 0.374403
O O11 0.770812 0.030208 0.456338
O O12 0.765264 0.131809 0.290939
O O13 0.000000 0.524402 0.033592
O O14 0.737593 0.569039 0.123552
O O15 0.000000 0.652311 0.184871
#
# Coordination Sequence:
#
# PCOD9353092 Si02
#       6
#     8   8   8   8   8   8
#     4  11  21  34  53  77 105 138 176 214 256 306
#     4  11  21  34  53  77 105 138 176 214 256 306
#     4   9  17  33  54  75 100 131 171 215 259 309
#     4   9  17  31  51  73  99 132 169 209 255 304
#     4   7  12  25  46  69  92 123 161 199 241 295
#     4   9  17  31  51  73  99 132 169 209 255 304
#
# _framework density 26.298829000000001
#
# number of rings (size 3 to 8) (size 9 to 14) (size 15 to 20)
#    0.000    2.667    0.000    5.500    0.000    0.667 
#    0.000    1.667    0.000    4.000    0.000    0.000 
#    0.000    0.000    0.000    0.000    0.000    0.000 
#
# Total GULP energy -134217.623382 kJ/mol
# GULP energy per Si atom -5592.400974 kJ/mol
# Density = 2.623897 g / cm^3
# Si number density = 26.298829 Si / 1000 Ang^3
#
#
#
# Elastic Constant Matrix: (Units=GPa)
#
#
# Indices 1 2 3 4 5 6 
#
# 1 70.0227 -9.7591 15.0817 0.0000 0.0000 0.0000
# 2 -9.7591 107.4856 22.7029 0.0000 0.0000 0.0000
# 3 15.0817 22.7029 202.4897 0.0000 0.0000 0.0000
# 4 0.0000 0.0000 0.0000 59.7185 0.0000 0.0000
# 5 0.0000 0.0000 0.0000 0.0000 21.0066 0.0000
# 6 0.0000 0.0000 0.0000 0.0000 0.0000 13.7822
#
#
#
# Elastic Compliance Matrix: (Units=1/GPa)
#
#
# Indices 1 2 3 4 5 6 
#
# 1 0.014782 0.001613 -0.001282 0.000000 0.000000 0.000000
# 2 0.001613 0.009705 -0.001208 0.000000 0.000000 0.000000
# 3 -0.001282 -0.001208 0.005169 0.000000 0.000000 0.000000
# 4 0.000000 0.000000 0.000000 0.016745 0.000000 0.000000
# 5 0.000000 0.000000 0.000000 0.000000 0.047604 0.000000
# 6 0.000000 0.000000 0.000000 0.000000 0.000000 0.072557
#
#
# Mechanical properties :
#
#
# Convention : Reuss Voigt Hill
#
# Bulk Modulus (GPa) = 35.83947 48.44989 42.14468
# Shear Modulus (GPa) = 28.15023 42.36629 35.25826
#
# Velocity S-wave (km/s) = 3.27524 4.01803 3.66550
# Velocity P-wave (km/s) = 5.28775 6.32368 5.82877
#
# Compressibility (1/GPa) = 0.02790220
#
# Stress axis : x y z
#
# Youngs Moduli (GPa) = 67.65008 103.03735 193.44372
#
# Poissons Ratio (x) = -0.16618 0.24796
# Poissons Ratio (y) = -0.10911 0.23373
# Poissons Ratio (z) = 0.08671 0.12450
#
# Static dielectric constant tensor:
#      x y z
#    x 1.893220 0.000000 0.000000 
#    y 0.000000 2.210290 0.000000 
#    z 0.000000 0.000000 2.106080 
# 
# From -- ./inp_files/10405.got.cif
#   From: 2010.05.17/outbox.cif.g08.bks.cpg/sg36_6_cif.got.tgz:10405.got - 2010.06.03 17:41:39.
