data_PCOD9353090
_publ_section_title
;
Structure prediction by ZEFSAII (Michael W. Deem and Ramdas Pophale) SiO2 
 PCOD9353090
Probable space group: C M C 21
;
_chemical_formula_sum "Si O2"
_cell_formula_units_Z 48
_cell_length_a 33.957495
_cell_length_b 7.048913
_cell_length_c 7.312270
_cell_angle_alpha 90.000000
_cell_angle_beta 90.000000
_cell_angle_gamma 90.000000
_cell_volume 1750.290013
_symmetry_space_group_name_H-M "C M C 21"
_symmetry_group_IT_number 36
_symmetry_cell_setting 'orthorhombic'
loop_
_space_group_symop_operation_xyz
x,y,z
-x,-y,1/2+z
x,-y,1/2+z
-x,y,z
1/2+x,1/2+y,z
1/2-x,1/2-y,1/2+z
1/2+x,1/2-y,1/2+z
1/2-x,1/2+y,z
loop_
_atom_site_type_symbol
_atom_site_label
_atom_site_fract_x
_atom_site_fract_y
_atom_site_fract_z
Si Si1 0.875209 0.795241 0.037390
Si Si2 0.957291 0.655363 0.466495
Si Si3 0.207330 0.810820 0.009867
Si Si4 0.458492 0.283394 0.044299
Si Si5 0.709332 0.080812 0.639371
Si Si6 0.871731 0.362914 0.946872
O O1 0.917622 0.882950 0.994055
O O2 0.875182 0.734056 0.249828
O O3 0.835219 0.909955 0.000915
O O4 0.872194 0.594236 0.930000
O O5 0.958265 0.740224 0.261870
O O6 0.957869 0.425605 0.454575
O O7 0.913296 0.690157 0.546323
O O8 0.000000 0.703419 0.555883
O O9 0.212685 0.699495 0.822074
O O10 0.247381 0.916943 0.048895
O O11 0.202457 0.643881 0.159899
O O12 0.500000 0.377073 0.995737
O O13 0.670576 0.163134 0.541112
#
# Coordination Sequence:
#
# PCOD9353090 Si02
#       6
#     8   8   8   8   8   8
#     4   9  15  24  38  57  82 113 147 182 222 266
#     4   8  13  20  31  49  75 107 141 175 212 257
#     4  11  21  34  50  69  93 122 156 193 234 277
#     4   8  13  20  31  49  75 107 141 175 212 257
#     4  11  21  34  50  69  93 122 156 193 234 277
#     4   9  15  24  38  57  82 113 147 182 222 266
#
# _framework density 27.424028
#
# number of rings (size 3 to 8) (size 9 to 14) (size 15 to 20)
#    0.000    2.667    0.000    6.000    0.000    1.333 
#    0.000    0.000    0.000    0.000    0.000    0.000 
#    0.000    1.333    0.000    3.667    0.000   17.000 
#
# Total GULP energy -134090.881338 kJ/mol
# GULP energy per Si atom -5587.120056 kJ/mol
# Density = 2.736161 g / cm^3
# Si number density = 27.424028 Si / 1000 Ang^3
#
#
#
# Elastic Constant Matrix: (Units=GPa)
#
#
# Indices 1 2 3 4 5 6 
#
# 1 367.8462 20.2473 30.5169 0.0000 0.0000 0.0000
# 2 20.2473 91.5238 -4.7287 0.0000 0.0000 0.0000
# 3 30.5169 -4.7287 79.5738 0.0000 0.0000 0.0000
# 4 0.0000 0.0000 0.0000 4.0341 0.0000 0.0000
# 5 0.0000 0.0000 0.0000 0.0000 30.7400 0.0000
# 6 0.0000 0.0000 0.0000 0.0000 0.0000 -6.4457
#
#
#
# Elastic Compliance Matrix: (Units=1/GPa)
#
#
# Indices 1 2 3 4 5 6 
#
# 1 0.002851 -0.000689 -0.001134 0.000000 0.000000 0.000000
# 2 -0.000689 0.011126 0.000926 0.000000 0.000000 0.000000
# 3 -0.001134 0.000926 0.013057 0.000000 0.000000 0.000000
# 4 0.000000 0.000000 0.000000 0.247888 0.000000 0.000000
# 5 0.000000 0.000000 0.000000 0.000000 0.032531 0.000000
# 6 0.000000 0.000000 0.000000 0.000000 0.000000 -0.155142
#
#
# Mechanical properties :
#
#
# Convention : Reuss Voigt Hill
#
# Bulk Modulus (GPa) = 39.62256 70.11276 54.86766
# Shear Modulus (GPa) = 30.76546 38.52622 34.64584
#
# Velocity S-wave (km/s) = 3.35303 3.75218 3.55820
# Velocity P-wave (km/s) = 5.42862 6.66284 6.07714
#
# Compressibility (1/GPa) = 0.02523815
#
# Stress axis : x y z
#
# Youngs Moduli (GPa) = 350.80892 89.87628 76.58784
#
# Poissons Ratio (x) = 0.06194 0.08686
# Poissons Ratio (y) = 0.24178 -0.07088
# Poissons Ratio (z) = 0.39787 -0.08318
#
# Static dielectric constant tensor:
#      x y z
#    x 2.233570 0.000000 0.000000 
#    y 0.000000 2.114300 0.000000 
#    z 0.000000 0.000000 2.151280 
# 
# From -- ./inp_files/6034.got.cif
#   From: 2010.05.17/outbox.cif.g08.bks.cpg/sg36_4_cif.got.tgz:6034.got - 2010.06.03 17:41:39.
