data_PCOD9353014
_publ_section_title
;
Structure prediction by ZEFSAII (Michael W. Deem and Ramdas Pophale) SiO2 
 PCOD9353014
Probable space group: C M C 21
;
_chemical_formula_sum "Si O2"
_cell_formula_units_Z 64
_cell_length_a 8.827739
_cell_length_b 24.083361
_cell_length_c 15.586954
_cell_angle_alpha 90.000000
_cell_angle_beta 90.000000
_cell_angle_gamma 90.000000
_cell_volume 3313.811752
_symmetry_space_group_name_H-M "C M C 21"
_symmetry_group_IT_number 36
_symmetry_cell_setting 'orthorhombic'
loop_
_space_group_symop_operation_xyz
x,y,z
-x,-y,1/2+z
x,-y,1/2+z
-x,y,z
1/2+x,1/2+y,z
1/2-x,1/2-y,1/2+z
1/2+x,1/2-y,1/2+z
1/2-x,1/2+y,z
loop_
_atom_site_type_symbol
_atom_site_label
_atom_site_fract_x
_atom_site_fract_y
_atom_site_fract_z
Si Si1 0.180365 0.622994 0.546340
Si Si2 0.818858 0.854567 0.225031
Si Si3 0.320372 0.751489 0.982679
Si Si4 0.680718 0.873889 0.749107
Si Si5 0.319468 0.254762 0.796887
Si Si6 0.679749 0.146335 0.056746
Si Si7 0.818587 0.079663 0.899267
Si Si8 0.181237 0.050515 0.394521
O O1 0.256132 0.617564 0.639104
O O2 0.209047 0.686091 0.514161
O O3 0.248491 0.581391 0.476561
O O4 0.000000 0.615581 0.552278
O O5 0.743738 0.794316 0.237458
O O6 0.781377 0.890345 0.309614
O O7 0.000000 0.848670 0.219997
O O8 0.500000 0.745274 0.967542
O O9 0.232467 0.741449 0.893954
O O10 0.264487 0.705252 0.049119
O O11 0.500000 0.873447 0.762911
O O12 0.746259 0.813754 0.774080
O O13 0.712006 0.881735 0.648310
O O14 0.754703 0.919491 0.810134
O O15 0.500000 0.257658 0.790922
O O16 0.500000 0.155939 0.051382
O O17 0.735270 0.109255 0.977766
O O18 0.000000 0.085547 0.912105
O O19 0.781762 0.014628 0.895153
O O20 0.000000 0.056668 0.396394
#
# Coordination Sequence:
#
# PCOD9353014 Si02
#       8
#     8   8   8   8   8   8   8   8
#     4  11  24  41  64  94 128 165 206 255 314 375
#     4  11  23  41  65  93 128 167 207 256 311 371
#     4  11  22  38  62  91 128 166 201 250 312 373
#     4  11  24  42  63  93 129 165 205 256 314 373
#     4  12  23  37  63  96 127 164 207 252 310 376
#     4  11  24  40  64  95 126 163 208 255 308 371
#     4  10  24  44  65  89 122 165 211 260 315 369
#     4  11  24  43  66  91 120 163 215 262 310 372
#
# _framework density 19.313106999999999
#
# number of rings (size 3 to 8) (size 9 to 14) (size 15 to 20)
#    0.000    1.000    2.500    4.125    0.000    8.000 
#    0.000    3.750    0.000    0.000    0.000    0.000 
#    0.000    0.000    0.000    0.000    0.000    0.000 
#
# Total GULP energy -179065.423967 kJ/mol
# GULP energy per Si atom -5595.794499 kJ/mol
# Density = 1.926915 g / cm^3
# Si number density = 19.313107 Si / 1000 Ang^3
#
#
#
# Elastic Constant Matrix: (Units=GPa)
#
#
# Indices 1 2 3 4 5 6 
#
# 1 66.3373 45.3356 43.5342 0.0000 0.0000 0.0000
# 2 45.3356 103.8689 30.5925 0.0000 0.0000 0.0000
# 3 43.5342 30.5925 101.4229 0.0000 0.0000 0.0000
# 4 0.0000 0.0000 0.0000 3.7934 0.0000 0.0000
# 5 0.0000 0.0000 0.0000 0.0000 33.8708 0.0000
# 6 0.0000 0.0000 0.0000 0.0000 0.0000 25.3773
#
#
#
# Elastic Compliance Matrix: (Units=1/GPa)
#
#
# Indices 1 2 3 4 5 6 
#
# 1 0.027253 -0.009274 -0.008901 0.000000 0.000000 0.000000
# 2 -0.009274 0.013722 -0.000158 0.000000 0.000000 0.000000
# 3 -0.008901 -0.000158 0.013728 0.000000 0.000000 0.000000
# 4 0.000000 0.000000 0.000000 0.263617 0.000000 0.000000
# 5 0.000000 0.000000 0.000000 0.000000 0.029524 0.000000
# 6 0.000000 0.000000 0.000000 0.000000 0.000000 0.039405
#
#
# Mechanical properties :
#
#
# Convention : Reuss Voigt Hill
#
# Bulk Modulus (GPa) = 55.44021 56.72819 56.08420
# Shear Modulus (GPa) = 11.62987 22.75275 17.19131
#
# Velocity S-wave (km/s) = 2.45659 3.43607 2.98675
# Velocity P-wave (km/s) = 6.06752 6.72151 6.40287
#
# Compressibility (1/GPa) = 0.01803745
#
# Stress axis : x y z
#
# Youngs Moduli (GPa) = 36.69257 72.87643 72.84369
#
# Poissons Ratio (x) = 0.67584 0.64837
# Poissons Ratio (y) = 0.34028 0.01154
# Poissons Ratio (z) = 0.32660 0.01154
#
# Static dielectric constant tensor:
#      x y z
#    x 1.642980 0.000000 0.000000 
#    y 0.000000 1.642720 0.000000 
#    z 0.000000 0.000000 1.671170 
# 
# From -- ./inp_files/11079.got.cif
#   From: 2010.05.17/outbox.cif.g08.bks.cpg/sg36_6_cif.got.tgz:11079.got - 2010.06.03 17:41:39.
