data_PCOD9353726
_publ_section_title
;
Structure prediction by ZEFSAII (Michael W. Deem and Ramdas Pophale) SiO2 
 PCOD9353726
Probable space group: C C C 2
;
_chemical_formula_sum "Si O2"
_cell_formula_units_Z 48
_cell_length_a 15.918809
_cell_length_b 22.705836
_cell_length_c 5.500238
_cell_angle_alpha 90.000000
_cell_angle_beta 90.000000
_cell_angle_gamma 90.000000
_cell_volume 1988.060291
_symmetry_space_group_name_H-M "C C C 2"
_symmetry_group_IT_number 37
_symmetry_cell_setting 'orthorhombic'
loop_
_space_group_symop_operation_xyz
x,y,z
-x,-y,z
-x,y,1/2+z
x,-y,1/2+z
1/2+x,1/2+y,z
1/2-x,1/2-y,z
1/2-x,1/2+y,1/2+z
1/2+x,1/2-y,1/2+z
loop_
_atom_site_type_symbol
_atom_site_label
_atom_site_fract_x
_atom_site_fract_y
_atom_site_fract_z
Si Si1 0.700455 0.692905 0.207080
Si Si2 0.525168 0.122741 0.449457
Si Si3 0.766039 0.081007 0.942290
Si Si4 0.965394 0.933033 0.399402
Si Si5 0.964824 0.243783 0.951037
Si Si6 0.284931 0.099506 0.949662
O O1 0.750000 0.750000 0.130679
O O2 0.744236 0.652486 0.414146
O O3 0.616085 0.716476 0.323751
O O4 0.707433 0.645456 0.990093
O O5 0.500044 0.091785 0.699667
O O6 0.474027 0.184876 0.452180
O O7 0.625420 0.131671 0.449747
O O8 0.865085 0.067127 0.926238
O O9 0.721794 0.061060 0.694340
O O10 0.729400 0.066306 0.201054
O O11 0.006866 0.905874 0.641348
O O12 0.000000 0.000000 0.388374
O O13 0.031739 0.226994 0.736505
#
# Coordination Sequence:
#
# PCOD9353726 Si02
#       6
#     8   8   8   8   8   8
#     4  10  23  36  52  75 110 158 209 253 307 349
#     4  10  19  34  54  71  98 145 206 249 294 344
#     4  10  23  37  57  82 115 155 201 254 315 362
#     4  10  21  40  67  93 123 160 197 252 319 392
#     4  10  22  32  47  67  93 135 199 249 287 341
#     4  10  22  37  53  76 114 152 200 266 306 358
#
# _framework density 24.144138999999999
#
# number of rings (size 3 to 8) (size 9 to 14) (size 15 to 20)
#    1.000    1.000    0.000    4.000    7.000    2.000 
#    0.000    0.000    0.000    0.000    0.000    0.000 
#    0.000    0.000    0.000  210.000    0.000    0.000 
#
# Total GULP energy -133719.724918 kJ/mol
# GULP energy per Si atom -5571.655205 kJ/mol
# Density = 2.408919 g / cm^3
# Si number density = 24.144139 Si / 1000 Ang^3
#
#
#
# Elastic Constant Matrix: (Units=GPa)
#
#
# Indices 1 2 3 4 5 6 
#
# 1 70.8887 0.2826 28.9840 0.0000 0.0000 0.0000
# 2 0.2826 78.8099 5.5551 0.0000 0.0000 0.0000
# 3 28.9840 5.5551 221.7612 0.0000 0.0000 0.0000
# 4 0.0000 0.0000 0.0000 114.3202 0.0000 0.0000
# 5 0.0000 0.0000 0.0000 0.0000 32.2006 0.0000
# 6 0.0000 0.0000 0.0000 0.0000 0.0000 51.5479
#
#
#
# Elastic Compliance Matrix: (Units=1/GPa)
#
#
# Indices 1 2 3 4 5 6 
#
# 1 0.014904 0.000084 -0.001950 0.000000 0.000000 0.000000
# 2 0.000084 0.012712 -0.000329 0.000000 0.000000 0.000000
# 3 -0.001950 -0.000329 0.004772 0.000000 0.000000 0.000000
# 4 0.000000 0.000000 0.000000 0.008747 0.000000 0.000000
# 5 0.000000 0.000000 0.000000 0.000000 0.031055 0.000000
# 6 0.000000 0.000000 0.000000 0.000000 0.000000 0.019399
#
#
# Mechanical properties :
#
#
# Convention : Reuss Voigt Hill
#
# Bulk Modulus (GPa) = 35.71818 49.01147 42.36482
# Shear Modulus (GPa) = 47.47754 62.05626 54.76690
#
# Velocity S-wave (km/s) = 4.43925 5.07525 4.76787
# Velocity P-wave (km/s) = 6.41106 7.39513 6.92061
#
# Compressibility (1/GPa) = 0.02799695
#
# Stress axis : x y z
#
# Youngs Moduli (GPa) = 67.09802 78.66780 209.53518
#
# Poissons Ratio (x) = -0.00661 0.40859
# Poissons Ratio (y) = -0.00564 0.06902
# Poissons Ratio (z) = 0.13084 0.02591
#
# Static dielectric constant tensor:
#      x y z
#    x 1.936210 0.000000 0.000000 
#    y 0.000000 1.835910 0.000000 
#    z 0.000000 0.000000 2.061470 
# 
# From -- ./inp_files/608.got.cif
#   From: 2010.05.17/outbox.cif.g08.bks.cpg/sg37_1_cif.got.tgz:608.got - 2010.06.03 17:53:42.
