data_PCOD9353342
_publ_section_title
;
Structure prediction by ZEFSAII (Michael W. Deem and Ramdas Pophale) SiO2 
 PCOD9353342
Probable space group: C M C 21
;
_chemical_formula_sum "Si O2"
_cell_formula_units_Z 32
_cell_length_a 9.000000
_cell_length_b 30.000000
_cell_length_c 12.000000
_cell_angle_alpha 90.000000
_cell_angle_beta 90.000000
_cell_angle_gamma 90.000000
_cell_volume 3240.000000
_symmetry_space_group_name_H-M "C M C 21"
_symmetry_group_IT_number 36
_symmetry_cell_setting 'orthorhombic'
loop_
_space_group_symop_operation_xyz
x,y,z
-x,-y,1/2+z
x,-y,1/2+z
-x,y,z
1/2+x,1/2+y,z
1/2-x,1/2-y,1/2+z
1/2+x,1/2-y,1/2+z
1/2-x,1/2+y,z
loop_
_atom_site_type_symbol
_atom_site_label
_atom_site_fract_x
_atom_site_fract_y
_atom_site_fract_z
Si Si1 0.821167 0.969578 0.469950
Si Si2 0.832088 0.332146 0.375584
Si Si3 0.677926 0.817052 0.754851
Si Si4 0.322024 0.568046 0.525531
Si Si5 0.330975 0.925500 0.258371
Si Si6 0.320224 0.109366 0.087539
Si Si7 0.677639 0.722244 0.694778
Si Si8 0.820492 0.166704 0.480772
O O1 0.746974 0.949364 0.360918
O O2 0.759033 0.937732 0.568246
O O3 0.000000 0.966772 0.467779
O O4 0.774234 0.021050 0.475310
O O5 0.837093 0.373504 0.289656
O O6 0.777544 0.356173 0.488051
O O7 0.738600 0.295144 0.312666
O O8 0.000000 0.315928 0.397035
O O9 0.500000 0.817299 0.768584
O O10 0.719116 0.863899 0.698538
O O11 0.715400 0.774148 0.679555
O O12 0.757059 0.810798 0.871580
O O13 0.500000 0.568880 0.520943
O O14 0.267462 0.567365 0.651407
O O15 0.268721 0.615176 0.477815
O O16 0.500000 0.941168 0.242716
O O17 0.500000 0.103530 0.079539
O O18 0.500000 0.718205 0.697613
O O19 0.730708 0.691851 0.592391
O O20 0.000000 0.167500 0.479653
#
# Coordination Sequence:
#
# PCOD9353342 Si02
#       8
#     8   8   8   8   8   8   8   8
#     4  10  21  36  58  86 117 153 196 244 291 344
#     4   9  18  33  57  83 108 142 187 239 286 337
#     4  10  23  40  58  84 120 157 193 240 294 347
#     4  10  21  38  59  84 115 152 193 242 292 343
#     4  10  20  35  56  83 113 148 191 239 290 345
#     4   9  20  39  58  81 117 155 194 240 291 344
#     4  10  21  37  59  84 112 149 190 236 289 346
#     4  10  22  40  61  85 116 152 192 238 293 352
#
# _framework density 9.8765429999999999
#
# number of rings (size 3 to 8) (size 9 to 14) (size 15 to 20)
#    0.000    2.250    1.250    1.500    1.750    6.000 
#    0.000    3.750    0.000    0.000    0.000    0.000 
#    0.000    0.000    0.000    0.000    0.000    0.000 
#
# Total GULP energy -178375.748555 kJ/mol
# GULP energy per Si atom -5574.242142 kJ/mol
# Density = 0.985406 g / cm^3
# Si number density = 9.876543 Si / 1000 Ang^3
#
#
#
# Elastic Constant Matrix: (Units=GPa)
#
#
# Indices 1 2 3 4 5 6 
#
# 1 -74.7383 28.8181 -19.4739 0.0000 0.0000 0.0000
# 2 28.8181 111.5020 28.2531 0.0000 0.0000 0.0000
# 3 -19.4739 28.2531 42.2564 0.0000 0.0000 0.0000
# 4 0.0000 0.0000 0.0000 15.3174 0.0000 0.0000
# 5 0.0000 0.0000 0.0000 0.0000 21.4411 0.0000
# 6 0.0000 0.0000 0.0000 0.0000 0.0000 20.5847
#
#
#
# Elastic Compliance Matrix: (Units=1/GPa)
#
#
# Indices 1 2 3 4 5 6 
#
# 1 -0.009745 0.004403 -0.007435 0.000000 0.000000 0.000000
# 2 0.004403 0.008809 -0.003861 0.000000 0.000000 0.000000
# 3 -0.007435 -0.003861 0.022820 0.000000 0.000000 0.000000
# 4 0.000000 0.000000 0.000000 0.065285 0.000000 0.000000
# 5 0.000000 0.000000 0.000000 0.000000 0.046639 0.000000
# 6 0.000000 0.000000 0.000000 0.000000 0.000000 0.048580
#
#
# Mechanical properties :
#
#
# Convention : Reuss Voigt Hill
#
# Bulk Modulus (GPa) = 123.48953 17.13500 70.31227
# Shear Modulus (GPa) = 25.14164 14.23016 19.68590
#
# Velocity S-wave (km/s) = 3.57150 2.68694 3.16032
# Velocity P-wave (km/s) = 8.92523 4.28014 6.99926
#
# Compressibility (1/GPa) = 0.00809785
#
# Stress axis : x y z
#
# Youngs Moduli (GPa) = -102.61396 113.52203 43.82093
#
# Poissons Ratio (x) = -0.49979 0.32580
# Poissons Ratio (y) = 0.45176 0.16918
# Poissons Ratio (z) = -0.76291 0.43829
#
# Static dielectric constant tensor:
#      x y z
#    x 1.678340 0.000000 0.000000 
#    y 0.000000 1.726940 0.000000 
#    z 0.000000 0.000000 1.701920 
# 
# From -- ./inp_files/7074.got.cif
#   From: 2010.05.17/outbox.ucp.g08.bks.cvg/sg36_4_cif.got.tgz:7074.got - 2010.06.11 10:37:26.
