data_PCOD9353398
_publ_section_title
;
Structure prediction by ZEFSAII (Michael W. Deem and Ramdas Pophale) SiO2 
 PCOD9353398
Probable space group: C M C 21
;
_chemical_formula_sum "Si O2"
_cell_formula_units_Z 24
_cell_length_a 18.000000
_cell_length_b 15.000000
_cell_length_c 9.000000
_cell_angle_alpha 90.000000
_cell_angle_beta 90.000000
_cell_angle_gamma 90.000000
_cell_volume 2430.000000
_symmetry_space_group_name_H-M "C M C 21"
_symmetry_group_IT_number 36
_symmetry_cell_setting 'orthorhombic'
loop_
_space_group_symop_operation_xyz
x,y,z
-x,-y,1/2+z
x,-y,1/2+z
-x,y,z
1/2+x,1/2+y,z
1/2-x,1/2-y,1/2+z
1/2+x,1/2-y,1/2+z
1/2-x,1/2+y,z
loop_
_atom_site_type_symbol
_atom_site_label
_atom_site_fract_x
_atom_site_fract_y
_atom_site_fract_z
Si Si1 0.690194 0.962065 0.669430
Si Si2 0.353119 0.772079 0.309529
Si Si3 0.912854 0.903870 0.954944
Si Si4 0.216846 0.193196 0.022435
Si Si5 0.911701 0.469717 0.389922
Si Si6 0.165061 0.937221 0.272754
O O1 0.738835 0.875878 0.629555
O O2 0.646049 0.986834 0.522075
O O3 0.619616 0.956086 0.777412
O O4 0.750462 0.033163 0.730467
O O5 0.402691 0.691099 0.372760
O O6 0.280212 0.765582 0.416379
O O7 0.328268 0.754715 0.138217
O O8 0.392224 0.868767 0.331755
O O9 0.873906 0.908032 0.118358
O O10 0.000000 0.923323 0.973241
O O11 0.874831 0.977827 0.848426
O O12 0.168228 0.136964 0.903183
O O13 0.000000 0.476386 0.419050
#
# Coordination Sequence:
#
# PCOD9353398 Si02
#       6
#     8   8   8   8   8   8
#     4  11  20  40  64  90 119 162 217 256 299 372
#     4  11  23  39  62  92 132 161 208 259 325 377
#     4  12  24  39  62  92 131 165 204 265 323 377
#     4  11  23  38  67  98 118 166 213 268 304 374
#     4  11  24  40  62  93 128 165 205 259 322 374
#     4  12  21  42  65  93 121 167 223 259 308 380
#
# _framework density 9.8765429999999999
#
# number of rings (size 3 to 8) (size 9 to 14) (size 15 to 20)
#    0.000    0.667    6.667    2.500    0.000    0.000 
#    0.000    2.500    0.000    0.000    0.000    0.000 
#    0.000    0.000    0.000    0.000    0.000    0.000 
#
# Total GULP energy -133934.328901 kJ/mol
# GULP energy per Si atom -5580.597038 kJ/mol
# Density = 0.985406 g / cm^3
# Si number density = 9.876543 Si / 1000 Ang^3
#
#
#
# Elastic Constant Matrix: (Units=GPa)
#
#
# Indices 1 2 3 4 5 6 
#
# 1 114.4987 22.5657 36.3939 0.0000 0.0000 0.0000
# 2 22.5657 -6.5126 15.4391 0.0000 0.0000 0.0000
# 3 36.3939 15.4391 83.5317 0.0000 0.0000 0.0000
# 4 0.0000 0.0000 0.0000 36.8548 0.0000 0.0000
# 5 0.0000 0.0000 0.0000 0.0000 12.1438 0.0000
# 6 0.0000 0.0000 0.0000 0.0000 0.0000 22.3653
#
#
#
# Elastic Compliance Matrix: (Units=1/GPa)
#
#
# Indices 1 2 3 4 5 6 
#
# 1 0.007973 0.013483 -0.005966 0.000000 0.000000 0.000000
# 2 0.013483 -0.083967 0.009645 0.000000 0.000000 0.000000
# 3 -0.005966 0.009645 0.012788 0.000000 0.000000 0.000000
# 4 0.000000 0.000000 0.000000 0.027134 0.000000 0.000000
# 5 0.000000 0.000000 0.000000 0.000000 0.082346 0.000000
# 6 0.000000 0.000000 0.000000 0.000000 0.000000 0.044712
#
#
# Mechanical properties :
#
#
# Convention : Reuss Voigt Hill
#
# Bulk Modulus (GPa) = -34.62416 37.81280 1.59432
# Shear Modulus (GPa) = 106.30530 22.08073 64.19301
#
# Velocity S-wave (km/s) = 7.34397 3.34703 5.70686
# Velocity P-wave (km/s) = 7.37193 5.84133 6.65081
#
# Compressibility (1/GPa) = -0.02888157
#
# Stress axis : x y z
#
# Youngs Moduli (GPa) = 125.42714 -11.90948 78.19873
#
# Poissons Ratio (x) = 0.16057 0.46650
# Poissons Ratio (y) = -1.69108 -0.75425
# Poissons Ratio (z) = 0.74825 0.11487
#
# Static dielectric constant tensor:
#      x y z
#    x 1.673700 0.000000 0.000000 
#    y 0.000000 1.732300 0.000000 
#    z 0.000000 0.000000 2.149000 
# 
# From -- ./inp_files/3995.got.cif
#   From: 2010.05.17/outbox.ucp.g08.bks.cvg/sg36_2_cif.got.tgz:3995.got - 2010.06.11 10:37:26.
