data_PCOD9353904
_publ_section_title
;
Structure prediction by ZEFSAII (Michael W. Deem and Ramdas Pophale) SiO2 
 PCOD9353904
Probable space group: C C C 2
;
_chemical_formula_sum "Si O2"
_cell_formula_units_Z 40
_cell_length_a 18.167316
_cell_length_b 9.274217
_cell_length_c 9.406804
_cell_angle_alpha 90.000000
_cell_angle_beta 90.000000
_cell_angle_gamma 90.000000
_cell_volume 1584.930120
_symmetry_space_group_name_H-M "C C C 2"
_symmetry_group_IT_number 37
_symmetry_cell_setting 'orthorhombic'
loop_
_space_group_symop_operation_xyz
x,y,z
-x,-y,z
-x,y,1/2+z
x,-y,1/2+z
1/2+x,1/2+y,z
1/2-x,1/2-y,z
1/2-x,1/2+y,1/2+z
1/2+x,1/2-y,1/2+z
loop_
_atom_site_type_symbol
_atom_site_label
_atom_site_fract_x
_atom_site_fract_y
_atom_site_fract_z
Si Si1 0.335822 0.221942 0.056280
Si Si2 0.785918 0.411457 0.295872
Si Si3 0.058620 0.735990 0.813834
Si Si4 0.085295 0.697590 0.137315
Si Si5 0.127624 0.041385 0.822971
O O1 0.250000 0.250000 0.086508
O O2 0.378173 0.197421 0.201159
O O3 0.332499 0.094883 0.940020
O O4 0.371276 0.356373 0.964636
O O5 0.750000 0.250000 0.290031
O O6 0.845723 0.402883 0.174093
O O7 0.713349 0.508664 0.304517
O O8 0.984550 0.680383 0.740175
O O9 0.071764 0.909184 0.828208
O O10 0.063841 0.684014 0.974545
O O11 0.110292 0.859196 0.185945
#
# Coordination Sequence:
#
# PCOD9353904 Si02
#       5
#     8   8   8   8   8
#     4   8  17  32  47  64  95 134 173 210 254 308
#     4   7  15  34  48  60  94 144 173 196 246 315
#     4  12  20  29  48  77 103 134 171 214 256 301
#     4  10  20  29  45  71 105 135 165 204 256 307
#     4   9  18  32  47  66  99 137 170 206 251 303
#
# _framework density 25.237704999999998
#
# number of rings (size 3 to 8) (size 9 to 14) (size 15 to 20)
#    0.000    3.600    0.000    4.200    0.000    4.000 
#    0.000    0.000    0.000    0.000    0.000    1.400 
#    0.000   28.800    0.000    2.200    0.000    0.000 
#
# Total GULP energy -111682.921863 kJ/mol
# GULP energy per Si atom -5584.146093 kJ/mol
# Density = 2.518026 g / cm^3
# Si number density = 25.237705 Si / 1000 Ang^3
#
#
#
# Elastic Constant Matrix: (Units=GPa)
#
#
# Indices 1 2 3 4 5 6 
#
# 1 108.4376 2.2109 72.8998 0.0000 0.0000 0.0000
# 2 2.2109 81.2322 20.9168 0.0000 0.0000 0.0000
# 3 72.8998 20.9168 235.1579 0.0000 0.0000 0.0000
# 4 0.0000 0.0000 0.0000 28.1880 0.0000 0.0000
# 5 0.0000 0.0000 0.0000 0.0000 46.9571 0.0000
# 6 0.0000 0.0000 0.0000 0.0000 0.0000 -4.9811
#
#
#
# Elastic Compliance Matrix: (Units=1/GPa)
#
#
# Indices 1 2 3 4 5 6 
#
# 1 0.011681 0.000629 -0.003677 0.000000 0.000000 0.000000
# 2 0.000629 0.012633 -0.001319 0.000000 0.000000 0.000000
# 3 -0.003677 -0.001319 0.005510 0.000000 0.000000 0.000000
# 4 0.000000 0.000000 0.000000 0.035476 0.000000 0.000000
# 5 0.000000 0.000000 0.000000 0.000000 0.021296 0.000000
# 6 0.000000 0.000000 0.000000 0.000000 0.000000 -0.200761
#
#
# Mechanical properties :
#
#
# Convention : Reuss Voigt Hill
#
# Bulk Modulus (GPa) = 47.41605 68.54253 57.97929
# Shear Modulus (GPa) = -50.81231 35.95282 -7.42974
#
# Velocity S-wave (km/s) = -4.49190 3.77844 -1.71764
# Velocity P-wave (km/s) = 2.84154 6.80097 4.36914
#
# Compressibility (1/GPa) = 0.02108990
#
# Stress axis : x y z
#
# Youngs Moduli (GPa) = 85.60835 79.15897 181.49896
#
# Poissons Ratio (x) = -0.04978 0.66739
# Poissons Ratio (y) = -0.05384 0.23933
# Poissons Ratio (z) = 0.31479 0.10438
#
# Static dielectric constant tensor:
#      x y z
#    x 2.094880 0.000000 0.000000 
#    y 0.000000 2.229160 0.000000 
#    z 0.000000 0.000000 1.974560 
# 
# From -- ./inp_files/3403.got.cif
#   From: 2010.05.17/outbox.cif.g08.bks.cpg/sg37_2_cif.got.tgz:3403.got - 2010.06.03 17:53:42.
