data_PCOD9353880
_publ_section_title
;
Structure prediction by ZEFSAII (Michael W. Deem and Ramdas Pophale) SiO2 
 PCOD9353880
Probable space group: C C C 2
;
_chemical_formula_sum "Si O2"
_cell_formula_units_Z 64
_cell_length_a 16.645358
_cell_length_b 11.385480
_cell_length_c 14.668034
_cell_angle_alpha 90.000000
_cell_angle_beta 90.000000
_cell_angle_gamma 90.000000
_cell_volume 2779.818193
_symmetry_space_group_name_H-M "C C C 2"
_symmetry_group_IT_number 37
_symmetry_cell_setting 'orthorhombic'
loop_
_space_group_symop_operation_xyz
x,y,z
-x,-y,z
-x,y,1/2+z
x,-y,1/2+z
1/2+x,1/2+y,z
1/2-x,1/2-y,z
1/2-x,1/2+y,1/2+z
1/2+x,1/2-y,1/2+z
loop_
_atom_site_type_symbol
_atom_site_label
_atom_site_fract_x
_atom_site_fract_y
_atom_site_fract_z
Si Si1 0.085338 0.148838 0.550170
Si Si2 0.681816 0.479142 0.671791
Si Si3 0.421033 0.072208 0.556475
Si Si4 0.861407 0.014514 0.871953
Si Si5 0.657709 0.752414 0.919328
Si Si6 0.916877 0.214709 0.597663
Si Si7 0.676226 0.004092 0.894848
Si Si8 0.629919 0.063973 0.715285
O O1 0.088580 0.289727 0.538526
O O2 0.090342 0.080778 0.452433
O O3 0.998283 0.140253 0.598575
O O4 0.153240 0.095593 0.617870
O O5 0.629884 0.458297 0.764690
O O6 0.656283 0.374814 0.605591
O O7 0.775075 0.461817 0.696542
O O8 0.350181 0.014353 0.498279
O O9 0.500000 0.000000 0.526549
O O10 0.412314 0.043320 0.663247
O O11 0.768026 0.042494 0.891688
O O12 0.865081 0.872679 0.877424
O O13 0.750000 0.750000 0.954541
O O14 0.662862 0.870347 0.860213
O O15 0.593186 0.770030 0.998190
O O16 0.904146 0.318781 0.668650
O O17 0.623336 0.076677 0.823686
#
# Coordination Sequence:
#
# PCOD9353880 Si02
#       8
#     8   8   8   8   8   8   8   8
#     4  12  26  45  67 101 143 182 227 289 357 423
#     4  11  25  44  69 105 134 184 239 290 352 417
#     4  12  25  46  66  99 142 182 231 284 358 422
#     4  10  24  43  67 102 138 176 235 295 349 409
#     4  10  19  40  69  95 131 178 229 283 343 411
#     4  12  23  45  67  96 138 184 229 285 355 425
#     4  10  23  42  70 101 131 186 239 285 344 420
#     4  11  24  44  72  99 139 184 239 291 344 423
#
# _framework density 23.023088999999999
#
# number of rings (size 3 to 8) (size 9 to 14) (size 15 to 20)
#    0.000    1.000    3.750    2.250    3.500    2.500 
#    4.500    0.000    0.000    0.000    0.000    0.000 
#    0.000    0.000    0.000    0.000    0.000    0.000 
#
# Total GULP energy -178489.938939 kJ/mol
# GULP energy per Si atom -5577.810592 kJ/mol
# Density = 2.297069 g / cm^3
# Si number density = 23.023089 Si / 1000 Ang^3
#
#
#
# Elastic Constant Matrix: (Units=GPa)
#
#
# Indices 1 2 3 4 5 6 
#
# 1 59.8137 18.7967 15.5771 0.0000 0.0000 0.0000
# 2 18.7967 112.2456 11.3342 0.0000 0.0000 0.0000
# 3 15.5771 11.3342 77.3553 0.0000 0.0000 0.0000
# 4 0.0000 0.0000 0.0000 28.4479 0.0000 0.0000
# 5 0.0000 0.0000 0.0000 0.0000 20.5791 0.0000
# 6 0.0000 0.0000 0.0000 0.0000 0.0000 17.9533
#
#
#
# Elastic Compliance Matrix: (Units=1/GPa)
#
#
# Indices 1 2 3 4 5 6 
#
# 1 0.018447 -0.002755 -0.003311 0.000000 0.000000 0.000000
# 2 -0.002755 0.009454 -0.000831 0.000000 0.000000 0.000000
# 3 -0.003311 -0.000831 0.013716 0.000000 0.000000 0.000000
# 4 0.000000 0.000000 0.000000 0.035152 0.000000 0.000000
# 5 0.000000 0.000000 0.000000 0.000000 0.048593 0.000000
# 6 0.000000 0.000000 0.000000 0.000000 0.000000 0.055700
#
#
# Mechanical properties :
#
#
# Convention : Reuss Voigt Hill
#
# Bulk Modulus (GPa) = 35.94011 37.87009 36.90510
# Shear Modulus (GPa) = 24.49436 26.97650 25.73543
#
# Velocity S-wave (km/s) = 3.26529 3.42675 3.34699
# Velocity P-wave (km/s) = 5.46448 5.66932 5.56784
#
# Compressibility (1/GPa) = 0.02782407
#
# Stress axis : x y z
#
# Youngs Moduli (GPa) = 54.21075 105.77302 72.90871
#
# Poissons Ratio (x) = 0.29138 0.24140
# Poissons Ratio (y) = 0.14934 0.06055
# Poissons Ratio (z) = 0.17949 0.08785
#
# Static dielectric constant tensor:
#      x y z
#    x 1.909980 0.000000 0.000000 
#    y 0.000000 1.905640 0.000000 
#    z 0.000000 0.000000 1.855730 
# 
# From -- ./inp_files/12723.got.cif
#   From: 2010.05.17/outbox.cif.g08.bks.cpg/sg37_7_cif.got.tgz:12723.got - 2010.06.03 17:53:42.
