data_PCOD9353247
_publ_section_title
;
Structure prediction by ZEFSAII (Michael W. Deem and Ramdas Pophale) SiO2 
 PCOD9353247
Probable space group: C M C 21
;
_chemical_formula_sum "Si O2"
_cell_formula_units_Z 24
_cell_length_a 18.969716
_cell_length_b 4.727789
_cell_length_c 9.457904
_cell_angle_alpha 90.000000
_cell_angle_beta 90.000000
_cell_angle_gamma 90.000000
_cell_volume 848.230367
_symmetry_space_group_name_H-M "C M C 21"
_symmetry_group_IT_number 36
_symmetry_cell_setting 'orthorhombic'
loop_
_space_group_symop_operation_xyz
x,y,z
-x,-y,1/2+z
x,-y,1/2+z
-x,y,z
1/2+x,1/2+y,z
1/2-x,1/2-y,1/2+z
1/2+x,1/2-y,1/2+z
1/2-x,1/2+y,z
loop_
_atom_site_type_symbol
_atom_site_label
_atom_site_fract_x
_atom_site_fract_y
_atom_site_fract_z
Si Si1 0.295386 0.276635 0.875000
Si Si2 0.879136 0.851973 0.597727
Si Si3 0.500000 0.575099 0.792940
Si Si4 0.000000 0.449192 0.479653
O O1 0.276976 0.951335 0.902175
O O2 0.317813 0.280945 0.710670
O O3 0.349595 0.437650 0.977296
O O4 0.932222 0.015509 0.701372
O O5 0.928629 0.591765 0.543554
O O6 0.500000 0.904030 0.826018
O O7 0.500000 0.378826 0.933512
#
# Coordination Sequence:
#
# PCOD9353247 Si02
#       4
#     8   8   4   4
#     4  12  28  47  76 109 152 204 254 310 380 462
#     4  11  26  50  78 108 156 191 264 314 392 449
#     4  11  26  46  77 113 146 196 246 325 383 454
#     4  11  26  46  77 113 146 196 246 325 383 454
#
# _framework density 28.294204000000001
#
# number of rings (size 3 to 8) (size 9 to 14) (size 15 to 20)
#    0.000    0.667    3.333    2.000    4.667   10.667 
#    0.000    0.000    0.000    0.000    0.000    0.000 
#    0.000    0.000    0.000    0.000    0.000    0.000 
#
# Total GULP energy -67240.836692 kJ/mol
# GULP energy per Si atom -5603.403058 kJ/mol
# Density = 2.822980 g / cm^3
# Si number density = 28.294204 Si / 1000 Ang^3
#
#
#
# Elastic Constant Matrix: (Units=GPa)
#
#
# Indices 1 2 3 4 5 6 
#
# 1 122.5770 31.8271 39.1733 0.0000 0.0000 0.0000
# 2 31.8271 143.3550 33.2601 0.0000 0.0000 0.0000
# 3 39.1733 33.2601 151.0947 0.0000 0.0000 0.0000
# 4 0.0000 0.0000 0.0000 60.5467 0.0000 0.0000
# 5 0.0000 0.0000 0.0000 0.0000 47.4807 0.0000
# 6 0.0000 0.0000 0.0000 0.0000 0.0000 33.9453
#
#
#
# Elastic Compliance Matrix: (Units=1/GPa)
#
#
# Indices 1 2 3 4 5 6 
#
# 1 0.009220 -0.001573 -0.002044 0.000000 0.000000 0.000000
# 2 -0.001573 0.007619 -0.001270 0.000000 0.000000 0.000000
# 3 -0.002044 -0.001270 0.007428 0.000000 0.000000 0.000000
# 4 0.000000 0.000000 0.000000 0.016516 0.000000 0.000000
# 5 0.000000 0.000000 0.000000 0.000000 0.021061 0.000000
# 6 0.000000 0.000000 0.000000 0.000000 0.000000 0.029459
#
#
# Mechanical properties :
#
#
# Convention : Reuss Voigt Hill
#
# Bulk Modulus (GPa) = 68.99269 69.50529 69.24899
# Shear Modulus (GPa) = 47.21097 49.24560 48.22828
#
# Velocity S-wave (km/s) = 4.08925 4.17644 4.13307
# Velocity P-wave (km/s) = 6.83615 6.91920 6.87780
#
# Compressibility (1/GPa) = 0.01449429
#
# Stress axis : x y z
#
# Youngs Moduli (GPa) = 108.46278 131.24416 134.62944
#
# Poissons Ratio (x) = 0.20640 0.27520
# Poissons Ratio (y) = 0.17058 0.17091
# Poissons Ratio (z) = 0.22171 0.16662
#
# Static dielectric constant tensor:
#      x y z
#    x 2.243590 0.000000 0.000000 
#    y 0.000000 2.078390 0.000000 
#    z 0.000000 0.000000 2.218210 
# 
# From -- ./inp_files/5439.got.cif
#   From: 2010.05.17/outbox.cif.g08.bks.cpg/sg36_3_cif.got.tgz:5439.got - 2010.06.03 17:41:39.
