data_PCOD9353552
_publ_section_title
;
Structure prediction by ZEFSAII (Michael W. Deem and Ramdas Pophale) SiO2 
 PCOD9353552
Probable space group: C C C 2
;
_chemical_formula_sum "Si O2"
_cell_formula_units_Z 56
_cell_length_a 15.221302
_cell_length_b 24.247798
_cell_length_c 8.545792
_cell_angle_alpha 90.000000
_cell_angle_beta 90.000000
_cell_angle_gamma 90.000000
_cell_volume 3154.107029
_symmetry_space_group_name_H-M "C C C 2"
_symmetry_group_IT_number 37
_symmetry_cell_setting 'orthorhombic'
loop_
_space_group_symop_operation_xyz
x,y,z
-x,-y,z
-x,y,1/2+z
x,-y,1/2+z
1/2+x,1/2+y,z
1/2-x,1/2-y,z
1/2-x,1/2+y,1/2+z
1/2+x,1/2-y,1/2+z
loop_
_atom_site_type_symbol
_atom_site_label
_atom_site_fract_x
_atom_site_fract_y
_atom_site_fract_z
Si Si1 0.762471 0.422817 0.145710
Si Si2 0.885555 0.244849 0.491866
Si Si3 0.748892 0.160298 0.402110
Si Si4 0.442579 0.869467 0.073715
Si Si5 0.376872 0.928997 0.554656
Si Si6 0.957447 0.710189 0.307236
Si Si7 0.800081 0.523139 0.352005
O O1 0.727950 0.368985 0.236714
O O2 0.866526 0.408309 0.137015
O O3 0.748228 0.478096 0.247762
O O4 0.741989 0.439001 0.966950
O O5 0.835827 0.187195 0.474320
O O6 0.822800 0.290290 0.407177
O O7 0.898193 0.262050 0.673467
O O8 0.979738 0.249168 0.406340
O O9 0.699444 0.112760 0.499512
O O10 0.528417 0.903505 0.023364
O O11 0.478336 0.829630 0.208744
O O12 0.410810 0.829627 0.933271
O O13 0.359895 0.941439 0.736181
O O14 0.361187 0.985272 0.461589
#
# Coordination Sequence:
#
# PCOD9353552 Si02
#       7
#     8   8   8   8   8   8   8
#     4  10  19  31  46  69 102 133 175 203 245 288
#     4  10  20  34  54  70  95 130 173 209 259 296
#     4  10  19  34  51  70  96 134 168 213 250 299
#     4  11  18  28  48  68  99 145 164 208 238 281
#     4  10  18  32  46  71 105 135 177 200 246 284
#     4  10  18  32  49  72  95 132 171 205 250 303
#     4   9  20  29  44  69 101 140 171 211 230 287
#
# _framework density 17.754629000000001
#
# number of rings (size 3 to 8) (size 9 to 14) (size 15 to 20)
#    0.000    2.000    4.286    1.714    0.000    3.429 
#    0.000    2.857    0.000    0.000    0.000    0.000 
#    0.000   54.857    0.000    0.000    0.000    0.000 
#
# Total GULP energy -155954.983247 kJ/mol
# GULP energy per Si atom -5569.820830 kJ/mol
# Density = 1.771422 g / cm^3
# Si number density = 17.754629 Si / 1000 Ang^3
#
#
#
# Elastic Constant Matrix: (Units=GPa)
#
#
# Indices 1 2 3 4 5 6 
#
# 1 20.3099 23.2130 4.7705 0.0000 0.0000 0.0000
# 2 23.2130 73.1027 28.8279 0.0000 0.0000 0.0000
# 3 4.7705 28.8279 90.6451 0.0000 0.0000 0.0000
# 4 0.0000 0.0000 0.0000 29.8337 0.0000 0.0000
# 5 0.0000 0.0000 0.0000 0.0000 14.5153 0.0000
# 6 0.0000 0.0000 0.0000 0.0000 0.0000 17.1981
#
#
#
# Elastic Compliance Matrix: (Units=1/GPa)
#
#
# Indices 1 2 3 4 5 6 
#
# 1 0.078762 -0.026728 0.004355 0.000000 0.000000 0.000000
# 2 -0.026728 0.024711 -0.006452 0.000000 0.000000 0.000000
# 3 0.004355 -0.006452 0.012855 0.000000 0.000000 0.000000
# 4 0.000000 0.000000 0.000000 0.033519 0.000000 0.000000
# 5 0.000000 0.000000 0.000000 0.000000 0.068893 0.000000
# 6 0.000000 0.000000 0.000000 0.000000 0.000000 0.058146
#
#
# Mechanical properties :
#
#
# Convention : Reuss Voigt Hill
#
# Bulk Modulus (GPa) = 17.04199 33.07560 25.05880
# Shear Modulus (GPa) = 14.12050 20.79249 17.45650
#
# Velocity S-wave (km/s) = 2.82319 3.42585 3.13902
# Velocity P-wave (km/s) = 4.49963 5.85818 5.22326
#
# Compressibility (1/GPa) = 0.05867858
#
# Stress axis : x y z
#
# Youngs Moduli (GPa) = 12.69642 40.46801 77.79182
#
# Poissons Ratio (x) = 1.08161 -0.33879
# Poissons Ratio (y) = 0.33934 0.50193
# Poissons Ratio (z) = -0.05529 0.26111
#
# Static dielectric constant tensor:
#      x y z
#    x 1.575670 0.000000 0.000000 
#    y 0.000000 1.631840 0.000000 
#    z 0.000000 0.000000 1.690720 
# 
# From -- ./inp_files/4114.got.cif
#   From: 2010.05.17/outbox.cif.g08.bks.cpg/sg37_3_cif.got.tgz:4114.got - 2010.06.03 17:53:42.
