data_PCOD9353487
_publ_section_title
;
Structure prediction by ZEFSAII (Michael W. Deem and Ramdas Pophale) SiO2 
 PCOD9353487
Probable space group: C C C 2
;
_chemical_formula_sum "Si O2"
_cell_formula_units_Z 48
_cell_length_a 7.655153
_cell_length_b 18.172268
_cell_length_c 14.891848
_cell_angle_alpha 90.000000
_cell_angle_beta 90.000000
_cell_angle_gamma 90.000000
_cell_volume 2071.627192
_symmetry_space_group_name_H-M "C C C 2"
_symmetry_group_IT_number 37
_symmetry_cell_setting 'orthorhombic'
loop_
_space_group_symop_operation_xyz
x,y,z
-x,-y,z
-x,y,1/2+z
x,-y,1/2+z
1/2+x,1/2+y,z
1/2-x,1/2-y,z
1/2-x,1/2+y,1/2+z
1/2+x,1/2-y,1/2+z
loop_
_atom_site_type_symbol
_atom_site_label
_atom_site_fract_x
_atom_site_fract_y
_atom_site_fract_z
Si Si1 0.198546 0.534790 0.240310
Si Si2 0.885357 0.426808 0.052260
Si Si3 0.285414 0.404481 0.356350
Si Si4 0.053086 0.679764 0.302162
Si Si5 0.553318 0.282201 0.941312
Si Si6 0.547032 0.770464 0.120480
O O1 0.239795 0.554174 0.137040
O O2 0.308077 0.476289 0.296468
O O3 0.000000 0.500000 0.238641
O O4 0.180109 0.611740 0.290983
O O5 0.000000 0.500000 0.042386
O O6 0.994847 0.352879 0.081660
O O7 0.796887 0.417626 0.955450
O O8 0.142144 0.355928 0.303015
O O9 0.449835 0.355072 0.381979
O O10 0.069356 0.722699 0.394389
O O11 0.049115 0.732007 0.215805
O O12 0.750000 0.250000 0.933991
O O13 0.519216 0.286936 0.046124
O O14 0.750000 0.750000 0.131806
#
# Coordination Sequence:
#
# PCOD9353487 Si02
#       6
#     8   8   8   8   8   8
#     4   8  16  27  46  81 108 139 189 248 290 334
#     4  10  18  30  55  84 111 145 201 250 280 355
#     4  10  17  31  54  82 117 147 192 253 302 343
#     4   9  17  31  52  78 113 152 199 242 289 351
#     4  10  19  34  55  82 115 158 195 243 305 360
#     4  11  21  34  55  85 121 155 201 246 305 366
#
# _framework density 23.170190999999999
#
# number of rings (size 3 to 8) (size 9 to 14) (size 15 to 20)
#    0.000    2.333    3.333    4.000    0.000    0.000 
#    0.000    0.833    0.000    1.000    0.000    4.667 
#    0.000    0.000    0.000    0.000    0.000    0.000 
#
# Total GULP energy -133905.280484 kJ/mol
# GULP energy per Si atom -5579.386687 kJ/mol
# Density = 2.311745 g / cm^3
# Si number density = 23.170191 Si / 1000 Ang^3
#
#
#
# Elastic Constant Matrix: (Units=GPa)
#
#
# Indices 1 2 3 4 5 6 
#
# 1 49.4916 17.4188 16.8010 0.0000 0.0000 0.0000
# 2 17.4188 82.8265 50.9679 0.0000 0.0000 0.0000
# 3 16.8010 50.9679 141.9721 0.0000 0.0000 0.0000
# 4 0.0000 0.0000 0.0000 -100.1514 0.0000 0.0000
# 5 0.0000 0.0000 0.0000 0.0000 2.1846 0.0000
# 6 0.0000 0.0000 0.0000 0.0000 0.0000 14.3121
#
#
#
# Elastic Compliance Matrix: (Units=1/GPa)
#
#
# Indices 1 2 3 4 5 6 
#
# 1 0.021981 -0.003879 -0.001209 0.000000 0.000000 0.000000
# 2 -0.003879 0.016181 -0.005350 0.000000 0.000000 0.000000
# 3 -0.001209 -0.005350 0.009107 0.000000 0.000000 0.000000
# 4 0.000000 0.000000 0.000000 -0.009985 0.000000 0.000000
# 5 0.000000 0.000000 0.000000 0.000000 0.457740 0.000000
# 6 0.000000 0.000000 0.000000 0.000000 0.000000 0.069871
#
#
# Mechanical properties :
#
#
# Convention : Reuss Voigt Hill
#
# Bulk Modulus (GPa) = 37.88695 49.40728 43.64712
# Shear Modulus (GPa) = 8.40946 -4.12408 2.14269
#
# Velocity S-wave (km/s) = 1.90717 -1.33558 0.96269
# Velocity P-wave (km/s) = 4.60834 4.35793 4.48489
#
# Compressibility (1/GPa) = 0.02639431
#
# Stress axis : x y z
#
# Youngs Moduli (GPa) = 45.49394 61.79940 109.80144
#
# Poissons Ratio (x) = 0.23971 0.13272
# Poissons Ratio (y) = 0.17647 0.58745
# Poissons Ratio (z) = 0.05499 0.33063
#
# Static dielectric constant tensor:
#      x y z
#    x 1.926590 0.000000 0.000000 
#    y 0.000000 1.935000 0.000000 
#    z 0.000000 0.000000 1.859060 
# 
# From -- ./inp_files/10589.got.cif
#   From: 2010.05.17/outbox.cif.g08.bks.cpg/sg37_6_cif.got.tgz:10589.got - 2010.06.03 17:53:42.
