data_PCOD9353122
_publ_section_title
;
Structure prediction by ZEFSAII (Michael W. Deem and Ramdas Pophale) SiO2 
 PCOD9353122
Probable space group: C M C 21
;
_chemical_formula_sum "Si O2"
_cell_formula_units_Z 64
_cell_length_a 7.499886
_cell_length_b 19.165743
_cell_length_c 21.839547
_cell_angle_alpha 90.000000
_cell_angle_beta 90.000000
_cell_angle_gamma 90.000000
_cell_volume 3139.235871
_symmetry_space_group_name_H-M "C M C 21"
_symmetry_group_IT_number 36
_symmetry_cell_setting 'orthorhombic'
loop_
_space_group_symop_operation_xyz
x,y,z
-x,-y,1/2+z
x,-y,1/2+z
-x,y,z
1/2+x,1/2+y,z
1/2-x,1/2-y,1/2+z
1/2+x,1/2-y,1/2+z
1/2-x,1/2+y,z
loop_
_atom_site_type_symbol
_atom_site_label
_atom_site_fract_x
_atom_site_fract_y
_atom_site_fract_z
Si Si1 0.211193 0.831553 0.613110
Si Si2 0.293596 0.084939 0.863135
Si Si3 0.212693 0.423576 0.494897
Si Si4 0.293636 0.914983 0.862694
Si Si5 0.287674 0.076186 0.231067
Si Si6 0.781508 0.673462 0.612872
Si Si7 0.781195 0.416859 0.996652
Si Si8 0.781189 0.416758 0.229148
O O1 0.258383 0.874243 0.552292
O O2 0.260822 0.874428 0.673587
O O3 0.282637 0.752943 0.612871
O O4 0.000000 0.825518 0.613761
O O5 0.500000 0.108109 0.862512
O O6 0.215105 0.103815 0.929412
O O7 0.218597 0.105838 0.797027
O O8 0.292348 0.999964 0.862916
O O9 0.275930 0.502755 0.506864
O O10 0.000000 0.429840 0.486250
O O11 0.500000 0.891721 0.863396
O O12 0.214996 0.896172 0.796409
O O13 0.218524 0.894163 0.928808
O O14 0.500000 0.069445 0.240252
O O15 0.223841 0.997127 0.218918
O O16 0.725254 0.632154 0.552058
O O17 0.725280 0.632267 0.673749
O O18 0.000000 0.673158 0.612820
O O19 0.000000 0.416728 0.995600
O O20 0.000000 0.416563 0.230156
#
# Coordination Sequence:
#
# PCOD9353122 Si02
#       8
#     8   8   8   8   8   8   8   8
#     4  11  22  31  39  59  94 127 150 176 212 257
#     4   7  11  21  42  72  93 101 127 184 235 258
#     4   9  16  29  51  72  86 107 144 188 227 259
#     4   7  11  21  42  72  93 101 127 184 235 258
#     4   9  16  29  51  72  86 107 144 188 227 259
#     4   9  17  27  39  59  90 125 152 174 208 257
#     4   8  13  25  48  73  89 106 143 188 220 253
#     4   8  13  25  48  73  89 106 143 188 220 253
#
# _framework density 20.387127
#
# number of rings (size 3 to 8) (size 9 to 14) (size 15 to 20)
#    0.000    3.500    0.000    4.125    0.000    2.000 
#    0.000    1.250    0.000   12.750    0.000    0.000 
#    0.000    0.000    0.000    0.000    0.000    0.000 
#
# Total GULP energy -178257.884528 kJ/mol
# GULP energy per Si atom -5570.558891 kJ/mol
# Density = 2.034073 g / cm^3
# Si number density = 20.387127 Si / 1000 Ang^3
#
#
#
# Elastic Constant Matrix: (Units=GPa)
#
#
# Indices 1 2 3 4 5 6 
#
# 1 52.5712 3.8102 5.7456 0.0000 0.0000 0.0000
# 2 3.8102 108.6214 119.1839 0.0000 0.0000 0.0000
# 3 5.7456 119.1839 270.5006 0.0000 0.0000 0.0000
# 4 0.0000 0.0000 0.0000 -1.0199 0.0000 0.0000
# 5 0.0000 0.0000 0.0000 0.0000 1220.8928 0.0000
# 6 0.0000 0.0000 0.0000 0.0000 0.0000 2.3226
#
#
#
# Elastic Compliance Matrix: (Units=1/GPa)
#
#
# Indices 1 2 3 4 5 6 
#
# 1 0.019077 -0.000435 -0.000214 0.000000 0.000000 0.000000
# 2 -0.000435 0.017833 -0.007848 0.000000 0.000000 0.000000
# 3 -0.000214 -0.007848 0.007159 0.000000 0.000000 0.000000
# 4 0.000000 0.000000 0.000000 -0.980468 0.000000 0.000000
# 5 0.000000 0.000000 0.000000 0.000000 0.000819 0.000000
# 6 0.000000 0.000000 0.000000 0.000000 0.000000 0.430544
#
#
# Mechanical properties :
#
#
# Convention : Reuss Voigt Hill
#
# Bulk Modulus (GPa) = 36.93321 76.57473 56.75397
# Shear Modulus (GPa) = -10.43800 264.63601 127.09900
#
# Velocity S-wave (km/s) = -2.26517 11.40558 7.90431
# Velocity P-wave (km/s) = 3.36362 14.52899 10.54527
#
# Compressibility (1/GPa) = 0.02707590
#
# Stress axis : x y z
#
# Youngs Moduli (GPa) = 52.41998 56.07715 139.68029
#
# Poissons Ratio (x) = 0.02438 0.02984
# Poissons Ratio (y) = 0.02279 1.09620
# Poissons Ratio (z) = 0.01120 0.44009
#
# Static dielectric constant tensor:
#      x y z
#    x 1.791160 0.000000 0.000000 
#    y 0.000000 1.679360 0.000000 
#    z 0.000000 0.000000 0.758520 
# 
# From -- ./inp_files/16050.got.cif
#   From: 2010.05.17/outbox.cif.g08.bks.cpg/sg36_9_cif.got.tgz:16050.got - 2010.06.03 17:41:39.
