data_PCOD9353465
_publ_section_title
;
Structure prediction by ZEFSAII (Michael W. Deem and Ramdas Pophale) SiO2 
 PCOD9353465
Probable space group: C C C 2
;
_chemical_formula_sum "Si O2"
_cell_formula_units_Z 64
_cell_length_a 18.322130
_cell_length_b 7.645994
_cell_length_c 19.504851
_cell_angle_alpha 90.000000
_cell_angle_beta 90.000000
_cell_angle_gamma 90.000000
_cell_volume 2732.452054
_symmetry_space_group_name_H-M "C C C 2"
_symmetry_group_IT_number 37
_symmetry_cell_setting 'orthorhombic'
loop_
_space_group_symop_operation_xyz
x,y,z
-x,-y,z
-x,y,1/2+z
x,-y,1/2+z
1/2+x,1/2+y,z
1/2-x,1/2-y,z
1/2-x,1/2+y,1/2+z
1/2+x,1/2-y,1/2+z
loop_
_atom_site_type_symbol
_atom_site_label
_atom_site_fract_x
_atom_site_fract_y
_atom_site_fract_z
Si Si1 0.537164 0.694279 0.479200
Si Si2 0.071834 0.120710 0.333177
Si Si3 0.589545 0.184903 0.558620
Si Si4 0.215737 0.559059 0.473157
Si Si5 0.764394 0.537653 0.185155
Si Si6 0.834403 0.935226 0.561089
Si Si7 0.768046 0.043574 0.837309
Si Si8 0.929739 0.391380 0.709315
O O1 0.500000 0.500000 0.475688
O O2 0.561790 0.733839 0.402237
O O3 0.472663 0.815469 0.502631
O O4 0.599408 0.687312 0.537547
O O5 0.145975 0.015474 0.351920
O O6 0.084176 0.239009 0.265392
O O7 0.000000 0.000000 0.322734
O O8 0.650456 0.056144 0.527515
O O9 0.628370 0.373624 0.562662
O O10 0.552108 0.169824 0.632450
O O11 0.250000 0.750000 0.481673
O O12 0.278085 0.428706 0.498343
O O13 0.211224 0.534563 0.391847
O O14 0.750000 0.750000 0.174640
O O15 0.716333 0.436186 0.128695
O O16 0.739407 0.481579 0.259990
O O17 0.852063 0.516683 0.191251
O O18 0.750000 0.250000 0.836761
O O19 0.000000 0.500000 0.734141
#
# Coordination Sequence:
#
# PCOD9353465 Si02
#       8
#     8   8   8   8   8   8   8   8
#     4   9  20  35  62  98 132 163 222 276 332 394
#     4  11  23  43  67  95 133 175 225 283 330 402
#     4  10  20  38  62  95 128 172 217 272 333 402
#     4  10  20  36  68  97 124 167 224 277 324 384
#     4  11  19  39  67  90 125 177 229 258 327 414
#     4  10  16  35  69  92 120 170 224 264 316 394
#     4  11  22  41  67  96 129 176 229 269 329 413
#     4  12  25  43  63  97 138 174 219 279 346 403
#
# _framework density 23.422186
#
# number of rings (size 3 to 8) (size 9 to 14) (size 15 to 20)
#    0.000    1.500    6.250    0.375    1.750    3.500 
#    2.250    0.000    0.000    0.000    0.000    0.000 
#    0.000    0.000    0.000    0.000    0.000    0.000 
#
# Total GULP energy -178496.649673 kJ/mol
# GULP energy per Si atom -5578.020302 kJ/mol
# Density = 2.336888 g / cm^3
# Si number density = 23.422186 Si / 1000 Ang^3
#
#
#
# Elastic Constant Matrix: (Units=GPa)
#
#
# Indices 1 2 3 4 5 6 
#
# 1 116.7611 15.8872 21.2753 0.0000 0.0000 0.0000
# 2 15.8872 50.7204 -1.9214 0.0000 0.0000 0.0000
# 3 21.2753 -1.9214 155.8082 0.0000 0.0000 0.0000
# 4 0.0000 0.0000 0.0000 18.9262 0.0000 0.0000
# 5 0.0000 0.0000 0.0000 0.0000 62.6710 0.0000
# 6 0.0000 0.0000 0.0000 0.0000 0.0000 10.6906
#
#
#
# Elastic Compliance Matrix: (Units=1/GPa)
#
#
# Indices 1 2 3 4 5 6 
#
# 1 0.009199 -0.002930 -0.001292 0.000000 0.000000 0.000000
# 2 -0.002930 0.020659 0.000655 0.000000 0.000000 0.000000
# 3 -0.001292 0.000655 0.006603 0.000000 0.000000 0.000000
# 4 0.000000 0.000000 0.000000 0.052837 0.000000 0.000000
# 5 0.000000 0.000000 0.000000 0.000000 0.015956 0.000000
# 6 0.000000 0.000000 0.000000 0.000000 0.000000 0.093540
#
#
# Mechanical properties :
#
#
# Convention : Reuss Voigt Hill
#
# Bulk Modulus (GPa) = 34.10083 43.75242 38.92663
# Shear Modulus (GPa) = 23.18002 37.66081 30.42042
#
# Velocity S-wave (km/s) = 3.14930 4.01423 3.60778
# Velocity P-wave (km/s) = 5.27399 6.34081 5.83184
#
# Compressibility (1/GPa) = 0.02932480
#
# Stress axis : x y z
#
# Youngs Moduli (GPa) = 108.71154 48.40599 151.45393
#
# Poissons Ratio (x) = 0.14184 0.19571
# Poissons Ratio (y) = 0.31855 -0.09918
# Poissons Ratio (z) = 0.14048 -0.03170
#
# Static dielectric constant tensor:
#      x y z
#    x 1.558650 0.000000 0.000000 
#    y 0.000000 1.940330 0.000000 
#    z 0.000000 0.000000 1.885140 
# 
# From -- ./inp_files/17350.got.cif
#   From: 2010.05.17/outbox.cif.g08.bks.cpg/sg37_9_cif.got.tgz:17350.got - 2010.06.03 17:53:42.
