data_PCOD9353528
_publ_section_title
;
Structure prediction by ZEFSAII (Michael W. Deem and Ramdas Pophale) SiO2 
 PCOD9353528
Probable space group: C C C 2
;
_chemical_formula_sum "Si O2"
_cell_formula_units_Z 48
_cell_length_a 31.588167
_cell_length_b 6.670466
_cell_length_c 9.059750
_cell_angle_alpha 90.000000
_cell_angle_beta 90.000000
_cell_angle_gamma 90.000000
_cell_volume 1908.959936
_symmetry_space_group_name_H-M "C C C 2"
_symmetry_group_IT_number 37
_symmetry_cell_setting 'orthorhombic'
loop_
_space_group_symop_operation_xyz
x,y,z
-x,-y,z
-x,y,1/2+z
x,-y,1/2+z
1/2+x,1/2+y,z
1/2-x,1/2-y,z
1/2-x,1/2+y,1/2+z
1/2+x,1/2-y,1/2+z
loop_
_atom_site_type_symbol
_atom_site_label
_atom_site_fract_x
_atom_site_fract_y
_atom_site_fract_z
Si Si1 0.153754 0.454633 0.751360
Si Si2 0.800075 0.273814 0.975678
Si Si3 0.357904 0.571478 0.454730
Si Si4 0.412821 0.378732 0.226445
Si Si5 0.488040 0.736151 0.535113
Si Si6 0.439417 0.160070 0.734131
O O1 0.180872 0.627715 0.828069
O O2 0.177023 0.406819 0.599786
O O3 0.155107 0.248420 0.845760
O O4 0.102161 0.481494 0.743235
O O5 0.750000 0.250000 0.978480
O O6 0.817395 0.051392 0.999606
O O7 0.389658 0.401369 0.383883
O O8 0.380531 0.666116 0.594760
O O9 0.422139 0.616470 0.209796
O O10 0.456939 0.277062 0.179169
O O11 0.500000 0.500000 0.502002
O O12 0.529197 0.853194 0.594710
O O13 0.464670 0.821012 0.389534
#
# Coordination Sequence:
#
# PCOD9353528 Si02
#       6
#     8   8   8   8   8   8
#     4  11  27  50  74 113 147 200 247 308 392 454
#     4  12  30  49  77 109 146 191 248 322 384 470
#     4  11  22  44  73 106 149 195 244 308 383 447
#     4  10  18  34  64 102 143 196 248 298 362 431
#     4  10  18  29  58 105 140 190 251 295 341 428
#     4  10  20  35  60 102 147 189 250 300 352 437
#
# _framework density 25.144583000000001
#
# number of rings (size 3 to 8) (size 9 to 14) (size 15 to 20)
#    0.000    1.333    6.667    1.500    7.000    0.000 
#    0.000    0.000    0.000    8.000    0.000    0.000 
#    0.000    0.000    0.000    0.000    0.000    0.000 
#
# Total GULP energy -134233.681023 kJ/mol
# GULP energy per Si atom -5593.070043 kJ/mol
# Density = 2.508735 g / cm^3
# Si number density = 25.144583 Si / 1000 Ang^3
#
#
#
# Elastic Constant Matrix: (Units=GPa)
#
#
# Indices 1 2 3 4 5 6 
#
# 1 191.1684 34.6401 59.1353 0.0000 0.0000 0.0000
# 2 34.6401 43.4240 12.6290 0.0000 0.0000 0.0000
# 3 59.1353 12.6290 118.3476 0.0000 0.0000 0.0000
# 4 0.0000 0.0000 0.0000 50.0915 0.0000 0.0000
# 5 0.0000 0.0000 0.0000 0.0000 16.0943 0.0000
# 6 0.0000 0.0000 0.0000 0.0000 0.0000 34.0439
#
#
#
# Elastic Compliance Matrix: (Units=1/GPa)
#
#
# Indices 1 2 3 4 5 6 
#
# 1 0.007015 -0.004723 -0.003001 0.000000 0.000000 0.000000
# 2 -0.004723 0.026947 -0.000515 0.000000 0.000000 0.000000
# 3 -0.003001 -0.000515 0.010004 0.000000 0.000000 0.000000
# 4 0.000000 0.000000 0.000000 0.019963 0.000000 0.000000
# 5 0.000000 0.000000 0.000000 0.000000 0.062134 0.000000
# 6 0.000000 0.000000 0.000000 0.000000 0.000000 0.029374
#
#
# Mechanical properties :
#
#
# Convention : Reuss Voigt Hill
#
# Bulk Modulus (GPa) = 36.38197 62.86096 49.62147
# Shear Modulus (GPa) = 27.61219 36.48165 32.04692
#
# Velocity S-wave (km/s) = 3.31741 3.81317 3.57390
# Velocity P-wave (km/s) = 5.40131 6.66641 6.06693
#
# Compressibility (1/GPa) = 0.02748614
#
# Stress axis : x y z
#
# Youngs Moduli (GPa) = 142.54581 37.11051 99.95633
#
# Poissons Ratio (x) = 0.17529 0.30000
# Poissons Ratio (y) = 0.67329 0.05151
# Poissons Ratio (z) = 0.42783 0.01912
#
# Static dielectric constant tensor:
#      x y z
#    x 2.041670 0.000000 0.000000 
#    y 0.000000 2.077230 0.000000 
#    z 0.000000 0.000000 1.971180 
# 
# From -- ./inp_files/2414.got.cif
#   From: 2010.05.17/outbox.cif.g08.bks.cpg/sg37_2_cif.got.tgz:2414.got - 2010.06.03 17:53:42.
