data_PCOD9353681
_publ_section_title
;
Structure prediction by ZEFSAII (Michael W. Deem and Ramdas Pophale) SiO2 
 PCOD9353681
Probable space group: C C C 2
;
_chemical_formula_sum "Si O2"
_cell_formula_units_Z 56
_cell_length_a 12.267295
_cell_length_b 17.564984
_cell_length_c 13.538041
_cell_angle_alpha 90.000000
_cell_angle_beta 90.000000
_cell_angle_gamma 90.000000
_cell_volume 2917.107224
_symmetry_space_group_name_H-M "C C C 2"
_symmetry_group_IT_number 37
_symmetry_cell_setting 'orthorhombic'
loop_
_space_group_symop_operation_xyz
x,y,z
-x,-y,z
-x,y,1/2+z
x,-y,1/2+z
1/2+x,1/2+y,z
1/2-x,1/2-y,z
1/2-x,1/2+y,1/2+z
1/2+x,1/2-y,1/2+z
loop_
_atom_site_type_symbol
_atom_site_label
_atom_site_fract_x
_atom_site_fract_y
_atom_site_fract_z
Si Si1 0.809340 0.451409 0.291400
Si Si2 0.748336 0.495427 0.511820
Si Si3 0.621530 0.911889 0.161228
Si Si4 0.622359 0.731993 0.679975
Si Si5 0.499706 0.173573 0.311500
Si Si6 0.594872 0.558370 0.652571
Si Si7 0.924255 0.630561 0.529561
O O1 0.769792 0.467949 0.401843
O O2 0.872639 0.521502 0.241730
O O3 0.899054 0.384727 0.292231
O O4 0.701071 0.442693 0.225131
O O5 0.777080 0.427828 0.589486
O O6 0.632075 0.525601 0.546337
O O7 0.827858 0.568695 0.527369
O O8 0.596695 0.840489 0.231555
O O9 0.523451 0.912078 0.083276
O O10 0.750000 0.750000 0.700518
O O11 0.554953 0.747736 0.780468
O O12 0.581994 0.649390 0.643961
O O13 0.598324 0.795566 0.596296
O O14 0.456646 0.157813 0.420392
O O15 0.500000 0.500000 0.687753
#
# Coordination Sequence:
#
# PCOD9353681 Si02
#       7
#     8   8   8   8   8   8   8
#     4  11  20  35  63  92 127 160 205 265 320 385
#     4  11  20  35  63  92 127 160 205 265 320 385
#     4  10  19  30  54  94 128 148 191 262 324 376
#     4  11  21  44  62  88 130 172 222 264 324 397
#     4  11  20  34  63  96 125 163 203 265 334 386
#     4  11  25  46  64  86 124 179 225 262 315 395
#     4  11  20  34  63  96 125 163 203 265 334 386
#
# _framework density 19.197099000000001
#
# number of rings (size 3 to 8) (size 9 to 14) (size 15 to 20)
#    0.000    1.143    5.714    4.286    0.000    0.571 
#    5.143    0.000    0.000    6.857    0.000    0.000 
#    0.000    0.000    0.000    0.000    0.000    0.000 
#
# Total GULP energy -155871.644533 kJ/mol
# GULP energy per Si atom -5566.844448 kJ/mol
# Density = 1.915341 g / cm^3
# Si number density = 19.197099 Si / 1000 Ang^3
#
#
#
# Elastic Constant Matrix: (Units=GPa)
#
#
# Indices 1 2 3 4 5 6 
#
# 1 43.8458 19.7199 9.8575 0.0000 0.0000 0.0000
# 2 19.7199 62.7900 6.4185 0.0000 0.0000 0.0000
# 3 9.8575 6.4185 121.1792 0.0000 0.0000 0.0000
# 4 0.0000 0.0000 0.0000 17.4603 0.0000 0.0000
# 5 0.0000 0.0000 0.0000 0.0000 25.5260 0.0000
# 6 0.0000 0.0000 0.0000 0.0000 0.0000 22.3554
#
#
#
# Elastic Compliance Matrix: (Units=1/GPa)
#
#
# Indices 1 2 3 4 5 6 
#
# 1 0.026923 -0.008277 -0.001752 0.000000 0.000000 0.000000
# 2 -0.008277 0.018557 -0.000310 0.000000 0.000000 0.000000
# 3 -0.001752 -0.000310 0.008411 0.000000 0.000000 0.000000
# 4 0.000000 0.000000 0.000000 0.057273 0.000000 0.000000
# 5 0.000000 0.000000 0.000000 0.000000 0.039176 0.000000
# 6 0.000000 0.000000 0.000000 0.000000 0.000000 0.044732
#
#
# Mechanical properties :
#
#
# Convention : Reuss Voigt Hill
#
# Bulk Modulus (GPa) = 30.10613 33.31185 31.70899
# Shear Modulus (GPa) = 22.04392 25.85629 23.95011
#
# Velocity S-wave (km/s) = 3.39233 3.67398 3.53596
# Velocity P-wave (km/s) = 5.57320 5.94875 5.76403
#
# Compressibility (1/GPa) = 0.03321583
#
# Stress axis : x y z
#
# Youngs Moduli (GPa) = 37.14232 53.88774 118.88992
#
# Poissons Ratio (x) = 0.44600 0.20826
# Poissons Ratio (y) = 0.30741 0.03681
# Poissons Ratio (z) = 0.06506 0.01669
#
# Static dielectric constant tensor:
#      x y z
#    x 1.715610 0.000000 0.000000 
#    y 0.000000 1.715900 0.000000 
#    z 0.000000 0.000000 1.681340 
# 
# From -- ./inp_files/11583.got.cif
#   From: 2010.05.17/outbox.cif.g08.bks.cpg/sg37_6_cif.got.tgz:11583.got - 2010.06.03 17:53:42.
