data_PCOD9353492
_publ_section_title
;
Structure prediction by ZEFSAII (Michael W. Deem and Ramdas Pophale) SiO2 
 PCOD9353492
Probable space group: C C C 2
;
_chemical_formula_sum "Si O2"
_cell_formula_units_Z 64
_cell_length_a 15.507934
_cell_length_b 9.158241
_cell_length_c 24.063460
_cell_angle_alpha 90.000000
_cell_angle_beta 90.000000
_cell_angle_gamma 90.000000
_cell_volume 3417.622459
_symmetry_space_group_name_H-M "C C C 2"
_symmetry_group_IT_number 37
_symmetry_cell_setting 'orthorhombic'
loop_
_space_group_symop_operation_xyz
x,y,z
-x,-y,z
-x,y,1/2+z
x,-y,1/2+z
1/2+x,1/2+y,z
1/2-x,1/2-y,z
1/2-x,1/2+y,1/2+z
1/2+x,1/2-y,1/2+z
loop_
_atom_site_type_symbol
_atom_site_label
_atom_site_fract_x
_atom_site_fract_y
_atom_site_fract_z
Si Si1 0.410563 0.589066 0.584080
Si Si2 0.560899 0.109194 0.646806
Si Si3 0.483973 0.746423 0.255125
Si Si4 0.505112 0.831078 0.880603
Si Si5 0.253351 0.575390 0.657418
Si Si6 0.640621 0.485340 0.763980
Si Si7 0.170396 0.859002 0.883557
Si Si8 0.910538 0.907869 0.954906
O O1 0.500000 0.500000 0.589424
O O2 0.426715 0.740132 0.615280
O O3 0.326673 0.519084 0.614582
O O4 0.393200 0.619812 0.519432
O O5 0.510283 0.151943 0.703711
O O6 0.653690 0.032574 0.653459
O O7 0.500000 0.000000 0.613882
O O8 0.475686 0.824860 0.314576
O O9 0.399773 0.643823 0.251720
O O10 0.563417 0.631491 0.256550
O O11 0.414469 0.744149 0.885573
O O12 0.572360 0.734700 0.916881
O O13 0.500000 0.000000 0.898213
O O14 0.250000 0.750000 0.649375
O O15 0.286916 0.545457 0.719014
O O16 0.671765 0.450756 0.826055
O O17 0.250000 0.750000 0.887946
O O18 0.160616 0.982843 0.930211
O O19 0.000000 0.000000 0.951714
#
# Coordination Sequence:
#
# PCOD9353492 Si02
#       8
#     8   8   8   8   8   8   8   8
#     4  10  20  39  63  81 115 155 206 248 295 361
#     4  11  23  37  56  88 121 152 196 251 313 360
#     4  10  18  32  56  84 118 154 193 247 300 364
#     4  10  20  36  57  83 119 159 200 246 308 359
#     4  10  19  34  56  87 112 151 196 240 294 366
#     4  10  17  31  59  85 112 151 204 237 291 364
#     4  10  20  35  59  87 117 155 204 257 297 363
#     4   9  19  39  60  86 113 159 210 251 290 374
#
# _framework density 18.726468000000001
#
# number of rings (size 3 to 8) (size 9 to 14) (size 15 to 20)
#    0.000    2.000    3.750    1.500    1.750    0.500 
#    0.000   10.625    0.000    0.000    0.000    0.000 
#    0.000    0.000    0.000    0.000    0.000    0.000 
#
# Total GULP energy -178297.405726 kJ/mol
# GULP energy per Si atom -5571.793929 kJ/mol
# Density = 1.868385 g / cm^3
# Si number density = 18.726468 Si / 1000 Ang^3
#
#
#
# Elastic Constant Matrix: (Units=GPa)
#
#
# Indices 1 2 3 4 5 6 
#
# 1 100.7173 27.3305 42.0354 0.0000 0.0000 0.0000
# 2 27.3305 74.7960 43.7803 0.0000 0.0000 0.0000
# 3 42.0354 43.7803 120.6980 0.0000 0.0000 0.0000
# 4 0.0000 0.0000 0.0000 -10.9678 0.0000 0.0000
# 5 0.0000 0.0000 0.0000 0.0000 2.1376 0.0000
# 6 0.0000 0.0000 0.0000 0.0000 0.0000 22.0943
#
#
#
# Elastic Compliance Matrix: (Units=1/GPa)
#
#
# Indices 1 2 3 4 5 6 
#
# 1 0.011962 -0.002453 -0.003276 0.000000 0.000000 0.000000
# 2 -0.002453 0.017477 -0.005485 0.000000 0.000000 0.000000
# 3 -0.003276 -0.005485 0.011416 0.000000 0.000000 0.000000
# 4 0.000000 0.000000 0.000000 -0.091176 0.000000 0.000000
# 5 0.000000 0.000000 0.000000 0.000000 0.467817 0.000000
# 6 0.000000 0.000000 0.000000 0.000000 0.000000 0.045261
#
#
# Mechanical properties :
#
#
# Convention : Reuss Voigt Hill
#
# Bulk Modulus (GPa) = 54.27217 58.05596 56.16407
# Shear Modulus (GPa) = 10.17655 14.85715 12.51685
#
# Velocity S-wave (km/s) = 2.33369 2.81975 2.58816
# Velocity P-wave (km/s) = 6.02544 6.45529 6.24406
#
# Compressibility (1/GPa) = 0.01842565
#
# Stress axis : x y z
#
# Youngs Moduli (GPa) = 83.59950 57.21961 87.59962
#
# Poissons Ratio (x) = 0.14037 0.28698
# Poissons Ratio (y) = 0.20509 0.48047
# Poissons Ratio (z) = 0.27388 0.31384
#
# Static dielectric constant tensor:
#      x y z
#    x 1.681310 0.000000 0.000000 
#    y 0.000000 1.650450 0.000000 
#    z 0.000000 0.000000 1.649870 
# 
# From -- ./inp_files/18933.got.cif
#   From: 2010.05.17/outbox.cif.g08.bks.cpg/sg37_10_cif.got.tgz:18933.got - 2010.06.03 17:53:42.
