data_PCOD9353064
_publ_section_title
;
Structure prediction by ZEFSAII (Michael W. Deem and Ramdas Pophale) SiO2 
 PCOD9353064
Probable space group: C M C 21
;
_chemical_formula_sum "Si O2"
_cell_formula_units_Z 56
_cell_length_a 16.019649
_cell_length_b 20.042117
_cell_length_c 8.061060
_cell_angle_alpha 90.000000
_cell_angle_beta 90.000000
_cell_angle_gamma 90.000000
_cell_volume 2588.145829
_symmetry_space_group_name_H-M "C M C 21"
_symmetry_group_IT_number 36
_symmetry_cell_setting 'orthorhombic'
loop_
_space_group_symop_operation_xyz
x,y,z
-x,-y,1/2+z
x,-y,1/2+z
-x,y,z
1/2+x,1/2+y,z
1/2-x,1/2-y,1/2+z
1/2+x,1/2-y,1/2+z
1/2-x,1/2+y,z
loop_
_atom_site_type_symbol
_atom_site_label
_atom_site_fract_x
_atom_site_fract_y
_atom_site_fract_z
Si Si1 0.693040 0.556733 0.190320
Si Si2 0.323345 0.128769 0.386824
Si Si3 0.598684 0.550771 0.859652
Si Si4 0.127418 0.388308 0.412155
Si Si5 0.861762 0.516132 0.609574
Si Si6 0.591667 0.225904 0.158930
Si Si7 0.784939 0.847325 0.208787
O O1 0.748208 0.617402 0.257013
O O2 0.635815 0.522771 0.328780
O O3 0.764393 0.501352 0.147086
O O4 0.633661 0.572580 0.037755
O O5 0.361540 0.057560 0.438122
O O6 0.392837 0.175257 0.310843
O O7 0.277597 0.151672 0.553361
O O8 0.500000 0.551549 0.851739
O O9 0.640946 0.598713 0.723783
O O10 0.102581 0.432513 0.247825
O O11 0.107842 0.442577 0.557234
O O12 0.095217 0.318822 0.490002
O O13 0.222711 0.367384 0.361587
O O14 0.500000 0.257260 0.168206
O O15 0.665932 0.278161 0.188879
#
# Coordination Sequence:
#
# PCOD9353064 Si02
#       7
#     8   8   8   8   8   8   8
#     4  12  18  36  62  91 124 158 208 253 316 394
#     4  11  21  38  69  89 117 162 218 257 315 383
#     4  12  22  34  56  94 134 163 195 261 333 380
#     4  11  20  39  69  93 122 164 216 260 321 391
#     4  11  17  36  69  97 113 150 217 270 308 375
#     4  12  26  43  60  91 132 169 212 272 314 359
#     4  11  22  42  65  91 118 174 220 251 299 400
#
# _framework density 21.637111999999998
#
# number of rings (size 3 to 8) (size 9 to 14) (size 15 to 20)
#    0.000    0.571    8.571    1.714    0.000    0.000 
#    0.000    7.857    0.000    0.000    0.000    0.000 
#    0.000    0.000    0.000    0.000    0.000    0.000 
#
# Total GULP energy -155900.264825 kJ/mol
# GULP energy per Si atom -5567.866601 kJ/mol
# Density = 2.158787 g / cm^3
# Si number density = 21.637112 Si / 1000 Ang^3
#
#
#
# Elastic Constant Matrix: (Units=GPa)
#
#
# Indices 1 2 3 4 5 6 
#
# 1 79.6501 4.7817 12.1958 0.0000 0.0000 0.0000
# 2 4.7817 66.9601 3.2050 0.0000 0.0000 0.0000
# 3 12.1958 3.2050 78.1569 0.0000 0.0000 0.0000
# 4 0.0000 0.0000 0.0000 21.6972 0.0000 0.0000
# 5 0.0000 0.0000 0.0000 0.0000 11.7142 0.0000
# 6 0.0000 0.0000 0.0000 0.0000 0.0000 8.6934
#
#
#
# Elastic Compliance Matrix: (Units=1/GPa)
#
#
# Indices 1 2 3 4 5 6 
#
# 1 0.012908 -0.000827 -0.001980 0.000000 0.000000 0.000000
# 2 -0.000827 0.015017 -0.000487 0.000000 0.000000 0.000000
# 3 -0.001980 -0.000487 0.013124 0.000000 0.000000 0.000000
# 4 0.000000 0.000000 0.000000 0.046089 0.000000 0.000000
# 5 0.000000 0.000000 0.000000 0.000000 0.085366 0.000000
# 6 0.000000 0.000000 0.000000 0.000000 0.000000 0.115029
#
#
# Mechanical properties :
#
#
# Convention : Reuss Voigt Hill
#
# Bulk Modulus (GPa) = 29.01899 29.45911 29.23905
# Shear Modulus (GPa) = 16.36088 22.05995 19.21041
#
# Velocity S-wave (km/s) = 2.75280 3.19649 2.98291
# Velocity P-wave (km/s) = 4.85228 5.22188 5.04047
#
# Compressibility (1/GPa) = 0.03446019
#
# Stress axis : x y z
#
# Youngs Moduli (GPa) = 77.47270 66.59293 76.19780
#
# Poissons Ratio (x) = 0.05507 0.15089
# Poissons Ratio (y) = 0.06407 0.03709
# Poissons Ratio (z) = 0.15342 0.03241
#
# Static dielectric constant tensor:
#      x y z
#    x 1.778000 0.000000 0.000000 
#    y 0.000000 1.855250 0.000000 
#    z 0.000000 0.000000 1.869910 
# 
# From -- ./inp_files/4875.got.cif
#   From: 2010.05.17/outbox.cif.g08.bks.cpg/sg36_3_cif.got.tgz:4875.got - 2010.06.03 17:41:39.
