data_PCOD9353016
_publ_section_title
;
Structure prediction by ZEFSAII (Michael W. Deem and Ramdas Pophale) SiO2 
 PCOD9353016
Probable space group: C M C 21
;
_chemical_formula_sum "Si O2"
_cell_formula_units_Z 52
_cell_length_a 7.498748
_cell_length_b 14.948737
_cell_length_c 17.831203
_cell_angle_alpha 90.000000
_cell_angle_beta 90.000000
_cell_angle_gamma 90.000000
_cell_volume 1998.821005
_symmetry_space_group_name_H-M "C M C 21"
_symmetry_group_IT_number 36
_symmetry_cell_setting 'orthorhombic'
loop_
_space_group_symop_operation_xyz
x,y,z
-x,-y,1/2+z
x,-y,1/2+z
-x,y,z
1/2+x,1/2+y,z
1/2-x,1/2-y,1/2+z
1/2+x,1/2-y,1/2+z
1/2-x,1/2+y,z
loop_
_atom_site_type_symbol
_atom_site_label
_atom_site_fract_x
_atom_site_fract_y
_atom_site_fract_z
Si Si1 0.701147 0.613545 0.750000
Si Si2 0.298051 0.182379 0.591179
Si Si3 0.715298 0.569246 0.310456
Si Si4 0.000000 0.389416 0.449675
Si Si5 0.797453 0.993794 0.016384
Si Si6 0.299219 0.253766 0.867020
Si Si7 0.714023 0.368524 0.645026
O O1 0.500000 0.589321 0.725162
O O2 0.800824 0.639684 0.674665
O O3 0.783697 0.531067 0.796438
O O4 0.694746 0.695381 0.807102
O O5 0.500000 0.194642 0.563654
O O6 0.211941 0.278949 0.607099
O O7 0.208737 0.110329 0.537443
O O8 0.500000 0.557380 0.319767
O O9 0.768157 0.644697 0.370879
O O10 0.763598 0.615224 0.230629
O O11 0.844206 0.466203 0.459752
O O12 0.843521 0.309740 0.437023
O O13 0.745155 0.047190 0.092946
O O14 0.000000 0.017205 0.995296
O O15 0.500000 0.260937 0.831983
O O16 0.500000 0.359052 0.646181
#
# Coordination Sequence:
#
# PCOD9353016 Si02
#       7
#     8   8   8   4   8   8   8
#     4  11  20  32  58  95 124 151 200 258 319 373
#     4  11  20  35  61  93 130 164 197 256 325 379
#     4   9  16  32  57  86 117 155 193 249 317 370
#     4  10  24  44  66  84 120 176 222 246 312 382
#     4  11  22  42  64  90 123 166 210 263 308 377
#     4   9  20  40  61  77 115 160 208 248 306 376
#     4   9  18  33  60  90 123 158 198 253 323 369
#
# _framework density 26.015336000000001
#
# number of rings (size 3 to 8) (size 9 to 14) (size 15 to 20)
#    0.462    1.538    3.846    0.923    0.000    0.615 
#    2.769    4.615    0.000    0.000    0.000    0.000 
#    0.000    0.000    0.000    0.000    0.000    0.000 
#
# Total GULP energy -144737.104994 kJ/mol
# GULP energy per Si atom -5566.811731 kJ/mol
# Density = 2.595612 g / cm^3
# Si number density = 26.015336 Si / 1000 Ang^3
#
#
#
# Elastic Constant Matrix: (Units=GPa)
#
#
# Indices 1 2 3 4 5 6 
#
# 1 86.1955 -15.8439 -7.1299 0.0000 0.0000 0.0000
# 2 -15.8439 125.9927 15.8269 0.0000 0.0000 0.0000
# 3 -7.1299 15.8269 103.8191 0.0000 0.0000 0.0000
# 4 0.0000 0.0000 0.0000 34.3125 0.0000 0.0000
# 5 0.0000 0.0000 0.0000 0.0000 28.7730 0.0000
# 6 0.0000 0.0000 0.0000 0.0000 0.0000 8.9195
#
#
#
# Elastic Compliance Matrix: (Units=1/GPa)
#
#
# Indices 1 2 3 4 5 6 
#
# 1 0.011913 0.001423 0.000601 0.000000 0.000000 0.000000
# 2 0.001423 0.008262 -0.001162 0.000000 0.000000 0.000000
# 3 0.000601 -0.001162 0.009851 0.000000 0.000000 0.000000
# 4 0.000000 0.000000 0.000000 0.029144 0.000000 0.000000
# 5 0.000000 0.000000 0.000000 0.000000 0.034755 0.000000
# 6 0.000000 0.000000 0.000000 0.000000 0.000000 0.112113
#
#
# Mechanical properties :
#
#
# Convention : Reuss Voigt Hill
#
# Bulk Modulus (GPa) = 31.49695 33.52371 32.51033
# Shear Modulus (GPa) = 23.26704 35.94462 29.60583
#
# Velocity S-wave (km/s) = 2.99383 3.72112 3.37711
# Velocity P-wave (km/s) = 4.90755 5.60146 5.26595
#
# Compressibility (1/GPa) = 0.03174910
#
# Stress axis : x y z
#
# Youngs Moduli (GPa) = 83.94367 121.03908 101.51724
#
# Poissons Ratio (x) = -0.17218 -0.06104
# Poissons Ratio (y) = -0.11941 0.11794
# Poissons Ratio (z) = -0.05047 0.14062
#
# Static dielectric constant tensor:
#      x y z
#    x 1.941470 0.000000 0.000000 
#    y 0.000000 2.086270 0.000000 
#    z 0.000000 0.000000 2.098680 
# 
# From -- ./inp_files/15399.got.cif
#   From: 2010.05.17/outbox.cif.g08.bks.cpg/sg36_8_cif.got.tgz:15399.got - 2010.06.03 17:41:39.
