data_PCOD9353941
_publ_section_title
;
Structure prediction by ZEFSAII (Michael W. Deem and Ramdas Pophale) SiO2 
 PCOD9353941
Probable space group: C C C 2
;
_chemical_formula_sum "Si O2"
_cell_formula_units_Z 40
_cell_length_a 14.207015
_cell_length_b 13.802248
_cell_length_c 9.498353
_cell_angle_alpha 90.000000
_cell_angle_beta 90.000000
_cell_angle_gamma 90.000000
_cell_volume 1862.520113
_symmetry_space_group_name_H-M "C C C 2"
_symmetry_group_IT_number 37
_symmetry_cell_setting 'orthorhombic'
loop_
_space_group_symop_operation_xyz
x,y,z
-x,-y,z
-x,y,1/2+z
x,-y,1/2+z
1/2+x,1/2+y,z
1/2-x,1/2-y,z
1/2-x,1/2+y,1/2+z
1/2+x,1/2-y,1/2+z
loop_
_atom_site_type_symbol
_atom_site_label
_atom_site_fract_x
_atom_site_fract_y
_atom_site_fract_z
Si Si1 0.117335 0.419611 0.524640
Si Si2 0.453826 0.750651 0.234144
Si Si3 0.347836 0.872248 0.465227
Si Si4 0.656802 0.205691 0.766018
Si Si5 0.281900 0.362325 0.708739
O O1 0.063396 0.340453 0.623212
O O2 0.093804 0.532130 0.505702
O O3 0.122076 0.378633 0.368034
O O4 0.222719 0.420367 0.593705
O O5 0.411241 0.795400 0.378875
O O6 0.563914 0.729562 0.247463
O O7 0.393093 0.654894 0.198421
O O8 0.314905 0.831103 0.612875
O O9 0.261109 0.893893 0.359382
O O10 0.750000 0.250000 0.833994
O O11 0.250000 0.250000 0.691983
#
# Coordination Sequence:
#
# PCOD9353941 Si02
#       5
#     8   8   8   8   8
#     4  10  20  34  55  81 107 133 168 219 273 314
#     4  10  21  36  53  74 110 148 170 205 269 321
#     4  10  20  34  55  81 107 133 168 219 273 314
#     4  12  22  33  54  81 103 136 188 226 244 297
#     4   8  17  37  53  70 108 147 164 195 269 330
#
# _framework density 21.476278000000001
#
# number of rings (size 3 to 8) (size 9 to 14) (size 15 to 20)
#    0.000    2.400    0.000    7.200    0.000    4.800 
#    0.000    0.000    0.000    7.200    0.000    0.000 
#    0.000    0.000    0.000    0.000    0.000    0.000 
#
# Total GULP energy -111475.469504 kJ/mol
# GULP energy per Si atom -5573.773475 kJ/mol
# Density = 2.142740 g / cm^3
# Si number density = 21.476278 Si / 1000 Ang^3
#
#
#
# Elastic Constant Matrix: (Units=GPa)
#
#
# Indices 1 2 3 4 5 6 
#
# 1 116.9435 2.3997 -19.5709 0.0000 0.0000 0.0000
# 2 2.3997 19.9990 -4.9466 0.0000 0.0000 0.0000
# 3 -19.5709 -4.9466 102.3008 0.0000 0.0000 0.0000
# 4 0.0000 0.0000 0.0000 66.7112 0.0000 0.0000
# 5 0.0000 0.0000 0.0000 0.0000 8.7535 0.0000
# 6 0.0000 0.0000 0.0000 0.0000 0.0000 17.6975
#
#
#
# Elastic Compliance Matrix: (Units=1/GPa)
#
#
# Indices 1 2 3 4 5 6 
#
# 1 0.008842 -0.000650 0.001660 0.000000 0.000000 0.000000
# 2 -0.000650 0.050656 0.002325 0.000000 0.000000 0.000000
# 3 0.001660 0.002325 0.010205 0.000000 0.000000 0.000000
# 4 0.000000 0.000000 0.000000 0.014990 0.000000 0.000000
# 5 0.000000 0.000000 0.000000 0.000000 0.114240 0.000000
# 6 0.000000 0.000000 0.000000 0.000000 0.000000 0.056505
#
#
# Mechanical properties :
#
#
# Convention : Reuss Voigt Hill
#
# Bulk Modulus (GPa) = 13.09372 21.66752 17.38062
# Shear Modulus (GPa) = 18.23316 36.05654 27.14485
#
# Velocity S-wave (km/s) = 2.91691 4.10188 3.55906
# Velocity P-wave (km/s) = 4.17786 5.70481 4.99997
#
# Compressibility (1/GPa) = 0.07637250
#
# Stress axis : x y z
#
# Youngs Moduli (GPa) = 113.09259 19.74117 97.99012
#
# Poissons Ratio (x) = 0.01284 -0.16268
# Poissons Ratio (y) = 0.07355 -0.22782
# Poissons Ratio (z) = -0.18775 -0.04590
#
# Static dielectric constant tensor:
#      x y z
#    x 1.998680 0.000000 0.000000 
#    y 0.000000 1.790990 0.000000 
#    z 0.000000 0.000000 1.770310 
# 
# From -- ./inp_files/3323.got.cif
#   From: 2010.05.17/outbox.cif.g08.bks.cpg/sg37_2_cif.got.tgz:3323.got - 2010.06.03 17:53:42.
