data_PCOD9353490
_publ_section_title
;
Structure prediction by ZEFSAII (Michael W. Deem and Ramdas Pophale) SiO2 
 PCOD9353490
Probable space group: C C C 2
;
_chemical_formula_sum "Si O2"
_cell_formula_units_Z 64
_cell_length_a 17.614751
_cell_length_b 17.057057
_cell_length_c 9.613553
_cell_angle_alpha 90.000000
_cell_angle_beta 90.000000
_cell_angle_gamma 90.000000
_cell_volume 2888.447871
_symmetry_space_group_name_H-M "C C C 2"
_symmetry_group_IT_number 37
_symmetry_cell_setting 'orthorhombic'
loop_
_space_group_symop_operation_xyz
x,y,z
-x,-y,z
-x,y,1/2+z
x,-y,1/2+z
1/2+x,1/2+y,z
1/2-x,1/2-y,z
1/2-x,1/2+y,1/2+z
1/2+x,1/2-y,1/2+z
loop_
_atom_site_type_symbol
_atom_site_label
_atom_site_fract_x
_atom_site_fract_y
_atom_site_fract_z
Si Si1 0.862476 0.464220 0.482090
Si Si2 0.161212 0.347533 0.234563
Si Si3 0.218638 0.934250 0.877611
Si Si4 0.548852 0.752562 0.106175
Si Si5 0.423950 0.695366 0.321289
Si Si6 0.437486 0.120708 0.496142
Si Si7 0.664110 0.845010 0.749881
Si Si8 0.324414 0.427592 0.684495
O O1 0.840414 0.415174 0.617731
O O2 0.789672 0.515260 0.436928
O O3 0.926905 0.527786 0.512748
O O4 0.876783 0.408010 0.350803
O O5 0.240134 0.357196 0.315625
O O6 0.133964 0.269270 0.158567
O O7 0.091318 0.361904 0.341221
O O8 0.184037 0.986443 0.753379
O O9 0.169462 0.923667 0.016875
O O10 0.493244 0.726072 0.227806
O O11 0.550476 0.692137 0.980056
O O12 0.513227 0.833650 0.041177
O O13 0.355926 0.760423 0.312907
O O14 0.393331 0.615879 0.258007
O O15 0.374610 0.155856 0.599944
O O16 0.748779 0.877470 0.727686
#
# Coordination Sequence:
#
# PCOD9353490 Si02
#       8
#     8   8   8   8   8   8   8   8
#     4  10  17  31  56  85 126 165 201 259 312 354
#     4  11  18  34  58  87 131 166 203 265 304 372
#     4  10  20  37  64  97 121 155 206 276 328 372
#     4  11  23  40  56  88 129 177 220 245 304 395
#     4  11  24  41  63  86 129 176 211 259 316 392
#     4  10  19  32  53  82 125 174 211 257 296 365
#     4  10  19  35  58  90 123 165 212 250 322 381
#     4  11  21  40  68  93 125 157 211 276 332 386
#
# _framework density 22.157229999999998
#
# number of rings (size 3 to 8) (size 9 to 14) (size 15 to 20)
#    0.000    1.500    6.250    1.875    0.000    0.500 
#    0.000    3.750    0.000    8.250    0.000    0.000 
#    0.000    0.000    0.000    0.000    0.000    0.000 
#
# Total GULP energy -178656.401765 kJ/mol
# GULP energy per Si atom -5583.012555 kJ/mol
# Density = 2.210680 g / cm^3
# Si number density = 22.157230 Si / 1000 Ang^3
#
#
#
# Elastic Constant Matrix: (Units=GPa)
#
#
# Indices 1 2 3 4 5 6 
#
# 1 24.2409 19.5304 18.8412 0.0000 0.0000 0.0000
# 2 19.5304 32.5360 9.3092 0.0000 0.0000 0.0000
# 3 18.8412 9.3092 123.9267 0.0000 0.0000 0.0000
# 4 0.0000 0.0000 0.0000 65.7298 0.0000 0.0000
# 5 0.0000 0.0000 0.0000 0.0000 14.0595 0.0000
# 6 0.0000 0.0000 0.0000 0.0000 0.0000 26.7938
#
#
#
# Elastic Compliance Matrix: (Units=1/GPa)
#
#
# Indices 1 2 3 4 5 6 
#
# 1 0.090343 -0.051405 -0.009874 0.000000 0.000000 0.000000
# 2 -0.051405 0.060660 0.003259 0.000000 0.000000 0.000000
# 3 -0.009874 0.003259 0.009326 0.000000 0.000000 0.000000
# 4 0.000000 0.000000 0.000000 0.015214 0.000000 0.000000
# 5 0.000000 0.000000 0.000000 0.000000 0.071126 0.000000
# 6 0.000000 0.000000 0.000000 0.000000 0.000000 0.037322
#
#
# Mechanical properties :
#
#
# Convention : Reuss Voigt Hill
#
# Bulk Modulus (GPa) = 22.57946 30.67390 26.62668
# Shear Modulus (GPa) = 12.05420 30.18481 21.11951
#
# Velocity S-wave (km/s) = 2.33498 3.69494 3.09069
# Velocity P-wave (km/s) = 4.18117 5.66368 4.97792
#
# Compressibility (1/GPa) = 0.04428803
#
# Stress axis : x y z
#
# Youngs Moduli (GPa) = 11.06894 16.48546 107.23101
#
# Poissons Ratio (x) = 0.84743 1.05878
# Poissons Ratio (y) = 0.56900 -0.34943
# Poissons Ratio (z) = 0.10929 -0.05372
#
# Static dielectric constant tensor:
#      x y z
#    x 1.825090 0.000000 0.000000 
#    y 0.000000 1.815060 0.000000 
#    z 0.000000 0.000000 1.825880 
# 
# From -- ./inp_files/4447.got.cif
#   From: 2010.05.17/outbox.cif.g08.bks.cpg/sg37_3_cif.got.tgz:4447.got - 2010.06.03 17:53:42.
