data_PCOD9353780
_publ_section_title
;
Structure prediction by ZEFSAII (Michael W. Deem and Ramdas Pophale) SiO2 
 PCOD9353780
Probable space group: C C C 2
;
_chemical_formula_sum "Si O2"
_cell_formula_units_Z 40
_cell_length_a 14.382295
_cell_length_b 9.932786
_cell_length_c 13.545998
_cell_angle_alpha 90.000000
_cell_angle_beta 90.000000
_cell_angle_gamma 90.000000
_cell_volume 1935.130591
_symmetry_space_group_name_H-M "C C C 2"
_symmetry_group_IT_number 37
_symmetry_cell_setting 'orthorhombic'
loop_
_space_group_symop_operation_xyz
x,y,z
-x,-y,z
-x,y,1/2+z
x,-y,1/2+z
1/2+x,1/2+y,z
1/2-x,1/2-y,z
1/2-x,1/2+y,1/2+z
1/2+x,1/2-y,1/2+z
loop_
_atom_site_type_symbol
_atom_site_label
_atom_site_fract_x
_atom_site_fract_y
_atom_site_fract_z
Si Si1 0.648188 0.741069 0.356960
Si Si2 0.209413 0.105886 0.024041
Si Si3 0.839438 0.544369 0.845204
Si Si4 0.163503 0.981203 0.224089
Si Si5 0.053126 0.809684 0.369166
O O1 0.750000 0.750000 0.407981
O O2 0.660778 0.631343 0.270988
O O3 0.553067 0.688948 0.405537
O O4 0.629513 0.893230 0.322619
O O5 0.250000 0.250000 0.061499
O O6 0.176475 0.005614 0.108930
O O7 0.289452 0.047501 0.952521
O O8 0.377277 0.362385 0.952875
O O9 0.757738 0.582432 0.768954
O O10 0.917325 0.656984 0.846098
O O11 0.078917 0.896117 0.271079
#
# Coordination Sequence:
#
# PCOD9353780 Si02
#       5
#     8   8   8   8   8
#     4  10  20  36  57  80 113 150 189 238 285 328
#     4   9  18  35  60  85 115 154 188 230 289 344
#     4   9  19  36  60  84 114 150 186 234 286 343
#     4  10  19  36  58  83 116 149 186 233 288 347
#     4  10  20  37  59  86 115 151 195 233 282 340
#
# _framework density 20.670439999999999
#
# number of rings (size 3 to 8) (size 9 to 14) (size 15 to 20)
#    0.000    2.400    0.000    4.800    0.000    0.000 
#    0.000   24.000    0.000    9.600    0.000    0.000 
#    0.000    0.000    0.000    0.000    0.000    0.000 
#
# Total GULP energy -111452.210933 kJ/mol
# GULP energy per Si atom -5572.610547 kJ/mol
# Density = 2.062339 g / cm^3
# Si number density = 20.670440 Si / 1000 Ang^3
#
#
#
# Elastic Constant Matrix: (Units=GPa)
#
#
# Indices 1 2 3 4 5 6 
#
# 1 143.1548 28.9984 31.1614 0.0000 0.0000 0.0000
# 2 28.9984 111.4716 22.3843 0.0000 0.0000 0.0000
# 3 31.1614 22.3843 59.3438 0.0000 0.0000 0.0000
# 4 0.0000 0.0000 0.0000 19.6348 0.0000 0.0000
# 5 0.0000 0.0000 0.0000 0.0000 2.5125 0.0000
# 6 0.0000 0.0000 0.0000 0.0000 0.0000 27.9041
#
#
#
# Elastic Compliance Matrix: (Units=1/GPa)
#
#
# Indices 1 2 3 4 5 6 
#
# 1 0.008071 -0.001351 -0.003728 0.000000 0.000000 0.000000
# 2 -0.001351 0.009932 -0.003037 0.000000 0.000000 0.000000
# 3 -0.003728 -0.003037 0.019954 0.000000 0.000000 0.000000
# 4 0.000000 0.000000 0.000000 0.050930 0.000000 0.000000
# 5 0.000000 0.000000 0.000000 0.000000 0.398011 0.000000
# 6 0.000000 0.000000 0.000000 0.000000 0.000000 0.035837
#
#
# Mechanical properties :
#
#
# Convention : Reuss Voigt Hill
#
# Bulk Modulus (GPa) = 46.03079 53.22872 49.62976
# Shear Modulus (GPa) = 9.15400 25.43868 17.29634
#
# Velocity S-wave (km/s) = 2.10669 3.51191 2.89583
# Velocity P-wave (km/s) = 5.31364 6.50013 5.93660
#
# Compressibility (1/GPa) = 0.02172459
#
# Stress axis : x y z
#
# Youngs Moduli (GPa) = 123.90567 100.68300 50.11455
#
# Poissons Ratio (x) = 0.13601 0.18685
# Poissons Ratio (y) = 0.16738 0.15220
# Poissons Ratio (z) = 0.46197 0.30578
#
# Static dielectric constant tensor:
#      x y z
#    x 1.790990 0.000000 0.000000 
#    y 0.000000 1.773260 0.000000 
#    z 0.000000 0.000000 1.714540 
# 
# From -- ./inp_files/12026.got.cif
#   From: 2010.05.17/outbox.cif.g08.bks.cpg/sg37_7_cif.got.tgz:12026.got - 2010.06.03 17:53:42.
