data_PCOD9353815
_publ_section_title
;
Structure prediction by ZEFSAII (Michael W. Deem and Ramdas Pophale) SiO2 
 PCOD9353815
Probable space group: C C C 2
;
_chemical_formula_sum "Si O2"
_cell_formula_units_Z 60
_cell_length_a 11.965749
_cell_length_b 18.212747
_cell_length_c 11.405863
_cell_angle_alpha 90.000000
_cell_angle_beta 90.000000
_cell_angle_gamma 90.000000
_cell_volume 2485.670134
_symmetry_space_group_name_H-M "C C C 2"
_symmetry_group_IT_number 37
_symmetry_cell_setting 'orthorhombic'
loop_
_space_group_symop_operation_xyz
x,y,z
-x,-y,z
-x,y,1/2+z
x,-y,1/2+z
1/2+x,1/2+y,z
1/2-x,1/2-y,z
1/2-x,1/2+y,1/2+z
1/2+x,1/2-y,1/2+z
loop_
_atom_site_type_symbol
_atom_site_label
_atom_site_fract_x
_atom_site_fract_y
_atom_site_fract_z
Si Si1 0.750000 0.750000 0.051111
Si Si2 0.544483 0.067881 0.060405
Si Si3 0.554048 0.579711 0.421973
Si Si4 0.269637 0.894037 0.235881
Si Si5 0.072374 0.694232 0.405463
Si Si6 0.657668 0.195353 0.782133
Si Si7 0.482495 0.410494 0.673671
Si Si8 0.708090 0.961464 0.379990
O O1 0.699564 0.806362 0.147238
O O2 0.859914 0.758743 0.971314
O O3 0.642179 0.108719 0.130855
O O4 0.500000 0.000000 0.141129
O O5 0.476489 0.132573 0.995971
O O6 0.610212 0.016555 0.966877
O O7 0.500000 0.500000 0.405426
O O8 0.498270 0.613598 0.538529
O O9 0.551365 0.613377 0.290187
O O10 0.681666 0.560883 0.450964
O O11 0.327670 0.843808 0.333204
O O12 0.141695 0.881062 0.202845
O O13 0.265370 0.975925 0.288763
O O14 0.968387 0.716326 0.321283
O O15 0.750000 0.250000 0.839579
O O16 0.667691 0.112542 0.821591
O O17 0.500000 0.500000 0.666079
#
# Coordination Sequence:
#
# PCOD9353815 Si02
#       8
#     4   8   8   8   8   8   8   8
#     4  10  24  52  74  96 140 194 248 312 354 444
#     4  11  24  36  65 104 144 179 220 295 379 446
#     4  10  19  37  54  86 133 188 224 277 341 423
#     4  12  23  37  66 107 141 181 229 300 374 445
#     4  11  24  46  74 104 141 185 250 306 373 451
#     4   9  24  47  71  97 135 189 244 301 358 436
#     4  10  20  37  56  86 142 186 226 276 344 440
#     4  11  21  40  64  99 137 180 232 289 366 436
#
# _framework density 24.138359999999999
#
# number of rings (size 3 to 8) (size 9 to 14) (size 15 to 20)
#    0.400    1.067    5.333    0.800    5.600    0.000 
#    4.800    0.000   13.200    0.000    0.000    0.000 
#    0.000    0.000    0.000    0.000    0.000    0.000 
#
# Total GULP energy -167042.520935 kJ/mol
# GULP energy per Si atom -5568.084031 kJ/mol
# Density = 2.408342 g / cm^3
# Si number density = 24.138360 Si / 1000 Ang^3
#
#
#
# Elastic Constant Matrix: (Units=GPa)
#
#
# Indices 1 2 3 4 5 6 
#
# 1 127.9622 31.5822 32.0461 0.0000 0.0000 0.0000
# 2 31.5822 62.1130 15.3354 0.0000 0.0000 0.0000
# 3 32.0461 15.3354 99.3890 0.0000 0.0000 0.0000
# 4 0.0000 0.0000 0.0000 6.1342 0.0000 0.0000
# 5 0.0000 0.0000 0.0000 0.0000 48.2178 0.0000
# 6 0.0000 0.0000 0.0000 0.0000 0.0000 23.7154
#
#
#
# Elastic Compliance Matrix: (Units=1/GPa)
#
#
# Indices 1 2 3 4 5 6 
#
# 1 0.009456 -0.004216 -0.002398 0.000000 0.000000 0.000000
# 2 -0.004216 0.018617 -0.001513 0.000000 0.000000 0.000000
# 3 -0.002398 -0.001513 0.011068 0.000000 0.000000 0.000000
# 4 0.000000 0.000000 0.000000 0.163020 0.000000 0.000000
# 5 0.000000 0.000000 0.000000 0.000000 0.020739 0.000000
# 6 0.000000 0.000000 0.000000 0.000000 0.000000 0.042167
#
#
# Mechanical properties :
#
#
# Convention : Reuss Voigt Hill
#
# Bulk Modulus (GPa) = 43.69444 49.71020 46.70232
# Shear Modulus (GPa) = 17.30396 29.64684 23.47540
#
# Velocity S-wave (km/s) = 2.68034 3.50838 3.12193
# Velocity P-wave (km/s) = 5.26497 6.08689 5.69079
#
# Compressibility (1/GPa) = 0.02288621
#
# Stress axis : x y z
#
# Youngs Moduli (GPa) = 105.75339 53.71460 90.34831
#
# Poissons Ratio (x) = 0.22645 0.21669
# Poissons Ratio (y) = 0.44584 0.13672
# Poissons Ratio (z) = 0.25364 0.08128
#
# Static dielectric constant tensor:
#      x y z
#    x 1.430660 0.000000 0.000000 
#    y 0.000000 1.946990 0.000000 
#    z 0.000000 0.000000 2.015950 
# 
# From -- ./inp_files/7349.got.cif
#   From: 2010.05.17/outbox.cif.g08.bks.cpg/sg37_4_cif.got.tgz:7349.got - 2010.06.03 17:53:42.
