data_PCOD9353399
_publ_section_title
;
Structure prediction by ZEFSAII (Michael W. Deem and Ramdas Pophale) SiO2 
 PCOD9353399
Probable space group: C M C 21
;
_chemical_formula_sum "Si O2"
_cell_formula_units_Z 32
_cell_length_a 21.000000
_cell_length_b 18.000000
_cell_length_c 9.000000
_cell_angle_alpha 90.000000
_cell_angle_beta 90.000000
_cell_angle_gamma 90.000000
_cell_volume 3402.000000
_symmetry_space_group_name_H-M "C M C 21"
_symmetry_group_IT_number 36
_symmetry_cell_setting 'orthorhombic'
loop_
_space_group_symop_operation_xyz
x,y,z
-x,-y,1/2+z
x,-y,1/2+z
-x,y,z
1/2+x,1/2+y,z
1/2-x,1/2-y,1/2+z
1/2+x,1/2-y,1/2+z
1/2-x,1/2+y,z
loop_
_atom_site_type_symbol
_atom_site_label
_atom_site_fract_x
_atom_site_fract_y
_atom_site_fract_z
Si Si1 0.806007 0.329839 0.919990
Si Si2 0.580071 0.349389 0.069505
Si Si3 0.629910 0.183248 0.119039
Si Si4 0.339553 0.941142 0.149163
Si Si5 0.807846 0.052562 0.741006
Si Si6 0.225221 0.833290 0.499799
Si Si7 0.669995 0.383710 0.809434
Si Si8 0.923929 0.449022 0.445791
O O1 0.852724 0.346894 0.783251
O O2 0.796744 0.242297 0.923443
O O3 0.735800 0.365084 0.897152
O O4 0.833785 0.360824 0.072427
O O5 0.500000 0.360177 0.081319
O O6 0.600195 0.265944 0.120273
O O7 0.632519 0.404666 0.156117
O O8 0.608025 0.356937 0.900774
O O9 0.699956 0.178194 0.039948
O O10 0.582634 0.128015 0.035365
O O11 0.263911 0.962730 0.169612
O O12 0.382950 0.939985 0.295266
O O13 0.380269 0.992992 0.038393
O O14 0.788368 0.101007 0.884643
O O15 0.833314 0.971914 0.786075
O O16 0.184725 0.847011 0.649494
O O17 0.000000 0.467567 0.427400
#
# Coordination Sequence:
#
# PCOD9353399 Si02
#       8
#     8   8   8   8   8   8   8   8
#     4  11  23  40  69 103 132 174 225 287 329 392
#     4  12  26  44  67  96 136 182 225 282 354 409
#     4  11  22  42  66  98 134 180 223 269 339 407
#     4  12  24  42  70 103 136 177 230 275 326 399
#     4  12  23  45  69 103 131 172 234 285 342 401
#     4  11  22  40  70 102 132 169 228 288 335 393
#     4  11  24  40  68 100 132 169 224 289 341 403
#     4  12  26  43  67 101 145 185 219 269 336 412
#
# _framework density 9.4062319999999993
#
# number of rings (size 3 to 8) (size 9 to 14) (size 15 to 20)
#    0.000    0.500    5.000    4.500    3.500    0.500 
#    0.000    2.500    0.000    0.000    0.000    0.000 
#    0.000    0.000    0.000    0.000    0.000    0.000 
#
# Total GULP energy -178468.123422 kJ/mol
# GULP energy per Si atom -5577.128857 kJ/mol
# Density = 0.938482 g / cm^3
# Si number density = 9.406232 Si / 1000 Ang^3
#
#
#
# Elastic Constant Matrix: (Units=GPa)
#
#
# Indices 1 2 3 4 5 6 
#
# 1 150.0053 12.9612 41.8211 0.0000 0.0000 0.0000
# 2 12.9612 60.1535 -2.2448 0.0000 0.0000 0.0000
# 3 41.8211 -2.2448 80.0238 0.0000 0.0000 0.0000
# 4 0.0000 0.0000 0.0000 34.7501 0.0000 0.0000
# 5 0.0000 0.0000 0.0000 0.0000 33.9508 0.0000
# 6 0.0000 0.0000 0.0000 0.0000 0.0000 22.2409
#
#
#
# Elastic Compliance Matrix: (Units=1/GPa)
#
#
# Indices 1 2 3 4 5 6 
#
# 1 0.008011 -0.001884 -0.004240 0.000000 0.000000 0.000000
# 2 -0.001884 0.017085 0.001464 0.000000 0.000000 0.000000
# 3 -0.004240 0.001464 0.014753 0.000000 0.000000 0.000000
# 4 0.000000 0.000000 0.000000 0.028777 0.000000 0.000000
# 5 0.000000 0.000000 0.000000 0.000000 0.029454 0.000000
# 6 0.000000 0.000000 0.000000 0.000000 0.000000 0.044962
#
#
# Mechanical properties :
#
#
# Convention : Reuss Voigt Hill
#
# Bulk Modulus (GPa) = 32.75553 43.91751 38.33652
# Shear Modulus (GPa) = 30.76187 34.03136 32.39662
#
# Velocity S-wave (km/s) = 4.04813 4.25782 4.15430
# Velocity P-wave (km/s) = 6.26891 6.89693 6.59041
#
# Compressibility (1/GPa) = 0.03052919
#
# Stress axis : x y z
#
# Youngs Moduli (GPa) = 124.82457 58.53154 67.78277
#
# Poissons Ratio (x) = 0.11030 0.28737
# Poissons Ratio (y) = 0.23522 -0.09924
# Poissons Ratio (z) = 0.52921 -0.08569
#
# Static dielectric constant tensor:
#      x y z
#    x 1.630430 0.000000 0.000000 
#    y 0.000000 1.671570 0.000000 
#    z 0.000000 0.000000 1.720010 
# 
# From -- ./inp_files/5324.got.cif
#   From: 2010.05.17/outbox.ucp.g08.bks.cvg/sg36_3_cif.got.tgz:5324.got - 2010.06.11 10:37:26.
