data_PCOD9353319
_publ_section_title
;
Structure prediction by ZEFSAII (Michael W. Deem and Ramdas Pophale) SiO2 
 PCOD9353319
Probable space group: C M C 21
;
_chemical_formula_sum "Si O2"
_cell_formula_units_Z 32
_cell_length_a 9.000000
_cell_length_b 30.000000
_cell_length_c 12.000000
_cell_angle_alpha 90.000000
_cell_angle_beta 90.000000
_cell_angle_gamma 90.000000
_cell_volume 3240.000000
_symmetry_space_group_name_H-M "C M C 21"
_symmetry_group_IT_number 36
_symmetry_cell_setting 'orthorhombic'
loop_
_space_group_symop_operation_xyz
x,y,z
-x,-y,1/2+z
x,-y,1/2+z
-x,y,z
1/2+x,1/2+y,z
1/2-x,1/2-y,1/2+z
1/2+x,1/2-y,1/2+z
1/2-x,1/2+y,z
loop_
_atom_site_type_symbol
_atom_site_label
_atom_site_fract_x
_atom_site_fract_y
_atom_site_fract_z
Si Si1 0.676865 0.566870 0.907780
Si Si2 0.327953 0.726271 0.184162
Si Si3 0.324752 0.179826 0.631304
Si Si4 0.324357 0.021912 0.469365
Si Si5 0.320393 0.636795 0.082592
Si Si6 0.322433 0.583835 0.655819
Si Si7 0.677520 0.092562 0.293854
Si Si8 0.671643 0.326474 0.913579
O O1 0.500000 0.559878 0.918436
O O2 0.759466 0.527336 0.970529
O O3 0.716321 0.566151 0.778471
O O4 0.709802 0.614622 0.963889
O O5 0.500000 0.732990 0.149307
O O6 0.266407 0.776028 0.193170
O O7 0.265832 0.687445 0.103326
O O8 0.326539 0.703594 0.304208
O O9 0.500000 0.172184 0.649368
O O10 0.238430 0.134133 0.651217
O O11 0.284801 0.191761 0.504133
O O12 0.500000 0.021637 0.488485
O O13 0.249499 0.053129 0.561633
O O14 0.297905 0.044145 0.347393
O O15 0.500000 0.636836 0.101933
O O16 0.245329 0.604623 0.174319
O O17 0.500000 0.583820 0.643365
O O18 0.500000 0.101268 0.294710
O O19 0.764434 0.125993 0.376092
O O20 0.500000 0.329653 0.952356
#
# Coordination Sequence:
#
# PCOD9353319 Si02
#       8
#     8   8   8   8   8   8   8   8
#     4  10  24  42  62  89 121 160 205 248 300 360
#     4   8  18  35  57  84 116 157 200 243 300 358
#     4  11  21  36  59  88 122 158 198 252 308 357
#     4  11  24  40  61  88 121 156 197 248 304 359
#     4   9  19  39  62  85 118 159 201 249 299 354
#     4  11  24  42  63  90 124 160 203 248 297 364
#     4  10  20  35  57  86 114 147 193 248 301 354
#     4  10  19  35  57  82 112 153 201 248 297 354
#
# _framework density 9.8765429999999999
#
# number of rings (size 3 to 8) (size 9 to 14) (size 15 to 20)
#    0.000    2.000    1.250    2.625    1.750    4.000 
#    0.000    7.500    0.000    0.000    0.000    0.000 
#    0.000    0.000    0.000    0.000    0.000    0.000 
#
# Total GULP energy -178411.080417 kJ/mol
# GULP energy per Si atom -5575.346263 kJ/mol
# Density = 0.985406 g / cm^3
# Si number density = 9.876543 Si / 1000 Ang^3
#
#
#
# Elastic Constant Matrix: (Units=GPa)
#
#
# Indices 1 2 3 4 5 6 
#
# 1 26.8427 25.1040 16.2955 0.0000 0.0000 0.0000
# 2 25.1040 117.8768 28.9248 0.0000 0.0000 0.0000
# 3 16.2955 28.9248 50.3418 0.0000 0.0000 0.0000
# 4 0.0000 0.0000 0.0000 14.0589 0.0000 0.0000
# 5 0.0000 0.0000 0.0000 0.0000 17.5096 0.0000
# 6 0.0000 0.0000 0.0000 0.0000 0.0000 22.7640
#
#
#
# Elastic Compliance Matrix: (Units=1/GPa)
#
#
# Indices 1 2 3 4 5 6 
#
# 1 0.052299 -0.008130 -0.012258 0.000000 0.000000 0.000000
# 2 -0.008130 0.011140 -0.003769 0.000000 0.000000 0.000000
# 3 -0.012258 -0.003769 0.025997 0.000000 0.000000 0.000000
# 4 0.000000 0.000000 0.000000 0.071129 0.000000 0.000000
# 5 0.000000 0.000000 0.000000 0.000000 0.057112 0.000000
# 6 0.000000 0.000000 0.000000 0.000000 0.000000 0.043929
#
#
# Mechanical properties :
#
#
# Convention : Reuss Voigt Hill
#
# Bulk Modulus (GPa) = 24.31745 37.30110 30.80928
# Shear Modulus (GPa) = 15.44989 19.18229 17.31609
#
# Velocity S-wave (km/s) = 2.79973 3.11963 2.96400
# Velocity P-wave (km/s) = 4.77376 5.64808 5.22922
#
# Compressibility (1/GPa) = 0.04112274
#
# Stress axis : x y z
#
# Youngs Moduli (GPa) = 19.12087 89.76897 38.46537
#
# Poissons Ratio (x) = 0.72984 0.47149
# Poissons Ratio (y) = 0.15546 0.14497
# Poissons Ratio (z) = 0.23438 0.33832
#
# Static dielectric constant tensor:
#      x y z
#    x 1.665920 0.000000 0.000000 
#    y 0.000000 1.715230 0.000000 
#    z 0.000000 0.000000 1.737080 
# 
# From -- ./inp_files/7135.got.cif
#   From: 2010.05.17/outbox.ucp.g08.bks.cvg/sg36_4_cif.got.tgz:7135.got - 2010.06.11 10:37:26.
