data_PCOD9353279
_publ_section_title
;
Structure prediction by ZEFSAII (Michael W. Deem and Ramdas Pophale) SiO2 
 PCOD9353279
Probable space group: C M C 21
;
_chemical_formula_sum "Si O2"
_cell_formula_units_Z 36
_cell_length_a 28.451207
_cell_length_b 4.674858
_cell_length_c 9.574371
_cell_angle_alpha 90.000000
_cell_angle_beta 90.000000
_cell_angle_gamma 90.000000
_cell_volume 1273.442591
_symmetry_space_group_name_H-M "C M C 21"
_symmetry_group_IT_number 36
_symmetry_cell_setting 'orthorhombic'
loop_
_space_group_symop_operation_xyz
x,y,z
-x,-y,1/2+z
x,-y,1/2+z
-x,y,z
1/2+x,1/2+y,z
1/2-x,1/2-y,1/2+z
1/2+x,1/2-y,1/2+z
1/2-x,1/2+y,z
loop_
_atom_site_type_symbol
_atom_site_label
_atom_site_fract_x
_atom_site_fract_y
_atom_site_fract_z
Si Si1 0.162684 0.572626 0.473950
Si Si2 0.918394 0.512882 0.648722
Si Si3 0.719045 0.739837 0.238400
Si Si4 0.580858 0.468834 0.345873
Si Si5 0.500000 0.131408 0.979114
O O1 0.126930 0.389758 0.571240
O O2 0.187221 0.375830 0.359290
O O3 0.126242 0.808093 0.411385
O O4 0.231215 0.908060 0.253003
O O5 0.941850 0.281882 0.750858
O O6 0.902936 0.789081 0.734586
O O7 0.958936 0.582717 0.541148
O O8 0.699360 0.798074 0.083852
O O9 0.541899 0.646648 0.429209
#
# Coordination Sequence:
#
# PCOD9353279 Si02
#       5
#     8   8   8   8   4
#     4  12  28  56  88 130 178 237 297 374 467 536
#     4  12  28  50  80 126 177 232 301 369 441 541
#     4  12  30  53  89 127 177 230 303 378 463 555
#     4  12  28  50  84 123 179 233 303 368 442 540
#     4  12  28  50  82 124 174 238 298 364 436 520
#
# _framework density 28.269825999999998
#
# number of rings (size 3 to 8) (size 9 to 14) (size 15 to 20)
#    0.000    0.000    2.222    5.333    3.111   11.556 
#    0.000    0.000    0.000    0.000    0.000    0.000 
#    0.000    0.000    0.000    0.000    0.000    0.000 
#
# Total GULP energy -100545.915034 kJ/mol
# GULP energy per Si atom -5585.884169 kJ/mol
# Density = 2.820548 g / cm^3
# Si number density = 28.269826 Si / 1000 Ang^3
#
#
#
# Elastic Constant Matrix: (Units=GPa)
#
#
# Indices 1 2 3 4 5 6 
#
# 1 136.0400 13.6214 38.7899 0.0000 0.0000 0.0000
# 2 13.6214 96.3557 21.0954 0.0000 0.0000 0.0000
# 3 38.7899 21.0954 117.6882 0.0000 0.0000 0.0000
# 4 0.0000 0.0000 0.0000 47.6070 0.0000 0.0000
# 5 0.0000 0.0000 0.0000 0.0000 -965.2365 0.0000
# 6 0.0000 0.0000 0.0000 0.0000 0.0000 45.2716
#
#
#
# Elastic Compliance Matrix: (Units=1/GPa)
#
#
# Indices 1 2 3 4 5 6 
#
# 1 0.008145 -0.000587 -0.002579 0.000000 0.000000 0.000000
# 2 -0.000587 0.010844 -0.001750 0.000000 0.000000 0.000000
# 3 -0.002579 -0.001750 0.009661 0.000000 0.000000 0.000000
# 4 0.000000 0.000000 0.000000 0.021005 0.000000 0.000000
# 5 0.000000 0.000000 0.000000 0.000000 -0.001036 0.000000
# 6 0.000000 0.000000 0.000000 0.000000 0.000000 0.022089
#
#
# Mechanical properties :
#
#
# Convention : Reuss Voigt Hill
#
# Bulk Modulus (GPa) = 53.14289 55.23304 54.18797
# Shear Modulus (GPa) = 57.59431 -156.03310 -49.21940
#
# Velocity S-wave (km/s) = 4.51855 -7.43734 -4.17713
# Velocity P-wave (km/s) = 6.78692 7.36015 2.01364
#
# Compressibility (1/GPa) = 0.01881719
#
# Stress axis : x y z
#
# Youngs Moduli (GPa) = 122.77454 92.21363 103.50928
#
# Poissons Ratio (x) = 0.05410 0.26699
# Poissons Ratio (y) = 0.07203 0.18119
# Poissons Ratio (z) = 0.31669 0.16142
#
# Static dielectric constant tensor:
#      x y z
#    x 2.641860 0.000000 0.000000 
#    y 0.000000 2.109750 0.000000 
#    z 0.000000 0.000000 2.351270 
# 
# From -- ./inp_files/9555.got.cif
#   From: 2010.05.17/outbox.cif.g08.bks.cpg/sg36_5_cif.got.tgz:9555.got - 2010.06.03 17:41:39.
