data_PCOD9353066
_publ_section_title
;
Structure prediction by ZEFSAII (Michael W. Deem and Ramdas Pophale) SiO2 
 PCOD9353066
Probable space group: C M C 21
;
_chemical_formula_sum "Si O2"
_cell_formula_units_Z 64
_cell_length_a 14.235361
_cell_length_b 11.690264
_cell_length_c 19.349600
_cell_angle_alpha 90.000000
_cell_angle_beta 90.000000
_cell_angle_gamma 90.000000
_cell_volume 3220.066165
_symmetry_space_group_name_H-M "C M C 21"
_symmetry_group_IT_number 36
_symmetry_cell_setting 'orthorhombic'
loop_
_space_group_symop_operation_xyz
x,y,z
-x,-y,1/2+z
x,-y,1/2+z
-x,y,z
1/2+x,1/2+y,z
1/2-x,1/2-y,1/2+z
1/2+x,1/2-y,1/2+z
1/2-x,1/2+y,z
loop_
_atom_site_type_symbol
_atom_site_label
_atom_site_fract_x
_atom_site_fract_y
_atom_site_fract_z
Si Si1 0.391989 0.469861 0.240160
Si Si2 0.601245 0.260781 0.345245
Si Si3 0.320216 0.536861 0.586029
Si Si4 0.104127 0.857069 0.955922
Si Si5 0.352623 0.322123 0.495426
Si Si6 0.655670 0.112936 0.932028
Si Si7 0.106609 0.433426 0.046718
Si Si8 0.251708 0.560497 0.344672
O O1 0.500000 0.511482 0.242613
O O2 0.388554 0.354141 0.285474
O O3 0.359652 0.449329 0.162282
O O4 0.317249 0.551250 0.278143
O O5 0.500000 0.202295 0.337463
O O6 0.601489 0.323632 0.419478
O O7 0.683299 0.168414 0.343350
O O8 0.357450 0.635236 0.534146
O O9 0.365261 0.423158 0.550599
O O10 0.205308 0.534957 0.585439
O O11 0.098926 0.729154 0.925795
O O12 0.179488 0.924368 0.910216
O O13 0.000000 0.907682 0.952778
O O14 0.244450 0.339175 0.474758
O O15 0.379702 0.199260 0.526196
O O16 0.692178 0.053530 0.862085
O O17 0.610429 0.013008 0.978180
O O18 0.000000 0.447861 0.076688
#
# Coordination Sequence:
#
# PCOD9353066 Si02
#       8
#     8   8   8   8   8   8   8   8
#     4  11  25  43  62  88 126 175 215 254 310 379
#     4  11  22  39  64  90 121 164 210 258 317 380
#     4  11  24  42  61  93 131 166 209 264 315 372
#     4  12  22  36  62  93 124 156 202 262 317 365
#     4  11  19  38  65  91 124 159 208 255 316 369
#     4  11  19  38  60  93 125 154 195 256 320 361
#     4  11  22  38  66  95 122 158 207 259 314 375
#     4  12  21  42  62  93 125 162 210 262 311 367
#
# _framework density 19.875368000000002
#
# number of rings (size 3 to 8) (size 9 to 14) (size 15 to 20)
#    0.000    0.750    7.500    1.500    0.000    4.500 
#    0.000    0.625    0.000    0.750    0.000    0.000 
#    0.000    0.000    0.000    0.000    0.000    0.000 
#
# Total GULP energy -178504.652816 kJ/mol
# GULP energy per Si atom -5578.270400 kJ/mol
# Density = 1.983013 g / cm^3
# Si number density = 19.875368 Si / 1000 Ang^3
#
#
#
# Elastic Constant Matrix: (Units=GPa)
#
#
# Indices 1 2 3 4 5 6 
#
# 1 154.9117 37.0905 40.2629 0.0000 0.0000 0.0000
# 2 37.0905 95.7055 28.3707 0.0000 0.0000 0.0000
# 3 40.2629 28.3707 121.7204 0.0000 0.0000 0.0000
# 4 0.0000 0.0000 0.0000 8.0762 0.0000 0.0000
# 5 0.0000 0.0000 0.0000 0.0000 6.9380 0.0000
# 6 0.0000 0.0000 0.0000 0.0000 0.0000 11.6581
#
#
#
# Elastic Compliance Matrix: (Units=1/GPa)
#
#
# Indices 1 2 3 4 5 6 
#
# 1 0.007520 -0.002339 -0.001942 0.000000 0.000000 0.000000
# 2 -0.002339 0.011952 -0.002012 0.000000 0.000000 0.000000
# 3 -0.001942 -0.002012 0.009327 0.000000 0.000000 0.000000
# 4 0.000000 0.000000 0.000000 0.123821 0.000000 0.000000
# 5 0.000000 0.000000 0.000000 0.000000 0.144134 0.000000
# 6 0.000000 0.000000 0.000000 0.000000 0.000000 0.085777
#
#
# Mechanical properties :
#
#
# Convention : Reuss Voigt Hill
#
# Bulk Modulus (GPa) = 61.68118 64.86507 63.27312
# Shear Modulus (GPa) = 12.48375 23.10869 17.79622
#
# Velocity S-wave (km/s) = 2.50891 3.41351 2.99555
# Velocity P-wave (km/s) = 6.28444 6.94570 6.62333
#
# Compressibility (1/GPa) = 0.01621240
#
# Stress axis : x y z
#
# Youngs Moduli (GPa) = 132.97750 83.67148 107.21499
#
# Poissons Ratio (x) = 0.19567 0.20826
# Poissons Ratio (y) = 0.31098 0.21573
# Poissons Ratio (z) = 0.25830 0.16836
#
# Static dielectric constant tensor:
#      x y z
#    x 1.765740 0.000000 0.000000 
#    y 0.000000 1.736190 0.000000 
#    z 0.000000 0.000000 1.664740 
# 
# From -- ./inp_files/14714.got.cif
#   From: 2010.05.17/outbox.cif.g08.bks.cpg/sg36_8_cif.got.tgz:14714.got - 2010.06.03 17:41:39.
