data_PCOD9353041
_publ_section_title
;
Structure prediction by ZEFSAII (Michael W. Deem and Ramdas Pophale) SiO2 
 PCOD9353041
Probable space group: C M C 21
;
_chemical_formula_sum "Si O2"
_cell_formula_units_Z 32
_cell_length_a 13.263239
_cell_length_b 10.244401
_cell_length_c 9.719835
_cell_angle_alpha 90.000000
_cell_angle_beta 90.000000
_cell_angle_gamma 90.000000
_cell_volume 1320.672267
_symmetry_space_group_name_H-M "C M C 21"
_symmetry_group_IT_number 36
_symmetry_cell_setting 'orthorhombic'
loop_
_space_group_symop_operation_xyz
x,y,z
-x,-y,1/2+z
x,-y,1/2+z
-x,y,z
1/2+x,1/2+y,z
1/2-x,1/2-y,1/2+z
1/2+x,1/2-y,1/2+z
1/2-x,1/2+y,z
loop_
_atom_site_type_symbol
_atom_site_label
_atom_site_fract_x
_atom_site_fract_y
_atom_site_fract_z
Si Si1 0.880198 0.000827 0.650760
Si Si2 0.500000 0.973787 0.665223
Si Si3 0.500000 0.839789 0.396948
Si Si4 0.110634 0.263023 0.825987
Si Si5 0.313961 0.649886 0.403064
O O1 0.867457 0.138906 0.730535
O O2 0.835429 0.026755 0.500963
O O3 0.000000 0.976017 0.643667
O O4 0.827767 0.894086 0.745335
O O5 0.500000 0.962208 0.501792
O O6 0.592457 0.889014 0.727569
O O7 0.500000 0.110814 0.740975
O O8 0.402379 0.753568 0.428486
O O9 0.203159 0.293667 0.923978
O O10 0.000000 0.239873 0.891169
#
# Coordination Sequence:
#
# PCOD9353041 Si02
#       5
#     8   4   4   8   8
#     4  11  22  47  71 104 146 183 240 301 352 422
#     4  10  24  49  69  99 149 184 231 298 350 424
#     4  12  24  49  73 105 141 190 235 294 360 428
#     4   9  23  45  67 103 146 187 232 297 350 419
#     4  12  24  44  77 104 144 190 236 296 363 424
#
# _framework density 24.230084000000002
#
# number of rings (size 3 to 8) (size 9 to 14) (size 15 to 20)
#    0.750    0.500    5.000    0.000    3.500    4.000 
#    4.500    0.000    0.000    0.000    0.000    0.000 
#    0.000    0.000    0.000    0.000    0.000    0.000 
#
# Total GULP energy -89528.000565 kJ/mol
# GULP energy per Si atom -5595.500035 kJ/mol
# Density = 2.417494 g / cm^3
# Si number density = 24.230084 Si / 1000 Ang^3
#
#
#
# Elastic Constant Matrix: (Units=GPa)
#
#
# Indices 1 2 3 4 5 6 
#
# 1 145.7288 1.4610 30.4825 0.0000 0.0000 0.0000
# 2 1.4610 42.1039 22.3446 0.0000 0.0000 0.0000
# 3 30.4825 22.3446 109.6087 0.0000 0.0000 0.0000
# 4 0.0000 0.0000 0.0000 48.6523 0.0000 0.0000
# 5 0.0000 0.0000 0.0000 0.0000 12.3146 0.0000
# 6 0.0000 0.0000 0.0000 0.0000 0.0000 -45.2012
#
#
#
# Elastic Compliance Matrix: (Units=1/GPa)
#
#
# Indices 1 2 3 4 5 6 
#
# 1 0.007318 0.000926 -0.002224 0.000000 0.000000 0.000000
# 2 0.000926 0.026749 -0.005711 0.000000 0.000000 0.000000
# 3 -0.002224 -0.005711 0.010906 0.000000 0.000000 0.000000
# 4 0.000000 0.000000 0.000000 0.020554 0.000000 0.000000
# 5 0.000000 0.000000 0.000000 0.000000 0.081205 0.000000
# 6 0.000000 0.000000 0.000000 0.000000 0.000000 -0.022123
#
#
# Mechanical properties :
#
#
# Convention : Reuss Voigt Hill
#
# Bulk Modulus (GPa) = 32.30326 45.11307 38.70817
# Shear Modulus (GPa) = 33.56963 19.36336 26.46649
#
# Velocity S-wave (km/s) = 3.72620 2.82998 3.30858
# Velocity P-wave (km/s) = 5.64567 5.41640 5.53223
#
# Compressibility (1/GPa) = 0.03095662
#
# Stress axis : x y z
#
# Youngs Moduli (GPa) = 136.64989 37.38421 91.69243
#
# Poissons Ratio (x) = -0.03463 0.20392
# Poissons Ratio (y) = -0.12658 0.52363
# Poissons Ratio (z) = 0.30391 0.21349
#
# Static dielectric constant tensor:
#      x y z
#    x 1.903750 0.000000 0.000000 
#    y 0.000000 1.880470 0.000000 
#    z 0.000000 0.000000 1.926150 
# 
# From -- ./inp_files/3694.got.cif
#   From: 2010.05.17/outbox.cif.g08.bks.cpg/sg36_2_cif.got.tgz:3694.got - 2010.06.03 17:41:39.
