data_PCOD9353235
_publ_section_title
;
Structure prediction by ZEFSAII (Michael W. Deem and Ramdas Pophale) SiO2 
 PCOD9353235
Probable space group: C M C 21
;
_chemical_formula_sum "Si O2"
_cell_formula_units_Z 40
_cell_length_a 11.365799
_cell_length_b 17.793899
_cell_length_c 9.071201
_cell_angle_alpha 90.000000
_cell_angle_beta 90.000000
_cell_angle_gamma 90.000000
_cell_volume 1834.576739
_symmetry_space_group_name_H-M "C M C 21"
_symmetry_group_IT_number 36
_symmetry_cell_setting 'orthorhombic'
loop_
_space_group_symop_operation_xyz
x,y,z
-x,-y,1/2+z
x,-y,1/2+z
-x,y,z
1/2+x,1/2+y,z
1/2-x,1/2-y,1/2+z
1/2+x,1/2-y,1/2+z
1/2-x,1/2+y,z
loop_
_atom_site_type_symbol
_atom_site_label
_atom_site_fract_x
_atom_site_fract_y
_atom_site_fract_z
Si Si1 0.362969 0.178532 0.252560
Si Si2 0.217030 0.839839 0.271456
Si Si3 0.864324 0.569628 0.976695
Si Si4 0.273819 0.414566 0.965625
Si Si5 0.500000 0.600066 0.935519
Si Si6 0.000000 0.059218 0.278439
O O1 0.500000 0.200415 0.247085
O O2 0.285103 0.252605 0.230414
O O3 0.345585 0.115785 0.126940
O O4 0.327376 0.140154 0.405380
O O5 0.333949 0.873599 0.344111
O O6 0.115608 0.853241 0.393110
O O7 0.189127 0.888279 0.126941
O O8 0.000000 0.544715 0.969646
O O9 0.777659 0.498697 0.968210
O O10 0.382924 0.408136 0.854272
O O11 0.500000 0.527331 0.829722
O O12 0.500000 0.572678 0.104090
#
# Coordination Sequence:
#
# PCOD9353235 Si02
#       6
#     8   8   8   8   4   4
#     4  11  25  46  69 100 144 188 235 294 360 423
#     4  12  24  45  71 100 146 183 236 295 352 427
#     4  11  25  45  71 101 141 188 238 295 349 425
#     4  12  25  43  72 105 137 192 241 292 354 422
#     4  12  24  44  70 104 140 183 230 298 356 419
#     4  12  26  42  72 108 138 181 242 294 352 425
#
# _framework density 21.803394999999998
#
# number of rings (size 3 to 8) (size 9 to 14) (size 15 to 20)
#    0.000    0.400    3.000    6.000    0.000    3.200 
#    1.800    0.000    0.000    0.000    0.000    0.000 
#    0.000    0.000    0.000    0.000    0.000    0.000 
#
# Total GULP energy -111972.080640 kJ/mol
# GULP energy per Si atom -5598.604032 kJ/mol
# Density = 2.175377 g / cm^3
# Si number density = 21.803395 Si / 1000 Ang^3
#
#
#
# Elastic Constant Matrix: (Units=GPa)
#
#
# Indices 1 2 3 4 5 6 
#
# 1 70.5011 33.5814 44.2583 0.0000 0.0000 0.0000
# 2 33.5814 93.7537 25.2721 0.0000 0.0000 0.0000
# 3 44.2583 25.2721 133.6398 0.0000 0.0000 0.0000
# 4 0.0000 0.0000 0.0000 22.8782 0.0000 0.0000
# 5 0.0000 0.0000 0.0000 0.0000 25.4657 0.0000
# 6 0.0000 0.0000 0.0000 0.0000 0.0000 24.7389
#
#
#
# Elastic Compliance Matrix: (Units=1/GPa)
#
#
# Indices 1 2 3 4 5 6 
#
# 1 0.020534 -0.005819 -0.005700 0.000000 0.000000 0.000000
# 2 -0.005819 0.012888 -0.000510 0.000000 0.000000 0.000000
# 3 -0.005700 -0.000510 0.009467 0.000000 0.000000 0.000000
# 4 0.000000 0.000000 0.000000 0.043710 0.000000 0.000000
# 5 0.000000 0.000000 0.000000 0.000000 0.039268 0.000000
# 6 0.000000 0.000000 0.000000 0.000000 0.000000 0.040422
#
#
# Mechanical properties :
#
#
# Convention : Reuss Voigt Hill
#
# Bulk Modulus (GPa) = 53.10305 56.01313 54.55809
# Shear Modulus (GPa) = 25.42927 27.60210 26.51568
#
# Velocity S-wave (km/s) = 3.41882 3.56188 3.49108
# Velocity P-wave (km/s) = 6.32398 6.53161 6.42863
#
# Compressibility (1/GPa) = 0.01883131
#
# Stress axis : x y z
#
# Youngs Moduli (GPa) = 48.69978 77.59220 105.63001
#
# Poissons Ratio (x) = 0.45147 0.60210
# Poissons Ratio (y) = 0.28336 0.05390
# Poissons Ratio (z) = 0.27759 0.03959
#
# Static dielectric constant tensor:
#      x y z
#    x 1.804940 0.000000 0.000000 
#    y 0.000000 1.774600 0.000000 
#    z 0.000000 0.000000 1.777470 
# 
# From -- ./inp_files/3073.got.cif
#   From: 2010.05.17/outbox.cif.g08.bks.cpg/sg36_2_cif.got.tgz:3073.got - 2010.06.03 17:41:39.
