data_PCOD9353965
_publ_section_title
;
Structure prediction by ZEFSAII (Michael W. Deem and Ramdas Pophale) SiO2 
 PCOD9353965
Probable space group: C C C 2
;
_chemical_formula_sum "Si O2"
_cell_formula_units_Z 40
_cell_length_a 13.529998
_cell_length_b 21.476465
_cell_length_c 5.421298
_cell_angle_alpha 90.000000
_cell_angle_beta 90.000000
_cell_angle_gamma 90.000000
_cell_volume 1575.301953
_symmetry_space_group_name_H-M "C C C 2"
_symmetry_group_IT_number 37
_symmetry_cell_setting 'orthorhombic'
loop_
_space_group_symop_operation_xyz
x,y,z
-x,-y,z
-x,y,1/2+z
x,-y,1/2+z
1/2+x,1/2+y,z
1/2-x,1/2-y,z
1/2-x,1/2+y,1/2+z
1/2+x,1/2-y,1/2+z
loop_
_atom_site_type_symbol
_atom_site_label
_atom_site_fract_x
_atom_site_fract_y
_atom_site_fract_z
Si Si1 0.119751 0.204675 0.001200
Si Si2 0.858317 0.840087 0.496818
Si Si3 0.387470 0.973465 0.289484
Si Si4 0.386211 0.521288 0.996135
Si Si5 0.321504 0.834515 0.327484
O O1 0.099402 0.206320 0.292198
O O2 0.086332 0.163444 0.764075
O O3 0.231733 0.175304 0.020223
O O4 0.115779 0.273304 0.883051
O O5 0.876341 0.908999 0.398621
O O6 0.744143 0.829512 0.577080
O O7 0.377682 0.899687 0.335313
O O8 0.500000 0.000000 0.272343
O O9 0.343574 0.009309 0.523952
O O10 0.500000 0.500000 0.031276
O O11 0.344420 0.520260 0.273939
#
# Coordination Sequence:
#
# PCOD9353965 Si02
#       5
#     8   8   8   8   8
#     4   9  21  34  58  93 118 149 192 251 306 344
#     4  10  20  35  56  92 118 149 203 239 301 362
#     4  10  23  40  59  84 123 164 203 240 296 357
#     4  10  21  37  57  78 118 167 197 239 293 345
#     4   9  22  35  64  87 125 148 201 244 308 350
#
# _framework density 25.391957999999999
#
# number of rings (size 3 to 8) (size 9 to 14) (size 15 to 20)
#    1.200    1.200    0.000    1.200    8.400    1.600 
#    0.000    0.000    0.000   28.800    0.000    0.000 
#    0.000    0.000    0.000    0.000    0.000    0.000 
#
# Total GULP energy -111367.120693 kJ/mol
# GULP energy per Si atom -5568.356035 kJ/mol
# Density = 2.533416 g / cm^3
# Si number density = 25.391958 Si / 1000 Ang^3
#
#
#
# Elastic Constant Matrix: (Units=GPa)
#
#
# Indices 1 2 3 4 5 6 
#
# 1 66.3419 21.3829 -2.0751 0.0000 0.0000 0.0000
# 2 21.3829 173.0368 17.8692 0.0000 0.0000 0.0000
# 3 -2.0751 17.8692 172.0431 0.0000 0.0000 0.0000
# 4 0.0000 0.0000 0.0000 24.4454 0.0000 0.0000
# 5 0.0000 0.0000 0.0000 0.0000 -153.9137 0.0000
# 6 0.0000 0.0000 0.0000 0.0000 0.0000 41.8567
#
#
#
# Elastic Compliance Matrix: (Units=1/GPa)
#
#
# Indices 1 2 3 4 5 6 
#
# 1 0.015725 -0.001984 0.000396 0.000000 0.000000 0.000000
# 2 -0.001984 0.006092 -0.000657 0.000000 0.000000 0.000000
# 3 0.000396 -0.000657 0.005885 0.000000 0.000000 0.000000
# 4 0.000000 0.000000 0.000000 0.040907 0.000000 0.000000
# 5 0.000000 0.000000 0.000000 0.000000 -0.006497 0.000000
# 6 0.000000 0.000000 0.000000 0.000000 0.000000 0.023891
#
#
# Mechanical properties :
#
#
# Convention : Reuss Voigt Hill
#
# Bulk Modulus (GPa) = 43.07969 53.97509 48.52739
# Shear Modulus (GPa) = 50.89994 7.42735 29.16364
#
# Velocity S-wave (km/s) = 4.48210 1.71214 3.39269
# Velocity P-wave (km/s) = 6.61727 5.02110 5.87366
#
# Compressibility (1/GPa) = 0.02321280
#
# Stress axis : x y z
#
# Youngs Moduli (GPa) = 63.59177 164.14650 169.90974
#
# Poissons Ratio (x) = 0.32569 -0.06724
# Poissons Ratio (y) = 0.12617 0.11158
# Poissons Ratio (z) = -0.02517 0.10779
#
# Static dielectric constant tensor:
#      x y z
#    x 3.354190 0.000000 0.000000 
#    y 0.000000 1.928040 0.000000 
#    z 0.000000 0.000000 2.069710 
# 
# From -- ./inp_files/749.got.cif
#   From: 2010.05.17/outbox.cif.g08.bks.cpg/sg37_1_cif.got.tgz:749.got - 2010.06.03 17:53:42.
