data_PCOD9353813
_publ_section_title
;
Structure prediction by ZEFSAII (Michael W. Deem and Ramdas Pophale) SiO2 
 PCOD9353813
Probable space group: C C C 2
;
_chemical_formula_sum "Si O2"
_cell_formula_units_Z 56
_cell_length_a 5.547092
_cell_length_b 31.155534
_cell_length_c 13.706506
_cell_angle_alpha 90.000000
_cell_angle_beta 90.000000
_cell_angle_gamma 90.000000
_cell_volume 2368.794188
_symmetry_space_group_name_H-M "C C C 2"
_symmetry_group_IT_number 37
_symmetry_cell_setting 'orthorhombic'
loop_
_space_group_symop_operation_xyz
x,y,z
-x,-y,z
-x,y,1/2+z
x,-y,1/2+z
1/2+x,1/2+y,z
1/2-x,1/2-y,z
1/2-x,1/2+y,1/2+z
1/2+x,1/2-y,1/2+z
loop_
_atom_site_type_symbol
_atom_site_label
_atom_site_fract_x
_atom_site_fract_y
_atom_site_fract_z
Si Si1 0.891191 0.642599 0.006430
Si Si2 0.589801 0.630621 0.807969
Si Si3 0.996713 0.259567 0.558279
Si Si4 0.500000 0.500000 0.242633
Si Si5 0.000000 0.500000 0.356101
Si Si6 0.527706 0.415195 0.624917
Si Si7 0.998750 0.226667 0.843009
Si Si8 0.242511 0.921703 0.943631
O O1 0.718535 0.620830 0.087525
O O2 0.964906 0.691507 0.024502
O O3 0.780667 0.635204 0.897144
O O4 0.134294 0.616153 0.003206
O O5 0.645717 0.610247 0.702579
O O6 0.496509 0.679152 0.800106
O O7 0.383260 0.599583 0.851115
O O8 0.250000 0.250000 0.608011
O O9 0.999588 0.228419 0.462621
O O10 0.750000 0.250000 0.613542
O O11 0.747045 0.488674 0.301242
O O12 0.409985 0.458471 0.183366
O O13 0.928107 0.541714 0.417052
O O14 0.448079 0.436629 0.522584
O O15 0.750000 0.250000 0.819610
O O16 0.250000 0.250000 0.818206
#
# Coordination Sequence:
#
# PCOD9353813 Si02
#       8
#     8   8   8   4   4   8   8   8
#     4  11  24  43  72 108 148 202 255 312 388 457
#     4  11  22  47  70 104 149 200 254 308 390 454
#     4  10  19  37  68 104 135 192 242 302 367 444
#     4  12  28  54  76 114 152 202 260 318 392 456
#     4  12  28  50  84 108 146 208 260 308 400 476
#     4  11  28  45  75 111 158 195 255 332 378 464
#     4  10  19  36  69 100 133 193 244 302 361 446
#     4  11  26  44  76 108 146 200 253 316 386 464
#
# _framework density 23.640718
#
# number of rings (size 3 to 8) (size 9 to 14) (size 15 to 20)
#    0.000    1.143    4.286    2.571    8.000    1.143 
#    0.000    0.714    0.000    0.000    0.000    0.000 
#    0.000    0.000    0.000    0.000    0.000    0.000 
#
# Total GULP energy -156215.630540 kJ/mol
# GULP energy per Si atom -5579.129662 kJ/mol
# Density = 2.358691 g / cm^3
# Si number density = 23.640718 Si / 1000 Ang^3
#
#
#
# Elastic Constant Matrix: (Units=GPa)
#
#
# Indices 1 2 3 4 5 6 
#
# 1 132.2854 30.6843 35.5565 0.0000 0.0000 0.0000
# 2 30.6843 104.3824 34.2512 0.0000 0.0000 0.0000
# 3 35.5565 34.2512 100.2685 0.0000 0.0000 0.0000
# 4 0.0000 0.0000 0.0000 -22.0830 0.0000 0.0000
# 5 0.0000 0.0000 0.0000 0.0000 16.3682 0.0000
# 6 0.0000 0.0000 0.0000 0.0000 0.0000 32.2737
#
#
#
# Elastic Compliance Matrix: (Units=1/GPa)
#
#
# Indices 1 2 3 4 5 6 
#
# 1 0.008623 -0.001725 -0.002469 0.000000 0.000000 0.000000
# 2 -0.001725 0.011135 -0.003192 0.000000 0.000000 0.000000
# 3 -0.002469 -0.003192 0.011939 0.000000 0.000000 0.000000
# 4 0.000000 0.000000 0.000000 -0.045284 0.000000 0.000000
# 5 0.000000 0.000000 0.000000 0.000000 0.061094 0.000000
# 6 0.000000 0.000000 0.000000 0.000000 0.000000 0.030985
#
#
# Mechanical properties :
#
#
# Convention : Reuss Voigt Hill
#
# Bulk Modulus (GPa) = 59.08102 59.76890 59.42496
# Shear Modulus (GPa) = 50.55382 21.07473 35.81428
#
# Velocity S-wave (km/s) = 4.62932 2.98897 3.89645
# Velocity P-wave (km/s) = 7.32254 6.10320 6.74050
#
# Compressibility (1/GPa) = 0.01692591
#
# Stress axis : x y z
#
# Youngs Moduli (GPa) = 115.96857 89.81070 83.75932
#
# Poissons Ratio (x) = 0.15490 0.20677
# Poissons Ratio (y) = 0.20002 0.26735
# Poissons Ratio (z) = 0.28629 0.28666
#
# Static dielectric constant tensor:
#      x y z
#    x 1.952700 0.000000 0.000000 
#    y 0.000000 1.894530 0.000000 
#    z 0.000000 0.000000 1.939010 
# 
# From -- ./inp_files/9946.got.cif
#   From: 2010.05.17/outbox.cif.g08.bks.cpg/sg37_5_cif.got.tgz:9946.got - 2010.06.03 17:53:42.
