data_PCOD9353303
_publ_section_title
;
Structure prediction by ZEFSAII (Michael W. Deem and Ramdas Pophale) SiO2 
 PCOD9353303
Probable space group: C M C 21
;
_chemical_formula_sum "Si O2"
_cell_formula_units_Z 32
_cell_length_a 21.000000
_cell_length_b 18.000000
_cell_length_c 9.000000
_cell_angle_alpha 90.000000
_cell_angle_beta 90.000000
_cell_angle_gamma 90.000000
_cell_volume 3402.000000
_symmetry_space_group_name_H-M "C M C 21"
_symmetry_group_IT_number 36
_symmetry_cell_setting 'orthorhombic'
loop_
_space_group_symop_operation_xyz
x,y,z
-x,-y,1/2+z
x,-y,1/2+z
-x,y,z
1/2+x,1/2+y,z
1/2-x,1/2-y,1/2+z
1/2+x,1/2-y,1/2+z
1/2-x,1/2+y,z
loop_
_atom_site_type_symbol
_atom_site_label
_atom_site_fract_x
_atom_site_fract_y
_atom_site_fract_z
Si Si1 0.870754 0.386207 0.754520
Si Si2 0.774759 0.250538 0.234281
Si Si3 0.715158 0.543066 0.465285
Si Si4 0.070340 0.319052 0.495803
Si Si5 0.266611 0.404544 0.634896
Si Si6 0.157818 0.622677 0.567561
Si Si7 0.574779 0.045487 0.784002
Si Si8 0.171802 0.804293 0.033083
O O1 0.926361 0.348694 0.663473
O O2 0.809248 0.390136 0.646949
O O3 0.887428 0.469594 0.801902
O O4 0.855568 0.344329 0.906214
O O5 0.794353 0.177678 0.140867
O O6 0.820871 0.317046 0.188148
O O7 0.779727 0.222338 0.402341
O O8 0.705500 0.278736 0.184089
O O9 0.718701 0.553982 0.289641
O O10 0.708553 0.457706 0.507369
O O11 0.782085 0.568360 0.540285
O O12 0.667008 0.606890 0.523049
O O13 0.091589 0.391197 0.402641
O O14 0.111289 0.244769 0.495041
O O15 0.000000 0.302238 0.442579
O O16 0.097214 0.579019 0.627752
O O17 0.500000 0.031126 0.790238
#
# Coordination Sequence:
#
# PCOD9353303 Si02
#       8
#     8   8   8   8   8   8   8   8
#     4  11  21  33  49  77 110 142 183 219 255 304
#     4  10  20  34  55  77 107 138 176 220 268 317
#     4   9  20  32  51  79 104 132 170 212 275 313
#     4  11  23  37  53  74 107 149 184 218 260 309
#     4  10  19  32  50  79 108 136 164 215 272 321
#     4  10  20  35  52  74 106 144 180 224 260 304
#     4  11  22  35  53  73 102 149 188 215 256 308
#     4  10  20  36  54  79 105 138 180 219 262 320
#
# _framework density 9.4062319999999993
#
# number of rings (size 3 to 8) (size 9 to 14) (size 15 to 20)
#    0.000    1.750    3.750    1.875    1.750    4.000 
#    0.000    0.000    0.000    0.000    0.000    4.375 
#    0.000    0.000    0.000    0.000    0.000    0.000 
#
# Total GULP energy -178250.960508 kJ/mol
# GULP energy per Si atom -5570.342516 kJ/mol
# Density = 0.938482 g / cm^3
# Si number density = 9.406232 Si / 1000 Ang^3
#
#
#
# Elastic Constant Matrix: (Units=GPa)
#
#
# Indices 1 2 3 4 5 6 
#
# 1 27.5626 13.5866 9.9563 0.0000 0.0000 0.0000
# 2 13.5866 5.7222 -8.5135 0.0000 0.0000 0.0000
# 3 9.9563 -8.5135 27.4540 0.0000 0.0000 0.0000
# 4 0.0000 0.0000 0.0000 26.9241 0.0000 0.0000
# 5 0.0000 0.0000 0.0000 0.0000 9.6688 0.0000
# 6 0.0000 0.0000 0.0000 0.0000 0.0000 12.7804
#
#
#
# Elastic Compliance Matrix: (Units=1/GPa)
#
#
# Indices 1 2 3 4 5 6 
#
# 1 -0.015094 0.081656 0.030795 0.000000 0.000000 0.000000
# 2 0.081656 -0.117297 -0.065987 0.000000 0.000000 0.000000
# 3 0.030795 -0.065987 0.004794 0.000000 0.000000 0.000000
# 4 0.000000 0.000000 0.000000 0.037141 0.000000 0.000000
# 5 0.000000 0.000000 0.000000 0.000000 0.103425 0.000000
# 6 0.000000 0.000000 0.000000 0.000000 0.000000 0.078245
#
#
# Mechanical properties :
#
#
# Convention : Reuss Voigt Hill
#
# Bulk Modulus (GPa) = -28.84551 10.08860 -9.37846
# Shear Modulus (GPa) = -376.78043 12.92196 -181.92924
#
# Velocity S-wave (km/s) = -14.16747 2.62369 -9.84463
# Velocity P-wave (km/s) = 16.82229 3.81480 11.58526
#
# Compressibility (1/GPa) = -0.03466744
#
# Stress axis : x y z
#
# Youngs Moduli (GPa) = -66.25138 -8.52539 208.59298
#
# Poissons Ratio (x) = 0.69615 -6.42372
# Poissons Ratio (y) = 5.40980 13.76433
# Poissons Ratio (z) = 2.04024 -0.56256
#
# Static dielectric constant tensor:
#      x y z
#    x 1.679780 0.000000 0.000000 
#    y 0.000000 1.666660 0.000000 
#    z 0.000000 0.000000 1.721970 
# 
# From -- ./inp_files/5316.got.cif
#   From: 2010.05.17/outbox.ucp.g08.bks.cvg/sg36_3_cif.got.tgz:5316.got - 2010.06.11 10:37:26.
