data_PCOD9353744
_publ_section_title
;
Structure prediction by ZEFSAII (Michael W. Deem and Ramdas Pophale) SiO2 
 PCOD9353744
Probable space group: C C C 2
;
_chemical_formula_sum "Si O2"
_cell_formula_units_Z 40
_cell_length_a 20.663906
_cell_length_b 15.354075
_cell_length_c 5.476991
_cell_angle_alpha 90.000000
_cell_angle_beta 90.000000
_cell_angle_gamma 90.000000
_cell_volume 1737.713210
_symmetry_space_group_name_H-M "C C C 2"
_symmetry_group_IT_number 37
_symmetry_cell_setting 'orthorhombic'
loop_
_space_group_symop_operation_xyz
x,y,z
-x,-y,z
-x,y,1/2+z
x,-y,1/2+z
1/2+x,1/2+y,z
1/2-x,1/2-y,z
1/2-x,1/2+y,1/2+z
1/2+x,1/2-y,1/2+z
loop_
_atom_site_type_symbol
_atom_site_label
_atom_site_fract_x
_atom_site_fract_y
_atom_site_fract_z
Si Si1 0.118794 0.476122 0.422880
Si Si2 0.475035 0.599484 0.349377
Si Si3 0.258404 0.545687 0.423998
Si Si4 0.349038 0.690600 0.448143
Si Si5 0.826300 0.280289 0.947503
O O1 0.083243 0.500398 0.672643
O O2 0.181412 0.539611 0.422365
O O3 0.153517 0.381467 0.424957
O O4 0.500000 0.500000 0.329038
O O5 0.511393 0.639382 0.583610
O O6 0.400309 0.611984 0.414467
O O7 0.281408 0.495249 0.667353
O O8 0.279627 0.644443 0.444252
O O9 0.357244 0.734980 0.708984
O O10 0.353667 0.748801 0.207822
O O11 0.750000 0.250000 0.943970
#
# Coordination Sequence:
#
# PCOD9353744 Si02
#       5
#     8   8   8   8   8
#     4  10  19  35  52  77 115 159 199 246 289 366
#     4  10  23  41  61  89 121 159 221 276 308 372
#     4  10  20  32  51  76 106 157 208 235 294 362
#     4  12  24  38  62  85 125 169 214 261 328 364
#     4  12  23  38  56  89 126 165 215 261 309 388
#
# _framework density 23.018757000000001
#
# number of rings (size 3 to 8) (size 9 to 14) (size 15 to 20)
#    0.000    1.200    0.000    9.000    5.600    0.000 
#    0.000    0.000    0.000    0.000    0.000    0.000 
#    0.000   56.000    0.000    0.000    0.000    0.000 
#
# Total GULP energy -111675.755575 kJ/mol
# GULP energy per Si atom -5583.787779 kJ/mol
# Density = 2.296636 g / cm^3
# Si number density = 23.018757 Si / 1000 Ang^3
#
#
#
# Elastic Constant Matrix: (Units=GPa)
#
#
# Indices 1 2 3 4 5 6 
#
# 1 37.4556 9.9977 -5.4615 0.0000 0.0000 0.0000
# 2 9.9977 70.4792 43.8430 0.0000 0.0000 0.0000
# 3 -5.4615 43.8430 224.7030 0.0000 0.0000 0.0000
# 4 0.0000 0.0000 0.0000 42.3417 0.0000 0.0000
# 5 0.0000 0.0000 0.0000 0.0000 15.1433 0.0000
# 6 0.0000 0.0000 0.0000 0.0000 0.0000 17.5107
#
#
#
# Elastic Compliance Matrix: (Units=1/GPa)
#
#
# Indices 1 2 3 4 5 6 
#
# 1 0.028292 -0.005054 0.001674 0.000000 0.000000 0.000000
# 2 -0.005054 0.017052 -0.003450 0.000000 0.000000 0.000000
# 3 0.001674 -0.003450 0.005164 0.000000 0.000000 0.000000
# 4 0.000000 0.000000 0.000000 0.023617 0.000000 0.000000
# 5 0.000000 0.000000 0.000000 0.000000 0.066036 0.000000
# 6 0.000000 0.000000 0.000000 0.000000 0.000000 0.057108
#
#
# Mechanical properties :
#
#
# Convention : Reuss Voigt Hill
#
# Bulk Modulus (GPa) = 27.13982 47.71068 37.42525
# Shear Modulus (GPa) = 22.40024 33.94970 28.17497
#
# Velocity S-wave (km/s) = 3.12289 3.84457 3.50237
# Velocity P-wave (km/s) = 4.98188 6.36235 5.71396
#
# Compressibility (1/GPa) = 0.03684623
#
# Stress axis : x y z
#
# Youngs Moduli (GPa) = 35.34628 58.64532 193.64353
#
# Poissons Ratio (x) = 0.29642 -0.32413
# Poissons Ratio (y) = 0.17866 0.66805
# Poissons Ratio (z) = -0.05916 0.20232
#
# Static dielectric constant tensor:
#      x y z
#    x 1.888050 0.000000 0.000000 
#    y 0.000000 1.902060 0.000000 
#    z 0.000000 0.000000 2.011880 
# 
# From -- ./inp_files/523.got.cif
#   From: 2010.05.17/outbox.cif.g08.bks.cpg/sg37_1_cif.got.tgz:523.got - 2010.06.03 17:53:42.
