data_PCOD9353608
_publ_section_title
;
Structure prediction by ZEFSAII (Michael W. Deem and Ramdas Pophale) SiO2 
 PCOD9353608
Probable space group: C C C 2
;
_chemical_formula_sum "Si O2"
_cell_formula_units_Z 44
_cell_length_a 13.360744
_cell_length_b 6.888549
_cell_length_c 16.531970
_cell_angle_alpha 90.000000
_cell_angle_beta 90.000000
_cell_angle_gamma 90.000000
_cell_volume 1521.538701
_symmetry_space_group_name_H-M "C C C 2"
_symmetry_group_IT_number 37
_symmetry_cell_setting 'orthorhombic'
loop_
_space_group_symop_operation_xyz
x,y,z
-x,-y,z
-x,y,1/2+z
x,-y,1/2+z
1/2+x,1/2+y,z
1/2-x,1/2-y,z
1/2-x,1/2+y,1/2+z
1/2+x,1/2-y,1/2+z
loop_
_atom_site_type_symbol
_atom_site_label
_atom_site_fract_x
_atom_site_fract_y
_atom_site_fract_z
Si Si1 0.000000 0.500000 0.635201
Si Si2 0.613295 0.569201 0.296051
Si Si3 0.169281 0.018590 0.465637
Si Si4 0.324049 0.157595 0.744979
Si Si5 0.886124 0.568827 0.922496
Si Si6 0.638268 0.325222 0.612167
O O1 0.919574 0.609584 0.690271
O O2 0.939539 0.339129 0.586704
O O3 0.500000 0.500000 0.293913
O O4 0.632922 0.639831 0.386999
O O5 0.689411 0.386862 0.281562
O O6 0.629878 0.672971 0.210299
O O7 0.132096 0.800193 0.438691
O O8 0.289907 0.027997 0.466762
O O9 0.125126 0.014993 0.556280
O O10 0.250000 0.250000 0.673274
O O11 0.362800 0.045787 0.826311
O O12 0.000000 0.500000 0.934396
O O13 0.750000 0.250000 0.598051
#
# Coordination Sequence:
#
# PCOD9353608 Si02
#       6
#     4   8   8   8   8   8
#     4  12  26  42  76 112 146 196 256 316 382 450
#     4  11  23  45  71 102 152 199 240 302 390 452
#     4  10  23  43  66 104 149 195 243 313 374 447
#     4  11  20  41  70 106 143 193 246 305 373 452
#     4  10  18  35  68 100 140 188 243 300 367 436
#     4  12  26  45  73 115 147 193 256 316 381 456
#
# _framework density 28.918095000000001
#
# number of rings (size 3 to 8) (size 9 to 14) (size 15 to 20)
#    0.000    1.091    8.182    1.091    1.273    0.727 
#    0.000    0.000    0.000    1.091    0.000    0.000 
#    0.000    0.000    0.000    0.000    0.000    0.000 
#
# Total GULP energy -122603.557809 kJ/mol
# GULP energy per Si atom -5572.888991 kJ/mol
# Density = 2.885228 g / cm^3
# Si number density = 28.918095 Si / 1000 Ang^3
#
#
#
# Elastic Constant Matrix: (Units=GPa)
#
#
# Indices 1 2 3 4 5 6 
#
# 1 254.4224 59.1758 68.8539 0.0000 0.0000 0.0000
# 2 59.1758 74.3368 52.5473 0.0000 0.0000 0.0000
# 3 68.8539 52.5473 199.6545 0.0000 0.0000 0.0000
# 4 0.0000 0.0000 0.0000 36.5987 0.0000 0.0000
# 5 0.0000 0.0000 0.0000 0.0000 26.8609 0.0000
# 6 0.0000 0.0000 0.0000 0.0000 0.0000 61.4532
#
#
#
# Elastic Compliance Matrix: (Units=1/GPa)
#
#
# Indices 1 2 3 4 5 6 
#
# 1 0.004930 -0.003345 -0.000820 0.000000 0.000000 0.000000
# 2 -0.003345 0.018797 -0.003793 0.000000 0.000000 0.000000
# 3 -0.000820 -0.003793 0.006290 0.000000 0.000000 0.000000
# 4 0.000000 0.000000 0.000000 0.027323 0.000000 0.000000
# 5 0.000000 0.000000 0.000000 0.000000 0.037229 0.000000
# 6 0.000000 0.000000 0.000000 0.000000 0.000000 0.016273
#
#
# Mechanical properties :
#
#
# Convention : Reuss Voigt Hill
#
# Bulk Modulus (GPa) = 70.92324 98.84087 84.88206
# Shear Modulus (GPa) = 38.03462 48.17166 43.10314
#
# Velocity S-wave (km/s) = 3.63058 4.08584 3.86492
# Velocity P-wave (km/s) = 6.49258 7.51749 7.02375
#
# Compressibility (1/GPa) = 0.01409975
#
# Stress axis : x y z
#
# Youngs Moduli (GPa) = 202.82169 53.20035 158.98723
#
# Poissons Ratio (x) = 0.17797 0.13035
# Poissons Ratio (y) = 0.67850 0.60312
# Poissons Ratio (z) = 0.16629 0.20181
#
# Static dielectric constant tensor:
#      x y z
#    x 1.316320 0.000000 0.000000 
#    y 0.000000 2.387260 0.000000 
#    z 0.000000 0.000000 2.267820 
# 
# From -- ./inp_files/15189.got.cif
#   From: 2010.05.17/outbox.cif.g08.bks.cpg/sg37_8_cif.got.tgz:15189.got - 2010.06.03 17:53:42.
