data_PCOD9353022
_publ_section_title
;
Structure prediction by ZEFSAII (Michael W. Deem and Ramdas Pophale) SiO2 
 PCOD9353022
Probable space group: C M C 21
;
_chemical_formula_sum "Si O2"
_cell_formula_units_Z 36
_cell_length_a 24.111542
_cell_length_b 7.616164
_cell_length_c 8.215660
_cell_angle_alpha 90.000000
_cell_angle_beta 90.000000
_cell_angle_gamma 90.000000
_cell_volume 1508.702920
_symmetry_space_group_name_H-M "C M C 21"
_symmetry_group_IT_number 36
_symmetry_cell_setting 'orthorhombic'
loop_
_space_group_symop_operation_xyz
x,y,z
-x,-y,1/2+z
x,-y,1/2+z
-x,y,z
1/2+x,1/2+y,z
1/2-x,1/2-y,1/2+z
1/2+x,1/2-y,1/2+z
1/2-x,1/2+y,z
loop_
_atom_site_type_symbol
_atom_site_label
_atom_site_fract_x
_atom_site_fract_y
_atom_site_fract_z
Si Si1 0.801781 0.579664 0.091620
Si Si2 0.849370 0.783867 0.678690
Si Si3 0.419385 0.113795 0.920227
Si Si4 0.806001 0.119332 0.863763
Si Si5 0.500000 0.129636 0.217285
O O1 0.857222 0.590841 0.984528
O O2 0.802868 0.726193 0.231888
O O3 0.809561 0.613518 0.666309
O O4 0.748212 0.599504 0.977704
O O5 0.854997 0.843834 0.492634
O O6 0.680705 0.437686 0.776450
O O7 0.907580 0.739043 0.764918
O O8 0.452609 0.177226 0.077630
O O9 0.451696 0.948574 0.843698
#
# Coordination Sequence:
#
# PCOD9353022 Si02
#       5
#     8   8   8   8   4
#     4  12  28  49  76 115 165 217 259 324 398 503
#     4  12  28  47  76 114 157 214 263 327 387 493
#     4  11  23  46  77 115 151 196 276 328 407 474
#     4  12  31  47  75 119 170 212 266 314 408 488
#     4  10  24  44  80 116 138 204 270 342 408 484
#
# _framework density 23.861554999999999
#
# number of rings (size 3 to 8) (size 9 to 14) (size 15 to 20)
#    0.000    0.444    2.222    4.000   12.444    1.778 
#    0.000    0.000    0.000   21.333    0.000    0.000 
#    0.000    0.000    0.000    0.000    0.000    0.000 
#
# Total GULP energy -100250.966094 kJ/mol
# GULP energy per Si atom -5569.498116 kJ/mol
# Density = 2.380725 g / cm^3
# Si number density = 23.861555 Si / 1000 Ang^3
#
#
#
# Elastic Constant Matrix: (Units=GPa)
#
#
# Indices 1 2 3 4 5 6 
#
# 1 96.4502 14.3891 38.0998 0.0000 0.0000 0.0000
# 2 14.3891 134.8123 46.2976 0.0000 0.0000 0.0000
# 3 38.0998 46.2976 136.2338 0.0000 0.0000 0.0000
# 4 0.0000 0.0000 0.0000 60.4750 0.0000 0.0000
# 5 0.0000 0.0000 0.0000 0.0000 74.5260 0.0000
# 6 0.0000 0.0000 0.0000 0.0000 0.0000 28.0588
#
#
#
# Elastic Compliance Matrix: (Units=1/GPa)
#
#
# Indices 1 2 3 4 5 6 
#
# 1 0.011658 -0.000141 -0.003212 0.000000 0.000000 0.000000
# 2 -0.000141 0.008400 -0.002815 0.000000 0.000000 0.000000
# 3 -0.003212 -0.002815 0.009195 0.000000 0.000000 0.000000
# 4 0.000000 0.000000 0.000000 0.016536 0.000000 0.000000
# 5 0.000000 0.000000 0.000000 0.000000 0.013418 0.000000
# 6 0.000000 0.000000 0.000000 0.000000 0.000000 0.035639
#
#
# Mechanical properties :
#
#
# Convention : Reuss Voigt Hill
#
# Bulk Modulus (GPa) = 59.11596 62.78546 60.95071
# Shear Modulus (GPa) = 44.31761 50.52594 47.42178
#
# Velocity S-wave (km/s) = 4.31429 4.60658 4.46283
# Velocity P-wave (km/s) = 7.04598 7.39349 7.22182
#
# Compressibility (1/GPa) = 0.01691591
#
# Stress axis : x y z
#
# Youngs Moduli (GPa) = 85.77755 119.05432 108.75032
#
# Poissons Ratio (x) = 0.01680 0.34935
# Poissons Ratio (y) = 0.01210 0.30614
# Poissons Ratio (z) = 0.27555 0.33514
#
# Static dielectric constant tensor:
#      x y z
#    x 1.936120 0.000000 0.000000 
#    y 0.000000 1.981940 0.000000 
#    z 0.000000 0.000000 2.064490 
# 
# From -- ./inp_files/5512.got.cif
#   From: 2010.05.17/outbox.cif.g08.bks.cpg/sg36_3_cif.got.tgz:5512.got - 2010.06.03 17:41:39.
