data_PCOD9353642
_publ_section_title
;
Structure prediction by ZEFSAII (Michael W. Deem and Ramdas Pophale) SiO2 
 PCOD9353642
Probable space group: C C C 2
;
_chemical_formula_sum "Si O2"
_cell_formula_units_Z 52
_cell_length_a 12.082944
_cell_length_b 9.582264
_cell_length_c 21.057418
_cell_angle_alpha 90.000000
_cell_angle_beta 90.000000
_cell_angle_gamma 90.000000
_cell_volume 2438.069114
_symmetry_space_group_name_H-M "C C C 2"
_symmetry_group_IT_number 37
_symmetry_cell_setting 'orthorhombic'
loop_
_space_group_symop_operation_xyz
x,y,z
-x,-y,z
-x,y,1/2+z
x,-y,1/2+z
1/2+x,1/2+y,z
1/2-x,1/2-y,z
1/2-x,1/2+y,1/2+z
1/2+x,1/2-y,1/2+z
loop_
_atom_site_type_symbol
_atom_site_label
_atom_site_fract_x
_atom_site_fract_y
_atom_site_fract_z
Si Si1 0.750000 0.250000 0.302070
Si Si2 0.614482 0.095780 0.618479
Si Si3 0.833923 0.634931 0.523613
Si Si4 0.936282 0.142085 0.396687
Si Si5 0.397918 0.892350 0.888296
Si Si6 0.133342 0.512730 0.754847
Si Si7 0.456568 0.658757 0.539649
O O1 0.838521 0.176624 0.348453
O O2 0.813017 0.360868 0.258659
O O3 0.605165 0.255913 0.595202
O O4 0.500000 0.000000 0.622561
O O5 0.675090 0.004292 0.564761
O O6 0.662466 0.086512 0.689181
O O7 0.750000 0.750000 0.547567
O O8 0.819750 0.599957 0.449420
O O9 0.947937 0.723140 0.527471
O O10 0.034922 0.250927 0.385868
O O11 0.898699 0.148247 0.470670
O O12 0.000000 0.000000 0.386000
O O13 0.500000 0.000000 0.898458
O O14 0.336963 0.917612 0.822103
O O15 0.000000 0.500000 0.757997
O O16 0.500000 0.500000 0.554144
#
# Coordination Sequence:
#
# PCOD9353642 Si02
#       7
#     4   8   8   8   8   8   8
#     4  12  22  38  70  96 128 186 210 274 340 394
#     4   9  19  37  61  87 124 172 210 263 326 388
#     4  10  20  33  61  89 115 164 214 262 315 393
#     4  10  21  38  62  99 129 162 219 278 322 391
#     4  10  18  38  57  82 127 159 208 272 323 378
#     4  10  21  37  64  93 127 169 223 265 321 399
#     4   9  19  39  59  88 131 160 205 273 335 377
#
# _framework density 21.328354000000001
#
# number of rings (size 3 to 8) (size 9 to 14) (size 15 to 20)
#    0.000    2.154    3.077    2.308    1.077    3.692 
#    0.000    0.769    0.000    3.692    0.000    0.000 
#    0.000    0.000    0.000    0.000    0.000    0.000 
#
# Total GULP energy -144964.323829 kJ/mol
# GULP energy per Si atom -5575.550916 kJ/mol
# Density = 2.127981 g / cm^3
# Si number density = 21.328354 Si / 1000 Ang^3
#
#
#
# Elastic Constant Matrix: (Units=GPa)
#
#
# Indices 1 2 3 4 5 6 
#
# 1 22.1993 0.7475 9.5306 0.0000 0.0000 0.0000
# 2 0.7475 149.6775 53.1836 0.0000 0.0000 0.0000
# 3 9.5306 53.1836 121.3618 0.0000 0.0000 0.0000
# 4 0.0000 0.0000 0.0000 17.7407 0.0000 0.0000
# 5 0.0000 0.0000 0.0000 0.0000 -12.7816 0.0000
# 6 0.0000 0.0000 0.0000 0.0000 0.0000 28.7342
#
#
#
# Elastic Compliance Matrix: (Units=1/GPa)
#
#
# Indices 1 2 3 4 5 6 
#
# 1 0.046821 0.001270 -0.004234 0.000000 0.000000 0.000000
# 2 0.001270 0.007948 -0.003583 0.000000 0.000000 0.000000
# 3 -0.004234 -0.003583 0.010142 0.000000 0.000000 0.000000
# 4 0.000000 0.000000 0.000000 0.056367 0.000000 0.000000
# 5 0.000000 0.000000 0.000000 0.000000 -0.078238 0.000000
# 6 0.000000 0.000000 0.000000 0.000000 0.000000 0.034802
#
#
# Mechanical properties :
#
#
# Convention : Reuss Voigt Hill
#
# Bulk Modulus (GPa) = 19.29768 46.68467 32.99117
# Shear Modulus (GPa) = 46.20738 22.05712 34.13225
#
# Velocity S-wave (km/s) = 4.65959 3.21934 4.00474
# Velocity P-wave (km/s) = 6.16576 5.97954 6.07337
#
# Compressibility (1/GPa) = 0.05181971
#
# Stress axis : x y z
#
# Youngs Moduli (GPa) = 21.35777 125.82309 98.59712
#
# Poissons Ratio (x) = -0.15985 0.41743
# Poissons Ratio (y) = -0.02713 0.35324
# Poissons Ratio (z) = 0.09042 0.45078
#
# Static dielectric constant tensor:
#      x y z
#    x 1.865300 0.000000 0.000000 
#    y 0.000000 1.726860 0.000000 
#    z 0.000000 0.000000 1.815130 
# 
# From -- ./inp_files/17119.got.cif
#   From: 2010.05.17/outbox.cif.g08.bks.cpg/sg37_9_cif.got.tgz:17119.got - 2010.06.03 17:53:42.
