data_PCOD9353246
_publ_section_title
;
Structure prediction by ZEFSAII (Michael W. Deem and Ramdas Pophale) SiO2 
 PCOD9353246
Probable space group: C M C 21
;
_chemical_formula_sum "Si O2"
_cell_formula_units_Z 24
_cell_length_a 13.764356
_cell_length_b 7.050843
_cell_length_c 9.650849
_cell_angle_alpha 90.000000
_cell_angle_beta 90.000000
_cell_angle_gamma 90.000000
_cell_volume 936.617918
_symmetry_space_group_name_H-M "C M C 21"
_symmetry_group_IT_number 36
_symmetry_cell_setting 'orthorhombic'
loop_
_space_group_symop_operation_xyz
x,y,z
-x,-y,1/2+z
x,-y,1/2+z
-x,y,z
1/2+x,1/2+y,z
1/2-x,1/2-y,1/2+z
1/2+x,1/2-y,1/2+z
1/2-x,1/2+y,z
loop_
_atom_site_type_symbol
_atom_site_label
_atom_site_fract_x
_atom_site_fract_y
_atom_site_fract_z
Si Si1 0.608931 0.623902 0.061690
Si Si2 0.106569 0.551086 0.347141
Si Si3 0.682432 0.199541 0.072707
O O1 0.500000 0.647205 0.122506
O O2 0.633137 0.401988 0.050661
O O3 0.707233 0.706913 0.130389
O O4 0.608000 0.740899 0.918046
O O5 0.123044 0.583246 0.186522
O O6 0.180629 0.419445 0.430617
O O7 0.000000 0.468324 0.373496
#
# Coordination Sequence:
#
# PCOD9353246 Si02
#       3
#     8   8   8
#     4  11  26  46  72 106 148 193 242 296 362 434
#     4  11  26  48  76 112 147 193 246 301 368 438
#     4  12  26  48  76 106 153 192 242 305 366 432
#
# _framework density 25.624110999999999
#
# number of rings (size 3 to 8) (size 9 to 14) (size 15 to 20)
#    0.000    0.667    3.333    3.000    4.667    2.667 
#    0.000    3.333    0.000    0.000    0.000    0.000 
#    0.000    0.000    0.000    0.000    0.000    0.000 
#
# Total GULP energy -67149.404564 kJ/mol
# GULP energy per Si atom -5595.783714 kJ/mol
# Density = 2.556579 g / cm^3
# Si number density = 25.624111 Si / 1000 Ang^3
#
#
#
# Elastic Constant Matrix: (Units=GPa)
#
#
# Indices 1 2 3 4 5 6 
#
# 1 193.0069 21.3549 -2.2982 0.0000 0.0000 0.0000
# 2 21.3549 157.7684 33.8004 0.0000 0.0000 0.0000
# 3 -2.2982 33.8004 81.5982 0.0000 0.0000 0.0000
# 4 0.0000 0.0000 0.0000 28.6026 0.0000 0.0000
# 5 0.0000 0.0000 0.0000 0.0000 18.4899 0.0000
# 6 0.0000 0.0000 0.0000 0.0000 0.0000 43.9369
#
#
#
# Elastic Compliance Matrix: (Units=1/GPa)
#
#
# Indices 1 2 3 4 5 6 
#
# 1 0.005278 -0.000819 0.000488 0.000000 0.000000 0.000000
# 2 -0.000819 0.007083 -0.002957 0.000000 0.000000 0.000000
# 3 0.000488 -0.002957 0.013494 0.000000 0.000000 0.000000
# 4 0.000000 0.000000 0.000000 0.034962 0.000000 0.000000
# 5 0.000000 0.000000 0.000000 0.000000 0.054083 0.000000
# 6 0.000000 0.000000 0.000000 0.000000 0.000000 0.022760
#
#
# Mechanical properties :
#
#
# Convention : Reuss Voigt Hill
#
# Bulk Modulus (GPa) = 51.87223 59.78753 55.82988
# Shear Modulus (GPa) = 33.18701 43.50697 38.34699
#
# Velocity S-wave (km/s) = 3.60272 4.12502 3.87268
# Velocity P-wave (km/s) = 6.13136 6.78755 6.46778
#
# Compressibility (1/GPa) = 0.01927814
#
# Stress axis : x y z
#
# Youngs Moduli (GPa) = 189.48099 141.18832 74.10831
#
# Poissons Ratio (x) = 0.11561 -0.03615
# Poissons Ratio (y) = 0.15516 0.21913
# Poissons Ratio (z) = -0.09244 0.41749
#
# Static dielectric constant tensor:
#      x y z
#    x 2.042500 0.000000 0.000000 
#    y 0.000000 2.041460 0.000000 
#    z 0.000000 0.000000 1.892240 
# 
# From -- ./inp_files/3643.got.cif
#   From: 2010.05.17/outbox.cif.g08.bks.cpg/sg36_2_cif.got.tgz:3643.got - 2010.06.03 17:41:39.
