data_PCOD9353159
_publ_section_title
;
Structure prediction by ZEFSAII (Michael W. Deem and Ramdas Pophale) SiO2 
 PCOD9353159
Probable space group: C M C 21
;
_chemical_formula_sum "Si O2"
_cell_formula_units_Z 48
_cell_length_a 31.810829
_cell_length_b 8.552647
_cell_length_c 7.799155
_cell_angle_alpha 90.000000
_cell_angle_beta 90.000000
_cell_angle_gamma 90.000000
_cell_volume 2121.891075
_symmetry_space_group_name_H-M "C M C 21"
_symmetry_group_IT_number 36
_symmetry_cell_setting 'orthorhombic'
loop_
_space_group_symop_operation_xyz
x,y,z
-x,-y,1/2+z
x,-y,1/2+z
-x,y,z
1/2+x,1/2+y,z
1/2-x,1/2-y,1/2+z
1/2+x,1/2-y,1/2+z
1/2-x,1/2+y,z
loop_
_atom_site_type_symbol
_atom_site_label
_atom_site_fract_x
_atom_site_fract_y
_atom_site_fract_z
Si Si1 0.709541 0.747072 0.734650
Si Si2 0.127507 0.254308 0.230773
Si Si3 0.128369 0.417307 0.602855
Si Si4 0.547063 0.419819 0.835385
Si Si5 0.291285 0.415010 0.605158
Si Si6 0.952972 0.752997 0.206418
O O1 0.668490 0.850918 0.703518
O O2 0.709900 0.602035 0.602162
O O3 0.750517 0.851443 0.704314
O O4 0.709383 0.664767 0.919172
O O5 0.130214 0.337662 0.416460
O O6 0.129734 0.396172 0.097280
O O7 0.084027 0.160992 0.230286
O O8 0.166087 0.139205 0.197774
O O9 0.084864 0.368044 0.695179
O O10 0.500000 0.396296 0.763195
O O11 0.554268 0.605914 0.838894
O O12 0.547475 0.343025 0.023124
O O13 0.000000 0.686241 0.231931
#
# Coordination Sequence:
#
# PCOD9353159 Si02
#       6
#     8   8   8   8   8   8
#     4  12  25  43  65  90 120 154 194 239 291 347
#     4  11  23  39  59  86 120 157 198 243 293 347
#     4  11  23  39  59  86 120 157 198 243 293 347
#     4   9  19  36  58  84 115 152 195 242 292 347
#     4  12  25  43  65  90 120 154 194 239 291 347
#     4   9  19  36  58  84 115 152 195 242 292 347
#
# _framework density 22.62133
#
# number of rings (size 3 to 8) (size 9 to 14) (size 15 to 20)
#    0.000    1.333    0.000    6.000    0.000    6.000 
#    0.000    0.000    0.000    0.000    0.000    0.000 
#    0.000    0.000    0.000    0.000    0.000    0.000 
#
# Total GULP energy -134395.123176 kJ/mol
# GULP energy per Si atom -5599.796799 kJ/mol
# Density = 2.256984 g / cm^3
# Si number density = 22.621330 Si / 1000 Ang^3
#
#
#
# Elastic Constant Matrix: (Units=GPa)
#
#
# Indices 1 2 3 4 5 6 
#
# 1 136.7637 39.2964 23.0523 0.0000 0.0000 0.0000
# 2 39.2964 56.5878 -18.9812 0.0000 0.0000 0.0000
# 3 23.0523 -18.9812 67.1302 0.0000 0.0000 0.0000
# 4 0.0000 0.0000 0.0000 33.5992 0.0000 0.0000
# 5 0.0000 0.0000 0.0000 0.0000 20.5237 0.0000
# 6 0.0000 0.0000 0.0000 0.0000 0.0000 40.4385
#
#
#
# Elastic Compliance Matrix: (Units=1/GPa)
#
#
# Indices 1 2 3 4 5 6 
#
# 1 0.011381 -0.010179 -0.006786 0.000000 0.000000 0.000000
# 2 -0.010179 0.028628 0.011590 0.000000 0.000000 0.000000
# 3 -0.006786 0.011590 0.020504 0.000000 0.000000 0.000000
# 4 0.000000 0.000000 0.000000 0.029763 0.000000 0.000000
# 5 0.000000 0.000000 0.000000 0.000000 0.048724 0.000000
# 6 0.000000 0.000000 0.000000 0.000000 0.000000 0.024729
#
#
# Mechanical properties :
#
#
# Convention : Reuss Voigt Hill
#
# Bulk Modulus (GPa) = 20.09568 38.57963 29.33765
# Shear Modulus (GPa) = 26.16888 33.38655 29.77771
#
# Velocity S-wave (km/s) = 3.40490 3.84590 3.63210
# Velocity P-wave (km/s) = 4.93564 6.06735 5.53052
#
# Compressibility (1/GPa) = 0.04976194
#
# Stress axis : x y z
#
# Youngs Moduli (GPa) = 87.86895 34.93055 48.77111
#
# Poissons Ratio (x) = 0.35557 0.33097
# Poissons Ratio (y) = 0.89445 -0.56527
# Poissons Ratio (z) = 0.59630 -0.40485
#
# Static dielectric constant tensor:
#      x y z
#    x 1.786530 0.000000 0.000000 
#    y 0.000000 1.775150 0.000000 
#    z 0.000000 0.000000 1.897110 
# 
# From -- ./inp_files/5978.got.cif
#   From: 2010.05.17/outbox.cif.g08.bks.cpg/sg36_3_cif.got.tgz:5978.got - 2010.06.03 17:41:39.
