data_PCOD9353435
_publ_section_title
;
Structure prediction by ZEFSAII (Michael W. Deem and Ramdas Pophale) SiO2 
 PCOD9353435
Probable space group: C C C 2
;
_chemical_formula_sum "Si O2"
_cell_formula_units_Z 64
_cell_length_a 5.645733
_cell_length_b 22.092623
_cell_length_c 21.302278
_cell_angle_alpha 90.000000
_cell_angle_beta 90.000000
_cell_angle_gamma 90.000000
_cell_volume 2657.012913
_symmetry_space_group_name_H-M "C C C 2"
_symmetry_group_IT_number 37
_symmetry_cell_setting 'orthorhombic'
loop_
_space_group_symop_operation_xyz
x,y,z
-x,-y,z
-x,y,1/2+z
x,-y,1/2+z
1/2+x,1/2+y,z
1/2-x,1/2-y,z
1/2-x,1/2+y,1/2+z
1/2+x,1/2-y,1/2+z
loop_
_atom_site_type_symbol
_atom_site_label
_atom_site_fract_x
_atom_site_fract_y
_atom_site_fract_z
Si Si1 0.500000 0.821031 0.529930
Si Si2 0.500000 0.400064 0.871336
Si Si3 1.000000 0.568428 0.206638
Si Si4 0.500000 0.680398 0.982285
Si Si5 1.000000 0.284772 0.812518
Si Si6 0.500000 0.916523 0.356754
Si Si7 0.500000 0.214279 0.168862
Si Si8 0.500000 0.574247 0.726543
O O1 0.500000 0.751179 0.502664
O O2 0.752476 0.846187 0.507661
O O3 0.500000 0.822726 0.604785
O O4 0.247524 0.846187 0.507661
O O5 0.252504 0.433120 0.885132
O O6 0.500000 0.394563 0.795270
O O7 0.747496 0.433120 0.885132
O O8 0.500000 0.337321 0.909241
O O9 1.000000 0.564340 0.283420
O O10 0.260747 0.592751 0.191598
O O11 0.000000 0.500000 0.181557
O O12 0.739253 0.592751 0.191598
O O13 0.750000 0.250000 0.819679
O O14 1.000000 0.308860 0.740424
O O15 0.250000 0.250000 0.819679
O O16 1.000000 0.343327 0.856240
O O17 0.250000 0.250000 0.164815
O O18 0.750000 0.250000 0.164815
O O19 0.500000 0.500000 0.735323
#
# Coordination Sequence:
#
# PCOD9353435 Si02
#       8
#     8   8   8   8   8   8   8   8
#     4  10  17  30  43  59  77 102 134 185 213 238
#     4  10  19  30  43  60  89 117 140 172 201 245
#     4   8  14  25  44  61  77 106 140 173 211 238
#     4  10  18  28  41  61  79 106 140 166 211 240
#     4  10  21  33  45  62  82 116 149 174 204 254
#     4  10  19  33  42  60  92 117 143 176 198 245
#     4  10  16  30  49  60  74 100 136 183 224 236
#     4   8  14  25  41  59  78 106 139 169 204 238
#
# _framework density 24.087201
#
# number of rings (size 3 to 8) (size 9 to 14) (size 15 to 20)
#    0.000    2.500    2.500    1.500    0.000    0.000 
#   13.500    0.000    0.000    0.000    0.000    0.000 
#    0.000    2.000    0.000    0.000    0.000    5.250 
#
# Total GULP energy -178459.100136 kJ/mol
# GULP energy per Si atom -5576.846879 kJ/mol
# Density = 2.403238 g / cm^3
# Si number density = 24.087201 Si / 1000 Ang^3
#
#
#
# Elastic Constant Matrix: (Units=GPa)
#
#
# Indices 1 2 3 4 5 6 
#
# 1 321.9354 38.2767 45.1370 0.0000 0.0000 0.0000
# 2 38.2767 84.6104 31.9022 0.0000 0.0000 0.0000
# 3 45.1370 31.9022 79.1948 0.0000 0.0000 0.0000
# 4 0.0000 0.0000 0.0000 6.0909 0.0000 0.0000
# 5 0.0000 0.0000 0.0000 0.0000 34.5934 0.0000
# 6 0.0000 0.0000 0.0000 0.0000 0.0000 10.1644
#
#
#
# Elastic Compliance Matrix: (Units=1/GPa)
#
#
# Indices 1 2 3 4 5 6 
#
# 1 0.003441 -0.000964 -0.001573 0.000000 0.000000 0.000000
# 2 -0.000964 0.014205 -0.005173 0.000000 0.000000 0.000000
# 3 -0.001573 -0.005173 0.015608 0.000000 0.000000 0.000000
# 4 0.000000 0.000000 0.000000 0.164179 0.000000 0.000000
# 5 0.000000 0.000000 0.000000 0.000000 0.028907 0.000000
# 6 0.000000 0.000000 0.000000 0.000000 0.000000 0.098383
#
#
# Mechanical properties :
#
#
# Convention : Reuss Voigt Hill
#
# Bulk Modulus (GPa) = 56.07155 79.59692 67.83424
# Shear Modulus (GPa) = 14.44721 34.86473 24.65597
#
# Velocity S-wave (km/s) = 2.45171 3.80865 3.20287
# Velocity P-wave (km/s) = 5.59854 7.24280 6.47309
#
# Compressibility (1/GPa) = 0.01783436
#
# Stress axis : x y z
#
# Youngs Moduli (GPa) = 290.58284 70.39609 64.07123
#
# Poissons Ratio (x) = 0.06784 0.10080
# Poissons Ratio (y) = 0.28002 0.33145
# Poissons Ratio (z) = 0.45715 0.36417
#
# Static dielectric constant tensor:
#      x y z
#    x 1.977280 0.000000 0.000000 
#    y 0.000000 1.979910 0.000000 
#    z 0.000000 0.000000 1.860690 
# 
# From -- ./inp_files/18148.got.cif
#   From: 2010.05.17/outbox.cif.g08.bks.cpg/sg37_10_cif.got.tgz:18148.got - 2010.06.03 17:53:42.
