data_PCOD9353255
_publ_section_title
;
Structure prediction by ZEFSAII (Michael W. Deem and Ramdas Pophale) SiO2 
 PCOD9353255
Probable space group: C M C 21
;
_chemical_formula_sum "Si O2"
_cell_formula_units_Z 40
_cell_length_a 11.299797
_cell_length_b 30.165545
_cell_length_c 5.099095
_cell_angle_alpha 90.000000
_cell_angle_beta 90.000000
_cell_angle_gamma 90.000000
_cell_volume 1738.100646
_symmetry_space_group_name_H-M "C M C 21"
_symmetry_group_IT_number 36
_symmetry_cell_setting 'orthorhombic'
loop_
_space_group_symop_operation_xyz
x,y,z
-x,-y,1/2+z
x,-y,1/2+z
-x,y,z
1/2+x,1/2+y,z
1/2-x,1/2-y,1/2+z
1/2+x,1/2-y,1/2+z
1/2-x,1/2+y,z
loop_
_atom_site_type_symbol
_atom_site_label
_atom_site_fract_x
_atom_site_fract_y
_atom_site_fract_z
Si Si1 0.500000 0.476042 0.347080
Si Si2 0.211007 0.767864 0.810458
Si Si3 0.000000 0.467474 0.191602
Si Si4 0.000000 0.347598 0.606655
Si Si5 0.743222 0.629725 0.173939
Si Si6 0.000000 0.711496 0.601954
Si Si7 0.267383 0.422832 0.176018
O O1 0.500000 0.481012 0.659182
O O2 0.373598 0.454782 0.265445
O O3 0.309122 0.746841 0.610844
O O4 0.212663 0.820484 0.765527
O O5 0.108799 0.742560 0.655205
O O6 0.129507 0.441068 0.191876
O O7 0.000000 0.499964 0.441826
O O8 0.115464 0.374501 0.671622
O O9 0.000000 0.328538 0.313227
O O10 0.000000 0.308418 0.816461
O O11 0.703211 0.594102 0.385151
O O12 0.714302 0.618665 0.874892
#
# Coordination Sequence:
#
# PCOD9353255 Si02
#       7
#     4   8   4   4   8   4   8
#     4  12  26  50  76 102 136 186 228 268 336 438
#     4  12  23  41  61  92 127 181 235 282 327 395
#     4  12  24  46  74 106 138 172 218 278 336 424
#     4  12  22  39  67  90 128 175 226 283 348 403
#     4  12  24  42  66  98 141 174 226 292 342 396
#     4  12  22  39  63  90 120 175 240 287 330 391
#     4  12  26  44  71 106 141 177 223 279 354 404
#
# _framework density 23.013629000000002
#
# number of rings (size 3 to 8) (size 9 to 14) (size 15 to 20)
#    0.000    0.000    4.000    7.200    0.000    1.600 
#    0.000    0.000    0.000    0.000    0.000    0.000 
#    0.000    0.000    0.000    0.000    0.000    0.000 
#
# Total GULP energy -111500.442357 kJ/mol
# GULP energy per Si atom -5575.022118 kJ/mol
# Density = 2.296125 g / cm^3
# Si number density = 23.013629 Si / 1000 Ang^3
#
#
#
# Elastic Constant Matrix: (Units=GPa)
#
#
# Indices 1 2 3 4 5 6 
#
# 1 41.0715 5.5030 4.5588 0.0000 0.0000 0.0000
# 2 5.5030 71.6297 21.6967 0.0000 0.0000 0.0000
# 3 4.5588 21.6967 110.0624 0.0000 0.0000 0.0000
# 4 0.0000 0.0000 0.0000 104.7027 0.0000 0.0000
# 5 0.0000 0.0000 0.0000 0.0000 34.0622 0.0000
# 6 0.0000 0.0000 0.0000 0.0000 0.0000 55.6314
#
#
#
# Elastic Compliance Matrix: (Units=1/GPa)
#
#
# Indices 1 2 3 4 5 6 
#
# 1 0.024650 -0.001685 -0.000689 0.000000 0.000000 0.000000
# 2 -0.001685 0.014962 -0.002880 0.000000 0.000000 0.000000
# 3 -0.000689 -0.002880 0.009682 0.000000 0.000000 0.000000
# 4 0.000000 0.000000 0.000000 0.009551 0.000000 0.000000
# 5 0.000000 0.000000 0.000000 0.000000 0.029358 0.000000
# 6 0.000000 0.000000 0.000000 0.000000 0.000000 0.017975
#
#
# Mechanical properties :
#
#
# Convention : Reuss Voigt Hill
#
# Bulk Modulus (GPa) = 25.78180 31.80895 28.79537
# Shear Modulus (GPa) = 38.57573 51.61292 45.09433
#
# Velocity S-wave (km/s) = 4.09860 4.74086 4.43138
# Velocity P-wave (km/s) = 5.79872 6.61963 6.22273
#
# Compressibility (1/GPa) = 0.03878705
#
# Stress axis : x y z
#
# Youngs Moduli (GPa) = 40.56796 66.83404 103.28473
#
# Poissons Ratio (x) = 0.11262 0.07115
# Poissons Ratio (y) = 0.06836 0.29744
# Poissons Ratio (z) = 0.02794 0.19247
#
# Static dielectric constant tensor:
#      x y z
#    x 2.029050 0.000000 0.000000 
#    y 0.000000 1.847270 0.000000 
#    z 0.000000 0.000000 1.922510 
# 
# From -- ./inp_files/536.got.cif
#   From: 2010.05.17/outbox.cif.g08.bks.cpg/sg36_1_cif.got.tgz:536.got - 2010.06.03 17:41:39.
