data_PCOD9353908
_publ_section_title
;
Structure prediction by ZEFSAII (Michael W. Deem and Ramdas Pophale) SiO2 
 PCOD9353908
Probable space group: C C C 2
;
_chemical_formula_sum "Si O2"
_cell_formula_units_Z 64
_cell_length_a 11.324741
_cell_length_b 10.877221
_cell_length_c 25.092761
_cell_angle_alpha 90.000000
_cell_angle_beta 90.000000
_cell_angle_gamma 90.000000
_cell_volume 3090.969224
_symmetry_space_group_name_H-M "C C C 2"
_symmetry_group_IT_number 37
_symmetry_cell_setting 'orthorhombic'
loop_
_space_group_symop_operation_xyz
x,y,z
-x,-y,z
-x,y,1/2+z
x,-y,1/2+z
1/2+x,1/2+y,z
1/2-x,1/2-y,z
1/2-x,1/2+y,1/2+z
1/2+x,1/2-y,1/2+z
loop_
_atom_site_type_symbol
_atom_site_label
_atom_site_fract_x
_atom_site_fract_y
_atom_site_fract_z
Si Si1 0.739828 0.547019 0.950390
Si Si2 0.557486 0.232281 0.835031
Si Si3 0.254002 0.943153 0.835116
Si Si4 0.100872 0.891180 0.266840
Si Si5 0.948147 0.749452 0.949690
Si Si6 0.248373 0.456059 0.068047
Si Si7 0.600149 0.391731 0.144300
Si Si8 0.051222 0.738971 0.567821
O O1 0.755828 0.468217 0.898018
O O2 0.842966 0.649383 0.950022
O O3 0.615453 0.618311 0.945286
O O4 0.748045 0.487424 0.008619
O O5 0.619063 0.106537 0.818541
O O6 0.656709 0.337035 0.827617
O O7 0.450423 0.275752 0.798768
O O8 0.523938 0.229016 0.897231
O O9 0.209471 0.056734 0.800749
O O10 0.127472 0.864200 0.205530
O O11 0.000000 0.000000 0.267129
O O12 0.003778 0.738330 0.008370
O O13 0.289835 0.551775 0.112180
O O14 0.124390 0.386375 0.077371
O O15 0.347766 0.346700 0.066435
O O16 0.500000 0.500000 0.144101
O O17 0.541876 0.279163 0.112139
#
# Coordination Sequence:
#
# PCOD9353908 Si02
#       8
#     8   8   8   8   8   8   8   8
#     4   9  17  30  49  73 101 130 165 217 275 324
#     4  10  20  32  48  73 102 138 180 220 271 324
#     4  10  20  32  48  73 102 138 180 220 271 324
#     4   9  18  32  45  67 105 143 181 226 265 312
#     4   9  17  30  49  73 101 130 165 217 275 324
#     4   8  15  26  41  69 102 131 173 223 266 319
#     4   9  16  26  44  69  99 143 183 209 268 325
#     4   8  15  26  41  69 102 131 173 223 266 319
#
# _framework density 20.705480999999999
#
# number of rings (size 3 to 8) (size 9 to 14) (size 15 to 20)
#    0.000    3.000    1.250    1.500    1.750    1.500 
#    0.000    5.000    0.000    0.000    0.000    3.500 
#    0.000    4.000    0.000    0.000    0.000    0.000 
#
# Total GULP energy -178535.342135 kJ/mol
# GULP energy per Si atom -5579.229442 kJ/mol
# Density = 2.065835 g / cm^3
# Si number density = 20.705481 Si / 1000 Ang^3
#
#
#
# Elastic Constant Matrix: (Units=GPa)
#
#
# Indices 1 2 3 4 5 6 
#
# 1 61.0408 46.6247 65.2184 0.0000 0.0000 0.0000
# 2 46.6247 36.0162 52.8188 0.0000 0.0000 0.0000
# 3 65.2184 52.8188 179.4756 0.0000 0.0000 0.0000
# 4 0.0000 0.0000 0.0000 -29.5896 0.0000 0.0000
# 5 0.0000 0.0000 0.0000 0.0000 -34.8662 0.0000
# 6 0.0000 0.0000 0.0000 0.0000 0.0000 24.1780
#
#
#
# Elastic Compliance Matrix: (Units=1/GPa)
#
#
# Indices 1 2 3 4 5 6 
#
# 1 1.709145 -2.290168 0.052911 0.000000 0.000000 0.000000
# 2 -2.290168 3.117557 -0.085274 0.000000 0.000000 0.000000
# 3 0.052911 -0.085274 0.011440 0.000000 0.000000 0.000000
# 4 0.000000 0.000000 0.000000 -0.033796 0.000000 0.000000
# 5 0.000000 0.000000 0.000000 0.000000 -0.028681 0.000000
# 6 0.000000 0.000000 0.000000 0.000000 0.000000 0.041360
#
#
# Mechanical properties :
#
#
# Convention : Reuss Voigt Hill
#
# Bulk Modulus (GPa) = 5.17917 67.31740 36.24828
# Shear Modulus (GPa) = 0.52485 -0.59751 -0.03633
#
# Velocity S-wave (km/s) = 0.50402 -0.53778 -0.13261
# Velocity P-wave (km/s) = 1.68686 5.67423 4.18583
#
# Compressibility (1/GPa) = 0.19308123
#
# Stress axis : x y z
#
# Youngs Moduli (GPa) = 0.58509 0.32076 87.40905
#
# Poissons Ratio (x) = 0.73460 -4.62490
# Poissons Ratio (y) = 1.33995 7.45369
# Poissons Ratio (z) = -0.03096 0.02735
#
# Static dielectric constant tensor:
#      x y z
#    x 1.765810 0.000000 0.000000 
#    y 0.000000 1.770370 0.000000 
#    z 0.000000 0.000000 1.701730 
# 
# From -- ./inp_files/18773.got.cif
#   From: 2010.05.17/outbox.cif.g08.bks.cpg/sg37_10_cif.got.tgz:18773.got - 2010.06.03 17:53:42.
