data_PCOD9353479
_publ_section_title
;
Structure prediction by ZEFSAII (Michael W. Deem and Ramdas Pophale) SiO2 
 PCOD9353479
Probable space group: C C C 2
;
_chemical_formula_sum "Si O2"
_cell_formula_units_Z 52
_cell_length_a 19.362139
_cell_length_b 6.908140
_cell_length_c 14.833557
_cell_angle_alpha 90.000000
_cell_angle_beta 90.000000
_cell_angle_gamma 90.000000
_cell_volume 1984.082693
_symmetry_space_group_name_H-M "C C C 2"
_symmetry_group_IT_number 37
_symmetry_cell_setting 'orthorhombic'
loop_
_space_group_symop_operation_xyz
x,y,z
-x,-y,z
-x,y,1/2+z
x,-y,1/2+z
1/2+x,1/2+y,z
1/2-x,1/2-y,z
1/2-x,1/2+y,1/2+z
1/2+x,1/2-y,1/2+z
loop_
_atom_site_type_symbol
_atom_site_label
_atom_site_fract_x
_atom_site_fract_y
_atom_site_fract_z
Si Si1 0.427394 0.707239 0.185810
Si Si2 0.520581 0.225610 0.846126
Si Si3 0.647913 0.887805 0.136029
Si Si4 0.250000 0.250000 0.998252
Si Si5 0.674125 0.179422 0.837359
Si Si6 0.481287 0.234030 0.033234
Si Si7 0.176907 0.772768 0.328936
O O1 0.496392 0.710885 0.247590
O O2 0.456666 0.662310 0.087284
O O3 0.374024 0.624692 0.259941
O O4 0.389123 0.912880 0.165528
O O5 0.600390 0.262185 0.868954
O O6 0.500000 0.000000 0.840714
O O7 0.475953 0.298621 0.930236
O O8 0.709317 0.896226 0.063386
O O9 0.673633 0.798480 0.229097
O O10 0.589693 0.760224 0.087312
O O11 0.198064 0.145587 0.926918
O O12 0.750000 0.250000 0.868655
O O13 0.660574 0.949906 0.853413
O O14 0.500000 0.000000 0.031292
O O15 0.250000 0.750000 0.277608
#
# Coordination Sequence:
#
# PCOD9353479 Si02
#       7
#     8   8   8   4   8   8   8
#     4  10  17  32  50  81 115 139 195 247 298 330
#     4  11  17  30  53  82 111 147 191 255 293 344
#     4  10  17  29  50  84 109 140 190 256 298 349
#     4  10  20  32  52  84 110 162 198 242 308 384
#     4  11  21  35  55  85 122 153 188 252 317 362
#     4   9  18  25  49  79 104 138 189 252 297 331
#     4   9  21  34  54  79 117 158 197 240 295 373
#
# _framework density 26.208586
#
# number of rings (size 3 to 8) (size 9 to 14) (size 15 to 20)
#    0.462    1.538    5.385    1.385    4.308    0.000 
#    0.000    0.769    0.000    0.923    0.000    2.154 
#    0.000    0.000    0.000    0.000    0.000    0.000 
#
# Total GULP energy -144951.293248 kJ/mol
# GULP energy per Si atom -5575.049740 kJ/mol
# Density = 2.614893 g / cm^3
# Si number density = 26.208586 Si / 1000 Ang^3
#
#
#
# Elastic Constant Matrix: (Units=GPa)
#
#
# Indices 1 2 3 4 5 6 
#
# 1 140.9974 13.2550 25.4477 0.0000 0.0000 0.0000
# 2 13.2550 113.4263 2.6650 0.0000 0.0000 0.0000
# 3 25.4477 2.6650 153.3097 0.0000 0.0000 0.0000
# 4 0.0000 0.0000 0.0000 -8.4481 0.0000 0.0000
# 5 0.0000 0.0000 0.0000 0.0000 40.4108 0.0000
# 6 0.0000 0.0000 0.0000 0.0000 0.0000 23.6020
#
#
#
# Elastic Compliance Matrix: (Units=1/GPa)
#
#
# Indices 1 2 3 4 5 6 
#
# 1 0.007390 -0.000835 -0.001212 0.000000 0.000000 0.000000
# 2 -0.000835 0.008914 -0.000016 0.000000 0.000000 0.000000
# 3 -0.001212 -0.000016 0.006724 0.000000 0.000000 0.000000
# 4 0.000000 0.000000 0.000000 -0.118370 0.000000 0.000000
# 5 0.000000 0.000000 0.000000 0.000000 0.024746 0.000000
# 6 0.000000 0.000000 0.000000 0.000000 0.000000 0.042369
#
#
# Mechanical properties :
#
#
# Convention : Reuss Voigt Hill
#
# Bulk Modulus (GPa) = 52.90697 54.49653 53.70175
# Shear Modulus (GPa) = -280.91145 35.53732 -122.68706
#
# Velocity S-wave (km/s) = -10.36415 3.68631 -6.84934
# Velocity P-wave (km/s) = 11.09009 6.24155 6.48202
#
# Compressibility (1/GPa) = 0.01890110
#
# Stress axis : x y z
#
# Youngs Moduli (GPa) = 135.32544 112.17974 148.71613
#
# Poissons Ratio (x) = 0.09368 0.18025
# Poissons Ratio (y) = 0.11301 0.00243
# Poissons Ratio (z) = 0.16402 0.00183
#
# Static dielectric constant tensor:
#      x y z
#    x 2.492800 0.000000 0.000000 
#    y 0.000000 2.270200 0.000000 
#    z 0.000000 0.000000 1.990540 
# 
# From -- ./inp_files/13009.got.cif
#   From: 2010.05.17/outbox.cif.g08.bks.cpg/sg37_7_cif.got.tgz:13009.got - 2010.06.03 17:53:42.
