data_PCOD9353402
_publ_section_title
;
Structure prediction by ZEFSAII (Michael W. Deem and Ramdas Pophale) SiO2 
 PCOD9353402
Probable space group: C M C 21
;
_chemical_formula_sum "Si O2"
_cell_formula_units_Z 24
_cell_length_a 30.000000
_cell_length_b 9.000000
_cell_length_c 9.000000
_cell_angle_alpha 90.000000
_cell_angle_beta 90.000000
_cell_angle_gamma 90.000000
_cell_volume 2430.000000
_symmetry_space_group_name_H-M "C M C 21"
_symmetry_group_IT_number 36
_symmetry_cell_setting 'orthorhombic'
loop_
_space_group_symop_operation_xyz
x,y,z
-x,-y,1/2+z
x,-y,1/2+z
-x,y,z
1/2+x,1/2+y,z
1/2-x,1/2-y,1/2+z
1/2+x,1/2-y,1/2+z
1/2-x,1/2+y,z
loop_
_atom_site_type_symbol
_atom_site_label
_atom_site_fract_x
_atom_site_fract_y
_atom_site_fract_z
Si Si1 0.051056 0.728272 0.177840
Si Si2 0.795712 0.843036 0.618580
Si Si3 0.948674 0.540858 0.875206
Si Si4 0.849282 0.363433 0.330822
Si Si5 0.709359 0.840531 0.827454
Si Si6 0.147247 0.148195 0.613194
O O1 0.054085 0.633862 0.331383
O O2 0.093888 0.837779 0.155727
O O3 0.000000 0.791320 0.168795
O O4 0.053753 0.603739 0.044528
O O5 0.826941 0.718037 0.692357
O O6 0.753462 0.875259 0.727885
O O7 0.777994 0.762100 0.469107
O O8 0.827440 0.988802 0.596320
O O9 0.901875 0.600656 0.806663
O O10 0.000000 0.583762 0.825344
O O11 0.818912 0.509506 0.364673
O O12 0.847699 0.243991 0.463492
O O13 0.675093 0.738728 0.735253
#
# Coordination Sequence:
#
# PCOD9353402 Si02
#       6
#     8   8   8   8   8   8
#     4   9  18  35  62  93 129 166 205 252 304 364
#     4  12  27  43  65  91 125 162 208 266 322 373
#     4   9  18  34  61  94 125 161 209 256 296 358
#     4  11  23  41  65  92 125 165 211 255 305 373
#     4  12  25  44  66  89 120 166 215 258 310 377
#     4  11  23  41  63  95 130 164 206 259 317 369
#
# _framework density 9.8765429999999999
#
# number of rings (size 3 to 8) (size 9 to 14) (size 15 to 20)
#    0.000    1.333    1.667    4.000    2.333    4.000 
#    0.000    2.500    0.000    4.000    0.000    0.000 
#    0.000    0.000    0.000    0.000    0.000    0.000 
#
# Total GULP energy -133887.983673 kJ/mol
# GULP energy per Si atom -5578.665986 kJ/mol
# Density = 0.985406 g / cm^3
# Si number density = 9.876543 Si / 1000 Ang^3
#
#
#
# Elastic Constant Matrix: (Units=GPa)
#
#
# Indices 1 2 3 4 5 6 
#
# 1 191.1855 54.9014 36.0489 0.0000 0.0000 0.0000
# 2 54.9014 117.0963 24.5331 0.0000 0.0000 0.0000
# 3 36.0489 24.5331 61.9344 0.0000 0.0000 0.0000
# 4 0.0000 0.0000 0.0000 32.0081 0.0000 0.0000
# 5 0.0000 0.0000 0.0000 0.0000 33.2175 0.0000
# 6 0.0000 0.0000 0.0000 0.0000 0.0000 33.7004
#
#
#
# Elastic Compliance Matrix: (Units=1/GPa)
#
#
# Indices 1 2 3 4 5 6 
#
# 1 0.006458 -0.002443 -0.002791 0.000000 0.000000 0.000000
# 2 -0.002443 0.010237 -0.002633 0.000000 0.000000 0.000000
# 3 -0.002791 -0.002633 0.018814 0.000000 0.000000 0.000000
# 4 0.000000 0.000000 0.000000 0.031242 0.000000 0.000000
# 5 0.000000 0.000000 0.000000 0.000000 0.030105 0.000000
# 6 0.000000 0.000000 0.000000 0.000000 0.000000 0.029673
#
#
# Mechanical properties :
#
#
# Convention : Reuss Voigt Hill
#
# Bulk Modulus (GPa) = 50.57087 66.79811 58.68449
# Shear Modulus (GPa) = 33.58954 36.76740 35.17847
#
# Velocity S-wave (km/s) = 4.12815 4.31902 4.22466
# Velocity P-wave (km/s) = 6.95552 7.66563 7.31919
#
# Compressibility (1/GPa) = 0.01977423
#
# Stress axis : x y z
#
# Youngs Moduli (GPa) = 154.83578 97.68330 53.15254
#
# Poissons Ratio (x) = 0.23867 0.14837
# Poissons Ratio (y) = 0.37831 0.13995
# Poissons Ratio (z) = 0.43220 0.25720
#
# Static dielectric constant tensor:
#      x y z
#    x 1.716280 0.000000 0.000000 
#    y 0.000000 1.684640 0.000000 
#    z 0.000000 0.000000 1.765000 
# 
# From -- ./inp_files/5979.got.cif
#   From: 2010.05.17/outbox.ucp.g08.bks.cvg/sg36_3_cif.got.tgz:5979.got - 2010.06.11 10:37:26.
