data_PCOD9353713
_publ_section_title
;
Structure prediction by ZEFSAII (Michael W. Deem and Ramdas Pophale) SiO2 
 PCOD9353713
Probable space group: C C C 2
;
_chemical_formula_sum "Si O2"
_cell_formula_units_Z 48
_cell_length_a 22.276292
_cell_length_b 5.536918
_cell_length_c 14.753982
_cell_angle_alpha 90.000000
_cell_angle_beta 90.000000
_cell_angle_gamma 90.000000
_cell_volume 1819.785680
_symmetry_space_group_name_H-M "C C C 2"
_symmetry_group_IT_number 37
_symmetry_cell_setting 'orthorhombic'
loop_
_space_group_symop_operation_xyz
x,y,z
-x,-y,z
-x,y,1/2+z
x,-y,1/2+z
1/2+x,1/2+y,z
1/2-x,1/2-y,z
1/2-x,1/2+y,1/2+z
1/2+x,1/2-y,1/2+z
loop_
_atom_site_type_symbol
_atom_site_label
_atom_site_fract_x
_atom_site_fract_y
_atom_site_fract_z
Si Si1 0.110925 0.999880 0.436200
Si Si2 0.997124 0.751068 0.101104
Si Si3 0.398561 0.663162 0.249051
Si Si4 0.745158 0.500284 0.857428
Si Si5 0.369721 0.836859 0.694424
Si Si6 0.852729 0.496640 0.504487
O O1 0.076589 0.952990 0.342164
O O2 0.180645 0.999274 0.404031
O O3 0.108728 0.747488 0.488752
O O4 0.109739 0.257074 0.486618
O O5 0.051507 0.790783 0.172651
O O6 0.000000 0.500000 0.049462
O O7 0.938800 0.710176 0.163888
O O8 0.000000 0.000000 0.045282
O O9 0.354498 0.443888 0.216214
O O10 0.372601 0.937598 0.265712
O O11 0.750000 0.750000 0.805451
O O12 0.750000 0.250000 0.805009
O O13 0.795183 0.499119 0.937957
O O14 0.335760 0.958997 0.609576
#
# Coordination Sequence:
#
# PCOD9353713 Si02
#       6
#     8   8   8   8   8   8
#     4  10  19  33  55  79 107 145 186 228 278 333
#     4   8  16  30  50  72 100 134 168 208 264 318
#     4  10  19  33  55  80 107 142 184 226 277 334
#     4   8  16  30  50  70 100 140 178 218 272 324
#     4  10  19  33  55  80 107 142 184 226 277 334
#     4  10  19  33  55  79 107 145 186 228 278 333
#
# _framework density 26.376733000000002
#
# number of rings (size 3 to 8) (size 9 to 14) (size 15 to 20)
#    0.000    2.667    0.000    2.000    0.000    0.000 
#    0.000    0.000    0.000   90.000    0.000    0.000 
#    0.000    0.000    0.000    0.000    0.000    0.000 
#
# Total GULP energy -133773.005481 kJ/mol
# GULP energy per Si atom -5573.875228 kJ/mol
# Density = 2.631670 g / cm^3
# Si number density = 26.376733 Si / 1000 Ang^3
#
#
#
# Elastic Constant Matrix: (Units=GPa)
#
#
# Indices 1 2 3 4 5 6 
#
# 1 87.0319 28.8864 12.0414 0.0000 0.0000 0.0000
# 2 28.8864 297.9979 20.7958 0.0000 0.0000 0.0000
# 3 12.0414 20.7958 89.9453 0.0000 0.0000 0.0000
# 4 0.0000 0.0000 0.0000 43.0728 0.0000 0.0000
# 5 0.0000 0.0000 0.0000 0.0000 26.4621 0.0000
# 6 0.0000 0.0000 0.0000 0.0000 0.0000 40.7100
#
#
#
# Elastic Compliance Matrix: (Units=1/GPa)
#
#
# Indices 1 2 3 4 5 6 
#
# 1 0.012034 -0.001071 -0.001363 0.000000 0.000000 0.000000
# 2 -0.001071 0.003506 -0.000667 0.000000 0.000000 0.000000
# 3 -0.001363 -0.000667 0.011455 0.000000 0.000000 0.000000
# 4 0.000000 0.000000 0.000000 0.023217 0.000000 0.000000
# 5 0.000000 0.000000 0.000000 0.000000 0.037790 0.000000
# 6 0.000000 0.000000 0.000000 0.000000 0.000000 0.024564
#
#
# Mechanical properties :
#
#
# Convention : Reuss Voigt Hill
#
# Bulk Modulus (GPa) = 48.09745 66.49135 57.29440
# Shear Modulus (GPa) = 39.77732 49.59909 44.68821
#
# Velocity S-wave (km/s) = 3.88757 4.34107 4.12057
# Velocity P-wave (km/s) = 6.19882 7.09857 6.66389
#
# Compressibility (1/GPa) = 0.02079112
#
# Stress axis : x y z
#
# Youngs Moduli (GPa) = 83.09603 285.21358 87.30079
#
# Poissons Ratio (x) = 0.30558 0.11902
# Poissons Ratio (y) = 0.08903 0.05825
# Poissons Ratio (z) = 0.11329 0.19030
#
# Static dielectric constant tensor:
#      x y z
#    x 2.151780 0.000000 0.000000 
#    y 0.000000 2.239030 0.000000 
#    z 0.000000 0.000000 2.115550 
# 
# From -- ./inp_files/9848.got.cif
#   From: 2010.05.17/outbox.cif.g08.bks.cpg/sg37_5_cif.got.tgz:9848.got - 2010.06.03 17:53:42.
