data_PCOD9353120
_publ_section_title
;
Structure prediction by ZEFSAII (Michael W. Deem and Ramdas Pophale) SiO2 
 PCOD9353120
Probable space group: C M C 21
;
_chemical_formula_sum "Si O2"
_cell_formula_units_Z 48
_cell_length_a 13.610619
_cell_length_b 17.192628
_cell_length_c 9.496701
_cell_angle_alpha 90.000000
_cell_angle_beta 90.000000
_cell_angle_gamma 90.000000
_cell_volume 2222.249965
_symmetry_space_group_name_H-M "C M C 21"
_symmetry_group_IT_number 36
_symmetry_cell_setting 'orthorhombic'
loop_
_space_group_symop_operation_xyz
x,y,z
-x,-y,1/2+z
x,-y,1/2+z
-x,y,z
1/2+x,1/2+y,z
1/2-x,1/2-y,1/2+z
1/2+x,1/2-y,1/2+z
1/2-x,1/2+y,z
loop_
_atom_site_type_symbol
_atom_site_label
_atom_site_fract_x
_atom_site_fract_y
_atom_site_fract_z
Si Si1 0.285288 0.156928 0.967330
Si Si2 0.301796 0.597332 0.225141
Si Si3 0.277219 0.573550 0.698734
Si Si4 0.000000 0.841251 0.872478
Si Si5 0.000000 0.321764 0.523968
Si Si6 0.500000 0.392856 0.196483
Si Si7 0.295852 0.179452 0.456118
Si Si8 0.500000 0.765107 0.852991
O O1 0.259627 0.137899 0.807686
O O2 0.272261 0.248175 0.999639
O O3 0.204904 0.111380 0.059304
O O4 0.397268 0.134435 0.999476
O O5 0.252169 0.513218 0.246468
O O6 0.405597 0.621491 0.294081
O O7 0.229403 0.658704 0.296373
O O8 0.395408 0.565963 0.704320
O O9 0.234747 0.605589 0.551264
O O10 0.000000 0.865021 0.035283
O O11 0.000000 0.747467 0.901972
O O12 0.000000 0.297268 0.690272
O O13 0.500000 0.326374 0.316070
O O14 0.406774 0.208658 0.445466
#
# Coordination Sequence:
#
# PCOD9353120 Si02
#       8
#     8   8   8   4   4   4   8   4
#     4  12  25  44  72 100 139 182 238 289 348 428
#     4  12  25  45  68 104 141 181 228 291 362 423
#     4  12  26  44  69 106 145 182 228 295 365 421
#     4  11  23  41  76 100 140 178 235 294 356 420
#     4  11  22  42  72 106 131 180 241 295 343 406
#     4  11  21  44  71 103 141 179 229 301 354 416
#     4  12  23  45  71  99 135 186 235 286 345 425
#     4  11  22  43  73 105 130 181 245 290 341 416
#
# _framework density 21.599729
#
# number of rings (size 3 to 8) (size 9 to 14) (size 15 to 20)
#    0.000    0.333    6.667    3.500    0.000    2.000 
#    0.000    5.000    0.000    0.000    0.000    0.000 
#    0.000    0.000    0.000    0.000    0.000    0.000 
#
# Total GULP energy -133816.091118 kJ/mol
# GULP energy per Si atom -5575.670463 kJ/mol
# Density = 2.155057 g / cm^3
# Si number density = 21.599729 Si / 1000 Ang^3
#
#
#
# Elastic Constant Matrix: (Units=GPa)
#
#
# Indices 1 2 3 4 5 6 
#
# 1 110.9243 4.1221 13.6906 0.0000 0.0000 0.0000
# 2 4.1221 63.7280 10.3362 0.0000 0.0000 0.0000
# 3 13.6906 10.3362 67.2604 0.0000 0.0000 0.0000
# 4 0.0000 0.0000 0.0000 22.7328 0.0000 0.0000
# 5 0.0000 0.0000 0.0000 0.0000 41.0077 0.0000
# 6 0.0000 0.0000 0.0000 0.0000 0.0000 17.1596
#
#
#
# Elastic Compliance Matrix: (Units=1/GPa)
#
#
# Indices 1 2 3 4 5 6 
#
# 1 0.009253 -0.000301 -0.001837 0.000000 0.000000 0.000000
# 2 -0.000301 0.016103 -0.002413 0.000000 0.000000 0.000000
# 3 -0.001837 -0.002413 0.015612 0.000000 0.000000 0.000000
# 4 0.000000 0.000000 0.000000 0.043989 0.000000 0.000000
# 5 0.000000 0.000000 0.000000 0.000000 0.024386 0.000000
# 6 0.000000 0.000000 0.000000 0.000000 0.000000 0.058276
#
#
# Mechanical properties :
#
#
# Convention : Reuss Voigt Hill
#
# Bulk Modulus (GPa) = 31.38162 33.13448 32.25805
# Shear Modulus (GPa) = 26.68893 30.43094 28.55993
#
# Velocity S-wave (km/s) = 3.51894 3.75755 3.64020
# Velocity P-wave (km/s) = 5.57413 5.84800 5.71270
#
# Compressibility (1/GPa) = 0.03186578
#
# Stress axis : x y z
#
# Youngs Moduli (GPa) = 108.07205 62.10195 64.05150
#
# Poissons Ratio (x) = 0.01866 0.11768
# Poissons Ratio (y) = 0.03248 0.15458
# Poissons Ratio (z) = 0.19855 0.14988
#
# Static dielectric constant tensor:
#      x y z
#    x 1.791270 0.000000 0.000000 
#    y 0.000000 1.808500 0.000000 
#    z 0.000000 0.000000 1.731090 
# 
# From -- ./inp_files/4044.got.cif
#   From: 2010.05.17/outbox.cif.g08.bks.cpg/sg36_3_cif.got.tgz:4044.got - 2010.06.03 17:41:39.
