data_PCOD9353610
_publ_section_title
;
Structure prediction by ZEFSAII (Michael W. Deem and Ramdas Pophale) SiO2 
 PCOD9353610
Probable space group: C C C 2
;
_chemical_formula_sum "Si O2"
_cell_formula_units_Z 60
_cell_length_a 21.740146
_cell_length_b 14.451215
_cell_length_c 10.610816
_cell_angle_alpha 90.000000
_cell_angle_beta 90.000000
_cell_angle_gamma 90.000000
_cell_volume 3333.616233
_symmetry_space_group_name_H-M "C C C 2"
_symmetry_group_IT_number 37
_symmetry_cell_setting 'orthorhombic'
loop_
_space_group_symop_operation_xyz
x,y,z
-x,-y,z
-x,y,1/2+z
x,-y,1/2+z
1/2+x,1/2+y,z
1/2-x,1/2-y,z
1/2-x,1/2+y,1/2+z
1/2+x,1/2-y,1/2+z
loop_
_atom_site_type_symbol
_atom_site_label
_atom_site_fract_x
_atom_site_fract_y
_atom_site_fract_z
Si Si1 0.750000 0.250000 0.274000
Si Si2 0.248780 0.983091 0.434490
Si Si3 0.715914 0.404483 0.697340
Si Si4 0.813625 0.663286 0.539894
Si Si5 0.353167 0.171381 0.907175
Si Si6 0.429613 0.105095 0.673836
Si Si7 0.573721 0.116228 0.655199
Si Si8 0.168507 0.721722 0.782242
O O1 0.775362 0.321536 0.167826
O O2 0.688857 0.259899 0.362553
O O3 0.213025 0.948399 0.558891
O O4 0.298648 0.904407 0.405227
O O5 0.214365 0.018838 0.308680
O O6 0.287988 0.070798 0.479232
O O7 0.780399 0.346635 0.718002
O O8 0.667895 0.321394 0.717077
O O9 0.884150 0.651901 0.576030
O O10 0.812850 0.737683 0.427760
O O11 0.404885 0.143290 0.806536
O O12 0.388467 0.162043 0.039452
O O13 0.500578 0.127231 0.650255
O O14 0.417554 0.994583 0.664334
O O15 0.605040 0.166547 0.773298
#
# Coordination Sequence:
#
# PCOD9353610 Si02
#       8
#     4   8   8   8   8   8   8   8
#     4  10  22  34  52  76 108 144 180 230 286 322
#     4  11  19  33  54  76 107 145 182 227 276 337
#     4  10  20  32  51  75 105 142 182 228 284 328
#     4  10  18  36  52  74 106 146 178 218 276 342
#     4  11  22  35  52  78 111 144 186 234 271 326
#     4  10  22  34  52  76 109 153 188 215 264 332
#     4  11  22  33  52  79 109 150 190 221 264 322
#     4  10  20  33  51  74 107 145 182 228 275 329
#
# _framework density 17.998472
#
# number of rings (size 3 to 8) (size 9 to 14) (size 15 to 20)
#    0.000    1.600    2.667    4.800    3.733    1.067 
#    0.000    0.000    0.000    0.000    0.000    0.000 
#    0.000   45.867    0.000    0.000    0.000    0.000 
#
# Total GULP energy -167006.311424 kJ/mol
# GULP energy per Si atom -5566.877047 kJ/mol
# Density = 1.795751 g / cm^3
# Si number density = 17.998472 Si / 1000 Ang^3
#
#
#
# Elastic Constant Matrix: (Units=GPa)
#
#
# Indices 1 2 3 4 5 6 
#
# 1 91.2009 25.7532 35.1339 0.0000 0.0000 0.0000
# 2 25.7532 40.6891 30.6469 0.0000 0.0000 0.0000
# 3 35.1339 30.6469 122.4723 0.0000 0.0000 0.0000
# 4 0.0000 0.0000 0.0000 24.3613 0.0000 0.0000
# 5 0.0000 0.0000 0.0000 0.0000 11.8583 0.0000
# 6 0.0000 0.0000 0.0000 0.0000 0.0000 29.4375
#
#
#
# Elastic Compliance Matrix: (Units=1/GPa)
#
#
# Indices 1 2 3 4 5 6 
#
# 1 0.013810 -0.007094 -0.002187 0.000000 0.000000 0.000000
# 2 -0.007094 0.033928 -0.006455 0.000000 0.000000 0.000000
# 3 -0.002187 -0.006455 0.010408 0.000000 0.000000 0.000000
# 4 0.000000 0.000000 0.000000 0.041049 0.000000 0.000000
# 5 0.000000 0.000000 0.000000 0.000000 0.084329 0.000000
# 6 0.000000 0.000000 0.000000 0.000000 0.000000 0.033970
#
#
# Mechanical properties :
#
#
# Convention : Reuss Voigt Hill
#
# Bulk Modulus (GPa) = 37.48801 48.60338 43.04569
# Shear Modulus (GPa) = 19.39056 23.98666 21.68861
#
# Velocity S-wave (km/s) = 3.28585 3.65458 3.47511
# Velocity P-wave (km/s) = 5.93881 6.69857 6.33010
#
# Compressibility (1/GPa) = 0.02667520
#
# Stress axis : x y z
#
# Youngs Moduli (GPa) = 72.40937 29.47378 96.08290
#
# Poissons Ratio (x) = 0.20909 0.21010
# Poissons Ratio (y) = 0.51367 0.62022
# Poissons Ratio (z) = 0.15833 0.19025
#
# Static dielectric constant tensor:
#      x y z
#    x 1.625990 0.000000 0.000000 
#    y 0.000000 1.674520 0.000000 
#    z 0.000000 0.000000 1.708580 
# 
# From -- ./inp_files/8682.got.cif
#   From: 2010.05.17/outbox.cif.g08.bks.cpg/sg37_5_cif.got.tgz:8682.got - 2010.06.03 17:53:42.
