data_PCOD9353912
_publ_section_title
;
Structure prediction by ZEFSAII (Michael W. Deem and Ramdas Pophale) SiO2 
 PCOD9353912
Probable space group: C C C 2
;
_chemical_formula_sum "Si O2"
_cell_formula_units_Z 64
_cell_length_a 25.556866
_cell_length_b 9.110524
_cell_length_c 13.691697
_cell_angle_alpha 90.000000
_cell_angle_beta 90.000000
_cell_angle_gamma 90.000000
_cell_volume 3187.926002
_symmetry_space_group_name_H-M "C C C 2"
_symmetry_group_IT_number 37
_symmetry_cell_setting 'orthorhombic'
loop_
_space_group_symop_operation_xyz
x,y,z
-x,-y,z
-x,y,1/2+z
x,-y,1/2+z
1/2+x,1/2+y,z
1/2-x,1/2-y,z
1/2-x,1/2+y,1/2+z
1/2+x,1/2-y,1/2+z
loop_
_atom_site_type_symbol
_atom_site_label
_atom_site_fract_x
_atom_site_fract_y
_atom_site_fract_z
Si Si1 0.562132 0.522086 0.812640
Si Si2 0.694089 0.766345 0.002080
Si Si3 0.070682 0.238234 0.184462
Si Si4 0.873333 0.526766 0.862604
Si Si5 0.165801 0.460583 0.163484
Si Si6 0.611382 0.187130 0.038735
Si Si7 0.608865 0.537007 0.021524
Si Si8 0.953989 0.321510 0.216642
O O1 0.500000 0.500000 0.826112
O O2 0.586183 0.372097 0.771426
O O3 0.587874 0.563007 0.913424
O O4 0.566659 0.656685 0.738238
O O5 0.750000 0.750000 0.951551
O O6 0.653065 0.854291 0.933984
O O7 0.664897 0.616685 0.031115
O O8 0.704728 0.864556 0.098958
O O9 0.113292 0.359138 0.158380
O O10 0.016493 0.312877 0.216293
O O11 0.069241 0.123690 0.094003
O O12 0.830743 0.487091 0.778726
O O13 0.923236 0.585714 0.799690
O O14 0.888216 0.392307 0.933862
O O15 0.156708 0.612214 0.105218
O O16 0.561685 0.143414 0.105518
O O17 0.613317 0.362250 0.033458
#
# Coordination Sequence:
#
# PCOD9353912 Si02
#       8
#     8   8   8   8   8   8   8   8
#     4  10  20  32  55  89 120 159 207 252 300 365
#     4  10  22  43  67  89 118 160 209 267 318 370
#     4  10  21  37  58  85 126 169 209 251 303 369
#     4  10  20  41  61  87 123 162 201 255 317 378
#     4   9  21  41  56  84 126 160 198 254 311 371
#     4  10  21  35  60  86 124 161 201 254 309 369
#     4  11  21  37  61  90 119 164 207 257 310 365
#     4  10  20  38  58  89 126 166 210 254 303 373
#
# _framework density 20.075748000000001
#
# number of rings (size 3 to 8) (size 9 to 14) (size 15 to 20)
#    0.000    2.000    2.500    0.750    1.750    2.000 
#    0.000   15.000    0.000    0.000    0.000    0.000 
#    0.000    0.000    0.000    0.000    0.000    0.000 
#
# Total GULP energy -178281.131530 kJ/mol
# GULP energy per Si atom -5571.285360 kJ/mol
# Density = 2.003005 g / cm^3
# Si number density = 20.075748 Si / 1000 Ang^3
#
#
#
# Elastic Constant Matrix: (Units=GPa)
#
#
# Indices 1 2 3 4 5 6 
#
# 1 39.5180 32.8468 26.7358 0.0000 0.0000 0.0000
# 2 32.8468 90.1224 13.8777 0.0000 0.0000 0.0000
# 3 26.7358 13.8777 93.4552 0.0000 0.0000 0.0000
# 4 0.0000 0.0000 0.0000 35.7261 0.0000 0.0000
# 5 0.0000 0.0000 0.0000 0.0000 16.5080 0.0000
# 6 0.0000 0.0000 0.0000 0.0000 0.0000 13.0725
#
#
#
# Elastic Compliance Matrix: (Units=1/GPa)
#
#
# Indices 1 2 3 4 5 6 
#
# 1 0.044642 -0.014639 -0.010598 0.000000 0.000000 0.000000
# 2 -0.014639 0.016156 0.001789 0.000000 0.000000 0.000000
# 3 -0.010598 0.001789 0.013466 0.000000 0.000000 0.000000
# 4 0.000000 0.000000 0.000000 0.027991 0.000000 0.000000
# 5 0.000000 0.000000 0.000000 0.000000 0.060577 0.000000
# 6 0.000000 0.000000 0.000000 0.000000 0.000000 0.076496
#
#
# Mechanical properties :
#
#
# Convention : Reuss Voigt Hill
#
# Bulk Modulus (GPa) = 36.53691 41.11291 38.82491
# Shear Modulus (GPa) = 16.92924 23.03700 19.98312
#
# Velocity S-wave (km/s) = 2.90706 3.39116 3.15840
# Velocity P-wave (km/s) = 5.43204 5.98804 5.71680
#
# Compressibility (1/GPa) = 0.02736958
#
# Stress axis : x y z
#
# Youngs Moduli (GPa) = 22.40026 61.89662 74.25864
#
# Poissons Ratio (x) = 0.90610 0.78696
# Poissons Ratio (y) = 0.32791 -0.13284
# Poissons Ratio (z) = 0.23739 -0.11072
#
# Static dielectric constant tensor:
#      x y z
#    x 1.712790 0.000000 0.000000 
#    y 0.000000 1.766540 0.000000 
#    z 0.000000 0.000000 1.735820 
# 
# From -- ./inp_files/13175.got.cif
#   From: 2010.05.17/outbox.cif.g08.bks.cpg/sg37_7_cif.got.tgz:13175.got - 2010.06.03 17:53:42.
