data_PCOD9353300
_publ_section_title
;
Structure prediction by ZEFSAII (Michael W. Deem and Ramdas Pophale) SiO2 
 PCOD9353300
Probable space group: C M C 21
;
_chemical_formula_sum "Si O2"
_cell_formula_units_Z 32
_cell_length_a 9.000000
_cell_length_b 21.000000
_cell_length_c 18.000000
_cell_angle_alpha 90.000000
_cell_angle_beta 90.000000
_cell_angle_gamma 90.000000
_cell_volume 3402.000000
_symmetry_space_group_name_H-M "C M C 21"
_symmetry_group_IT_number 36
_symmetry_cell_setting 'orthorhombic'
loop_
_space_group_symop_operation_xyz
x,y,z
-x,-y,1/2+z
x,-y,1/2+z
-x,y,z
1/2+x,1/2+y,z
1/2-x,1/2-y,1/2+z
1/2+x,1/2-y,1/2+z
1/2-x,1/2+y,z
loop_
_atom_site_type_symbol
_atom_site_label
_atom_site_fract_x
_atom_site_fract_y
_atom_site_fract_z
Si Si1 0.819782 0.363613 0.967190
Si Si2 0.168403 0.094584 0.705006
Si Si3 0.321255 0.009722 0.395338
Si Si4 0.177594 0.704764 0.617865
Si Si5 0.320243 0.453852 0.735853
Si Si6 0.830252 0.880716 0.381564
Si Si7 0.320978 0.819300 0.693045
Si Si8 0.680504 0.759421 0.851165
O O1 0.775699 0.436557 0.955029
O O2 0.769678 0.318992 0.899892
O O3 0.000000 0.363768 0.966277
O O4 0.774442 0.327907 0.041116
O O5 0.274482 0.149761 0.675618
O O6 0.162292 0.103211 0.793814
O O7 0.000000 0.105239 0.676653
O O8 0.211335 0.020556 0.692195
O O9 0.500000 0.008473 0.388005
O O10 0.252169 0.034371 0.317181
O O11 0.262325 0.939351 0.414177
O O12 0.256309 0.772638 0.630235
O O13 0.000000 0.713858 0.619372
O O14 0.500000 0.448915 0.742042
O O15 0.252106 0.389272 0.701146
O O16 0.767820 0.808740 0.382670
O O17 0.000000 0.881227 0.410634
O O18 0.500000 0.825492 0.688684
O O19 0.282656 0.778171 0.767183
O O20 0.500000 0.755292 0.853684
#
# Coordination Sequence:
#
# PCOD9353300 Si02
#       8
#     8   8   8   8   8   8   8   8
#     4   9  19  35  54  77 107 147 183 218 272 330
#     4   9  18  34  53  76 108 141 176 219 271 324
#     4  10  18  32  54  78 106 141 177 217 269 327
#     4  11  22  35  54  80 112 147 186 226 268 325
#     4  10  20  34  54  82 110 135 175 230 275 318
#     4   9  17  31  53  79 105 133 172 225 270 313
#     4  11  20  35  58  81 108 145 183 224 276 327
#     4   9  16  32  56  77 102 141 182 217 265 326
#
# _framework density 9.4062319999999993
#
# number of rings (size 3 to 8) (size 9 to 14) (size 15 to 20)
#    0.000    2.250    2.500    2.250    0.000    2.500 
#    0.000    3.750    0.000    4.500    0.000    0.000 
#    0.000    0.000    0.000    0.000    0.000    0.000 
#
# Total GULP energy -178288.652093 kJ/mol
# GULP energy per Si atom -5571.520378 kJ/mol
# Density = 0.938482 g / cm^3
# Si number density = 9.406232 Si / 1000 Ang^3
#
#
#
# Elastic Constant Matrix: (Units=GPa)
#
#
# Indices 1 2 3 4 5 6 
#
# 1 44.7089 9.2834 -9.4052 0.0000 0.0000 0.0000
# 2 9.2834 96.9032 -27.3604 0.0000 0.0000 0.0000
# 3 -9.4052 -27.3604 1.8846 0.0000 0.0000 0.0000
# 4 0.0000 0.0000 0.0000 9.9672 0.0000 0.0000
# 5 0.0000 0.0000 0.0000 0.0000 12.6652 0.0000
# 6 0.0000 0.0000 0.0000 0.0000 0.0000 34.3434
#
#
#
# Elastic Compliance Matrix: (Units=1/GPa)
#
#
# Indices 1 2 3 4 5 6 
#
# 1 0.019343 -0.008197 -0.022467 0.000000 0.000000 0.000000
# 2 -0.008197 0.000143 -0.038822 0.000000 0.000000 0.000000
# 3 -0.022467 -0.038822 -0.145121 0.000000 0.000000 0.000000
# 4 0.000000 0.000000 0.000000 0.100329 0.000000 0.000000
# 5 0.000000 0.000000 0.000000 0.000000 0.078957 0.000000
# 6 0.000000 0.000000 0.000000 0.000000 0.000000 0.029118
#
#
# Mechanical properties :
#
#
# Convention : Reuss Voigt Hill
#
# Bulk Modulus (GPa) = -3.77920 9.83694 3.02887
# Shear Modulus (GPa) = 37.44228 22.79374 30.11801
#
# Velocity S-wave (km/s) = 4.46611 3.48462 4.00554
# Velocity P-wave (km/s) = 4.95798 4.62930 4.79646
#
# Compressibility (1/GPa) = -0.26460645
#
# Stress axis : x y z
#
# Youngs Moduli (GPa) = 51.69955 6969.29665 -6.89082
#
# Poissons Ratio (x) = 57.12450 -0.15482
# Poissons Ratio (y) = 0.42376 -0.26752
# Poissons Ratio (z) = 1.16155 270.56267
#
# Static dielectric constant tensor:
#      x y z
#    x 1.644220 0.000000 0.000000 
#    y 0.000000 1.672390 0.000000 
#    z 0.000000 0.000000 1.699890 
# 
# From -- ./inp_files/13882.got.cif
#   From: 2010.05.17/outbox.ucp.g08.bks.cvg/sg36_7_cif.got.tgz:13882.got - 2010.06.11 10:37:26.
