data_PCOD9353200
_publ_section_title
;
Structure prediction by ZEFSAII (Michael W. Deem and Ramdas Pophale) SiO2 
 PCOD9353200
Probable space group: C M C 21
;
_chemical_formula_sum "Si O2"
_cell_formula_units_Z 48
_cell_length_a 7.552918
_cell_length_b 29.402418
_cell_length_c 8.205455
_cell_angle_alpha 90.000000
_cell_angle_beta 90.000000
_cell_angle_gamma 90.000000
_cell_volume 1822.218642
_symmetry_space_group_name_H-M "C M C 21"
_symmetry_group_IT_number 36
_symmetry_cell_setting 'orthorhombic'
loop_
_space_group_symop_operation_xyz
x,y,z
-x,-y,1/2+z
x,-y,1/2+z
-x,y,z
1/2+x,1/2+y,z
1/2-x,1/2-y,1/2+z
1/2+x,1/2-y,1/2+z
1/2-x,1/2+y,z
loop_
_atom_site_type_symbol
_atom_site_label
_atom_site_fract_x
_atom_site_fract_y
_atom_site_fract_z
Si Si1 0.298412 0.679280 0.822170
Si Si2 0.703835 0.739826 0.535231
Si Si3 0.784860 0.345533 0.855216
Si Si4 0.710271 0.099268 0.036804
Si Si5 0.285787 0.929857 0.049609
Si Si6 0.215777 0.485962 0.722603
O O1 0.500000 0.673706 0.774072
O O2 0.211206 0.709183 0.678599
O O3 0.286814 0.713366 0.976493
O O4 0.236161 0.629512 0.876207
O O5 0.500000 0.750751 0.577255
O O6 0.712842 0.704379 0.385233
O O7 0.727900 0.369644 0.688597
O O8 0.725946 0.379473 0.001451
O O9 0.000000 0.343253 0.853568
O O10 0.500000 0.094938 0.051625
O O11 0.775621 0.048624 0.078745
O O12 0.500000 0.926265 0.061920
O O13 0.243596 0.960321 0.889478
O O14 0.221375 0.962562 0.194035
O O15 0.000000 0.488891 0.719241
#
# Coordination Sequence:
#
# PCOD9353200 Si02
#       6
#     8   8   8   8   8   8
#     4  11  24  39  55  77 103 131 167 210 254 304
#     4  11  24  39  55  77 103 131 167 210 254 304
#     4   9  18  33  53  78 107 137 171 211 253 299
#     4   9  18  33  53  78 107 137 171 211 253 299
#     4   8  14  25  43  70 103 135 167 205 247 291
#     4   8  14  25  43  70 103 135 167 205 247 291
#
# _framework density 26.341514
#
# number of rings (size 3 to 8) (size 9 to 14) (size 15 to 20)
#    0.000    2.667    0.000    4.000    0.000    8.667 
#    0.000    3.333    0.000    1.000    0.000    0.000 
#    0.000    0.000    0.000    0.000    0.000    0.000 
#
# Total GULP energy -134113.058156 kJ/mol
# GULP energy per Si atom -5588.044090 kJ/mol
# Density = 2.628156 g / cm^3
# Si number density = 26.341514 Si / 1000 Ang^3
#
#
#
# Elastic Constant Matrix: (Units=GPa)
#
#
# Indices 1 2 3 4 5 6 
#
# 1 63.8443 1.1913 -0.6539 0.0000 0.0000 0.0000
# 2 1.1913 169.1053 4.5954 0.0000 0.0000 0.0000
# 3 -0.6539 4.5954 59.3134 0.0000 0.0000 0.0000
# 4 0.0000 0.0000 0.0000 51.2139 0.0000 0.0000
# 5 0.0000 0.0000 0.0000 0.0000 10.8065 0.0000
# 6 0.0000 0.0000 0.0000 0.0000 0.0000 19.8530
#
#
#
# Elastic Compliance Matrix: (Units=1/GPa)
#
#
# Indices 1 2 3 4 5 6 
#
# 1 0.015667 -0.000115 0.000182 0.000000 0.000000 0.000000
# 2 -0.000115 0.005927 -0.000460 0.000000 0.000000 0.000000
# 3 0.000182 -0.000460 0.016897 0.000000 0.000000 0.000000
# 4 0.000000 0.000000 0.000000 0.019526 0.000000 0.000000
# 5 0.000000 0.000000 0.000000 0.000000 0.092537 0.000000
# 6 0.000000 0.000000 0.000000 0.000000 0.000000 0.050370
#
#
# Mechanical properties :
#
#
# Convention : Reuss Voigt Hill
#
# Bulk Modulus (GPa) = 26.52310 33.61428 30.06869
# Shear Modulus (GPa) = 23.33392 35.51670 29.42531
#
# Velocity S-wave (km/s) = 2.97951 3.67593 3.34589
# Velocity P-wave (km/s) = 4.68267 5.55025 5.13481
#
# Compressibility (1/GPa) = 0.03770298
#
# Stress axis : x y z
#
# Youngs Moduli (GPa) = 63.82798 168.72511 59.18117
#
# Poissons Ratio (x) = 0.01946 -0.01075
# Poissons Ratio (y) = 0.00736 0.02725
# Poissons Ratio (z) = -0.01160 0.07769
#
# Static dielectric constant tensor:
#      x y z
#    x 1.995170 0.000000 0.000000 
#    y 0.000000 2.017500 0.000000 
#    z 0.000000 0.000000 2.218180 
# 
# From -- ./inp_files/2689.got.cif
#   From: 2010.05.17/outbox.cif.g08.bks.cpg/sg36_2_cif.got.tgz:2689.got - 2010.06.03 17:41:39.
