data_PCOD9353626
_publ_section_title
;
Structure prediction by ZEFSAII (Michael W. Deem and Ramdas Pophale) SiO2 
 PCOD9353626
Probable space group: C C C 2
;
_chemical_formula_sum "Si O2"
_cell_formula_units_Z 48
_cell_length_a 5.627230
_cell_length_b 27.237563
_cell_length_c 13.824263
_cell_angle_alpha 90.000000
_cell_angle_beta 90.000000
_cell_angle_gamma 90.000000
_cell_volume 2118.872876
_symmetry_space_group_name_H-M "C C C 2"
_symmetry_group_IT_number 37
_symmetry_cell_setting 'orthorhombic'
loop_
_space_group_symop_operation_xyz
x,y,z
-x,-y,z
-x,y,1/2+z
x,-y,1/2+z
1/2+x,1/2+y,z
1/2-x,1/2-y,z
1/2-x,1/2+y,1/2+z
1/2+x,1/2-y,1/2+z
loop_
_atom_site_type_symbol
_atom_site_label
_atom_site_fract_x
_atom_site_fract_y
_atom_site_fract_z
Si Si1 0.250000 0.250000 0.127380
Si Si2 0.776103 0.907773 0.160829
Si Si3 0.101708 0.321923 0.686360
Si Si4 0.038801 0.835044 0.030078
Si Si5 0.744500 0.025438 0.373082
Si Si6 0.427184 0.623981 0.335424
Si Si7 0.000000 0.500000 0.681868
O O1 0.452085 0.227416 0.196381
O O2 0.151940 0.206318 0.060253
O O3 0.574339 0.867561 0.177958
O O4 0.960518 0.885172 0.085064
O O5 0.646576 0.957568 0.129599
O O6 0.903917 0.908280 0.265540
O O7 0.225906 0.317455 0.582609
O O8 0.287988 0.337697 0.767888
O O9 0.061410 0.846347 0.918154
O O10 0.760845 0.083894 0.388878
O O11 0.500000 0.000000 0.412792
O O12 0.692178 0.022336 0.257022
O O13 0.000000 0.000000 0.398045
#
# Coordination Sequence:
#
# PCOD9353626 Si02
#       7
#     4   8   8   8   8   8   4
#     4  10  22  46  66  92 132 170 216 298 352 428
#     4  10  21  39  66  95 134 187 220 277 340 411
#     4  10  21  43  69  93 131 176 218 283 352 420
#     4  10  24  42  66  96 137 168 233 289 350 416
#     4  10  19  35  63  95 140 180 227 281 332 411
#     4  11  21  41  67 102 133 182 228 286 347 416
#     4  10  18  36  64  92 136 186 230 270 332 408
#
# _framework density 22.653555999999998
#
# number of rings (size 3 to 8) (size 9 to 14) (size 15 to 20)
#    0.500    1.333    3.333    0.500    0.000    2.667 
#   10.500    0.000    0.000    0.000    2.167    0.000 
#    0.000    0.000    0.000    0.000    0.000    0.000 
#
# Total GULP energy -133895.173099 kJ/mol
# GULP energy per Si atom -5578.965546 kJ/mol
# Density = 2.260200 g / cm^3
# Si number density = 22.653556 Si / 1000 Ang^3
#
#
#
# Elastic Constant Matrix: (Units=GPa)
#
#
# Indices 1 2 3 4 5 6 
#
# 1 111.7332 34.6059 25.4075 0.0000 0.0000 0.0000
# 2 34.6059 107.1505 21.9851 0.0000 0.0000 0.0000
# 3 25.4075 21.9851 66.2603 0.0000 0.0000 0.0000
# 4 0.0000 0.0000 0.0000 7.7568 0.0000 0.0000
# 5 0.0000 0.0000 0.0000 0.0000 3.6306 0.0000
# 6 0.0000 0.0000 0.0000 0.0000 0.0000 55.7619
#
#
#
# Elastic Compliance Matrix: (Units=1/GPa)
#
#
# Indices 1 2 3 4 5 6 
#
# 1 0.010512 -0.002756 -0.003117 0.000000 0.000000 0.000000
# 2 -0.002756 0.010737 -0.002506 0.000000 0.000000 0.000000
# 3 -0.003117 -0.002506 0.017118 0.000000 0.000000 0.000000
# 4 0.000000 0.000000 0.000000 0.128919 0.000000 0.000000
# 5 0.000000 0.000000 0.000000 0.000000 0.275433 0.000000
# 6 0.000000 0.000000 0.000000 0.000000 0.000000 0.017933
#
#
# Mechanical properties :
#
#
# Convention : Reuss Voigt Hill
#
# Bulk Modulus (GPa) = 46.27191 49.90455 48.08823
# Shear Modulus (GPa) = 10.31752 26.97290 18.64521
#
# Velocity S-wave (km/s) = 2.13644 3.45435 2.87201
# Velocity P-wave (km/s) = 5.15326 6.16339 5.68082
#
# Compressibility (1/GPa) = 0.02161138
#
# Stress axis : x y z
#
# Youngs Moduli (GPa) = 95.12920 93.13791 58.41647
#
# Poissons Ratio (x) = 0.25665 0.18206
# Poissons Ratio (y) = 0.26213 0.14638
# Poissons Ratio (z) = 0.29647 0.23339
#
# Static dielectric constant tensor:
#      x y z
#    x 1.886700 0.000000 0.000000 
#    y 0.000000 1.911420 0.000000 
#    z 0.000000 0.000000 1.831350 
# 
# From -- ./inp_files/9792.got.cif
#   From: 2010.05.17/outbox.cif.g08.bks.cpg/sg37_5_cif.got.tgz:9792.got - 2010.06.03 17:53:42.
