data_PCOD9353437
_publ_section_title
;
Structure prediction by ZEFSAII (Michael W. Deem and Ramdas Pophale) SiO2 
 PCOD9353437
Probable space group: C C C 2
;
_chemical_formula_sum "Si O2"
_cell_formula_units_Z 56
_cell_length_a 23.639868
_cell_length_b 18.072585
_cell_length_c 5.607065
_cell_angle_alpha 90.000000
_cell_angle_beta 90.000000
_cell_angle_gamma 90.000000
_cell_volume 2395.526138
_symmetry_space_group_name_H-M "C C C 2"
_symmetry_group_IT_number 37
_symmetry_cell_setting 'orthorhombic'
loop_
_space_group_symop_operation_xyz
x,y,z
-x,-y,z
-x,y,1/2+z
x,-y,1/2+z
1/2+x,1/2+y,z
1/2-x,1/2-y,z
1/2-x,1/2+y,1/2+z
1/2+x,1/2-y,1/2+z
loop_
_atom_site_type_symbol
_atom_site_label
_atom_site_fract_x
_atom_site_fract_y
_atom_site_fract_z
Si Si1 0.654695 0.608624 0.584770
Si Si2 0.158358 0.724409 0.084769
Si Si3 0.966479 0.299431 0.084766
Si Si4 0.248311 0.515428 0.584770
Si Si5 0.187938 0.283519 0.084769
Si Si6 0.935264 0.528923 0.584762
Si Si7 0.851748 0.122429 0.584770
O O1 0.683771 0.691290 0.584770
O O2 0.702618 0.546677 0.584770
O O3 0.623102 0.598511 0.335609
O O4 0.623102 0.598511 0.833931
O O5 0.092094 0.744383 0.084768
O O6 0.175333 0.682048 0.326933
O O7 0.175334 0.682048 0.842606
O O8 0.942646 0.383338 0.084766
O O9 0.000000 0.288520 0.334766
O O10 0.217933 0.500000 0.334770
O O11 0.286018 0.591324 0.584770
O O12 0.250000 0.250000 0.084768
O O13 0.147987 0.210919 0.084770
O O14 0.910465 0.500001 0.334760
O O15 0.000000 0.500000 0.584760
#
# Coordination Sequence:
#
# PCOD9353437 Si02
#       7
#     8   8   8   8   8   8   8
#     4   8  14  25  39  59  95 113 147 196 241 284
#     4  10  21  33  48  77 103 135 173 208 261 322
#     4  12  21  33  53  78 111 135 169 224 271 309
#     4   8  12  20  36  59  84 106 144 196 245 258
#     4  10  19  34  51  70 102 138 174 215 257 316
#     4  10  16  30  49  75 101 126 181 218 251 294
#     4   8  14  23  40  64  86 113 155 201 243 273
#
# _framework density 23.376911
#
# number of rings (size 3 to 8) (size 9 to 14) (size 15 to 20)
#    0.000    2.571    2.857    1.286    0.000    0.000 
#    0.000    0.000    0.000    0.000    0.000   30.000 
#    0.000   85.714    0.000    0.000    0.000    0.000 
#
# Total GULP energy -155986.887268 kJ/mol
# GULP energy per Si atom -5570.960260 kJ/mol
# Density = 2.332370 g / cm^3
# Si number density = 23.376911 Si / 1000 Ang^3
#
#
#
# Elastic Constant Matrix: (Units=GPa)
#
#
# Indices 1 2 3 4 5 6 
#
# 1 57.9898 -3.1962 39.4609 0.0000 0.0000 0.0000
# 2 -3.1962 65.0452 -8.9664 0.0000 0.0000 0.0000
# 3 39.4609 -8.9664 332.9875 0.0000 0.0000 0.0000
# 4 0.0000 0.0000 0.0000 11.9573 0.0000 0.0000
# 5 0.0000 0.0000 0.0000 0.0000 -9.3410 0.0000
# 6 0.0000 0.0000 0.0000 0.0000 0.0000 6.5629
#
#
#
# Elastic Compliance Matrix: (Units=1/GPa)
#
#
# Indices 1 2 3 4 5 6 
#
# 1 0.018782 0.000618 -0.002209 0.000000 0.000000 0.000000
# 2 0.000618 0.015452 0.000343 0.000000 0.000000 0.000000
# 3 -0.002209 0.000343 0.003274 0.000000 0.000000 0.000000
# 4 0.000000 0.000000 0.000000 0.083631 0.000000 0.000000
# 5 0.000000 0.000000 0.000000 0.000000 -0.107055 0.000000
# 6 0.000000 0.000000 0.000000 0.000000 0.000000 0.152372
#
#
# Mechanical properties :
#
#
# Convention : Reuss Voigt Hill
#
# Bulk Modulus (GPa) = 28.56198 56.73545 42.64872
# Shear Modulus (GPa) = 27.68220 30.41746 29.04983
#
# Velocity S-wave (km/s) = 3.44491 3.61109 3.52898
# Velocity P-wave (km/s) = 5.29790 6.45827 5.90665
#
# Compressibility (1/GPa) = 0.03501158
#
# Stress axis : x y z
#
# Youngs Moduli (GPa) = 53.24319 64.71840 305.42400
#
# Poissons Ratio (x) = -0.04002 0.67471
# Poissons Ratio (y) = -0.03292 -0.10470
# Poissons Ratio (z) = 0.11762 -0.02218
#
# Static dielectric constant tensor:
#      x y z
#    x 1.737630 0.000000 0.000000 
#    y 0.000000 1.945460 0.000000 
#    z 0.000000 0.000000 2.084740 
# 
# From -- ./inp_files/1044.got.cif
#   From: 2010.05.17/outbox.cif.g08.bks.cpg/sg37_1_cif.got.tgz:1044.got - 2010.06.03 17:53:42.
