data_PCOD9353011
_publ_section_title
;
Structure prediction by ZEFSAII (Michael W. Deem and Ramdas Pophale) SiO2 
 PCOD9353011
Probable space group: C M C 21
;
_chemical_formula_sum "Si O2"
_cell_formula_units_Z 40
_cell_length_a 14.756184
_cell_length_b 11.772038
_cell_length_c 9.478539
_cell_angle_alpha 90.000000
_cell_angle_beta 90.000000
_cell_angle_gamma 90.000000
_cell_volume 1646.520410
_symmetry_space_group_name_H-M "C M C 21"
_symmetry_group_IT_number 36
_symmetry_cell_setting 'orthorhombic'
loop_
_space_group_symop_operation_xyz
x,y,z
-x,-y,1/2+z
x,-y,1/2+z
-x,y,z
1/2+x,1/2+y,z
1/2-x,1/2-y,1/2+z
1/2+x,1/2-y,1/2+z
1/2-x,1/2+y,z
loop_
_atom_site_type_symbol
_atom_site_label
_atom_site_fract_x
_atom_site_fract_y
_atom_site_fract_z
Si Si1 0.368278 0.474406 0.714240
Si Si2 0.896716 0.591546 0.100540
Si Si3 0.391827 0.356087 0.441335
Si Si4 0.872671 0.156184 0.483657
Si Si5 0.167754 0.392889 0.900675
O O1 0.346024 0.383943 0.591050
O O2 0.334955 0.569321 0.828608
O O3 0.405918 0.570256 0.604683
O O4 0.407145 0.386865 0.831812
O O5 0.829868 0.578362 0.234401
O O6 0.000000 0.577255 0.153193
O O7 0.890289 0.715376 0.028971
O O8 0.875215 0.494695 0.987766
O O9 0.500000 0.386098 0.437858
O O10 0.386977 0.224015 0.408865
O O11 0.764971 0.137191 0.465924
#
# Coordination Sequence:
#
# PCOD9353011 Si02
#       5
#     8   8   8   8   8
#     4  10  24  43  70 100 139 180 238 295 366 420
#     4  12  28  50  75 108 151 197 247 301 366 440
#     4  11  23  42  67 100 140 185 236 295 364 432
#     4  11  26  46  75 104 143 187 247 301 367 431
#     4  12  28  45  75 102 148 191 246 298 362 437
#
# _framework density 24.293655000000001
#
# number of rings (size 3 to 8) (size 9 to 14) (size 15 to 20)
#    0.000    0.800    2.000    3.600   11.200    4.000 
#    0.000    0.000    0.000    0.000    0.000    0.000 
#    0.000    0.000    0.000    0.000    0.000    0.000 
#
# Total GULP energy -111439.437747 kJ/mol
# GULP energy per Si atom -5571.971887 kJ/mol
# Density = 2.423836 g / cm^3
# Si number density = 24.293655 Si / 1000 Ang^3
#
#
#
# Elastic Constant Matrix: (Units=GPa)
#
#
# Indices 1 2 3 4 5 6 
#
# 1 90.7128 -12.8764 -9.6971 0.0000 0.0000 0.0000
# 2 -12.8764 153.4587 52.8824 0.0000 0.0000 0.0000
# 3 -9.6971 52.8824 215.8444 0.0000 0.0000 0.0000
# 4 0.0000 0.0000 0.0000 49.5377 0.0000 0.0000
# 5 0.0000 0.0000 0.0000 0.0000 -39.4008 0.0000
# 6 0.0000 0.0000 0.0000 0.0000 0.0000 18.7848
#
#
#
# Elastic Compliance Matrix: (Units=1/GPa)
#
#
# Indices 1 2 3 4 5 6 
#
# 1 0.011174 0.000835 0.000297 0.000000 0.000000 0.000000
# 2 0.000835 0.007180 -0.001722 0.000000 0.000000 0.000000
# 3 0.000297 -0.001722 0.005068 0.000000 0.000000 0.000000
# 4 0.000000 0.000000 0.000000 0.020187 0.000000 0.000000
# 5 0.000000 0.000000 0.000000 0.000000 -0.025380 0.000000
# 6 0.000000 0.000000 0.000000 0.000000 0.000000 0.053234
#
#
# Mechanical properties :
#
#
# Convention : Reuss Voigt Hill
#
# Bulk Modulus (GPa) = 44.95603 57.84818 51.40211
# Shear Modulus (GPa) = 62.45667 34.43148 48.44408
#
# Velocity S-wave (km/s) = 5.07591 3.76879 4.47038
# Velocity P-wave (km/s) = 7.27314 6.54234 6.91740
#
# Compressibility (1/GPa) = 0.02224396
#
# Stress axis : x y z
#
# Youngs Moduli (GPa) = 89.49233 139.28101 197.31224
#
# Poissons Ratio (x) = -0.11632 -0.05868
# Poissons Ratio (y) = -0.07474 0.33968
# Poissons Ratio (z) = -0.02662 0.23978
#
# Static dielectric constant tensor:
#      x y z
#    x 2.225010 0.000000 0.000000 
#    y 0.000000 1.862040 0.000000 
#    z 0.000000 0.000000 1.905670 
# 
# From -- ./inp_files/4517.got.cif
#   From: 2010.05.17/outbox.cif.g08.bks.cpg/sg36_3_cif.got.tgz:4517.got - 2010.06.03 17:41:39.
