data_PCOD9353948
_publ_section_title
;
Structure prediction by ZEFSAII (Michael W. Deem and Ramdas Pophale) SiO2 
 PCOD9353948
Probable space group: C C C 2
;
_chemical_formula_sum "Si O2"
_cell_formula_units_Z 56
_cell_length_a 14.008500
_cell_length_b 9.035376
_cell_length_c 20.524276
_cell_angle_alpha 90.000000
_cell_angle_beta 90.000000
_cell_angle_gamma 90.000000
_cell_volume 2597.799990
_symmetry_space_group_name_H-M "C C C 2"
_symmetry_group_IT_number 37
_symmetry_cell_setting 'orthorhombic'
loop_
_space_group_symop_operation_xyz
x,y,z
-x,-y,z
-x,y,1/2+z
x,-y,1/2+z
1/2+x,1/2+y,z
1/2-x,1/2-y,z
1/2-x,1/2+y,1/2+z
1/2+x,1/2-y,1/2+z
loop_
_atom_site_type_symbol
_atom_site_label
_atom_site_fract_x
_atom_site_fract_y
_atom_site_fract_z
Si Si1 0.995820 0.330172 0.294660
Si Si2 0.806740 0.889170 0.992036
Si Si3 0.489663 0.283758 0.434822
Si Si4 0.145562 0.818186 0.199193
Si Si5 0.173717 0.140099 0.242333
Si Si6 0.917566 0.873567 0.563741
Si Si7 0.703607 0.592689 0.386375
O O1 0.906451 0.248238 0.262078
O O2 0.000000 0.500000 0.274112
O O3 0.996037 0.322266 0.373279
O O4 0.085482 0.239137 0.266104
O O5 0.750000 0.750000 0.019235
O O6 0.828171 0.023663 0.041610
O O7 0.906606 0.832461 0.960773
O O8 0.753809 0.963974 0.930403
O O9 0.438087 0.260177 0.504481
O O10 0.410155 0.395674 0.402443
O O11 0.250000 0.750000 0.195734
O O12 0.092722 0.788785 0.131075
O O13 0.145663 0.996595 0.202684
O O14 0.250000 0.250000 0.210621
O O15 0.218575 0.075708 0.309691
O O16 0.000000 0.000000 0.567692
O O17 0.750000 0.750000 0.403756
#
# Coordination Sequence:
#
# PCOD9353948 Si02
#       7
#     8   8   8   8   8   8   8
#     4  11  23  41  65  98 131 166 215 271 327 387
#     4  10  20  34  58  88 117 158 214 267 315 376
#     4   9  20  38  61  87 123 164 207 259 315 375
#     4  12  25  41  65  94 131 178 218 262 320 388
#     4  10  21  38  61  90 126 168 214 268 324 382
#     4   9  20  41  61  84 121 170 217 260 318 382
#     4   9  18  33  55  83 120 162 205 259 324 380
#
# _framework density 21.556701
#
# number of rings (size 3 to 8) (size 9 to 14) (size 15 to 20)
#    0.000    2.000    0.000    4.286    0.000   13.143 
#    0.000    3.571    0.000    0.000    0.000    0.000 
#    0.000    0.000    0.000    0.000    0.000    0.000 
#
# Total GULP energy -156045.057652 kJ/mol
# GULP energy per Si atom -5573.037773 kJ/mol
# Density = 2.150764 g / cm^3
# Si number density = 21.556701 Si / 1000 Ang^3
#
#
#
# Elastic Constant Matrix: (Units=GPa)
#
#
# Indices 1 2 3 4 5 6 
#
# 1 58.0943 13.5174 17.3339 0.0000 0.0000 0.0000
# 2 13.5174 70.4372 32.7263 0.0000 0.0000 0.0000
# 3 17.3339 32.7263 86.4104 0.0000 0.0000 0.0000
# 4 0.0000 0.0000 0.0000 -5.9015 0.0000 0.0000
# 5 0.0000 0.0000 0.0000 0.0000 11.4382 0.0000
# 6 0.0000 0.0000 0.0000 0.0000 0.0000 18.2254
#
#
#
# Elastic Compliance Matrix: (Units=1/GPa)
#
#
# Indices 1 2 3 4 5 6 
#
# 1 0.018593 -0.002227 -0.002886 0.000000 0.000000 0.000000
# 2 -0.002227 0.017495 -0.006179 0.000000 0.000000 0.000000
# 3 -0.002886 -0.006179 0.014492 0.000000 0.000000 0.000000
# 4 0.000000 0.000000 0.000000 -0.169448 0.000000 0.000000
# 5 0.000000 0.000000 0.000000 0.000000 0.087426 0.000000
# 6 0.000000 0.000000 0.000000 0.000000 0.000000 0.054869
#
#
# Mechanical properties :
#
#
# Convention : Reuss Voigt Hill
#
# Bulk Modulus (GPa) = 35.72080 38.01079 36.86580
# Shear Modulus (GPa) = 90.34377 14.84337 52.59357
#
# Velocity S-wave (km/s) = 6.48080 2.62691 4.94477
# Velocity P-wave (km/s) = 8.52101 5.18383 7.05265
#
# Compressibility (1/GPa) = 0.02799490
#
# Stress axis : x y z
#
# Youngs Moduli (GPa) = 53.78431 57.15773 69.00386
#
# Poissons Ratio (x) = 0.12730 0.19916
# Poissons Ratio (y) = 0.11978 0.42640
# Poissons Ratio (z) = 0.15523 0.35320
#
# Static dielectric constant tensor:
#      x y z
#    x 1.858150 0.000000 0.000000 
#    y 0.000000 1.788090 0.000000 
#    z 0.000000 0.000000 1.784300 
# 
# From -- ./inp_files/17185.got.cif
#   From: 2010.05.17/outbox.cif.g08.bks.cpg/sg37_9_cif.got.tgz:17185.got - 2010.06.03 17:53:42.
