data_PCOD9353359
_publ_section_title
;
Structure prediction by ZEFSAII (Michael W. Deem and Ramdas Pophale) SiO2 
 PCOD9353359
Probable space group: C M C 21
;
_chemical_formula_sum "Si O2"
_cell_formula_units_Z 24
_cell_length_a 9.000000
_cell_length_b 15.000000
_cell_length_c 18.000000
_cell_angle_alpha 90.000000
_cell_angle_beta 90.000000
_cell_angle_gamma 90.000000
_cell_volume 2430.000000
_symmetry_space_group_name_H-M "C M C 21"
_symmetry_group_IT_number 36
_symmetry_cell_setting 'orthorhombic'
loop_
_space_group_symop_operation_xyz
x,y,z
-x,-y,1/2+z
x,-y,1/2+z
-x,y,z
1/2+x,1/2+y,z
1/2-x,1/2-y,1/2+z
1/2+x,1/2-y,1/2+z
1/2-x,1/2+y,z
loop_
_atom_site_type_symbol
_atom_site_label
_atom_site_fract_x
_atom_site_fract_y
_atom_site_fract_z
Si Si1 0.320935 0.421799 0.806730
Si Si2 0.322492 0.730979 0.782080
Si Si3 0.322483 0.339963 0.114411
Si Si4 0.178811 0.522540 0.155573
Si Si5 0.320513 0.418406 0.399494
Si Si6 0.179824 0.170530 0.054265
O O1 0.500000 0.421607 0.799021
O O2 0.260094 0.321846 0.803293
O O3 0.247634 0.474035 0.737811
O O4 0.277796 0.480781 0.878589
O O5 0.500000 0.744986 0.791043
O O6 0.298696 0.700843 0.697183
O O7 0.273560 0.650997 0.835874
O O8 0.500000 0.347679 0.101889
O O9 0.244996 0.436156 0.114309
O O10 0.245352 0.269780 0.059465
O O11 0.242956 0.611293 0.117456
O O12 0.000000 0.522339 0.156707
O O13 0.500000 0.418049 0.398792
O O14 0.276556 0.378732 0.478208
O O15 0.000000 0.171370 0.062219
#
# Coordination Sequence:
#
# PCOD9353359 Si02
#       6
#     8   8   8   8   8   8
#     4  11  21  38  63  91 121 158 205 252 301 359
#     4  10  20  38  62  89 121 156 198 248 303 361
#     4  11  22  39  64  91 123 159 202 252 303 360
#     4  12  24  39  61  91 124 162 208 252 301 360
#     4   9  21  41  62  87 123 161 197 248 308 362
#     4  11  23  41  64  91 126 162 200 250 308 364
#
# _framework density 9.8765429999999999
#
# number of rings (size 3 to 8) (size 9 to 14) (size 15 to 20)
#    0.000    1.333    3.333    3.000    0.000    2.000 
#    0.000    8.333    0.000    0.000    0.000    0.000 
#    0.000    0.000    0.000    0.000    0.000    0.000 
#
# Total GULP energy -134080.268438 kJ/mol
# GULP energy per Si atom -5586.677852 kJ/mol
# Density = 0.985406 g / cm^3
# Si number density = 9.876543 Si / 1000 Ang^3
#
#
#
# Elastic Constant Matrix: (Units=GPa)
#
#
# Indices 1 2 3 4 5 6 
#
# 1 80.8285 16.1081 -3.4395 0.0000 0.0000 0.0000
# 2 16.1081 80.3770 -24.2749 0.0000 0.0000 0.0000
# 3 -3.4395 -24.2749 22.9412 0.0000 0.0000 0.0000
# 4 0.0000 0.0000 0.0000 18.2396 0.0000 0.0000
# 5 0.0000 0.0000 0.0000 0.0000 17.4629 0.0000
# 6 0.0000 0.0000 0.0000 0.0000 0.0000 39.0178
#
#
#
# Elastic Compliance Matrix: (Units=1/GPa)
#
#
# Indices 1 2 3 4 5 6 
#
# 1 0.012908 -0.002943 -0.001179 0.000000 0.000000 0.000000
# 2 -0.002943 0.018956 0.019616 0.000000 0.000000 0.000000
# 3 -0.001179 0.019616 0.064170 0.000000 0.000000 0.000000
# 4 0.000000 0.000000 0.000000 0.054826 0.000000 0.000000
# 5 0.000000 0.000000 0.000000 0.000000 0.057264 0.000000
# 6 0.000000 0.000000 0.000000 0.000000 0.000000 0.025629
#
#
# Mechanical properties :
#
#
# Convention : Reuss Voigt Hill
#
# Bulk Modulus (GPa) = 7.87258 17.88155 12.87707
# Shear Modulus (GPa) = 20.39947 27.99426 24.19686
#
# Velocity S-wave (km/s) = 3.21709 3.76867 3.50375
# Velocity P-wave (km/s) = 4.21826 5.29238 4.78555
#
# Compressibility (1/GPa) = 0.12702310
#
# Stress axis : x y z
#
# Youngs Moduli (GPa) = 77.47014 52.75500 15.58366
#
# Poissons Ratio (x) = 0.15525 0.01837
# Poissons Ratio (y) = 0.22798 -0.30569
# Poissons Ratio (z) = 0.09131 -1.03486
#
# Static dielectric constant tensor:
#      x y z
#    x 1.652550 0.000000 0.000000 
#    y 0.000000 1.699880 0.000000 
#    z 0.000000 0.000000 1.740450 
# 
# From -- ./inp_files/13476.got.cif
#   From: 2010.05.17/outbox.ucp.g08.bks.cvg/sg36_7_cif.got.tgz:13476.got - 2010.06.11 10:37:26.
