data_PCOD9353463
_publ_section_title
;
Structure prediction by ZEFSAII (Michael W. Deem and Ramdas Pophale) SiO2 
 PCOD9353463
Probable space group: C C C 2
;
_chemical_formula_sum "Si O2"
_cell_formula_units_Z 56
_cell_length_a 15.500187
_cell_length_b 25.706014
_cell_length_c 5.483978
_cell_angle_alpha 90.000000
_cell_angle_beta 90.000000
_cell_angle_gamma 90.000000
_cell_volume 2185.080198
_symmetry_space_group_name_H-M "C C C 2"
_symmetry_group_IT_number 37
_symmetry_cell_setting 'orthorhombic'
loop_
_space_group_symop_operation_xyz
x,y,z
-x,-y,z
-x,y,1/2+z
x,-y,1/2+z
1/2+x,1/2+y,z
1/2-x,1/2-y,z
1/2-x,1/2+y,1/2+z
1/2+x,1/2-y,1/2+z
loop_
_atom_site_type_symbol
_atom_site_label
_atom_site_fract_x
_atom_site_fract_y
_atom_site_fract_z
Si Si1 0.905346 0.679408 0.919360
Si Si2 0.267871 0.532628 0.335176
Si Si3 0.046502 0.203723 0.992399
Si Si4 0.974438 0.421929 0.908125
Si Si5 0.034173 0.940632 0.257819
Si Si6 0.190985 0.622344 0.057249
Si Si7 0.230957 0.191140 0.221806
O O1 0.864247 0.671377 0.652361
O O2 0.970021 0.631289 0.946389
O O3 0.951449 0.733223 0.973767
O O4 0.819456 0.678423 0.082412
O O5 0.255550 0.505165 0.597374
O O6 0.211280 0.583325 0.277517
O O7 0.365730 0.553408 0.318025
O O8 0.145980 0.189497 0.054701
O O9 0.989109 0.188070 0.226969
O O10 0.012480 0.447515 0.669885
O O11 0.873567 0.409873 0.885972
O O12 0.013232 0.917094 0.993441
O O13 0.000000 0.000000 0.232063
O O14 0.273418 0.646803 0.927804
O O15 0.250000 0.250000 0.313666
#
# Coordination Sequence:
#
# PCOD9353463 Si02
#       7
#     8   8   8   8   8   8   8
#     4  10  22  40  69 100 129 188 245 293 333 444
#     4  12  25  42  68 101 138 182 230 303 375 436
#     4  11  25  42  68  99 146 193 234 290 365 433
#     4  10  19  36  64  94 122 169 236 279 323 416
#     4  10  16  35  64  91 118 165 234 281 323 419
#     4  11  25  41  70 103 144 180 241 300 370 438
#     4  10  24  42  68 103 141 183 238 301 358 428
#
# _framework density 25.628349
#
# number of rings (size 3 to 8) (size 9 to 14) (size 15 to 20)
#    0.000    1.429    4.286    1.714   10.000    0.571 
#    0.000    1.429    0.000   10.286    0.000    0.000 
#    0.000    0.000    0.000    0.000    0.000    0.000 
#
# Total GULP energy -156571.495191 kJ/mol
# GULP energy per Si atom -5591.839114 kJ/mol
# Density = 2.557002 g / cm^3
# Si number density = 25.628349 Si / 1000 Ang^3
#
#
#
# Elastic Constant Matrix: (Units=GPa)
#
#
# Indices 1 2 3 4 5 6 
#
# 1 88.7818 35.2903 17.4524 0.0000 0.0000 0.0000
# 2 35.2903 107.0091 41.2780 0.0000 0.0000 0.0000
# 3 17.4524 41.2780 157.7308 0.0000 0.0000 0.0000
# 4 0.0000 0.0000 0.0000 95.3100 0.0000 0.0000
# 5 0.0000 0.0000 0.0000 0.0000 31.1970 0.0000
# 6 0.0000 0.0000 0.0000 0.0000 0.0000 2.4064
#
#
#
# Elastic Compliance Matrix: (Units=1/GPa)
#
#
# Indices 1 2 3 4 5 6 
#
# 1 0.012980 -0.004145 -0.000351 0.000000 0.000000 0.000000
# 2 -0.004145 0.011718 -0.002608 0.000000 0.000000 0.000000
# 3 -0.000351 -0.002608 0.007061 0.000000 0.000000 0.000000
# 4 0.000000 0.000000 0.000000 0.010492 0.000000 0.000000
# 5 0.000000 0.000000 0.000000 0.000000 0.032054 0.000000
# 6 0.000000 0.000000 0.000000 0.000000 0.000000 0.415559
#
#
# Mechanical properties :
#
#
# Convention : Reuss Voigt Hill
#
# Bulk Modulus (GPa) = 56.97837 60.17367 58.57602
# Shear Modulus (GPa) = 9.80537 43.08274 26.44406
#
# Velocity S-wave (km/s) = 1.95813 4.10452 3.21569
# Velocity P-wave (km/s) = 5.23385 6.78182 6.05749
#
# Compressibility (1/GPa) = 0.01755052
#
# Stress axis : x y z
#
# Youngs Moduli (GPa) = 77.03955 85.33861 141.61697
#
# Poissons Ratio (x) = 0.35374 0.04977
# Poissons Ratio (y) = 0.31934 0.36933
# Poissons Ratio (z) = 0.02708 0.22256
#
# Static dielectric constant tensor:
#      x y z
#    x 2.020460 0.000000 0.000000 
#    y 0.000000 1.994270 0.000000 
#    z 0.000000 0.000000 2.132030 
# 
# From -- ./inp_files/627.got.cif
#   From: 2010.05.17/outbox.cif.g08.bks.cpg/sg37_1_cif.got.tgz:627.got - 2010.06.03 17:53:42.
