data_PCOD9353071
_publ_section_title
;
Structure prediction by ZEFSAII (Michael W. Deem and Ramdas Pophale) SiO2 
 PCOD9353071
Probable space group: C M C 21
;
_chemical_formula_sum "Si O2"
_cell_formula_units_Z 40
_cell_length_a 8.252832
_cell_length_b 25.685090
_cell_length_c 7.873174
_cell_angle_alpha 90.000000
_cell_angle_beta 90.000000
_cell_angle_gamma 90.000000
_cell_volume 1668.913954
_symmetry_space_group_name_H-M "C M C 21"
_symmetry_group_IT_number 36
_symmetry_cell_setting 'orthorhombic'
loop_
_space_group_symop_operation_xyz
x,y,z
-x,-y,1/2+z
x,-y,1/2+z
-x,y,z
1/2+x,1/2+y,z
1/2-x,1/2-y,1/2+z
1/2+x,1/2-y,1/2+z
1/2-x,1/2+y,z
loop_
_atom_site_type_symbol
_atom_site_label
_atom_site_fract_x
_atom_site_fract_y
_atom_site_fract_z
Si Si1 0.313390 0.786248 0.673970
Si Si2 0.682258 0.622777 0.000211
Si Si3 0.812586 0.967722 0.766511
Si Si4 0.308743 0.324606 0.022334
Si Si5 0.252343 0.928890 0.143481
O O1 0.500000 0.785601 0.728077
O O2 0.292296 0.826486 0.518423
O O3 0.269845 0.727739 0.624218
O O4 0.210020 0.809310 0.826899
O O5 0.500000 0.640762 0.033661
O O6 0.680963 0.594549 0.819192
O O7 0.726049 0.580373 0.143598
O O8 0.000000 0.984434 0.727913
O O9 0.693815 0.015550 0.723102
O O10 0.812459 0.950939 0.962473
O O11 0.500000 0.339310 0.052216
O O12 0.192812 0.372622 0.070236
#
# Coordination Sequence:
#
# PCOD9353071 Si02
#       5
#     8   8   8   8   8
#     4  11  25  43  65  96 133 171 216 263 318 390
#     4  11  22  38  65  95 131 170 210 266 322 380
#     4  11  20  32  58  97 131 162 211 272 327 374
#     4  11  23  41  65  95 132 169 215 270 323 382
#     4  12  22  36  62 101 134 164 215 277 331 376
#
# _framework density 23.967680999999999
#
# number of rings (size 3 to 8) (size 9 to 14) (size 15 to 20)
#    0.000    0.800    4.000    5.400    0.000    3.200 
#    0.000    1.000    0.000    4.800    0.000    0.000 
#    0.000    0.000    0.000    0.000    0.000    0.000 
#
# Total GULP energy -111360.556435 kJ/mol
# GULP energy per Si atom -5568.027822 kJ/mol
# Density = 2.391313 g / cm^3
# Si number density = 23.967681 Si / 1000 Ang^3
#
#
#
# Elastic Constant Matrix: (Units=GPa)
#
#
# Indices 1 2 3 4 5 6 
#
# 1 38.7509 43.7034 11.6283 0.0000 0.0000 0.0000
# 2 43.7034 155.2446 57.8052 0.0000 0.0000 0.0000
# 3 11.6283 57.8052 167.2062 0.0000 0.0000 0.0000
# 4 0.0000 0.0000 0.0000 55.0979 0.0000 0.0000
# 5 0.0000 0.0000 0.0000 0.0000 3.5228 0.0000
# 6 0.0000 0.0000 0.0000 0.0000 0.0000 -7.3592
#
#
#
# Elastic Compliance Matrix: (Units=1/GPa)
#
#
# Indices 1 2 3 4 5 6 
#
# 1 0.038023 -0.011155 0.001212 0.000000 0.000000 0.000000
# 2 -0.011155 0.010666 -0.002912 0.000000 0.000000 0.000000
# 3 0.001212 -0.002912 0.006903 0.000000 0.000000 0.000000
# 4 0.000000 0.000000 0.000000 0.018150 0.000000 0.000000
# 5 0.000000 0.000000 0.000000 0.000000 0.283865 0.000000
# 6 0.000000 0.000000 0.000000 0.000000 0.000000 -0.135884
#
#
# Mechanical properties :
#
#
# Convention : Reuss Voigt Hill
#
# Bulk Modulus (GPa) = 33.46430 65.27509 49.36969
# Shear Modulus (GPa) = 19.42551 26.78994 23.10773
#
# Velocity S-wave (km/s) = 2.85000 3.34691 3.10840
# Velocity P-wave (km/s) = 4.98222 6.49842 5.79016
#
# Compressibility (1/GPa) = 0.02988259
#
# Stress axis : x y z
#
# Youngs Moduli (GPa) = 26.29976 93.75623 144.86680
#
# Poissons Ratio (x) = 1.04589 -0.17562
# Poissons Ratio (y) = 0.29338 0.42179
# Poissons Ratio (z) = -0.03188 0.27298
#
# Static dielectric constant tensor:
#      x y z
#    x 1.904810 0.000000 0.000000 
#    y 0.000000 1.896320 0.000000 
#    z 0.000000 0.000000 1.904440 
# 
# From -- ./inp_files/2532.got.cif
#   From: 2010.05.17/outbox.cif.g08.bks.cpg/sg36_2_cif.got.tgz:2532.got - 2010.06.03 17:41:39.
