data_PCOD9353511
_publ_section_title
;
Structure prediction by ZEFSAII (Michael W. Deem and Ramdas Pophale) SiO2 
 PCOD9353511
Probable space group: C C C 2
;
_chemical_formula_sum "Si O2"
_cell_formula_units_Z 56
_cell_length_a 15.248708
_cell_length_b 12.082040
_cell_length_c 14.618127
_cell_angle_alpha 90.000000
_cell_angle_beta 90.000000
_cell_angle_gamma 90.000000
_cell_volume 2693.177937
_symmetry_space_group_name_H-M "C C C 2"
_symmetry_group_IT_number 37
_symmetry_cell_setting 'orthorhombic'
loop_
_space_group_symop_operation_xyz
x,y,z
-x,-y,z
-x,y,1/2+z
x,-y,1/2+z
1/2+x,1/2+y,z
1/2-x,1/2-y,z
1/2-x,1/2+y,1/2+z
1/2+x,1/2-y,1/2+z
loop_
_atom_site_type_symbol
_atom_site_label
_atom_site_fract_x
_atom_site_fract_y
_atom_site_fract_z
Si Si1 0.769666 0.864978 0.333220
Si Si2 0.506700 0.807822 0.748932
Si Si3 0.009999 0.235010 0.053833
Si Si4 0.626735 0.009121 0.290134
Si Si5 0.904406 0.450884 0.506113
Si Si6 0.817683 0.340417 0.031721
Si Si7 0.527270 0.618381 0.383484
O O1 0.750000 0.750000 0.281157
O O2 0.714121 0.852433 0.426782
O O3 0.869049 0.875038 0.364611
O O4 0.726830 0.969948 0.283493
O O5 0.488068 0.729629 0.662806
O O6 0.594048 0.882064 0.737368
O O7 0.511313 0.726952 0.834612
O O8 0.432284 0.902334 0.762544
O O9 0.914398 0.288381 0.031746
O O10 0.007407 0.130123 0.987689
O O11 0.086696 0.322459 0.029865
O O12 0.605567 0.036600 0.396690
O O13 0.833003 0.529419 0.555986
O O14 0.000000 0.500000 0.532056
O O15 0.750000 0.250000 0.074077
O O16 0.500000 0.500000 0.345715
#
# Coordination Sequence:
#
# PCOD9353511 Si02
#       7
#     8   8   8   8   8   8   8
#     4  10  17  37  67  89 117 166 223 251 304 398
#     4  11  22  36  62 100 126 159 215 275 323 377
#     4  11  21  36  60  93 126 159 215 264 318 381
#     4  10  18  34  63  96 124 154 211 268 321 371
#     4   9  15  28  54  85 121 148 196 259 297 359
#     4   9  16  29  57  89 115 154 204 249 298 370
#     4  12  24  43  67  88 124 181 216 261 333 397
#
# _framework density 20.793278999999998
#
# number of rings (size 3 to 8) (size 9 to 14) (size 15 to 20)
#    0.000    1.714    7.143    0.857    6.000    0.571 
#    0.000    2.143    3.143    3.429    0.000    0.000 
#    0.000    0.000    0.000    0.000    0.000    0.000 
#
# Total GULP energy -155889.966871 kJ/mol
# GULP energy per Si atom -5567.498817 kJ/mol
# Density = 2.074595 g / cm^3
# Si number density = 20.793279 Si / 1000 Ang^3
#
#
#
# Elastic Constant Matrix: (Units=GPa)
#
#
# Indices 1 2 3 4 5 6 
#
# 1 38.5038 22.6998 1.9781 0.0000 0.0000 0.0000
# 2 22.6998 81.8256 9.1024 0.0000 0.0000 0.0000
# 3 1.9781 9.1024 68.1437 0.0000 0.0000 0.0000
# 4 0.0000 0.0000 0.0000 6.2727 0.0000 0.0000
# 5 0.0000 0.0000 0.0000 0.0000 2.4145 0.0000
# 6 0.0000 0.0000 0.0000 0.0000 0.0000 37.4326
#
#
#
# Elastic Compliance Matrix: (Units=1/GPa)
#
#
# Indices 1 2 3 4 5 6 
#
# 1 0.031054 -0.008643 0.000253 0.000000 0.000000 0.000000
# 2 -0.008643 0.014811 -0.001728 0.000000 0.000000 0.000000
# 3 0.000253 -0.001728 0.014898 0.000000 0.000000 0.000000
# 4 0.000000 0.000000 0.000000 0.159422 0.000000 0.000000
# 5 0.000000 0.000000 0.000000 0.000000 0.414167 0.000000
# 6 0.000000 0.000000 0.000000 0.000000 0.000000 0.026715
#
#
# Mechanical properties :
#
#
# Convention : Reuss Voigt Hill
#
# Bulk Modulus (GPa) = 24.67414 28.44819 26.56116
# Shear Modulus (GPa) = 7.19619 19.53680 13.36650
#
# Velocity S-wave (km/s) = 1.86235 3.06857 2.53816
# Velocity P-wave (km/s) = 4.06406 5.12503 4.62507
#
# Compressibility (1/GPa) = 0.04052826
#
# Stress axis : x y z
#
# Youngs Moduli (GPa) = 32.20205 67.51734 67.12186
#
# Poissons Ratio (x) = 0.58356 -0.01699
# Poissons Ratio (y) = 0.27832 0.11595
# Poissons Ratio (z) = -0.00815 0.11664
#
# Static dielectric constant tensor:
#      x y z
#    x 1.763200 0.000000 0.000000 
#    y 0.000000 1.815250 0.000000 
#    z 0.000000 0.000000 1.812330 
# 
# From -- ./inp_files/12151.got.cif
#   From: 2010.05.17/outbox.cif.g08.bks.cpg/sg37_7_cif.got.tgz:12151.got - 2010.06.03 17:53:42.
