data_PCOD9353133
_publ_section_title
;
Structure prediction by ZEFSAII (Michael W. Deem and Ramdas Pophale) SiO2 
 PCOD9353133
Probable space group: C M C 21
;
_chemical_formula_sum "Si O2"
_cell_formula_units_Z 32
_cell_length_a 8.161380
_cell_length_b 34.014852
_cell_length_c 4.887029
_cell_angle_alpha 90.000000
_cell_angle_beta 90.000000
_cell_angle_gamma 90.000000
_cell_volume 1356.678996
_symmetry_space_group_name_H-M "C M C 21"
_symmetry_group_IT_number 36
_symmetry_cell_setting 'orthorhombic'
loop_
_space_group_symop_operation_xyz
x,y,z
-x,-y,1/2+z
x,-y,1/2+z
-x,y,z
1/2+x,1/2+y,z
1/2-x,1/2-y,1/2+z
1/2+x,1/2-y,1/2+z
1/2-x,1/2+y,z
loop_
_atom_site_type_symbol
_atom_site_label
_atom_site_fract_x
_atom_site_fract_y
_atom_site_fract_z
Si Si1 0.310454 0.727479 0.224990
Si Si2 0.810295 0.351120 0.428209
Si Si3 0.691650 0.396612 0.932025
Si Si4 0.699552 0.476174 0.218401
O O1 0.500000 0.723677 0.299140
O O2 0.212688 0.738489 0.497753
O O3 0.248824 0.688417 0.075271
O O4 0.710817 0.362326 0.157206
O O5 0.000000 0.347917 0.354156
O O6 0.782742 0.384735 0.656530
O O7 0.500000 0.402049 0.862293
O O8 0.755306 0.435638 0.084310
O O9 0.748807 0.487697 0.522446
O O10 0.500000 0.474020 0.220507
#
# Coordination Sequence:
#
# PCOD9353133 Si02
#       4
#     8   8   8   8
#     4  12  25  44  67  94 125 160 203 250 303 361
#     4  12  25  42  62  89 126 165 203 248 305 363
#     4  11  22  39  64  92 121 159 208 257 304 359
#     4   9  17  31  55  87 118 150 196 253 304 353
#
# _framework density 23.587008000000001
#
# number of rings (size 3 to 8) (size 9 to 14) (size 15 to 20)
#    0.000    1.000    0.000    8.250    0.000    4.000 
#    0.000    0.000    0.000   15.000    0.000    0.000 
#    0.000    0.000    0.000    0.000    0.000    0.000 
#
# Total GULP energy -89637.117077 kJ/mol
# GULP energy per Si atom -5602.319817 kJ/mol
# Density = 2.353332 g / cm^3
# Si number density = 23.587008 Si / 1000 Ang^3
#
#
#
# Elastic Constant Matrix: (Units=GPa)
#
#
# Indices 1 2 3 4 5 6 
#
# 1 59.8870 -0.4248 -15.1671 0.0000 0.0000 0.0000
# 2 -0.4248 66.1362 -9.5557 0.0000 0.0000 0.0000
# 3 -15.1671 -9.5557 89.0953 0.0000 0.0000 0.0000
# 4 0.0000 0.0000 0.0000 40.0925 0.0000 0.0000
# 5 0.0000 0.0000 0.0000 0.0000 31.9258 0.0000
# 6 0.0000 0.0000 0.0000 0.0000 0.0000 -3.4063
#
#
#
# Elastic Compliance Matrix: (Units=1/GPa)
#
#
# Indices 1 2 3 4 5 6 
#
# 1 0.017470 0.000550 0.003033 0.000000 0.000000 0.000000
# 2 0.000550 0.015376 0.001743 0.000000 0.000000 0.000000
# 3 0.003033 0.001743 0.011927 0.000000 0.000000 0.000000
# 4 0.000000 0.000000 0.000000 0.024942 0.000000 0.000000
# 5 0.000000 0.000000 0.000000 0.000000 0.031323 0.000000
# 6 0.000000 0.000000 0.000000 0.000000 0.000000 -0.293576
#
#
# Mechanical properties :
#
#
# Convention : Reuss Voigt Hill
#
# Bulk Modulus (GPa) = 18.04220 18.31370 18.17795
# Shear Modulus (GPa) = -27.06863 29.74014 1.33576
#
# Velocity S-wave (km/s) = -3.39131 3.55472 0.75335
# Velocity P-wave (km/s) = 2.76927 4.96279 2.91208
#
# Compressibility (1/GPa) = 0.05542560
#
# Stress axis : x y z
#
# Youngs Moduli (GPa) = 57.24042 65.03788 83.84202
#
# Poissons Ratio (x) = -0.03580 -0.25430
# Poissons Ratio (y) = -0.03151 -0.14612
# Poissons Ratio (z) = -0.17361 -0.11335
#
# Static dielectric constant tensor:
#      x y z
#    x 1.829500 0.000000 0.000000 
#    y 0.000000 1.957430 0.000000 
#    z 0.000000 0.000000 1.836880 
# 
# From -- ./inp_files/223.got.cif
#   From: 2010.05.17/outbox.cif.g08.bks.cpg/sg36_1_cif.got.tgz:223.got - 2010.06.03 17:41:39.
