data_PCOD9353512
_publ_section_title
;
Structure prediction by ZEFSAII (Michael W. Deem and Ramdas Pophale) SiO2 
 PCOD9353512
Probable space group: C C C 2
;
_chemical_formula_sum "Si O2"
_cell_formula_units_Z 24
_cell_length_a 7.243849
_cell_length_b 12.085754
_cell_length_c 9.416648
_cell_angle_alpha 90.000000
_cell_angle_beta 90.000000
_cell_angle_gamma 90.000000
_cell_volume 824.402833
_symmetry_space_group_name_H-M "C C C 2"
_symmetry_group_IT_number 37
_symmetry_cell_setting 'orthorhombic'
loop_
_space_group_symop_operation_xyz
x,y,z
-x,-y,z
-x,y,1/2+z
x,-y,1/2+z
1/2+x,1/2+y,z
1/2-x,1/2-y,z
1/2-x,1/2+y,1/2+z
1/2+x,1/2-y,1/2+z
loop_
_atom_site_type_symbol
_atom_site_label
_atom_site_fract_x
_atom_site_fract_y
_atom_site_fract_z
Si Si1 0.576854 0.890105 0.783470
Si Si2 0.295366 0.575509 0.882394
Si Si3 0.558543 0.306929 0.603291
O O1 0.410401 0.872926 0.896077
O O2 0.751620 0.944659 0.861475
O O3 0.562804 0.785633 0.685124
O O4 0.500000 0.000000 0.700805
O O5 0.367723 0.616756 0.731209
O O6 0.425654 0.621126 0.003810
O O7 0.750000 0.250000 0.545038
#
# Coordination Sequence:
#
# PCOD9353512 Si02
#       3
#     8   8   8
#     4   7  17  36  64 114 173 221 275 339 428 524
#     4   8  18  34  69 115 166 222 280 347 424 517
#     4  10  17  37  72 114 168 223 276 351 437 505
#
# _framework density 29.111982000000001
#
# number of rings (size 3 to 8) (size 9 to 14) (size 15 to 20)
#    2.000    1.333    0.000    0.000    0.000    0.000 
#    0.000    6.667    0.000   22.000    0.000   60.667 
#    0.000    0.000    0.000    5.333    0.000    0.000 
#
# Total GULP energy -67141.718898 kJ/mol
# GULP energy per Si atom -5595.143241 kJ/mol
# Density = 2.904572 g / cm^3
# Si number density = 29.111982 Si / 1000 Ang^3
#
#
#
# Elastic Constant Matrix: (Units=GPa)
#
#
# Indices 1 2 3 4 5 6 
#
# 1 234.7991 147.4745 112.8818 0.0000 0.0000 0.0000
# 2 147.4745 202.7349 102.9416 0.0000 0.0000 0.0000
# 3 112.8818 102.9416 168.5416 0.0000 0.0000 0.0000
# 4 0.0000 0.0000 0.0000 39.7380 0.0000 0.0000
# 5 0.0000 0.0000 0.0000 0.0000 38.6748 0.0000
# 6 0.0000 0.0000 0.0000 0.0000 0.0000 66.1385
#
#
#
# Elastic Compliance Matrix: (Units=1/GPa)
#
#
# Indices 1 2 3 4 5 6 
#
# 1 0.008688 -0.004878 -0.002839 0.000000 0.000000 0.000000
# 2 -0.004878 0.009889 -0.002773 0.000000 0.000000 0.000000
# 3 -0.002839 -0.002773 0.009528 0.000000 0.000000 0.000000
# 4 0.000000 0.000000 0.000000 0.025165 0.000000 0.000000
# 5 0.000000 0.000000 0.000000 0.000000 0.025857 0.000000
# 6 0.000000 0.000000 0.000000 0.000000 0.000000 0.015120
#
#
# Mechanical properties :
#
#
# Convention : Reuss Voigt Hill
#
# Bulk Modulus (GPa) = 140.35416 148.07459 144.21438
# Shear Modulus (GPa) = 42.51634 45.09543 43.80588
#
# Velocity S-wave (km/s) = 3.82572 3.94005 3.88330
# Velocity P-wave (km/s) = 8.23598 8.46598 8.35177
#
# Compressibility (1/GPa) = 0.00712483
#
# Stress axis : x y z
#
# Youngs Moduli (GPa) = 115.10352 101.12339 104.94832
#
# Poissons Ratio (x) = 0.49328 0.29798
# Poissons Ratio (y) = 0.56148 0.29100
# Poissons Ratio (z) = 0.32682 0.28040
#
# Static dielectric constant tensor:
#      x y z
#    x 2.375540 0.000000 0.000000 
#    y 0.000000 2.337660 0.000000 
#    z 0.000000 0.000000 2.237220 
# 
# From -- ./inp_files/5249.got.cif
#   From: 2010.05.17/outbox.cif.g08.bks.cpg/sg37_3_cif.got.tgz:5249.got - 2010.06.03 17:53:42.
