data_PCOD9353984
_publ_section_title
;
Structure prediction by ZEFSAII (Michael W. Deem and Ramdas Pophale) SiO2 
 PCOD9353984
Probable space group: C C C 2
;
_chemical_formula_sum "Si O2"
_cell_formula_units_Z 40
_cell_length_a 24.061733
_cell_length_b 14.372114
_cell_length_c 5.124078
_cell_angle_alpha 90.000000
_cell_angle_beta 90.000000
_cell_angle_gamma 90.000000
_cell_volume 1771.998251
_symmetry_space_group_name_H-M "C C C 2"
_symmetry_group_IT_number 37
_symmetry_cell_setting 'orthorhombic'
loop_
_space_group_symop_operation_xyz
x,y,z
-x,-y,z
-x,y,1/2+z
x,-y,1/2+z
1/2+x,1/2+y,z
1/2-x,1/2-y,z
1/2-x,1/2+y,1/2+z
1/2+x,1/2-y,1/2+z
loop_
_atom_site_type_symbol
_atom_site_label
_atom_site_fract_x
_atom_site_fract_y
_atom_site_fract_z
Si Si1 0.522932 0.896377 0.501730
Si Si2 0.460758 0.372684 0.812747
Si Si3 0.378689 0.799119 0.199513
Si Si4 0.815408 0.756359 0.171674
Si Si5 0.154455 0.951888 0.403821
O O1 0.517858 0.851627 0.217133
O O2 0.584254 0.887290 0.614660
O O3 0.500000 0.000000 0.453254
O O4 0.496466 0.378166 0.550479
O O5 0.424113 0.278546 0.782723
O O6 0.412269 0.447640 0.867745
O O7 0.338318 0.812640 0.444995
O O8 0.346942 0.761938 0.943149
O O9 0.750000 0.750000 0.212676
O O10 0.828024 0.856670 0.042477
O O11 0.173986 0.030487 0.608534
#
# Coordination Sequence:
#
# PCOD9353984 Si02
#       5
#     8   8   8   8   8
#     4  10  20  35  60  89 129 174 200 252 323 385
#     4  11  21  34  56  91 125 162 199 239 302 381
#     4  11  21  38  63  92 124 165 222 259 315 401
#     4  11  24  43  68  90 120 169 227 282 324 377
#     4  11  23  40  62  88 127 164 204 260 329 385
#
# _framework density 22.573384999999998
#
# number of rings (size 3 to 8) (size 9 to 14) (size 15 to 20)
#    0.000    1.200    0.000    9.000    0.000    2.400 
#    0.000    0.000   26.400    0.000    0.000    0.000 
#    0.000    0.000    0.000    0.000    0.000    0.000 
#
# Total GULP energy -111686.093137 kJ/mol
# GULP energy per Si atom -5584.304657 kJ/mol
# Density = 2.252201 g / cm^3
# Si number density = 22.573385 Si / 1000 Ang^3
#
#
#
# Elastic Constant Matrix: (Units=GPa)
#
#
# Indices 1 2 3 4 5 6 
#
# 1 92.5049 25.6602 42.9443 0.0000 0.0000 0.0000
# 2 25.6602 47.6195 25.5315 0.0000 0.0000 0.0000
# 3 42.9443 25.5315 174.9619 0.0000 0.0000 0.0000
# 4 0.0000 0.0000 0.0000 19.8735 0.0000 0.0000
# 5 0.0000 0.0000 0.0000 0.0000 24.8317 0.0000
# 6 0.0000 0.0000 0.0000 0.0000 0.0000 19.8747
#
#
#
# Elastic Compliance Matrix: (Units=1/GPa)
#
#
# Indices 1 2 3 4 5 6 
#
# 1 0.013625 -0.006020 -0.002466 0.000000 0.000000 0.000000
# 2 -0.006020 0.025442 -0.002235 0.000000 0.000000 0.000000
# 3 -0.002466 -0.002235 0.006647 0.000000 0.000000 0.000000
# 4 0.000000 0.000000 0.000000 0.050318 0.000000 0.000000
# 5 0.000000 0.000000 0.000000 0.000000 0.040271 0.000000
# 6 0.000000 0.000000 0.000000 0.000000 0.000000 0.050315
#
#
# Mechanical properties :
#
#
# Convention : Reuss Voigt Hill
#
# Bulk Modulus (GPa) = 41.19910 55.92871 48.56391
# Shear Modulus (GPa) = 23.13203 27.64598 25.38901
#
# Velocity S-wave (km/s) = 3.20464 3.50339 3.35734
# Velocity P-wave (km/s) = 5.65542 6.41835 6.04892
#
# Compressibility (1/GPa) = 0.02427238
#
# Stress axis : x y z
#
# Youngs Moduli (GPa) = 73.39562 39.30508 150.44589
#
# Poissons Ratio (x) = 0.23661 0.37096
# Poissons Ratio (y) = 0.44183 0.33626
# Poissons Ratio (z) = 0.18098 0.08785
#
# Static dielectric constant tensor:
#      x y z
#    x 1.805830 0.000000 0.000000 
#    y 0.000000 2.111680 0.000000 
#    z 0.000000 0.000000 1.904940 
# 
# From -- ./inp_files/711.got.cif
#   From: 2010.05.17/outbox.cif.g08.bks.cpg/sg37_1_cif.got.tgz:711.got - 2010.06.03 17:53:42.
