data_PCOD9353943
_publ_section_title
;
Structure prediction by ZEFSAII (Michael W. Deem and Ramdas Pophale) SiO2 
 PCOD9353943
Probable space group: C C C 2
;
_chemical_formula_sum "Si O2"
_cell_formula_units_Z 64
_cell_length_a 27.338997
_cell_length_b 5.581610
_cell_length_c 20.693886
_cell_angle_alpha 90.000000
_cell_angle_beta 90.000000
_cell_angle_gamma 90.000000
_cell_volume 3157.796345
_symmetry_space_group_name_H-M "C C C 2"
_symmetry_group_IT_number 37
_symmetry_cell_setting 'orthorhombic'
loop_
_space_group_symop_operation_xyz
x,y,z
-x,-y,z
-x,y,1/2+z
x,-y,1/2+z
1/2+x,1/2+y,z
1/2-x,1/2-y,z
1/2-x,1/2+y,1/2+z
1/2+x,1/2-y,1/2+z
loop_
_atom_site_type_symbol
_atom_site_label
_atom_site_fract_x
_atom_site_fract_y
_atom_site_fract_z
Si Si1 0.616399 0.524102 0.412960
Si Si2 0.555161 0.066373 0.055804
Si Si3 0.155361 0.628652 0.348712
Si Si4 0.694269 0.172761 0.591333
Si Si5 0.552980 0.087676 0.899114
Si Si6 0.198313 0.383522 0.463704
Si Si7 0.218898 0.501324 0.728646
Si Si8 0.104932 0.079873 0.057506
O O1 0.645021 0.409054 0.353459
O O2 0.565707 0.633980 0.388726
O O3 0.655206 0.709270 0.442146
O O4 0.604700 0.386366 0.479403
O O5 0.576291 0.332250 0.072840
O O6 0.500000 0.000000 0.075458
O O7 0.584354 0.835509 0.081797
O O8 0.555094 0.066128 0.977168
O O9 0.100512 0.535835 0.366622
O O10 0.193632 0.579724 0.407131
O O11 0.179133 0.528207 0.284939
O O12 0.750000 0.250000 0.582202
O O13 0.692700 0.042847 0.659918
O O14 0.660080 0.406232 0.583972
O O15 0.684168 0.997686 0.531680
O O16 0.500000 0.000000 0.877422
O O17 0.250000 0.250000 0.465985
O O18 0.250000 0.750000 0.739105
O O19 0.250000 0.250000 0.727551
#
# Coordination Sequence:
#
# PCOD9353943 Si02
#       8
#     8   8   8   8   8   8   8   8
#     4  10  20  34  56  91 130 161 210 265 333 382
#     4  10  20  34  57  93 132 166 201 260 332 388
#     4  11  22  38  59  92 125 169 212 272 332 402
#     4  11  23  42  63  92 127 177 228 273 327 400
#     4   9  19  34  56  88 128 165 208 263 326 391
#     4  11  22  34  60  88 125 165 216 277 324 388
#     4  11  28  46  65  90 132 178 225 275 340 408
#     4  11  19  36  58  87 127 167 209 265 312 385
#
# _framework density 20.267296999999999
#
# number of rings (size 3 to 8) (size 9 to 14) (size 15 to 20)
#    0.000    1.500    2.500    3.375    5.250    3.500 
#    0.000    0.000    0.000    0.750    0.000    0.000 
#    0.000    0.000    0.000    0.000    0.000    0.000 
#
# Total GULP energy -178213.086545 kJ/mol
# GULP energy per Si atom -5569.158955 kJ/mol
# Density = 2.022117 g / cm^3
# Si number density = 20.267297 Si / 1000 Ang^3
#
#
#
# Elastic Constant Matrix: (Units=GPa)
#
#
# Indices 1 2 3 4 5 6 
#
# 1 135.0734 67.5638 48.2369 0.0000 0.0000 0.0000
# 2 67.5638 119.9141 39.5247 0.0000 0.0000 0.0000
# 3 48.2369 39.5247 83.7077 0.0000 0.0000 0.0000
# 4 0.0000 0.0000 0.0000 19.8229 0.0000 0.0000
# 5 0.0000 0.0000 0.0000 0.0000 9.1068 0.0000
# 6 0.0000 0.0000 0.0000 0.0000 0.0000 34.3914
#
#
#
# Elastic Compliance Matrix: (Units=1/GPa)
#
#
# Indices 1 2 3 4 5 6 
#
# 1 0.011433 -0.005057 -0.004200 0.000000 0.000000 0.000000
# 2 -0.005057 0.012113 -0.002805 0.000000 0.000000 0.000000
# 3 -0.004200 -0.002805 0.015691 0.000000 0.000000 0.000000
# 4 0.000000 0.000000 0.000000 0.050447 0.000000 0.000000
# 5 0.000000 0.000000 0.000000 0.000000 0.109808 0.000000
# 6 0.000000 0.000000 0.000000 0.000000 0.000000 0.029077
#
#
# Mechanical properties :
#
#
# Convention : Reuss Voigt Hill
#
# Bulk Modulus (GPa) = 66.17352 72.14957 69.16154
# Shear Modulus (GPa) = 19.39987 24.88885 22.14436
#
# Velocity S-wave (km/s) = 3.09722 3.50813 3.30906
# Velocity P-wave (km/s) = 6.74623 7.21703 6.98560
#
# Compressibility (1/GPa) = 0.01511179
#
# Stress axis : x y z
#
# Youngs Moduli (GPa) = 87.46533 82.55286 63.72885
#
# Poissons Ratio (x) = 0.41750 0.26769
# Poissons Ratio (y) = 0.44234 0.17878
# Poissons Ratio (z) = 0.36739 0.23159
#
# Static dielectric constant tensor:
#      x y z
#    x 1.780820 0.000000 0.000000 
#    y 0.000000 1.955790 0.000000 
#    z 0.000000 0.000000 1.699220 
# 
# From -- ./inp_files/17655.got.cif
#   From: 2010.05.17/outbox.cif.g08.bks.cpg/sg37_9_cif.got.tgz:17655.got - 2010.06.03 17:53:42.
