data_PCOD9353761
_publ_section_title
;
Structure prediction by ZEFSAII (Michael W. Deem and Ramdas Pophale) SiO2 
 PCOD9353761
Probable space group: C C C 2
;
_chemical_formula_sum "Si O2"
_cell_formula_units_Z 44
_cell_length_a 14.151571
_cell_length_b 5.302723
_cell_length_c 26.933623
_cell_angle_alpha 90.000000
_cell_angle_beta 90.000000
_cell_angle_gamma 90.000000
_cell_volume 2021.149194
_symmetry_space_group_name_H-M "C C C 2"
_symmetry_group_IT_number 37
_symmetry_cell_setting 'orthorhombic'
loop_
_space_group_symop_operation_xyz
x,y,z
-x,-y,z
-x,y,1/2+z
x,-y,1/2+z
1/2+x,1/2+y,z
1/2-x,1/2-y,z
1/2-x,1/2+y,1/2+z
1/2+x,1/2-y,1/2+z
loop_
_atom_site_type_symbol
_atom_site_label
_atom_site_fract_x
_atom_site_fract_y
_atom_site_fract_z
Si Si1 0.858678 0.755241 0.925110
Si Si2 0.866136 0.252470 0.870930
Si Si3 0.442184 0.757983 0.526346
Si Si4 0.364331 0.261992 0.697084
Si Si5 0.136325 0.262817 0.258363
Si Si6 0.000000 0.500000 0.620517
O O1 0.750000 0.750000 0.910589
O O2 0.896582 0.504745 0.899130
O O3 0.897364 0.011467 0.902206
O O4 0.863417 0.766106 0.984750
O O5 0.750000 0.250000 0.869634
O O6 0.900464 0.236466 0.814217
O O7 0.500000 0.500000 0.526192
O O8 0.569245 0.159980 0.583730
O O9 0.500000 0.000000 0.506886
O O10 0.250000 0.250000 0.685805
O O11 0.387986 0.532297 0.721456
O O12 0.384583 0.037448 0.736266
O O13 0.432601 0.184521 0.651806
O O14 0.250000 0.250000 0.261660
#
# Coordination Sequence:
#
# PCOD9353761 Si02
#       6
#     8   8   8   8   8   4
#     4  10  19  35  60  90 115 152 199 242 291 369
#     4   9  17  31  58  90 121 152 187 239 300 358
#     4  10  23  41  58  81 112 165 191 249 317 348
#     4  10  21  38  62  89 117 159 203 251 305 373
#     4   9  18  34  59  91 121 152 195 242 301 368
#     4  10  26  42  64  80 124 158 210 262 322 354
#
# _framework density 21.769791999999999
#
# number of rings (size 3 to 8) (size 9 to 14) (size 15 to 20)
#    0.545    1.818    0.000    2.182    2.545    4.364 
#    3.273    0.000   20.000    0.000    0.000    0.000 
#    0.000    0.000    0.000    0.000    0.000    0.000 
#
# Total GULP energy -122661.098641 kJ/mol
# GULP energy per Si atom -5575.504484 kJ/mol
# Density = 2.172024 g / cm^3
# Si number density = 21.769792 Si / 1000 Ang^3
#
#
#
# Elastic Constant Matrix: (Units=GPa)
#
#
# Indices 1 2 3 4 5 6 
#
# 1 77.3307 18.8439 30.6274 0.0000 0.0000 0.0000
# 2 18.8439 171.6594 59.3957 0.0000 0.0000 0.0000
# 3 30.6274 59.3957 149.3582 0.0000 0.0000 0.0000
# 4 0.0000 0.0000 0.0000 16.1776 0.0000 0.0000
# 5 0.0000 0.0000 0.0000 0.0000 26.1693 0.0000
# 6 0.0000 0.0000 0.0000 0.0000 0.0000 -11.6445
#
#
#
# Elastic Compliance Matrix: (Units=1/GPa)
#
#
# Indices 1 2 3 4 5 6 
#
# 1 0.014134 -0.000636 -0.002645 0.000000 0.000000 0.000000
# 2 -0.000636 0.006784 -0.002567 0.000000 0.000000 0.000000
# 3 -0.002645 -0.002567 0.008259 0.000000 0.000000 0.000000
# 4 0.000000 0.000000 0.000000 0.061814 0.000000 0.000000
# 5 0.000000 0.000000 0.000000 0.000000 0.038213 0.000000
# 6 0.000000 0.000000 0.000000 0.000000 0.000000 -0.085878
#
#
# Mechanical properties :
#
#
# Convention : Reuss Voigt Hill
#
# Bulk Modulus (GPa) = 57.21180 68.45361 62.83271
# Shear Modulus (GPa) = 82.17029 25.43925 53.80477
#
# Velocity S-wave (km/s) = 6.15037 3.42212 4.97685
# Velocity P-wave (km/s) = 8.76205 6.86492 7.87085
#
# Compressibility (1/GPa) = 0.01747891
#
# Stress axis : x y z
#
# Youngs Moduli (GPa) = 70.75024 147.41422 121.08495
#
# Poissons Ratio (x) = 0.09380 0.32031
# Poissons Ratio (y) = 0.04502 0.31085
# Poissons Ratio (z) = 0.18716 0.37844
#
# Static dielectric constant tensor:
#      x y z
#    x 1.827390 0.000000 0.000000 
#    y 0.000000 1.767880 0.000000 
#    z 0.000000 0.000000 1.789750 
# 
# From -- ./inp_files/19824.got.cif
#   From: 2010.05.17/outbox.cif.g08.bks.cpg/sg37_10_cif.got.tgz:19824.got - 2010.06.03 17:53:42.
