data_PCOD9353966
_publ_section_title
;
Structure prediction by ZEFSAII (Michael W. Deem and Ramdas Pophale) SiO2 
 PCOD9353966
Probable space group: C C C 2
;
_chemical_formula_sum "Si O2"
_cell_formula_units_Z 64
_cell_length_a 13.788236
_cell_length_b 14.102987
_cell_length_c 15.192090
_cell_angle_alpha 90.000000
_cell_angle_beta 90.000000
_cell_angle_gamma 90.000000
_cell_volume 2954.182617
_symmetry_space_group_name_H-M "C C C 2"
_symmetry_group_IT_number 37
_symmetry_cell_setting 'orthorhombic'
loop_
_space_group_symop_operation_xyz
x,y,z
-x,-y,z
-x,y,1/2+z
x,-y,1/2+z
1/2+x,1/2+y,z
1/2-x,1/2-y,z
1/2-x,1/2+y,1/2+z
1/2+x,1/2-y,1/2+z
loop_
_atom_site_type_symbol
_atom_site_label
_atom_site_fract_x
_atom_site_fract_y
_atom_site_fract_z
Si Si1 0.235957 0.355831 0.793590
Si Si2 0.736489 0.857399 0.005280
Si Si3 0.489321 0.104323 0.034939
Si Si4 0.888148 0.017212 0.785258
Si Si5 0.141859 0.770196 0.776916
Si Si6 0.640873 0.269157 0.988243
Si Si7 0.017517 0.605929 0.241008
Si Si8 0.889084 0.981132 0.500249
O O1 0.250000 0.250000 0.757612
O O2 0.250215 0.354040 0.899259
O O3 0.309705 0.436822 0.757973
O O4 0.123222 0.372149 0.776975
O O5 0.750000 0.750000 0.038298
O O6 0.811612 0.940577 0.034041
O O7 0.624843 0.877604 0.026882
O O8 0.520374 0.097691 0.136133
O O9 0.500000 0.000000 0.992583
O O10 0.558877 0.188966 0.002015
O O11 0.874227 0.122154 0.747155
O O12 0.880819 0.018357 0.892765
O O13 0.000000 0.000000 0.764408
O O14 0.250000 0.750000 0.745251
O O15 0.144326 0.776531 0.882695
O O16 0.062839 0.688012 0.758009
O O17 0.750000 0.250000 0.018927
O O18 0.622544 0.372397 0.028054
O O19 0.000000 0.500000 0.276609
O O20 0.000000 0.000000 0.523177
#
# Coordination Sequence:
#
# PCOD9353966 Si02
#       8
#     8   8   8   8   8   8   8   8
#     4  10  20  36  61  89 116 150 193 243 296 352
#     4  10  20  36  61  89 116 150 193 243 296 352
#     4  11  24  39  55  80 115 156 196 236 290 354
#     4   9  17  31  54  85 114 138 174 228 286 340
#     4  10  20  35  57  82 107 140 185 237 286 333
#     4  10  20  35  57  82 107 140 185 237 286 333
#     4  11  24  39  55  80 115 156 196 236 290 354
#     4   9  17  31  54  85 114 138 174 228 286 340
#
# _framework density 21.664199
#
# number of rings (size 3 to 8) (size 9 to 14) (size 15 to 20)
#    0.000    2.000    0.000    3.750    0.000    9.000 
#    0.000    0.000    0.000    5.250    0.000    0.000 
#    0.000    0.000    0.000    0.000    0.000    0.250 
#
# Total GULP energy -178367.804657 kJ/mol
# GULP energy per Si atom -5573.993896 kJ/mol
# Density = 2.161489 g / cm^3
# Si number density = 21.664199 Si / 1000 Ang^3
#
#
#
# Elastic Constant Matrix: (Units=GPa)
#
#
# Indices 1 2 3 4 5 6 
#
# 1 141.2756 103.9653 -10.2638 0.0000 0.0000 0.0000
# 2 103.9653 206.4186 10.2413 0.0000 0.0000 0.0000
# 3 -10.2638 10.2413 31.7352 0.0000 0.0000 0.0000
# 4 0.0000 0.0000 0.0000 15.3938 0.0000 0.0000
# 5 0.0000 0.0000 0.0000 0.0000 -2.1270 0.0000
# 6 0.0000 0.0000 0.0000 0.0000 0.0000 62.0675
#
#
#
# Elastic Compliance Matrix: (Units=1/GPa)
#
#
# Indices 1 2 3 4 5 6 
#
# 1 0.012301 -0.006497 0.006075 0.000000 0.000000 0.000000
# 2 -0.006497 0.008355 -0.004797 0.000000 0.000000 0.000000
# 3 0.006075 -0.004797 0.035024 0.000000 0.000000 0.000000
# 4 0.000000 0.000000 0.000000 0.064961 0.000000 0.000000
# 5 0.000000 0.000000 0.000000 0.000000 -0.470150 0.000000
# 6 0.000000 0.000000 0.000000 0.000000 0.000000 0.016111
#
#
# Mechanical properties :
#
#
# Convention : Reuss Voigt Hill
#
# Bulk Modulus (GPa) = 22.10408 65.25723 43.68066
# Shear Modulus (GPa) = -16.24010 33.43264 8.59627
#
# Velocity S-wave (km/s) = -2.74090 3.93265 1.99414
# Velocity P-wave (km/s) = 0.45656 7.12801 5.05059
#
# Compressibility (1/GPa) = 0.04524052
#
# Stress axis : x y z
#
# Youngs Moduli (GPa) = 81.29577 119.69229 28.55217
#
# Poissons Ratio (x) = 0.77762 -0.17345
# Poissons Ratio (y) = 0.52817 0.13698
# Poissons Ratio (z) = -0.49386 0.57421
#
# Static dielectric constant tensor:
#      x y z
#    x 2.309550 0.000000 0.000000 
#    y 0.000000 1.402610 0.000000 
#    z 0.000000 0.000000 1.803200 
# 
# From -- ./inp_files/15082.got.cif
#   From: 2010.05.17/outbox.cif.g08.bks.cpg/sg37_8_cif.got.tgz:15082.got - 2010.06.03 17:53:42.
