data_PCOD9353503
_publ_section_title
;
Structure prediction by ZEFSAII (Michael W. Deem and Ramdas Pophale) SiO2 
 PCOD9353503
Probable space group: C C C 2
;
_chemical_formula_sum "Si O2"
_cell_formula_units_Z 24
_cell_length_a 8.090192
_cell_length_b 10.639092
_cell_length_c 10.429160
_cell_angle_alpha 90.000000
_cell_angle_beta 90.000000
_cell_angle_gamma 90.000000
_cell_volume 897.661757
_symmetry_space_group_name_H-M "C C C 2"
_symmetry_group_IT_number 37
_symmetry_cell_setting 'orthorhombic'
loop_
_space_group_symop_operation_xyz
x,y,z
-x,-y,z
-x,y,1/2+z
x,-y,1/2+z
1/2+x,1/2+y,z
1/2-x,1/2-y,z
1/2-x,1/2+y,1/2+z
1/2+x,1/2-y,1/2+z
loop_
_atom_site_type_symbol
_atom_site_label
_atom_site_fract_x
_atom_site_fract_y
_atom_site_fract_z
Si Si1 0.906977 0.655290 0.127830
Si Si2 0.010361 0.220330 0.877786
Si Si3 0.322065 0.501982 0.777261
O O1 0.750000 0.750000 0.122522
O O2 0.822747 0.526503 0.177124
O O3 0.013369 0.705965 0.245266
O O4 0.993393 0.683368 0.994076
O O5 0.853190 0.124144 0.867859
O O6 0.162522 0.119845 0.867457
O O7 0.000000 0.000000 0.702558
#
# Coordination Sequence:
#
# PCOD9353503 Si02
#       3
#     8   8   8
#     4  10  17  35  61  91 136 175 225 282 332 416
#     4   8  18  31  58  93 124 181 220 274 345 390
#     4   7  17  32  57  97 127 173 231 268 338 412
#
# _framework density 26.736129999999999
#
# number of rings (size 3 to 8) (size 9 to 14) (size 15 to 20)
#    2.000    1.333    0.000    0.000    0.000   10.667 
#    0.000    5.000    0.000   14.000    0.000    0.000 
#    0.000    0.000    0.000    0.000    0.000    0.000 
#
# Total GULP energy -66913.477154 kJ/mol
# GULP energy per Si atom -5576.123096 kJ/mol
# Density = 2.667528 g / cm^3
# Si number density = 26.736130 Si / 1000 Ang^3
#
#
#
# Elastic Constant Matrix: (Units=GPa)
#
#
# Indices 1 2 3 4 5 6 
#
# 1 85.8066 29.1826 47.1514 0.0000 0.0000 0.0000
# 2 29.1826 156.8736 74.5216 0.0000 0.0000 0.0000
# 3 47.1514 74.5216 207.0724 0.0000 0.0000 0.0000
# 4 0.0000 0.0000 0.0000 38.3392 0.0000 0.0000
# 5 0.0000 0.0000 0.0000 0.0000 37.4001 0.0000
# 6 0.0000 0.0000 0.0000 0.0000 0.0000 32.8154
#
#
#
# Elastic Compliance Matrix: (Units=1/GPa)
#
#
# Indices 1 2 3 4 5 6 
#
# 1 0.013528 -0.001270 -0.002623 0.000000 0.000000 0.000000
# 2 -0.001270 0.007808 -0.002521 0.000000 0.000000 0.000000
# 3 -0.002623 -0.002521 0.006334 0.000000 0.000000 0.000000
# 4 0.000000 0.000000 0.000000 0.026083 0.000000 0.000000
# 5 0.000000 0.000000 0.000000 0.000000 0.026738 0.000000
# 6 0.000000 0.000000 0.000000 0.000000 0.000000 0.030474
#
#
# Mechanical properties :
#
#
# Convention : Reuss Voigt Hill
#
# Bulk Modulus (GPa) = 67.38070 83.49599 75.43834
# Shear Modulus (GPa) = 38.83806 41.63741 40.23773
#
# Velocity S-wave (km/s) = 3.81549 3.95060 3.88363
# Velocity P-wave (km/s) = 6.68337 7.21853 6.95610
#
# Compressibility (1/GPa) = 0.01484104
#
# Stress axis : x y z
#
# Youngs Moduli (GPa) = 73.92302 128.06748 157.88513
#
# Poissons Ratio (x) = 0.16270 0.41415
# Poissons Ratio (y) = 0.09391 0.39800
# Poissons Ratio (z) = 0.19391 0.32284
#
# Static dielectric constant tensor:
#      x y z
#    x 2.217400 0.000000 0.000000 
#    y 0.000000 2.215380 0.000000 
#    z 0.000000 0.000000 1.992560 
# 
# From -- ./inp_files/3166.got.cif
#   From: 2010.05.17/outbox.cif.g08.bks.cpg/sg37_2_cif.got.tgz:3166.got - 2010.06.03 17:53:42.
