data_PCOD9353663
_publ_section_title
;
Structure prediction by ZEFSAII (Michael W. Deem and Ramdas Pophale) SiO2 
 PCOD9353663
Probable space group: C C C 2
;
_chemical_formula_sum "Si O2"
_cell_formula_units_Z 48
_cell_length_a 16.544697
_cell_length_b 10.142681
_cell_length_c 15.074858
_cell_angle_alpha 90.000000
_cell_angle_beta 90.000000
_cell_angle_gamma 90.000000
_cell_volume 2529.675499
_symmetry_space_group_name_H-M "C C C 2"
_symmetry_group_IT_number 37
_symmetry_cell_setting 'orthorhombic'
loop_
_space_group_symop_operation_xyz
x,y,z
-x,-y,z
-x,y,1/2+z
x,-y,1/2+z
1/2+x,1/2+y,z
1/2-x,1/2-y,z
1/2-x,1/2+y,1/2+z
1/2+x,1/2-y,1/2+z
loop_
_atom_site_type_symbol
_atom_site_label
_atom_site_fract_x
_atom_site_fract_y
_atom_site_fract_z
Si Si1 0.311481 0.867474 0.352680
Si Si2 0.994885 0.659606 0.816782
Si Si3 0.751586 0.450053 0.998997
Si Si4 0.543445 0.358755 0.164840
Si Si5 0.609272 0.733089 0.475008
Si Si6 0.274314 0.598789 0.190406
O O1 0.250000 0.750000 0.338180
O O2 0.403381 0.826322 0.351751
O O3 0.285905 0.953341 0.266250
O O4 0.285262 0.932292 0.442580
O O5 0.999283 0.749549 0.727869
O O6 0.000000 0.500000 0.801937
O O7 0.055483 0.715628 0.892593
O O8 0.734376 0.482563 0.100566
O O9 0.668292 0.392217 0.957723
O O10 0.824357 0.344821 0.995502
O O11 0.500000 0.500000 0.158516
O O12 0.630768 0.390363 0.209636
O O13 0.560523 0.300731 0.065760
O O14 0.250000 0.750000 0.165141
#
# Coordination Sequence:
#
# PCOD9353663 Si02
#       6
#     8   8   8   8   8   8
#     4  11  22  39  65  91 125 171 213 257 323 389
#     4  12  24  40  63 101 133 165 212 273 333 381
#     4  10  19  40  68  88 120 171 217 255 320 391
#     4  11  24  42  66  96 129 173 219 270 319 384
#     4  10  22  41  65  90 125 170 214 266 325 380
#     4  10  18  41  67  83 118 177 211 249 321 388
#
# _framework density 18.974767
#
# number of rings (size 3 to 8) (size 9 to 14) (size 15 to 20)
#    0.000    1.333    8.333    0.000    2.333    4.000 
#    3.000    0.000    3.667    0.000    0.000    0.000 
#    0.000    0.000    0.000    0.000    0.000    0.000 
#
# Total GULP energy -133613.904094 kJ/mol
# GULP energy per Si atom -5567.246004 kJ/mol
# Density = 1.893158 g / cm^3
# Si number density = 18.974767 Si / 1000 Ang^3
#
#
#
# Elastic Constant Matrix: (Units=GPa)
#
#
# Indices 1 2 3 4 5 6 
#
# 1 106.3262 32.3623 36.2719 0.0000 0.0000 0.0000
# 2 32.3623 61.4728 46.3520 0.0000 0.0000 0.0000
# 3 36.2719 46.3520 98.3202 0.0000 0.0000 0.0000
# 4 0.0000 0.0000 0.0000 -30.3896 0.0000 0.0000
# 5 0.0000 0.0000 0.0000 0.0000 8.4398 0.0000
# 6 0.0000 0.0000 0.0000 0.0000 0.0000 18.4402
#
#
#
# Elastic Compliance Matrix: (Units=1/GPa)
#
#
# Indices 1 2 3 4 5 6 
#
# 1 0.011486 -0.004424 -0.002151 0.000000 0.000000 0.000000
# 2 -0.004424 0.026944 -0.011070 0.000000 0.000000 0.000000
# 3 -0.002151 -0.011070 0.016183 0.000000 0.000000 0.000000
# 4 0.000000 0.000000 0.000000 -0.032906 0.000000 0.000000
# 5 0.000000 0.000000 0.000000 0.000000 0.118487 0.000000
# 6 0.000000 0.000000 0.000000 0.000000 0.000000 0.054229
#
#
# Mechanical properties :
#
#
# Convention : Reuss Voigt Hill
#
# Bulk Modulus (GPa) = 51.75726 55.12130 53.43928
# Shear Modulus (GPa) = 21.17257 9.37360 15.27308
#
# Velocity S-wave (km/s) = 3.34402 2.22503 2.84018
# Velocity P-wave (km/s) = 6.49970 5.97611 6.24340
#
# Compressibility (1/GPa) = 0.01932096
#
# Stress axis : x y z
#
# Youngs Moduli (GPa) = 87.06567 37.11450 61.79171
#
# Poissons Ratio (x) = 0.16421 0.13294
# Poissons Ratio (y) = 0.38521 0.68404
# Poissons Ratio (z) = 0.18731 0.41086
#
# Static dielectric constant tensor:
#      x y z
#    x 1.673290 0.000000 0.000000 
#    y 0.000000 1.740350 0.000000 
#    z 0.000000 0.000000 1.840500 
# 
# From -- ./inp_files/15231.got.cif
#   From: 2010.05.17/outbox.cif.g08.bks.cpg/sg37_8_cif.got.tgz:15231.got - 2010.06.03 17:53:42.
