data_PCOD9353714
_publ_section_title
;
Structure prediction by ZEFSAII (Michael W. Deem and Ramdas Pophale) SiO2 
 PCOD9353714
Probable space group: C C C 2
;
_chemical_formula_sum "Si O2"
_cell_formula_units_Z 64
_cell_length_a 8.764240
_cell_length_b 13.938147
_cell_length_c 24.655551
_cell_angle_alpha 90.000000
_cell_angle_beta 90.000000
_cell_angle_gamma 90.000000
_cell_volume 3011.854689
_symmetry_space_group_name_H-M "C C C 2"
_symmetry_group_IT_number 37
_symmetry_cell_setting 'orthorhombic'
loop_
_space_group_symop_operation_xyz
x,y,z
-x,-y,z
-x,y,1/2+z
x,-y,1/2+z
1/2+x,1/2+y,z
1/2-x,1/2-y,z
1/2-x,1/2+y,1/2+z
1/2+x,1/2-y,1/2+z
loop_
_atom_site_type_symbol
_atom_site_label
_atom_site_fract_x
_atom_site_fract_y
_atom_site_fract_z
Si Si1 0.620845 0.828805 0.431050
Si Si2 0.309949 0.600395 0.671745
Si Si3 0.428796 0.758705 0.045934
Si Si4 0.386558 0.907245 0.354272
Si Si5 0.344175 0.935067 0.230124
Si Si6 0.313030 0.362081 0.048496
Si Si7 0.819146 0.979502 0.943243
Si Si8 0.992998 0.717621 0.167564
O O1 0.750000 0.750000 0.421742
O O2 0.540715 0.811296 0.489247
O O3 0.497258 0.830015 0.382962
O O4 0.717999 0.925365 0.437591
O O5 0.288364 0.503513 0.705860
O O6 0.291963 0.588165 0.606608
O O7 0.457138 0.670045 0.678219
O O8 0.161936 0.664741 0.686027
O O9 0.250000 0.750000 0.050475
O O10 0.506186 0.655201 0.041455
O O11 0.487200 0.799136 0.103084
O O12 0.334006 0.902569 0.292366
O O13 0.239019 0.917844 0.392152
O O14 0.500000 0.000000 0.356291
O O15 0.371110 0.838902 0.195748
O O16 0.500000 0.000000 0.225541
O O17 0.250000 0.250000 0.047897
O O18 0.267984 0.425564 0.997943
O O19 0.000000 0.000000 0.942186
#
# Coordination Sequence:
#
# PCOD9353714 Si02
#       8
#     8   8   8   8   8   8   8   8
#     4  10  21  39  59  91 121 162 208 263 323 382
#     4   9  17  33  55  88 115 155 207 262 317 378
#     4  10  19  33  55  81 124 151 190 256 314 376
#     4   9  20  39  57  85 117 159 211 264 307 375
#     4   9  18  34  57  85 118 155 213 265 317 372
#     4  11  20  37  60  89 123 159 206 256 316 391
#     4  11  23  37  60  86 125 166 208 250 321 383
#     4   9  17  32  54  83 113 153 205 256 318 383
#
# _framework density 21.249365999999998
#
# number of rings (size 3 to 8) (size 9 to 14) (size 15 to 20)
#    0.000    2.250    2.500    2.250    1.750    0.000 
#    9.000    0.000    5.500    0.000    0.000    0.000 
#    0.000    0.000    0.000    0.000    0.000    0.000 
#
# Total GULP energy -178289.996272 kJ/mol
# GULP energy per Si atom -5571.562384 kJ/mol
# Density = 2.120100 g / cm^3
# Si number density = 21.249366 Si / 1000 Ang^3
#
#
#
# Elastic Constant Matrix: (Units=GPa)
#
#
# Indices 1 2 3 4 5 6 
#
# 1 68.2643 38.7554 40.3977 0.0000 0.0000 0.0000
# 2 38.7554 81.7411 88.7441 0.0000 0.0000 0.0000
# 3 40.3977 88.7441 162.2101 0.0000 0.0000 0.0000
# 4 0.0000 0.0000 0.0000 8.1021 0.0000 0.0000
# 5 0.0000 0.0000 0.0000 0.0000 -9.5224 0.0000
# 6 0.0000 0.0000 0.0000 0.0000 0.0000 27.2528
#
#
#
# Elastic Compliance Matrix: (Units=1/GPa)
#
#
# Indices 1 2 3 4 5 6 
#
# 1 0.020062 -0.010067 0.000511 0.000000 0.000000 0.000000
# 2 -0.010067 0.035181 -0.016740 0.000000 0.000000 0.000000
# 3 0.000511 -0.016740 0.015196 0.000000 0.000000 0.000000
# 4 0.000000 0.000000 0.000000 0.123425 0.000000 0.000000
# 5 0.000000 0.000000 0.000000 0.000000 -0.105015 0.000000
# 6 0.000000 0.000000 0.000000 0.000000 0.000000 0.036693
#
#
# Mechanical properties :
#
#
# Convention : Reuss Voigt Hill
#
# Bulk Modulus (GPa) = 56.03133 72.00110 64.01621
# Shear Modulus (GPa) = 27.16177 14.78771 20.97474
#
# Velocity S-wave (km/s) = 3.57913 2.64088 3.14519
# Velocity P-wave (km/s) = 6.59590 6.57696 6.58644
#
# Compressibility (1/GPa) = 0.01784716
#
# Stress axis : x y z
#
# Youngs Moduli (GPa) = 49.84664 28.42440 65.80652
#
# Poissons Ratio (x) = 0.28614 -0.03363
# Poissons Ratio (y) = 0.50178 1.10162
# Poissons Ratio (z) = -0.02548 0.47583
#
# Static dielectric constant tensor:
#      x y z
#    x 1.839610 0.000000 0.000000 
#    y 0.000000 1.825800 0.000000 
#    z 0.000000 0.000000 1.760730 
# 
# From -- ./inp_files/18522.got.cif
#   From: 2010.05.17/outbox.cif.g08.bks.cpg/sg37_10_cif.got.tgz:18522.got - 2010.06.03 17:53:42.
