data_PCOD9353633
_publ_section_title
;
Structure prediction by ZEFSAII (Michael W. Deem and Ramdas Pophale) SiO2 
 PCOD9353633
Probable space group: C C C 2
;
_chemical_formula_sum "Si O2"
_cell_formula_units_Z 48
_cell_length_a 9.163745
_cell_length_b 17.492554
_cell_length_c 15.781117
_cell_angle_alpha 90.000000
_cell_angle_beta 90.000000
_cell_angle_gamma 90.000000
_cell_volume 2529.670513
_symmetry_space_group_name_H-M "C C C 2"
_symmetry_group_IT_number 37
_symmetry_cell_setting 'orthorhombic'
loop_
_space_group_symop_operation_xyz
x,y,z
-x,-y,z
-x,y,1/2+z
x,-y,1/2+z
1/2+x,1/2+y,z
1/2-x,1/2-y,z
1/2-x,1/2+y,1/2+z
1/2+x,1/2-y,1/2+z
loop_
_atom_site_type_symbol
_atom_site_label
_atom_site_fract_x
_atom_site_fract_y
_atom_site_fract_z
Si Si1 0.865683 0.892197 0.660520
Si Si2 0.026111 0.080183 0.421897
Si Si3 0.423661 0.915795 0.484945
Si Si4 0.222108 0.160213 0.841853
Si Si5 0.222095 0.334656 0.493230
Si Si6 0.347657 0.566382 0.598755
O O1 0.785566 0.870366 0.746471
O O2 0.798554 0.842062 0.584865
O O3 0.043840 0.886148 0.660500
O O4 0.837569 0.980983 0.636022
O O5 0.191913 0.101960 0.437943
O O6 0.940767 0.146685 0.376383
O O7 0.941464 0.070312 0.511379
O O8 0.000000 0.000000 0.375118
O O9 0.330816 0.888912 0.402295
O O10 0.554463 0.856459 0.497483
O O11 0.312476 0.912144 0.565032
O O12 0.500000 0.000000 0.478447
O O13 0.250000 0.250000 0.845549
O O14 0.250000 0.250000 0.459907
#
# Coordination Sequence:
#
# PCOD9353633 Si02
#       6
#     8   8   8   8   8   8
#     4  10  19  38  58  85 120 155 205 244 308 366
#     4  10  18  37  60  83 111 158 211 235 283 367
#     4  11  21  41  62  92 122 155 210 259 296 356
#     4  11  24  38  58  91 128 161 194 249 314 366
#     4  11  20  35  62  87 119 159 196 251 301 353
#     4   9  18  37  63  86 107 155 214 255 281 353
#
# _framework density 18.974803999999999
#
# number of rings (size 3 to 8) (size 9 to 14) (size 15 to 20)
#    0.000    1.667    5.000    2.500    2.333    0.000 
#    3.000    0.000    0.000    2.000    0.000    0.000 
#    0.000    0.000    0.000    0.000    0.000    0.000 
#
# Total GULP energy -133667.860434 kJ/mol
# GULP energy per Si atom -5569.494185 kJ/mol
# Density = 1.893162 g / cm^3
# Si number density = 18.974804 Si / 1000 Ang^3
#
#
#
# Elastic Constant Matrix: (Units=GPa)
#
#
# Indices 1 2 3 4 5 6 
#
# 1 143.1757 41.2894 21.3264 0.0000 0.0000 0.0000
# 2 41.2894 79.8094 28.2276 0.0000 0.0000 0.0000
# 3 21.3264 28.2276 49.9270 0.0000 0.0000 0.0000
# 4 0.0000 0.0000 0.0000 13.1693 0.0000 0.0000
# 5 0.0000 0.0000 0.0000 0.0000 18.4005 0.0000
# 6 0.0000 0.0000 0.0000 0.0000 0.0000 29.6815
#
#
#
# Elastic Compliance Matrix: (Units=1/GPa)
#
#
# Indices 1 2 3 4 5 6 
#
# 1 0.008286 -0.003794 -0.001395 0.000000 0.000000 0.000000
# 2 -0.003794 0.017398 -0.008216 0.000000 0.000000 0.000000
# 3 -0.001395 -0.008216 0.025270 0.000000 0.000000 0.000000
# 4 0.000000 0.000000 0.000000 0.075934 0.000000 0.000000
# 5 0.000000 0.000000 0.000000 0.000000 0.054346 0.000000
# 6 0.000000 0.000000 0.000000 0.000000 0.000000 0.033691
#
#
# Mechanical properties :
#
#
# Convention : Reuss Voigt Hill
#
# Bulk Modulus (GPa) = 41.41490 50.51099 45.96294
# Shear Modulus (GPa) = 20.01731 24.38818 22.20274
#
# Velocity S-wave (km/s) = 3.25151 3.58899 3.42441
# Velocity P-wave (km/s) = 5.99750 6.62210 6.31753
#
# Compressibility (1/GPa) = 0.02414590
#
# Stress axis : x y z
#
# Youngs Moduli (GPa) = 120.68316 57.47638 39.57224
#
# Poissons Ratio (x) = 0.21804 0.05519
# Poissons Ratio (y) = 0.45782 0.32514
# Poissons Ratio (z) = 0.16831 0.47224
#
# Static dielectric constant tensor:
#      x y z
#    x 1.686250 0.000000 0.000000 
#    y 0.000000 1.684190 0.000000 
#    z 0.000000 0.000000 1.698710 
# 
# From -- ./inp_files/10630.got.cif
#   From: 2010.05.17/outbox.cif.g08.bks.cpg/sg37_6_cif.got.tgz:10630.got - 2010.06.03 17:53:42.
