data_PCOD9353770
_publ_section_title
;
Structure prediction by ZEFSAII (Michael W. Deem and Ramdas Pophale) SiO2 
 PCOD9353770
Probable space group: C C C 2
;
_chemical_formula_sum "Si O2"
_cell_formula_units_Z 40
_cell_length_a 9.124326
_cell_length_b 22.464668
_cell_length_c 8.748841
_cell_angle_alpha 90.000000
_cell_angle_beta 90.000000
_cell_angle_gamma 90.000000
_cell_volume 1793.293284
_symmetry_space_group_name_H-M "C C C 2"
_symmetry_group_IT_number 37
_symmetry_cell_setting 'orthorhombic'
loop_
_space_group_symop_operation_xyz
x,y,z
-x,-y,z
-x,y,1/2+z
x,-y,1/2+z
1/2+x,1/2+y,z
1/2-x,1/2-y,z
1/2-x,1/2+y,1/2+z
1/2+x,1/2-y,1/2+z
loop_
_atom_site_type_symbol
_atom_site_label
_atom_site_fract_x
_atom_site_fract_y
_atom_site_fract_z
Si Si1 0.149819 0.303623 0.185580
Si Si2 0.805270 0.538975 0.961902
Si Si3 0.889407 0.428951 0.807144
Si Si4 0.641473 0.651601 0.919050
Si Si5 0.893634 0.781821 0.604065
O O1 0.250000 0.250000 0.238027
O O2 0.144360 0.359352 0.298068
O O3 0.994964 0.273558 0.156251
O O4 0.225659 0.324798 0.026747
O O5 0.793442 0.469537 0.920495
O O6 0.666639 0.580652 0.925960
O O7 0.942389 0.561651 0.858065
O O8 0.855518 0.547532 0.136526
O O9 0.648000 0.678400 0.750790
O O10 0.492917 0.677429 0.993722
O O11 0.750000 0.750000 0.544522
#
# Coordination Sequence:
#
# PCOD9353770 Si02
#       5
#     8   8   8   8   8
#     4   9  20  38  62  93 127 162 211 266 317 377
#     4  10  20  38  62  97 131 164 218 270 317 376
#     4  10  19  35  65  93 125 167 207 263 320 377
#     4  10  23  41  62  94 133 168 214 270 318 384
#     4  11  21  38  63  93 132 173 211 263 330 388
#
# _framework density 22.305330999999999
#
# number of rings (size 3 to 8) (size 9 to 14) (size 15 to 20)
#    0.000    2.000    0.000    5.400    0.000    5.600 
#    0.000   18.000    0.000   25.200    0.000   16.800 
#    0.000    0.000    0.000    0.000    0.000    0.000 
#
# Total GULP energy -111799.278467 kJ/mol
# GULP energy per Si atom -5589.963923 kJ/mol
# Density = 2.225456 g / cm^3
# Si number density = 22.305331 Si / 1000 Ang^3
#
#
#
# Elastic Constant Matrix: (Units=GPa)
#
#
# Indices 1 2 3 4 5 6 
#
# 1 79.3236 44.8340 3.3742 0.0000 0.0000 0.0000
# 2 44.8340 155.2623 7.6097 0.0000 0.0000 0.0000
# 3 3.3742 7.6097 80.6425 0.0000 0.0000 0.0000
# 4 0.0000 0.0000 0.0000 0.2976 0.0000 0.0000
# 5 0.0000 0.0000 0.0000 0.0000 41.2559 0.0000
# 6 0.0000 0.0000 0.0000 0.0000 0.0000 24.4462
#
#
#
# Elastic Compliance Matrix: (Units=1/GPa)
#
#
# Indices 1 2 3 4 5 6 
#
# 1 0.015069 -0.004341 -0.000221 0.000000 0.000000 0.000000
# 2 -0.004341 0.007721 -0.000547 0.000000 0.000000 0.000000
# 3 -0.000221 -0.000547 0.012461 0.000000 0.000000 0.000000
# 4 0.000000 0.000000 0.000000 3.360227 0.000000 0.000000
# 5 0.000000 0.000000 0.000000 0.000000 0.024239 0.000000
# 6 0.000000 0.000000 0.000000 0.000000 0.000000 0.040906
#
#
# Mechanical properties :
#
#
# Convention : Reuss Voigt Hill
#
# Bulk Modulus (GPa) = 39.94490 47.42938 43.68714
# Shear Modulus (GPa) = 1.43712 30.49396 15.96554
#
# Velocity S-wave (km/s) = 0.80355 3.70146 2.67829
# Velocity P-wave (km/s) = 4.33682 6.29108 5.40304
#
# Compressibility (1/GPa) = 0.02503448
#
# Stress axis : x y z
#
# Youngs Moduli (GPa) = 66.35999 129.51796 80.24866
#
# Poissons Ratio (x) = 0.56219 0.01773
# Poissons Ratio (y) = 0.28804 0.04389
# Poissons Ratio (z) = 0.01466 0.07084
#
# Static dielectric constant tensor:
#      x y z
#    x 1.612240 0.000000 0.000000 
#    y 0.000000 1.877220 0.000000 
#    z 0.000000 0.000000 1.826600 
# 
# From -- ./inp_files/2202.got.cif
#   From: 2010.05.17/outbox.cif.g08.bks.cpg/sg37_2_cif.got.tgz:2202.got - 2010.06.03 17:53:42.
