data_PCOD9353763
_publ_section_title
;
Structure prediction by ZEFSAII (Michael W. Deem and Ramdas Pophale) SiO2 
 PCOD9353763
Probable space group: C C C 2
;
_chemical_formula_sum "Si O2"
_cell_formula_units_Z 64
_cell_length_a 15.731097
_cell_length_b 8.749081
_cell_length_c 23.492120
_cell_angle_alpha 90.000000
_cell_angle_beta 90.000000
_cell_angle_gamma 90.000000
_cell_volume 3233.282539
_symmetry_space_group_name_H-M "C C C 2"
_symmetry_group_IT_number 37
_symmetry_cell_setting 'orthorhombic'
loop_
_space_group_symop_operation_xyz
x,y,z
-x,-y,z
-x,y,1/2+z
x,-y,1/2+z
1/2+x,1/2+y,z
1/2-x,1/2-y,z
1/2-x,1/2+y,1/2+z
1/2+x,1/2-y,1/2+z
loop_
_atom_site_type_symbol
_atom_site_label
_atom_site_fract_x
_atom_site_fract_y
_atom_site_fract_z
Si Si1 0.340279 0.806862 0.883640
Si Si2 0.413473 0.103155 0.852486
Si Si3 0.156377 0.818057 0.123482
Si Si4 0.092675 0.805093 0.250965
Si Si5 0.992827 0.682542 0.063509
Si Si6 0.160282 0.182301 0.135838
Si Si7 0.889352 0.845260 0.263735
Si Si8 0.505000 0.318366 0.441353
O O1 0.250000 0.750000 0.902870
O O2 0.358869 0.742092 0.819898
O O3 0.412641 0.746264 0.925192
O O4 0.346846 0.988782 0.879999
O O5 0.382741 0.169120 0.792858
O O6 0.435653 0.245564 0.892675
O O7 0.500000 0.000000 0.846085
O O8 0.250000 0.750000 0.112746
O O9 0.126677 0.778210 0.187817
O O10 0.083450 0.751130 0.082941
O O11 0.156202 0.002338 0.121235
O O12 0.989930 0.814791 0.254330
O O13 0.123164 0.972568 0.270993
O O14 0.919939 0.733607 0.107642
O O15 0.000000 0.500000 0.060179
O O16 0.969725 0.753958 0.002522
O O17 0.250000 0.250000 0.116236
O O18 0.153635 0.199513 0.204273
O O19 0.500000 0.500000 0.439765
#
# Coordination Sequence:
#
# PCOD9353763 Si02
#       8
#     8   8   8   8   8   8   8   8
#     4  11  23  38  61  95 127 157 202 261 310 367
#     4  10  20  36  60  89 121 158 204 250 302 375
#     4  11  24  41  62  95 132 169 214 261 311 375
#     4  10  19  35  61  90 125 169 207 250 309 375
#     4  12  25  43  68  93 122 167 213 263 323 375
#     4  11  23  42  64  95 130 167 213 263 314 379
#     4  10  19  36  61  91 128 166 204 252 313 376
#     4  11  23  44  67  87 116 164 209 252 313 383
#
# _framework density 19.794125999999999
#
# number of rings (size 3 to 8) (size 9 to 14) (size 15 to 20)
#    0.000    1.250    3.750    4.125    0.000    5.000 
#    0.000    5.625    0.000    0.000    0.000    0.000 
#    0.000    0.000    0.000    0.000    0.000    0.000 
#
# Total GULP energy -178887.367078 kJ/mol
# GULP energy per Si atom -5590.230221 kJ/mol
# Density = 1.974907 g / cm^3
# Si number density = 19.794126 Si / 1000 Ang^3
#
#
#
# Elastic Constant Matrix: (Units=GPa)
#
#
# Indices 1 2 3 4 5 6 
#
# 1 52.3902 0.7030 -14.2548 0.0000 0.0000 0.0000
# 2 0.7030 105.1744 23.1232 0.0000 0.0000 0.0000
# 3 -14.2548 23.1232 49.5002 0.0000 0.0000 0.0000
# 4 0.0000 0.0000 0.0000 447.0452 0.0000 0.0000
# 5 0.0000 0.0000 0.0000 0.0000 3.9132 0.0000
# 6 0.0000 0.0000 0.0000 0.0000 0.0000 23.9408
#
#
#
# Elastic Compliance Matrix: (Units=1/GPa)
#
#
# Indices 1 2 3 4 5 6 
#
# 1 0.020960 -0.001635 0.006800 0.000000 0.000000 0.000000
# 2 -0.001635 0.010724 -0.005480 0.000000 0.000000 0.000000
# 3 0.006800 -0.005480 0.024720 0.000000 0.000000 0.000000
# 4 0.000000 0.000000 0.000000 0.002237 0.000000 0.000000
# 5 0.000000 0.000000 0.000000 0.000000 0.255548 0.000000
# 6 0.000000 0.000000 0.000000 0.000000 0.000000 0.041770
#
#
# Mechanical properties :
#
#
# Convention : Reuss Voigt Hill
#
# Bulk Modulus (GPa) = 17.93011 25.13415 21.53213
# Shear Modulus (GPa) = 13.32693 108.14607 60.73650
#
# Velocity S-wave (km/s) = 2.59757 7.39960 5.54533
# Velocity P-wave (km/s) = 4.25141 9.25909 7.20435
#
# Compressibility (1/GPa) = 0.05577211
#
# Stress axis : x y z
#
# Youngs Moduli (GPa) = 47.71085 93.25037 40.45290
#
# Poissons Ratio (x) = 0.15247 -0.27506
# Poissons Ratio (y) = 0.07801 0.22169
# Poissons Ratio (z) = -0.32442 0.51104
#
# Static dielectric constant tensor:
#      x y z
#    x 1.693270 0.000000 0.000000 
#    y 0.000000 1.674520 0.000000 
#    z 0.000000 0.000000 1.674400 
# 
# From -- ./inp_files/18925.got.cif
#   From: 2010.05.17/outbox.cif.g08.bks.cpg/sg37_10_cif.got.tgz:18925.got - 2010.06.03 17:53:42.
