data_PCOD9353599
_publ_section_title
;
Structure prediction by ZEFSAII (Michael W. Deem and Ramdas Pophale) SiO2 
 PCOD9353599
Probable space group: C C C 2
;
_chemical_formula_sum "Si O2"
_cell_formula_units_Z 52
_cell_length_a 11.521628
_cell_length_b 16.965122
_cell_length_c 14.990099
_cell_angle_alpha 90.000000
_cell_angle_beta 90.000000
_cell_angle_gamma 90.000000
_cell_volume 2930.052063
_symmetry_space_group_name_H-M "C C C 2"
_symmetry_group_IT_number 37
_symmetry_cell_setting 'orthorhombic'
loop_
_space_group_symop_operation_xyz
x,y,z
-x,-y,z
-x,y,1/2+z
x,-y,1/2+z
1/2+x,1/2+y,z
1/2-x,1/2-y,z
1/2-x,1/2+y,1/2+z
1/2+x,1/2-y,1/2+z
loop_
_atom_site_type_symbol
_atom_site_label
_atom_site_fract_x
_atom_site_fract_y
_atom_site_fract_z
Si Si1 0.714030 0.332924 0.402390
Si Si2 0.750396 0.995718 0.351391
Si Si3 0.621395 0.547348 0.530757
Si Si4 0.082444 0.640864 0.549852
Si Si5 0.500000 0.000000 0.436535
Si Si6 0.221240 0.078141 0.162313
Si Si7 0.036109 0.182858 0.059063
O O1 0.750000 0.250000 0.357767
O O2 0.712614 0.412076 0.344733
O O3 0.814045 0.344047 0.477802
O O4 0.597222 0.327739 0.461546
O O5 0.814496 0.959560 0.437161
O O6 0.614248 0.996421 0.375700
O O7 0.782316 0.946724 0.264375
O O8 0.500000 0.500000 0.523187
O O9 0.695040 0.499201 0.602911
O O10 0.582472 0.634122 0.559209
O O11 0.151672 0.608369 0.634863
O O12 0.025034 0.724099 0.571943
O O13 0.004517 0.575845 0.501612
O O14 0.125697 0.142663 0.129789
#
# Coordination Sequence:
#
# PCOD9353599 Si02
#       7
#     8   8   8   8   4   8   8
#     4   8  14  30  56  79 104 146 195 232 278 344
#     4  11  20  34  58  89 116 153 198 245 286 350
#     4  10  18  35  55  88 118 148 189 236 305 348
#     4   9  17  35  59  76 107 157 197 232 283 359
#     4  10  20  38  60  82 110 160 200 232 294 352
#     4  10  19  33  59  84 115 153 196 241 290 351
#     4   9  17  34  57  83 112 149 193 239 293 354
#
# _framework density 17.747125
#
# number of rings (size 3 to 8) (size 9 to 14) (size 15 to 20)
#    0.000    2.462    6.154    1.385    0.000    2.462 
#    0.000    3.846   10.154    0.000    0.000    0.000 
#    0.000    0.000    0.000    0.000    0.000    0.000 
#
# Total GULP energy -144850.625802 kJ/mol
# GULP energy per Si atom -5571.177915 kJ/mol
# Density = 1.770673 g / cm^3
# Si number density = 17.747125 Si / 1000 Ang^3
#
#
#
# Elastic Constant Matrix: (Units=GPa)
#
#
# Indices 1 2 3 4 5 6 
#
# 1 34.5134 34.4491 19.6657 0.0000 0.0000 0.0000
# 2 34.4491 133.6075 35.0072 0.0000 0.0000 0.0000
# 3 19.6657 35.0072 81.8611 0.0000 0.0000 0.0000
# 4 0.0000 0.0000 0.0000 23.1195 0.0000 0.0000
# 5 0.0000 0.0000 0.0000 0.0000 5.6679 0.0000
# 6 0.0000 0.0000 0.0000 0.0000 0.0000 24.8532
#
#
#
# Elastic Compliance Matrix: (Units=1/GPa)
#
#
# Indices 1 2 3 4 5 6 
#
# 1 0.041539 -0.009117 -0.006080 0.000000 0.000000 0.000000
# 2 -0.009117 0.010430 -0.002270 0.000000 0.000000 0.000000
# 3 -0.006080 -0.002270 0.014647 0.000000 0.000000 0.000000
# 4 0.000000 0.000000 0.000000 0.043254 0.000000 0.000000
# 5 0.000000 0.000000 0.000000 0.000000 0.176432 0.000000
# 6 0.000000 0.000000 0.000000 0.000000 0.000000 0.040236
#
#
# Mechanical properties :
#
#
# Convention : Reuss Voigt Hill
#
# Bulk Modulus (GPa) = 31.56421 47.58065 39.57243
# Shear Modulus (GPa) = 13.43966 21.45212 17.44589
#
# Velocity S-wave (km/s) = 2.75487 3.48050 3.13873
# Velocity P-wave (km/s) = 5.28614 6.55900 5.95666
#
# Compressibility (1/GPa) = 0.03168145
#
# Stress axis : x y z
#
# Youngs Moduli (GPa) = 24.07380 95.87560 68.27214
#
# Poissons Ratio (x) = 0.87412 0.41510
# Poissons Ratio (y) = 0.21949 0.15499
# Poissons Ratio (z) = 0.14637 0.21765
#
# Static dielectric constant tensor:
#      x y z
#    x 1.615870 0.000000 0.000000 
#    y 0.000000 1.664660 0.000000 
#    z 0.000000 0.000000 1.575910 
# 
# From -- ./inp_files/11712.got.cif
#   From: 2010.05.17/outbox.cif.g08.bks.cpg/sg37_6_cif.got.tgz:11712.got - 2010.06.03 17:53:42.
