data_PCOD9353199
_publ_section_title
;
Structure prediction by ZEFSAII (Michael W. Deem and Ramdas Pophale) SiO2 
 PCOD9353199
Probable space group: C M C 21
;
_chemical_formula_sum "Si O2"
_cell_formula_units_Z 36
_cell_length_a 14.696874
_cell_length_b 13.224582
_cell_length_c 9.576656
_cell_angle_alpha 90.000000
_cell_angle_beta 90.000000
_cell_angle_gamma 90.000000
_cell_volume 1861.319007
_symmetry_space_group_name_H-M "C M C 21"
_symmetry_group_IT_number 36
_symmetry_cell_setting 'orthorhombic'
loop_
_space_group_symop_operation_xyz
x,y,z
-x,-y,1/2+z
x,-y,1/2+z
-x,y,z
1/2+x,1/2+y,z
1/2-x,1/2-y,1/2+z
1/2+x,1/2-y,1/2+z
1/2-x,1/2+y,z
loop_
_atom_site_type_symbol
_atom_site_label
_atom_site_fract_x
_atom_site_fract_y
_atom_site_fract_z
Si Si1 0.842998 0.091760 0.566690
Si Si2 0.500000 0.903070 0.352071
Si Si3 0.853116 0.322315 0.138455
Si Si4 0.109324 0.103745 0.246413
Si Si5 0.500000 0.247001 0.115142
Si Si6 0.000000 0.638626 0.410272
O O1 0.742627 0.125637 0.610697
O O2 0.853508 0.079664 0.400306
O O3 0.912896 0.180096 0.608952
O O4 0.870671 0.988881 0.643904
O O5 0.412527 0.880662 0.255222
O O6 0.500000 0.826366 0.481568
O O7 0.500000 0.017441 0.404250
O O8 0.846373 0.206990 0.190395
O O9 0.912799 0.324684 0.997680
O O10 0.000000 0.120237 0.255170
O O11 0.500000 0.182768 0.255863
#
# Coordination Sequence:
#
# PCOD9353199 Si02
#       6
#     8   4   8   8   4   4
#     4  12  28  42  74 104 138 183 234 289 347 414
#     4  11  23  50  68  98 142 183 235 288 351 409
#     4  11  26  46  70 102 142 182 230 296 344 419
#     4  12  24  50  71 101 142 187 232 289 350 414
#     4  12  24  44  72 103 138 181 237 286 345 418
#     4  11  27  42  72 101 136 188 232 286 356 411
#
# _framework density 19.341121999999999
#
# number of rings (size 3 to 8) (size 9 to 14) (size 15 to 20)
#    0.000    0.444    6.667    1.333    9.333    1.778 
#    0.000    0.000    0.000    0.000    0.000    0.000 
#    0.000    0.000    0.000    0.000    0.000    0.000 
#
# Total GULP energy -100755.423647 kJ/mol
# GULP energy per Si atom -5597.523536 kJ/mol
# Density = 1.929710 g / cm^3
# Si number density = 19.341122 Si / 1000 Ang^3
#
#
#
# Elastic Constant Matrix: (Units=GPa)
#
#
# Indices 1 2 3 4 5 6 
#
# 1 72.0484 -5.2645 25.5199 0.0000 0.0000 0.0000
# 2 -5.2645 97.4291 41.4641 0.0000 0.0000 0.0000
# 3 25.5199 41.4641 106.1808 0.0000 0.0000 0.0000
# 4 0.0000 0.0000 0.0000 47.3451 0.0000 0.0000
# 5 0.0000 0.0000 0.0000 0.0000 3.1927 0.0000
# 6 0.0000 0.0000 0.0000 0.0000 0.0000 29.5958
#
#
#
# Elastic Compliance Matrix: (Units=1/GPa)
#
#
# Indices 1 2 3 4 5 6 
#
# 1 0.015858 0.002973 -0.004972 0.000000 0.000000 0.000000
# 2 0.002973 0.012867 -0.005739 0.000000 0.000000 0.000000
# 3 -0.004972 -0.005739 0.012854 0.000000 0.000000 0.000000
# 4 0.000000 0.000000 0.000000 0.021122 0.000000 0.000000
# 5 0.000000 0.000000 0.000000 0.000000 0.313218 0.000000
# 6 0.000000 0.000000 0.000000 0.000000 0.000000 0.033789
#
#
# Mechanical properties :
#
#
# Convention : Reuss Voigt Hill
#
# Bulk Modulus (GPa) = 38.31097 44.34413 41.32755
# Shear Modulus (GPa) = 11.52379 30.28929 20.90654
#
# Velocity S-wave (km/s) = 2.44359 3.96164 3.29133
# Velocity P-wave (km/s) = 5.27376 6.62595 5.98815
#
# Compressibility (1/GPa) = 0.02610219
#
# Stress axis : x y z
#
# Youngs Moduli (GPa) = 63.05947 77.71809 77.79586
#
# Poissons Ratio (x) = -0.23106 0.38683
# Poissons Ratio (y) = -0.18748 0.44648
# Poissons Ratio (z) = 0.31356 0.44604
#
# Static dielectric constant tensor:
#      x y z
#    x 1.667310 0.000000 0.000000 
#    y 0.000000 1.639760 0.000000 
#    z 0.000000 0.000000 1.652310 
# 
# From -- ./inp_files/3786.got.cif
#   From: 2010.05.17/outbox.cif.g08.bks.cpg/sg36_2_cif.got.tgz:3786.got - 2010.06.03 17:41:39.
