data_PCOD9353354
_publ_section_title
;
Structure prediction by ZEFSAII (Michael W. Deem and Ramdas Pophale) SiO2 
 PCOD9353354
Probable space group: C M C 21
;
_chemical_formula_sum "Si O2"
_cell_formula_units_Z 24
_cell_length_a 9.000000
_cell_length_b 18.000000
_cell_length_c 15.000000
_cell_angle_alpha 90.000000
_cell_angle_beta 90.000000
_cell_angle_gamma 90.000000
_cell_volume 2430.000000
_symmetry_space_group_name_H-M "C M C 21"
_symmetry_group_IT_number 36
_symmetry_cell_setting 'orthorhombic'
loop_
_space_group_symop_operation_xyz
x,y,z
-x,-y,1/2+z
x,-y,1/2+z
-x,y,z
1/2+x,1/2+y,z
1/2-x,1/2-y,1/2+z
1/2+x,1/2-y,1/2+z
1/2-x,1/2+y,z
loop_
_atom_site_type_symbol
_atom_site_label
_atom_site_fract_x
_atom_site_fract_y
_atom_site_fract_z
Si Si1 0.673147 0.698553 0.335290
Si Si2 0.676739 0.909257 0.147997
Si Si3 0.669353 0.446843 0.334584
Si Si4 0.672338 0.581331 0.464865
Si Si5 0.679081 0.731823 0.137771
Si Si6 0.670904 0.836588 0.461640
O O1 0.500000 0.674360 0.328770
O O2 0.745006 0.652445 0.416362
O O3 0.730561 0.698904 0.234049
O O4 0.670283 0.779678 0.378165
O O5 0.500000 0.920517 0.149429
O O6 0.744540 0.939297 0.240983
O O7 0.706771 0.820400 0.142643
O O8 0.744996 0.941243 0.055734
O O9 0.500000 0.423111 0.317725
O O10 0.670175 0.527339 0.379590
O O11 0.736569 0.401828 0.417619
O O12 0.500000 0.595617 0.491666
O O13 0.500000 0.721435 0.131099
O O14 0.757601 0.696465 0.051626
O O15 0.500000 0.856766 0.480246
#
# Coordination Sequence:
#
# PCOD9353354 Si02
#       6
#     8   8   8   8   8   8
#     4   9  18  36  60  84 114 152 199 247 292 349
#     4  11  22  38  62  91 123 158 196 248 310 363
#     4  11  24  40  61  89 124 164 204 245 295 364
#     4  10  22  41  63  87 118 162 205 245 297 359
#     4  10  20  36  59  90 122 157 197 245 303 359
#     4  11  21  37  61  89 119 155 199 252 301 348
#
# _framework density 9.8765429999999999
#
# number of rings (size 3 to 8) (size 9 to 14) (size 15 to 20)
#    0.000    1.667    3.333    1.500    0.000    3.333 
#    0.000    4.167    0.000    0.000    0.000    0.000 
#    0.000    0.000    0.000    0.000    0.000    0.000 
#
# Total GULP energy -133687.940552 kJ/mol
# GULP energy per Si atom -5570.330856 kJ/mol
# Density = 0.985406 g / cm^3
# Si number density = 9.876543 Si / 1000 Ang^3
#
#
#
# Elastic Constant Matrix: (Units=GPa)
#
#
# Indices 1 2 3 4 5 6 
#
# 1 67.0338 2.8108 33.0495 0.0000 0.0000 0.0000
# 2 2.8108 17.7543 -9.5447 0.0000 0.0000 0.0000
# 3 33.0495 -9.5447 151.3397 0.0000 0.0000 0.0000
# 4 0.0000 0.0000 0.0000 25.6862 0.0000 0.0000
# 5 0.0000 0.0000 0.0000 0.0000 38.9940 0.0000
# 6 0.0000 0.0000 0.0000 0.0000 0.0000 16.0367
#
#
#
# Elastic Compliance Matrix: (Units=1/GPa)
#
#
# Indices 1 2 3 4 5 6 
#
# 1 0.017118 -0.004885 -0.004046 0.000000 0.000000 0.000000
# 2 -0.004885 0.059695 0.004832 0.000000 0.000000 0.000000
# 3 -0.004046 0.004832 0.007796 0.000000 0.000000 0.000000
# 4 0.000000 0.000000 0.000000 0.038931 0.000000 0.000000
# 5 0.000000 0.000000 0.000000 0.000000 0.025645 0.000000
# 6 0.000000 0.000000 0.000000 0.000000 0.000000 0.062357
#
#
# Mechanical properties :
#
#
# Convention : Reuss Voigt Hill
#
# Bulk Modulus (GPa) = 13.08742 32.08436 22.58589
# Shear Modulus (GPa) = 20.39056 30.13087 25.26072
#
# Velocity S-wave (km/s) = 3.21639 3.90984 3.57994
# Velocity P-wave (km/s) = 4.52033 6.05479 5.34293
#
# Compressibility (1/GPa) = 0.07640926
#
# Stress axis : x y z
#
# Youngs Moduli (GPa) = 58.41942 16.75173 128.27110
#
# Poissons Ratio (x) = 0.08184 0.51902
# Poissons Ratio (y) = 0.28540 -0.61977
# Poissons Ratio (z) = 0.23638 -0.08094
#
# Static dielectric constant tensor:
#      x y z
#    x 1.695190 0.000000 0.000000 
#    y 0.000000 1.866410 0.000000 
#    z 0.000000 0.000000 1.658110 
# 
# From -- ./inp_files/10386.got.cif
#   From: 2010.05.17/outbox.ucp.g08.bks.cvg/sg36_6_cif.got.tgz:10386.got - 2010.06.11 10:37:26.
