data_PCOD9353256
_publ_section_title
;
Structure prediction by ZEFSAII (Michael W. Deem and Ramdas Pophale) SiO2 
 PCOD9353256
Probable space group: C M C 21
;
_chemical_formula_sum "Si O2"
_cell_formula_units_Z 64
_cell_length_a 8.885500
_cell_length_b 29.018805
_cell_length_c 14.275988
_cell_angle_alpha 90.000000
_cell_angle_beta 90.000000
_cell_angle_gamma 90.000000
_cell_volume 3681.014851
_symmetry_space_group_name_H-M "C M C 21"
_symmetry_group_IT_number 36
_symmetry_cell_setting 'orthorhombic'
loop_
_space_group_symop_operation_xyz
x,y,z
-x,-y,1/2+z
x,-y,1/2+z
-x,y,z
1/2+x,1/2+y,z
1/2-x,1/2-y,1/2+z
1/2+x,1/2-y,1/2+z
1/2-x,1/2+y,z
loop_
_atom_site_type_symbol
_atom_site_label
_atom_site_fract_x
_atom_site_fract_y
_atom_site_fract_z
Si Si1 0.319262 0.176187 0.646260
Si Si2 0.678418 0.957635 0.968472
Si Si3 0.821466 0.923404 0.151586
Si Si4 0.821959 0.513599 0.795287
Si Si5 0.180630 0.264812 0.328400
Si Si6 0.318705 0.266146 0.530135
Si Si7 0.181146 0.919270 0.793061
Si Si8 0.683112 0.322629 0.709078
O O1 0.500000 0.169453 0.640904
O O2 0.237342 0.128045 0.633487
O O3 0.284167 0.197762 0.748270
O O4 0.277607 0.215741 0.571378
O O5 0.500000 0.949748 0.976549
O O6 0.753561 0.919785 0.899077
O O7 0.700892 0.004132 0.906558
O O8 0.755185 0.954947 0.068319
O O9 0.756890 0.943086 0.248912
O O10 0.000000 0.924960 0.151468
O O11 0.749998 0.466681 0.752743
O O12 0.000000 0.515093 0.777824
O O13 0.252756 0.273959 0.428206
O O14 0.229549 0.215400 0.285854
O O15 0.000000 0.263712 0.337799
O O16 0.500000 0.267594 0.526328
O O17 0.268726 0.303515 0.607909
O O18 0.229530 0.873749 0.737977
O O19 0.000000 0.921953 0.795508
O O20 0.500000 0.322319 0.708535
#
# Coordination Sequence:
#
# PCOD9353256 Si02
#       8
#     8   8   8   8   8   8   8   8
#     4   9  20  37  54  76 111 149 184 220 274 333
#     4   9  20  36  55  79 109 140 173 216 271 327
#     4  12  23  35  58  84 109 141 183 234 276 323
#     4   9  20  37  55  76 108 143 174 219 275 329
#     4   9  18  34  53  75 106 144 179 219 267 319
#     4   9  18  33  52  75 104 143 182 220 265 320
#     4   9  16  31  54  79 104 133 174 220 263 313
#     4   8  16  31  51  74 105 139 171 214 269 316
#
# _framework density 17.386510999999999
#
# number of rings (size 3 to 8) (size 9 to 14) (size 15 to 20)
#    0.750    2.000    0.000    3.375    1.750    1.000 
#    0.000    5.000    0.000    3.000    0.000    0.000 
#    0.000    0.000    0.000    0.000    0.000    0.000 
#
# Total GULP energy -178159.664169 kJ/mol
# GULP energy per Si atom -5567.489505 kJ/mol
# Density = 1.734694 g / cm^3
# Si number density = 17.386511 Si / 1000 Ang^3
#
#
#
# Elastic Constant Matrix: (Units=GPa)
#
#
# Indices 1 2 3 4 5 6 
#
# 1 57.3588 14.8263 22.5394 0.0000 0.0000 0.0000
# 2 14.8263 23.5477 -3.5714 0.0000 0.0000 0.0000
# 3 22.5394 -3.5714 68.5599 0.0000 0.0000 0.0000
# 4 0.0000 0.0000 0.0000 11.4704 0.0000 0.0000
# 5 0.0000 0.0000 0.0000 0.0000 31.9358 0.0000
# 6 0.0000 0.0000 0.0000 0.0000 0.0000 22.4631
#
#
#
# Elastic Compliance Matrix: (Units=1/GPa)
#
#
# Indices 1 2 3 4 5 6 
#
# 1 0.025647 -0.017566 -0.009347 0.000000 0.000000 0.000000
# 2 -0.017566 0.054836 0.008631 0.000000 0.000000 0.000000
# 3 -0.009347 0.008631 0.018108 0.000000 0.000000 0.000000
# 4 0.000000 0.000000 0.000000 0.087181 0.000000 0.000000
# 5 0.000000 0.000000 0.000000 0.000000 0.031313 0.000000
# 6 0.000000 0.000000 0.000000 0.000000 0.000000 0.044517
#
#
# Mechanical properties :
#
#
# Convention : Reuss Voigt Hill
#
# Bulk Modulus (GPa) = 16.12144 24.11722 20.11933
# Shear Modulus (GPa) = 15.68173 20.88532 18.28353
#
# Velocity S-wave (km/s) = 3.00650 3.46965 3.24634
# Velocity P-wave (km/s) = 4.62002 5.47290 5.06444
#
# Compressibility (1/GPa) = 0.06202919
#
# Stress axis : x y z
#
# Youngs Moduli (GPa) = 38.99019 18.23615 55.22356
#
# Poissons Ratio (x) = 0.32034 0.51616
# Poissons Ratio (y) = 0.68490 -0.47666
# Poissons Ratio (z) = 0.36443 -0.15740
#
# Static dielectric constant tensor:
#      x y z
#    x 1.578110 0.000000 0.000000 
#    y 0.000000 1.592480 0.000000 
#    z 0.000000 0.000000 1.596890 
# 
# From -- ./inp_files/11189.got.cif
#   From: 2010.05.17/outbox.cif.g08.bks.cpg/sg36_6_cif.got.tgz:11189.got - 2010.06.03 17:41:39.
