data_PCOD9353486
_publ_section_title
;
Structure prediction by ZEFSAII (Michael W. Deem and Ramdas Pophale) SiO2 
 PCOD9353486
Probable space group: C C C 2
;
_chemical_formula_sum "Si O2"
_cell_formula_units_Z 60
_cell_length_a 14.482216
_cell_length_b 19.491888
_cell_length_c 11.705569
_cell_angle_alpha 90.000000
_cell_angle_beta 90.000000
_cell_angle_gamma 90.000000
_cell_volume 3304.315117
_symmetry_space_group_name_H-M "C C C 2"
_symmetry_group_IT_number 37
_symmetry_cell_setting 'orthorhombic'
loop_
_space_group_symop_operation_xyz
x,y,z
-x,-y,z
-x,y,1/2+z
x,-y,1/2+z
1/2+x,1/2+y,z
1/2-x,1/2-y,z
1/2-x,1/2+y,1/2+z
1/2+x,1/2-y,1/2+z
loop_
_atom_site_type_symbol
_atom_site_label
_atom_site_fract_x
_atom_site_fract_y
_atom_site_fract_z
Si Si1 0.181350 0.114167 0.078530
Si Si2 0.750000 0.750000 0.528821
Si Si3 0.172572 0.690005 0.461454
Si Si4 0.604023 0.474397 0.126589
Si Si5 0.954448 0.771822 0.115035
Si Si6 0.600584 0.353925 0.964683
Si Si7 0.417545 0.371667 0.834195
Si Si8 0.884270 0.723380 0.732249
O O1 0.284917 0.133119 0.043968
O O2 0.129659 0.176885 0.143577
O O3 0.166013 0.041812 0.137294
O O4 0.129231 0.111458 0.955219
O O5 0.688461 0.696469 0.456161
O O6 0.822933 0.715740 0.618471
O O7 0.250000 0.750000 0.463016
O O8 0.082316 0.723410 0.515330
O O9 0.150559 0.672903 0.330823
O O10 0.500000 0.500000 0.103695
O O11 0.630816 0.425929 0.020046
O O12 0.600713 0.429773 0.241461
O O13 0.034958 0.819716 0.062847
O O14 0.006613 0.724419 0.205727
O O15 0.527235 0.363129 0.861710
O O16 0.375123 0.300456 0.786401
#
# Coordination Sequence:
#
# PCOD9353486 Si02
#       8
#     8   4   8   8   8   8   8   8
#     4  10  20  34  48  80 109 151 181 227 269 336
#     4  10  18  32  50  78 112 132 186 250 272 316
#     4  10  17  31  54  75 112 142 186 232 274 329
#     4  12  21  33  49  76 114 152 177 209 272 350
#     4   9  17  30  49  79 110 138 184 230 275 330
#     4  10  20  33  50  80 111 141 182 226 279 326
#     4  11  19  32  52  77 110 149 185 209 277 349
#     4  11  16  30  55  80 103 144 188 229 284 330
#
# _framework density 18.158073999999999
#
# number of rings (size 3 to 8) (size 9 to 14) (size 15 to 20)
#    0.000    1.600   10.000    0.000    1.867    0.000 
#    0.000    0.000    7.333    0.000    0.000    3.733 
#    4.000    0.000    0.000    0.000    0.000    0.000 
#
# Total GULP energy -167089.990486 kJ/mol
# GULP energy per Si atom -5569.666350 kJ/mol
# Density = 1.811675 g / cm^3
# Si number density = 18.158074 Si / 1000 Ang^3
#
#
#
# Elastic Constant Matrix: (Units=GPa)
#
#
# Indices 1 2 3 4 5 6 
#
# 1 42.2828 17.5507 8.0435 0.0000 0.0000 0.0000
# 2 17.5507 41.5996 4.5511 0.0000 0.0000 0.0000
# 3 8.0435 4.5511 37.3773 0.0000 0.0000 0.0000
# 4 0.0000 0.0000 0.0000 25.4768 0.0000 0.0000
# 5 0.0000 0.0000 0.0000 0.0000 31.9442 0.0000
# 6 0.0000 0.0000 0.0000 0.0000 0.0000 28.6415
#
#
#
# Elastic Compliance Matrix: (Units=1/GPa)
#
#
# Indices 1 2 3 4 5 6 
#
# 1 0.029532 -0.011923 -0.004903 0.000000 0.000000 0.000000
# 2 -0.011923 0.029177 -0.000987 0.000000 0.000000 0.000000
# 3 -0.004903 -0.000987 0.027930 0.000000 0.000000 0.000000
# 4 0.000000 0.000000 0.000000 0.039251 0.000000 0.000000
# 5 0.000000 0.000000 0.000000 0.000000 0.031305 0.000000
# 6 0.000000 0.000000 0.000000 0.000000 0.000000 0.034914
#
#
# Mechanical properties :
#
#
# Convention : Reuss Voigt Hill
#
# Bulk Modulus (GPa) = 19.60325 20.17227 19.88776
# Shear Modulus (GPa) = 20.42989 23.28678 21.85834
#
# Velocity S-wave (km/s) = 3.35791 3.58501 3.47332
# Velocity P-wave (km/s) = 5.08462 5.31694 5.20208
#
# Compressibility (1/GPa) = 0.05101194
#
# Stress axis : x y z
#
# Youngs Moduli (GPa) = 33.86154 34.27371 35.80436
#
# Poissons Ratio (x) = 0.40864 0.17557
# Poissons Ratio (y) = 0.40373 0.03533
# Poissons Ratio (z) = 0.16604 0.03382
#
# Static dielectric constant tensor:
#      x y z
#    x 1.664520 0.000000 0.000000 
#    y 0.000000 1.650670 0.000000 
#    z 0.000000 0.000000 1.706990 
# 
# From -- ./inp_files/8029.got.cif
#   From: 2010.05.17/outbox.cif.g08.bks.cpg/sg37_5_cif.got.tgz:8029.got - 2010.06.03 17:53:42.
