data_PCOD9353225
_publ_section_title
;
Structure prediction by ZEFSAII (Michael W. Deem and Ramdas Pophale) SiO2 
 PCOD9353225
Probable space group: C M C 21
;
_chemical_formula_sum "Si O2"
_cell_formula_units_Z 40
_cell_length_a 9.196681
_cell_length_b 14.173102
_cell_length_c 13.483720
_cell_angle_alpha 90.000000
_cell_angle_beta 90.000000
_cell_angle_gamma 90.000000
_cell_volume 1757.542197
_symmetry_space_group_name_H-M "C M C 21"
_symmetry_group_IT_number 36
_symmetry_cell_setting 'orthorhombic'
loop_
_space_group_symop_operation_xyz
x,y,z
-x,-y,1/2+z
x,-y,1/2+z
-x,y,z
1/2+x,1/2+y,z
1/2-x,1/2-y,1/2+z
1/2+x,1/2-y,1/2+z
1/2-x,1/2+y,z
loop_
_atom_site_type_symbol
_atom_site_label
_atom_site_fract_x
_atom_site_fract_y
_atom_site_fract_z
Si Si1 0.839354 0.481154 0.564900
Si Si2 0.673120 0.771629 0.869108
Si Si3 0.339765 0.766130 0.562084
Si Si4 0.337003 0.457709 0.875249
Si Si5 0.235192 0.881010 0.226541
O O1 0.818367 0.373164 0.599393
O O2 0.721076 0.503960 0.480809
O O3 0.833131 0.554663 0.655106
O O4 0.000000 0.488304 0.518182
O O5 0.500000 0.757264 0.852112
O O6 0.714249 0.757600 0.984128
O O7 0.725729 0.876273 0.843446
O O8 0.773033 0.696797 0.809645
O O9 0.500000 0.764832 0.514392
O O10 0.340835 0.688188 0.647572
O O11 0.500000 0.420152 0.887182
O O12 0.341118 0.540433 0.794411
#
# Coordination Sequence:
#
# PCOD9353225 Si02
#       5
#     8   8   8   8   8
#     4  11  26  47  75 109 147 193 244 302 366 437
#     4  12  26  47  73 108 148 192 244 302 364 434
#     4  11  24  46  74 106 146 192 241 300 364 433
#     4  12  26  46  74 108 147 194 245 303 366 434
#     4  12  26  46  76 107 146 195 242 297 366 434
#
# _framework density 22.759056999999999
#
# number of rings (size 3 to 8) (size 9 to 14) (size 15 to 20)
#    0.000    0.400    4.000    4.200    0.000    6.400 
#    0.000    2.000    0.000    0.000    0.000    0.000 
#    0.000    0.000    0.000    0.000    0.000    0.000 
#
# Total GULP energy -111604.172818 kJ/mol
# GULP energy per Si atom -5580.208641 kJ/mol
# Density = 2.270726 g / cm^3
# Si number density = 22.759057 Si / 1000 Ang^3
#
#
#
# Elastic Constant Matrix: (Units=GPa)
#
#
# Indices 1 2 3 4 5 6 
#
# 1 74.5702 20.5840 34.8102 0.0000 0.0000 0.0000
# 2 20.5840 159.9881 39.2625 0.0000 0.0000 0.0000
# 3 34.8102 39.2625 109.5877 0.0000 0.0000 0.0000
# 4 0.0000 0.0000 0.0000 60.4960 0.0000 0.0000
# 5 0.0000 0.0000 0.0000 0.0000 0.8599 0.0000
# 6 0.0000 0.0000 0.0000 0.0000 0.0000 -4.3205
#
#
#
# Elastic Compliance Matrix: (Units=1/GPa)
#
#
# Indices 1 2 3 4 5 6 
#
# 1 0.015857 -0.000882 -0.004721 0.000000 0.000000 0.000000
# 2 -0.000882 0.006902 -0.002193 0.000000 0.000000 0.000000
# 3 -0.004721 -0.002193 0.011410 0.000000 0.000000 0.000000
# 4 0.000000 0.000000 0.000000 0.016530 0.000000 0.000000
# 5 0.000000 0.000000 0.000000 0.000000 1.162895 0.000000
# 6 0.000000 0.000000 0.000000 0.000000 0.000000 -0.231456
#
#
# Mechanical properties :
#
#
# Convention : Reuss Voigt Hill
#
# Bulk Modulus (GPa) = 53.82507 59.27326 56.54916
# Shear Modulus (GPa) = 4.98047 28.03973 16.51010
#
# Velocity S-wave (km/s) = 1.48091 3.51383 2.69630
# Velocity P-wave (km/s) = 5.15998 6.52403 5.88169
#
# Compressibility (1/GPa) = 0.01857870
#
# Stress axis : x y z
#
# Youngs Moduli (GPa) = 63.06186 144.88523 87.63928
#
# Poissons Ratio (x) = 0.12773 0.41376
# Poissons Ratio (y) = 0.05559 0.19217
# Poissons Ratio (z) = 0.29773 0.31770
#
# Static dielectric constant tensor:
#      x y z
#    x 1.792940 0.000000 0.000000 
#    y 0.000000 1.853000 0.000000 
#    z 0.000000 0.000000 1.873530 
# 
# From -- ./inp_files/10119.got.cif
#   From: 2010.05.17/outbox.cif.g08.bks.cpg/sg36_6_cif.got.tgz:10119.got - 2010.06.03 17:41:39.
