data_PCOD9353449
_publ_section_title
;
Structure prediction by ZEFSAII (Michael W. Deem and Ramdas Pophale) SiO2 
 PCOD9353449
Probable space group: C C C 2
;
_chemical_formula_sum "Si O2"
_cell_formula_units_Z 40
_cell_length_a 12.412109
_cell_length_b 15.055960
_cell_length_c 8.097846
_cell_angle_alpha 90.000000
_cell_angle_beta 90.000000
_cell_angle_gamma 90.000000
_cell_volume 1513.294823
_symmetry_space_group_name_H-M "C C C 2"
_symmetry_group_IT_number 37
_symmetry_cell_setting 'orthorhombic'
loop_
_space_group_symop_operation_xyz
x,y,z
-x,-y,z
-x,y,1/2+z
x,-y,1/2+z
1/2+x,1/2+y,z
1/2-x,1/2-y,z
1/2-x,1/2+y,1/2+z
1/2+x,1/2-y,1/2+z
loop_
_atom_site_type_symbol
_atom_site_label
_atom_site_fract_x
_atom_site_fract_y
_atom_site_fract_z
Si Si1 0.849104 0.523607 0.963420
Si Si2 0.859993 0.172310 0.238215
Si Si3 0.288151 0.341631 0.121915
Si Si4 0.610047 0.485159 0.828312
Si Si5 0.114779 0.358665 0.655374
O O1 0.725619 0.498846 0.913991
O O2 0.899692 0.582043 0.819070
O O3 0.818212 0.594855 0.105967
O O4 0.905868 0.432527 0.016394
O O5 0.835549 0.180520 0.437391
O O6 0.926859 0.257517 0.173516
O O7 0.742521 0.162873 0.155039
O O8 0.901308 0.073097 0.214194
O O9 0.250000 0.250000 0.198771
O O10 0.372812 0.393899 0.232409
O O11 0.500000 0.500000 0.926750
#
# Coordination Sequence:
#
# PCOD9353449 Si02
#       5
#     8   8   8   8   8
#     4  10  17  32  50  75 104 140 180 226 275 329
#     4   9  17  31  51  70 110 145 175 227 286 329
#     4  10  16  31  51  73 104 145 186 222 273 331
#     4  10  21  33  50  82 121 150 176 230 290 354
#     4   9  16  31  51  73 104 135 179 231 278 318
#
# _framework density 26.432390999999999
#
# number of rings (size 3 to 8) (size 9 to 14) (size 15 to 20)
#    0.000    2.800    8.000    0.000    0.000    3.200 
#    3.600    0.000    0.000    0.000    0.000    1.400 
#   18.000    0.000    0.000    0.000    0.000    0.000 
#
# Total GULP energy -111484.529614 kJ/mol
# GULP energy per Si atom -5574.226481 kJ/mol
# Density = 2.637223 g / cm^3
# Si number density = 26.432391 Si / 1000 Ang^3
#
#
#
# Elastic Constant Matrix: (Units=GPa)
#
#
# Indices 1 2 3 4 5 6 
#
# 1 58.6865 41.9687 23.3833 0.0000 0.0000 0.0000
# 2 41.9687 274.7304 65.9052 0.0000 0.0000 0.0000
# 3 23.3833 65.9052 48.2569 0.0000 0.0000 0.0000
# 4 0.0000 0.0000 0.0000 42.1838 0.0000 0.0000
# 5 0.0000 0.0000 0.0000 0.0000 22.9602 0.0000
# 6 0.0000 0.0000 0.0000 0.0000 0.0000 19.3548
#
#
#
# Elastic Compliance Matrix: (Units=1/GPa)
#
#
# Indices 1 2 3 4 5 6 
#
# 1 0.021363 -0.001160 -0.008767 0.000000 0.000000 0.000000
# 2 -0.001160 0.005477 -0.006917 0.000000 0.000000 0.000000
# 3 -0.008767 -0.006917 0.034417 0.000000 0.000000 0.000000
# 4 0.000000 0.000000 0.000000 0.023706 0.000000 0.000000
# 5 0.000000 0.000000 0.000000 0.000000 0.043554 0.000000
# 6 0.000000 0.000000 0.000000 0.000000 0.000000 0.051667
#
#
# Mechanical properties :
#
#
# Convention : Reuss Voigt Hill
#
# Bulk Modulus (GPa) = 36.27399 71.57648 53.92523
# Shear Modulus (GPa) = 22.41546 33.59419 28.00483
#
# Velocity S-wave (km/s) = 2.91525 3.56890 3.25851
# Velocity P-wave (km/s) = 5.00846 6.64234 5.88240
#
# Compressibility (1/GPa) = 0.02756796
#
# Stress axis : x y z
#
# Youngs Moduli (GPa) = 46.81091 182.59665 29.05516
#
# Poissons Ratio (x) = 0.21188 0.25472
# Poissons Ratio (y) = 0.05432 0.20098
# Poissons Ratio (z) = 0.41038 1.26305
#
# Static dielectric constant tensor:
#      x y z
#    x 2.130980 0.000000 0.000000 
#    y 0.000000 2.216880 0.000000 
#    z 0.000000 0.000000 2.172050 
# 
# From -- ./inp_files/3320.got.cif
#   From: 2010.05.17/outbox.cif.g08.bks.cpg/sg37_2_cif.got.tgz:3320.got - 2010.06.03 17:53:42.
