data_PCOD9353289
_publ_section_title
;
Structure prediction by ZEFSAII (Michael W. Deem and Ramdas Pophale) SiO2 
 PCOD9353289
Probable space group: C M C 21
;
_chemical_formula_sum "Si O2"
_cell_formula_units_Z 48
_cell_length_a 7.314527
_cell_length_b 16.092342
_cell_length_c 14.581468
_cell_angle_alpha 90.000000
_cell_angle_beta 90.000000
_cell_angle_gamma 90.000000
_cell_volume 1716.353541
_symmetry_space_group_name_H-M "C M C 21"
_symmetry_group_IT_number 36
_symmetry_cell_setting 'orthorhombic'
loop_
_space_group_symop_operation_xyz
x,y,z
-x,-y,1/2+z
x,-y,1/2+z
-x,y,z
1/2+x,1/2+y,z
1/2-x,1/2-y,1/2+z
1/2+x,1/2-y,1/2+z
1/2-x,1/2+y,z
loop_
_atom_site_type_symbol
_atom_site_label
_atom_site_fract_x
_atom_site_fract_y
_atom_site_fract_z
Si Si1 0.716469 0.602353 0.048190
Si Si2 0.710595 0.312050 0.720779
Si Si3 0.710554 0.533665 0.758625
Si Si4 0.222637 0.850556 0.101950
Si Si5 0.723681 0.556045 0.430961
Si Si6 0.281151 0.801037 0.375189
O O1 0.500000 0.589880 0.058273
O O2 0.790107 0.620610 0.149775
O O3 0.784555 0.524155 0.990428
O O4 0.741142 0.681314 0.980988
O O5 0.500000 0.334143 0.739415
O O6 0.709332 0.229721 0.655726
O O7 0.788751 0.277383 0.816345
O O8 0.500000 0.513688 0.739977
O O9 0.784218 0.570049 0.663577
O O10 0.713160 0.616482 0.822607
O O11 0.785009 0.462244 0.826781
O O12 0.000000 0.846824 0.104782
O O13 0.274984 0.867797 0.996771
O O14 0.500000 0.556068 0.427167
O O15 0.500000 0.798781 0.367302
#
# Coordination Sequence:
#
# PCOD9353289 Si02
#       6
#     8   8   8   8   8   8
#     4   9  17  31  48  64  87 119 149 177 216 264
#     4   9  18  31  46  65  90 118 145 177 220 264
#     4   8  14  26  43  61  83 114 146 173 211 262
#     4   9  16  27  45  66  85 109 144 182 216 254
#     4   8  14  26  44  64  83 106 141 179 210 247
#     4   9  16  27  44  66  88 112 147 184 215 253
#
# _framework density 27.966266000000001
#
# number of rings (size 3 to 8) (size 9 to 14) (size 15 to 20)
#    0.000    3.333    0.000    1.500    0.000    1.333 
#    0.000    5.000    0.000    6.000    0.000    0.000 
#    0.000    0.000    0.000    0.000    0.000    0.000 
#
# Total GULP energy -134163.196706 kJ/mol
# GULP energy per Si atom -5590.133196 kJ/mol
# Density = 2.790261 g / cm^3
# Si number density = 27.966266 Si / 1000 Ang^3
#
#
#
# Elastic Constant Matrix: (Units=GPa)
#
#
# Indices 1 2 3 4 5 6 
#
# 1 122.1685 -6.8391 7.1291 0.0000 0.0000 0.0000
# 2 -6.8391 99.2837 37.3679 0.0000 0.0000 0.0000
# 3 7.1291 37.3679 229.2760 0.0000 0.0000 0.0000
# 4 0.0000 0.0000 0.0000 66.3503 0.0000 0.0000
# 5 0.0000 0.0000 0.0000 0.0000 1.3310 0.0000
# 6 0.0000 0.0000 0.0000 0.0000 0.0000 -12.6796
#
#
#
# Elastic Compliance Matrix: (Units=1/GPa)
#
#
# Indices 1 2 3 4 5 6 
#
# 1 0.008247 0.000708 -0.000372 0.000000 0.000000 0.000000
# 2 0.000708 0.010791 -0.001781 0.000000 0.000000 0.000000
# 3 -0.000372 -0.001781 0.004663 0.000000 0.000000 0.000000
# 4 0.000000 0.000000 0.000000 0.015072 0.000000 0.000000
# 5 0.000000 0.000000 0.000000 0.000000 0.751317 0.000000
# 6 0.000000 0.000000 0.000000 0.000000 0.000000 -0.078867
#
#
# Mechanical properties :
#
#
# Convention : Reuss Voigt Hill
#
# Bulk Modulus (GPa) = 48.04901 58.44935 53.24918
# Shear Modulus (GPa) = 6.93434 38.53837 22.73635
#
# Velocity S-wave (km/s) = 1.57636 3.71621 2.85439
# Velocity P-wave (km/s) = 4.53118 6.27367 5.47223
#
# Compressibility (1/GPa) = 0.02081209
#
# Stress axis : x y z
#
# Youngs Moduli (GPa) = 121.25994 92.66845 214.43794
#
# Poissons Ratio (x) = -0.06561 0.07973
# Poissons Ratio (y) = -0.08585 0.38187
# Poissons Ratio (z) = 0.04509 0.16502
#
# Static dielectric constant tensor:
#      x y z
#    x 2.117730 0.000000 0.000000 
#    y 0.000000 2.258680 0.000000 
#    z 0.000000 0.000000 2.157660 
# 
# From -- ./inp_files/6736.got.cif
#   From: 2010.05.17/outbox.cif.g08.bks.cpg/sg36_4_cif.got.tgz:6736.got - 2010.06.03 17:41:39.
