data_PCOD9353079
_publ_section_title
;
Structure prediction by ZEFSAII (Michael W. Deem and Ramdas Pophale) SiO2 
 PCOD9353079
Probable space group: C M C 21
;
_chemical_formula_sum "Si O2"
_cell_formula_units_Z 40
_cell_length_a 16.581235
_cell_length_b 13.423443
_cell_length_c 7.261730
_cell_angle_alpha 90.000000
_cell_angle_beta 90.000000
_cell_angle_gamma 90.000000
_cell_volume 1616.295987
_symmetry_space_group_name_H-M "C M C 21"
_symmetry_group_IT_number 36
_symmetry_cell_setting 'orthorhombic'
loop_
_space_group_symop_operation_xyz
x,y,z
-x,-y,1/2+z
x,-y,1/2+z
-x,y,z
1/2+x,1/2+y,z
1/2-x,1/2-y,1/2+z
1/2+x,1/2-y,1/2+z
1/2-x,1/2+y,z
loop_
_atom_site_type_symbol
_atom_site_label
_atom_site_fract_x
_atom_site_fract_y
_atom_site_fract_z
Si Si1 0.647108 0.116278 0.612320
Si Si2 0.907734 0.844012 0.547115
Si Si3 0.211414 0.851537 0.837298
Si Si4 0.912721 0.411931 0.488147
Si Si5 0.643270 0.730718 0.682649
O O1 0.609162 0.225204 0.580028
O O2 0.725101 0.101031 0.480864
O O3 0.767060 0.265821 0.743151
O O4 0.654866 0.104073 0.832521
O O5 0.839362 0.898464 0.669880
O O6 0.891143 0.846417 0.328923
O O7 0.000000 0.869517 0.590314
O O8 0.144397 0.812102 0.978149
O O9 0.908212 0.523754 0.556915
O O10 0.901115 0.336545 0.658302
O O11 0.000000 0.389788 0.405104
#
# Coordination Sequence:
#
# PCOD9353079 Si02
#       5
#     8   8   8   8   8
#     4  11  23  37  58  88 130 172 205 245 313 379
#     4  11  22  36  59  88 120 159 206 259 308 353
#     4  11  21  38  58  83 123 168 213 250 295 367
#     4  12  23  38  61  96 138 167 202 255 319 389
#     4  11  20  37  59  85 125 170 206 247 304 374
#
# _framework density 24.747944
#
# number of rings (size 3 to 8) (size 9 to 14) (size 15 to 20)
#    0.000    0.800    6.000    4.800    0.000    0.800 
#    0.000    0.000    0.000    0.000    0.000    5.600 
#    0.000    0.000    0.000    0.000    0.000    0.000 
#
# Total GULP energy -111642.338606 kJ/mol
# GULP energy per Si atom -5582.116930 kJ/mol
# Density = 2.469162 g / cm^3
# Si number density = 24.747944 Si / 1000 Ang^3
#
#
#
# Elastic Constant Matrix: (Units=GPa)
#
#
# Indices 1 2 3 4 5 6 
#
# 1 130.6257 3.3541 31.7037 0.0000 0.0000 0.0000
# 2 3.3541 22.5768 5.3907 0.0000 0.0000 0.0000
# 3 31.7037 5.3907 138.7162 0.0000 0.0000 0.0000
# 4 0.0000 0.0000 0.0000 25.9222 0.0000 0.0000
# 5 0.0000 0.0000 0.0000 0.0000 39.4919 0.0000
# 6 0.0000 0.0000 0.0000 0.0000 0.0000 12.0177
#
#
#
# Elastic Compliance Matrix: (Units=1/GPa)
#
#
# Indices 1 2 3 4 5 6 
#
# 1 0.008118 -0.000770 -0.001826 0.000000 0.000000 0.000000
# 2 -0.000770 0.044781 -0.001564 0.000000 0.000000 0.000000
# 3 -0.001826 -0.001564 0.007687 0.000000 0.000000 0.000000
# 4 0.000000 0.000000 0.000000 0.038577 0.000000 0.000000
# 5 0.000000 0.000000 0.000000 0.000000 0.025322 0.000000
# 6 0.000000 0.000000 0.000000 0.000000 0.000000 0.083211
#
#
# Mechanical properties :
#
#
# Convention : Reuss Voigt Hill
#
# Bulk Modulus (GPa) = 19.13267 41.42395 30.27831
# Shear Modulus (GPa) = 21.41896 32.25104 26.83500
#
# Velocity S-wave (km/s) = 2.94510 3.61388 3.29649
# Velocity P-wave (km/s) = 4.39462 5.84706 5.17208
#
# Compressibility (1/GPa) = 0.05226662
#
# Stress axis : x y z
#
# Youngs Moduli (GPa) = 123.17844 22.33080 130.09021
#
# Poissons Ratio (x) = 0.01720 0.23748
# Poissons Ratio (y) = 0.09487 0.20349
# Poissons Ratio (z) = 0.22486 0.03493
#
# Static dielectric constant tensor:
#      x y z
#    x 2.008230 0.000000 0.000000 
#    y 0.000000 1.976370 0.000000 
#    z 0.000000 0.000000 2.007100 
# 
# From -- ./inp_files/4581.got.cif
#   From: 2010.05.17/outbox.cif.g08.bks.cpg/sg36_3_cif.got.tgz:4581.got - 2010.06.03 17:41:39.
