data_PCOD9353998
_publ_section_title
;
Structure prediction by ZEFSAII (Michael W. Deem and Ramdas Pophale) SiO2 
 PCOD9353998
Probable space group: C C C 2
;
_chemical_formula_sum "Si O2"
_cell_formula_units_Z 48
_cell_length_a 15.670423
_cell_length_b 8.366758
_cell_length_c 18.628973
_cell_angle_alpha 90.000000
_cell_angle_beta 90.000000
_cell_angle_gamma 90.000000
_cell_volume 2442.456517
_symmetry_space_group_name_H-M "C C C 2"
_symmetry_group_IT_number 37
_symmetry_cell_setting 'orthorhombic'
loop_
_space_group_symop_operation_xyz
x,y,z
-x,-y,z
-x,y,1/2+z
x,-y,1/2+z
1/2+x,1/2+y,z
1/2-x,1/2-y,z
1/2-x,1/2+y,1/2+z
1/2+x,1/2-y,1/2+z
loop_
_atom_site_type_symbol
_atom_site_label
_atom_site_fract_x
_atom_site_fract_y
_atom_site_fract_z
Si Si1 0.513334 0.192286 0.608990
Si Si2 0.845357 0.290659 0.185905
Si Si3 0.342681 0.703024 0.878800
Si Si4 0.157534 0.668305 0.720714
Si Si5 0.413645 0.606400 0.324315
Si Si6 0.991240 0.690308 0.948981
O O1 0.419031 0.251331 0.628991
O O2 0.583351 0.236973 0.668899
O O3 0.540244 0.234652 0.528433
O O4 0.500000 0.000000 0.610736
O O5 0.750000 0.250000 0.162621
O O6 0.843255 0.479174 0.205461
O O7 0.874514 0.192165 0.255832
O O8 0.250000 0.750000 0.904605
O O9 0.362091 0.798588 0.804473
O O10 0.346425 0.519484 0.855364
O O11 0.415015 0.737896 0.936130
O O12 0.250000 0.750000 0.707088
O O13 0.500000 0.500000 0.310091
O O14 0.436319 0.734899 0.385141
O O15 0.000000 0.500000 0.943045
#
# Coordination Sequence:
#
# PCOD9353998 Si02
#       6
#     8   8   8   8   8   8
#     4   9  20  37  56  79 113 149 184 224 277 335
#     4  11  21  35  58  87 112 143 185 231 279 333
#     4  10  20  36  56  81 111 142 181 233 278 324
#     4  10  20  38  60  83 110 146 186 231 280 329
#     4  10  21  37  56  83 111 145 191 231 276 332
#     4  10  20  37  57  79 109 149 185 224 276 331
#
# _framework density 19.652346000000001
#
# number of rings (size 3 to 8) (size 9 to 14) (size 15 to 20)
#    0.000    2.000    0.000    5.000    0.000    2.000 
#    0.000   18.333    0.000    0.000    0.000    0.000 
#    0.000    0.000    0.000    0.000    0.000    0.000 
#
# Total GULP energy -133967.335149 kJ/mol
# GULP energy per Si atom -5581.972298 kJ/mol
# Density = 1.960762 g / cm^3
# Si number density = 19.652346 Si / 1000 Ang^3
#
#
#
# Elastic Constant Matrix: (Units=GPa)
#
#
# Indices 1 2 3 4 5 6 
#
# 1 76.2452 -3.4694 4.5847 0.0000 0.0000 0.0000
# 2 -3.4694 62.8009 -7.5747 0.0000 0.0000 0.0000
# 3 4.5847 -7.5747 23.5385 0.0000 0.0000 0.0000
# 4 0.0000 0.0000 0.0000 -36.3814 0.0000 0.0000
# 5 0.0000 0.0000 0.0000 0.0000 18.7523 0.0000
# 6 0.0000 0.0000 0.0000 0.0000 0.0000 30.8679
#
#
#
# Elastic Compliance Matrix: (Units=1/GPa)
#
#
# Indices 1 2 3 4 5 6 
#
# 1 0.013283 0.000439 -0.002446 0.000000 0.000000 0.000000
# 2 0.000439 0.016581 0.005250 0.000000 0.000000 0.000000
# 3 -0.002446 0.005250 0.044650 0.000000 0.000000 0.000000
# 4 0.000000 0.000000 0.000000 -0.027487 0.000000 0.000000
# 5 0.000000 0.000000 0.000000 0.000000 0.053327 0.000000
# 6 0.000000 0.000000 0.000000 0.000000 0.000000 0.032396
#
#
# Mechanical properties :
#
#
# Convention : Reuss Voigt Hill
#
# Bulk Modulus (GPa) = 12.34579 16.62953 14.48766
# Shear Modulus (GPa) = 32.62372 13.91736 23.27054
#
# Velocity S-wave (km/s) = 4.07878 2.66405 3.44482
# Velocity P-wave (km/s) = 5.33645 4.23593 4.81772
#
# Compressibility (1/GPa) = 0.08099926
#
# Stress axis : x y z
#
# Youngs Moduli (GPa) = 75.28636 60.31063 22.39665
#
# Poissons Ratio (x) = -0.02646 0.05478
# Poissons Ratio (y) = -0.03303 -0.11759
# Poissons Ratio (z) = 0.18414 -0.31665
#
# Static dielectric constant tensor:
#      x y z
#    x 1.699460 0.000000 0.000000 
#    y 0.000000 1.705360 0.000000 
#    z 0.000000 0.000000 1.675870 
# 
# From -- ./inp_files/14486.got.cif
#   From: 2010.05.17/outbox.cif.g08.bks.cpg/sg37_8_cif.got.tgz:14486.got - 2010.06.03 17:53:42.
