data_PCOD9353958
_publ_section_title
;
Structure prediction by ZEFSAII (Michael W. Deem and Ramdas Pophale) SiO2 
 PCOD9353958
Probable space group: C C C 2
;
_chemical_formula_sum "Si O2"
_cell_formula_units_Z 28
_cell_length_a 10.340773
_cell_length_b 12.600425
_cell_length_c 9.036321
_cell_angle_alpha 90.000000
_cell_angle_beta 90.000000
_cell_angle_gamma 90.000000
_cell_volume 1177.415770
_symmetry_space_group_name_H-M "C C C 2"
_symmetry_group_IT_number 37
_symmetry_cell_setting 'orthorhombic'
loop_
_space_group_symop_operation_xyz
x,y,z
-x,-y,z
-x,y,1/2+z
x,-y,1/2+z
1/2+x,1/2+y,z
1/2-x,1/2-y,z
1/2-x,1/2+y,1/2+z
1/2+x,1/2-y,1/2+z
loop_
_atom_site_type_symbol
_atom_site_label
_atom_site_fract_x
_atom_site_fract_y
_atom_site_fract_z
Si Si1 0.664519 0.651663 0.435500
Si Si2 0.182762 0.562602 0.364926
Si Si3 0.000000 0.500000 0.610547
Si Si4 0.444359 0.617142 0.253993
O O1 0.750000 0.750000 0.479517
O O2 0.757241 0.556376 0.382455
O O3 0.562181 0.687424 0.310508
O O4 0.585985 0.618776 0.581494
O O5 0.088299 0.573532 0.504590
O O6 0.310672 0.632615 0.342493
O O7 0.096289 0.564052 0.217554
O O8 0.500000 0.500000 0.290200
#
# Coordination Sequence:
#
# PCOD9353958 Si02
#       4
#     8   8   4   8
#     4  11  24  40  62  94 126 160 205 265 321 365
#     4  10  20  38  63  93 122 165 208 256 297 379
#     4  10  20  34  64  92 122 156 216 256 296 348
#     4  10  21  42  68  89 121 169 214 248 307 387
#
# _framework density 23.780894
#
# number of rings (size 3 to 8) (size 9 to 14) (size 15 to 20)
#    0.000    1.714    2.857    2.571    4.000    2.286 
#    0.000    1.429    0.000    0.000    0.000    0.000 
#    0.000    0.000    0.000    0.000    0.000    0.000 
#
# Total GULP energy -78283.793725 kJ/mol
# GULP energy per Si atom -5591.699552 kJ/mol
# Density = 2.372677 g / cm^3
# Si number density = 23.780894 Si / 1000 Ang^3
#
#
#
# Elastic Constant Matrix: (Units=GPa)
#
#
# Indices 1 2 3 4 5 6 
#
# 1 147.0716 14.2012 69.8138 0.0000 0.0000 0.0000
# 2 14.2012 31.2081 4.4314 0.0000 0.0000 0.0000
# 3 69.8138 4.4314 128.4669 0.0000 0.0000 0.0000
# 4 0.0000 0.0000 0.0000 2.5108 0.0000 0.0000
# 5 0.0000 0.0000 0.0000 0.0000 63.4473 0.0000
# 6 0.0000 0.0000 0.0000 0.0000 0.0000 10.7469
#
#
#
# Elastic Compliance Matrix: (Units=1/GPa)
#
#
# Indices 1 2 3 4 5 6 
#
# 1 0.009555 -0.003629 -0.005068 0.000000 0.000000 0.000000
# 2 -0.003629 0.033579 0.000814 0.000000 0.000000 0.000000
# 3 -0.005068 0.000814 0.010510 0.000000 0.000000 0.000000
# 4 0.000000 0.000000 0.000000 0.398276 0.000000 0.000000
# 5 0.000000 0.000000 0.000000 0.000000 0.015761 0.000000
# 6 0.000000 0.000000 0.000000 0.000000 0.000000 0.093050
#
#
# Mechanical properties :
#
#
# Convention : Reuss Voigt Hill
#
# Bulk Modulus (GPa) = 26.39999 53.73774 40.06886
# Shear Modulus (GPa) = 8.48721 29.89436 19.19078
#
# Velocity S-wave (km/s) = 1.89121 3.54937 2.84383
# Velocity P-wave (km/s) = 3.98677 6.28040 5.26012
#
# Compressibility (1/GPa) = 0.03787881
#
# Stress axis : x y z
#
# Youngs Moduli (GPa) = 104.65375 29.78091 95.14799
#
# Poissons Ratio (x) = 0.10806 0.48217
# Poissons Ratio (y) = 0.37974 -0.07741
# Poissons Ratio (z) = 0.53034 -0.02423
#
# Static dielectric constant tensor:
#      x y z
#    x 1.938570 0.000000 0.000000 
#    y 0.000000 1.892290 0.000000 
#    z 0.000000 0.000000 1.857860 
# 
# From -- ./inp_files/2537.got.cif
#   From: 2010.05.17/outbox.cif.g08.bks.cpg/sg37_2_cif.got.tgz:2537.got - 2010.06.03 17:53:42.
