data_PCOD9353853
_publ_section_title
;
Structure prediction by ZEFSAII (Michael W. Deem and Ramdas Pophale) SiO2 
 PCOD9353853
Probable space group: C C C 2
;
_chemical_formula_sum "Si O2"
_cell_formula_units_Z 56
_cell_length_a 16.147162
_cell_length_b 22.621159
_cell_length_c 8.370371
_cell_angle_alpha 90.000000
_cell_angle_beta 90.000000
_cell_angle_gamma 90.000000
_cell_volume 3057.424648
_symmetry_space_group_name_H-M "C C C 2"
_symmetry_group_IT_number 37
_symmetry_cell_setting 'orthorhombic'
loop_
_space_group_symop_operation_xyz
x,y,z
-x,-y,z
-x,y,1/2+z
x,-y,1/2+z
1/2+x,1/2+y,z
1/2-x,1/2-y,z
1/2-x,1/2+y,1/2+z
1/2+x,1/2-y,1/2+z
loop_
_atom_site_type_symbol
_atom_site_label
_atom_site_fract_x
_atom_site_fract_y
_atom_site_fract_z
Si Si1 0.297592 0.693535 0.699620
Si Si2 0.472659 0.695254 0.849593
Si Si3 0.615595 0.739710 0.663398
Si Si4 0.012769 0.065407 0.462647
Si Si5 0.265968 0.164593 0.558160
Si Si6 0.185313 0.948745 0.155579
Si Si7 0.830939 0.073638 0.532758
O O1 0.250000 0.750000 0.630608
O O2 0.394347 0.706760 0.733999
O O3 0.294175 0.634994 0.593231
O O4 0.255989 0.680690 0.874295
O O5 0.556165 0.730424 0.811982
O O6 0.487739 0.624921 0.858693
O O7 0.440395 0.714972 0.020870
O O8 0.650411 0.803846 0.615932
O O9 0.694310 0.696190 0.663715
O O10 0.098949 0.064084 0.560472
O O11 0.929447 0.071904 0.566359
O O12 0.000000 0.000000 0.384825
O O13 0.253643 0.095527 0.584471
O O14 0.176910 0.935910 0.343103
O O15 0.205335 0.017083 0.124107
#
# Coordination Sequence:
#
# PCOD9353853 Si02
#       7
#     8   8   8   8   8   8   8
#     4  11  21  40  58  82 117 159 197 244 293 350
#     4  11  20  37  54  83 116 158 198 238 288 341
#     4  10  20  35  57  81 113 157 197 240 288 344
#     4  10  22  33  55  82 122 159 197 231 277 348
#     4  10  19  39  59  78 117 156 197 237 297 342
#     4  11  22  39  55  83 118 155 198 237 295 353
#     4  11  25  35  57  83 116 156 199 240 288 357
#
# _framework density 18.31607
#
# number of rings (size 3 to 8) (size 9 to 14) (size 15 to 20)
#    0.000    1.429    5.714    2.571    4.000    2.857 
#    7.714    0.000    0.000    0.000    0.000    1.000 
#    0.000    0.000    0.000    0.000    0.000    0.000 
#
# Total GULP energy -156356.638610 kJ/mol
# GULP energy per Si atom -5584.165665 kJ/mol
# Density = 1.827438 g / cm^3
# Si number density = 18.316070 Si / 1000 Ang^3
#
#
#
# Elastic Constant Matrix: (Units=GPa)
#
#
# Indices 1 2 3 4 5 6 
#
# 1 51.7992 45.9111 8.2083 0.0000 0.0000 0.0000
# 2 45.9111 138.7882 14.8061 0.0000 0.0000 0.0000
# 3 8.2083 14.8061 27.4637 0.0000 0.0000 0.0000
# 4 0.0000 0.0000 0.0000 30.7106 0.0000 0.0000
# 5 0.0000 0.0000 0.0000 0.0000 17.8890 0.0000
# 6 0.0000 0.0000 0.0000 0.0000 0.0000 37.0221
#
#
#
# Elastic Compliance Matrix: (Units=1/GPa)
#
#
# Indices 1 2 3 4 5 6 
#
# 1 0.027633 -0.008764 -0.003534 0.000000 0.000000 0.000000
# 2 -0.008764 0.010424 -0.003001 0.000000 0.000000 0.000000
# 3 -0.003534 -0.003001 0.039086 0.000000 0.000000 0.000000
# 4 0.000000 0.000000 0.000000 0.032562 0.000000 0.000000
# 5 0.000000 0.000000 0.000000 0.000000 0.055900 0.000000
# 6 0.000000 0.000000 0.000000 0.000000 0.000000 0.027011
#
#
# Mechanical properties :
#
#
# Convention : Reuss Voigt Hill
#
# Bulk Modulus (GPa) = 21.48424 39.54467 30.51446
# Shear Modulus (GPa) = 20.94424 27.06606 24.00515
#
# Velocity S-wave (km/s) = 3.38522 3.84829 3.62416
# Velocity P-wave (km/s) = 5.19950 6.43294 5.84883
#
# Compressibility (1/GPa) = 0.04654575
#
# Stress axis : x y z
#
# Youngs Moduli (GPa) = 36.18839 95.92816 25.58486
#
# Poissons Ratio (x) = 0.84072 0.09042
# Poissons Ratio (y) = 0.31716 0.07677
# Poissons Ratio (z) = 0.12789 0.28784
#
# Static dielectric constant tensor:
#      x y z
#    x 1.632980 0.000000 0.000000 
#    y 0.000000 1.675280 0.000000 
#    z 0.000000 0.000000 1.732780 
# 
# From -- ./inp_files/3644.got.cif
#   From: 2010.05.17/outbox.cif.g08.bks.cpg/sg37_2_cif.got.tgz:3644.got - 2010.06.03 17:53:42.
