data_PCOD9353082
_publ_section_title
;
Structure prediction by ZEFSAII (Michael W. Deem and Ramdas Pophale) SiO2 
 PCOD9353082
Probable space group: C M C 21
;
_chemical_formula_sum "Si O2"
_cell_formula_units_Z 48
_cell_length_a 18.134009
_cell_length_b 13.878296
_cell_length_c 8.361666
_cell_angle_alpha 90.000000
_cell_angle_beta 90.000000
_cell_angle_gamma 90.000000
_cell_volume 2104.373329
_symmetry_space_group_name_H-M "C M C 21"
_symmetry_group_IT_number 36
_symmetry_cell_setting 'orthorhombic'
loop_
_space_group_symop_operation_xyz
x,y,z
-x,-y,1/2+z
x,-y,1/2+z
-x,y,z
1/2+x,1/2+y,z
1/2-x,1/2-y,1/2+z
1/2+x,1/2-y,1/2+z
1/2-x,1/2+y,z
loop_
_atom_site_type_symbol
_atom_site_label
_atom_site_fract_x
_atom_site_fract_y
_atom_site_fract_z
Si Si1 0.127040 0.966146 0.118190
Si Si2 0.165181 0.356530 0.958934
Si Si3 0.291652 0.963521 0.249947
Si Si4 0.692042 0.777742 0.445259
Si Si5 0.584675 0.642335 0.292672
Si Si6 0.083023 0.767555 0.233944
O O1 0.213245 0.972741 0.160673
O O2 0.094611 0.882597 0.233594
O O3 0.093186 0.070651 0.145047
O O4 0.109192 0.924585 0.943717
O O5 0.183254 0.436544 0.824310
O O6 0.236928 0.288322 0.974792
O O7 0.101234 0.286799 0.897393
O O8 0.153807 0.417982 0.118802
O O9 0.285369 0.883549 0.389680
O O10 0.642710 0.728640 0.305150
O O11 0.641026 0.771196 0.601916
O O12 0.500000 0.672613 0.311043
O O13 0.000000 0.747317 0.182992
#
# Coordination Sequence:
#
# PCOD9353082 Si02
#       6
#     8   8   8   8   8   8
#     4  11  20  38  62  91 131 163 207 268 322 385
#     4  12  23  42  65  96 129 171 218 268 323 385
#     4  12  23  40  66  99 124 165 225 271 311 385
#     4  11  21  41  66  93 130 171 217 267 320 389
#     4  11  22  37  59  93 131 167 203 256 330 395
#     4  11  24  44  66  96 134 173 214 270 331 385
#
# _framework density 22.809640999999999
#
# number of rings (size 3 to 8) (size 9 to 14) (size 15 to 20)
#    0.000    0.667    6.667    4.000    0.000    1.333 
#    0.000    7.500    0.000    0.000    0.000    0.000 
#    0.000    0.000    0.000    0.000    0.000    0.000 
#
# Total GULP energy -134365.133368 kJ/mol
# GULP energy per Si atom -5598.547224 kJ/mol
# Density = 2.275772 g / cm^3
# Si number density = 22.809641 Si / 1000 Ang^3
#
#
#
# Elastic Constant Matrix: (Units=GPa)
#
#
# Indices 1 2 3 4 5 6 
#
# 1 55.2493 27.5497 6.3165 0.0000 0.0000 0.0000
# 2 27.5497 95.0126 19.9696 0.0000 0.0000 0.0000
# 3 6.3165 19.9696 53.5372 0.0000 0.0000 0.0000
# 4 0.0000 0.0000 0.0000 47.7746 0.0000 0.0000
# 5 0.0000 0.0000 0.0000 0.0000 38.2264 0.0000
# 6 0.0000 0.0000 0.0000 0.0000 0.0000 14.2087
#
#
#
# Elastic Compliance Matrix: (Units=1/GPa)
#
#
# Indices 1 2 3 4 5 6 
#
# 1 0.021162 -0.006089 -0.000226 0.000000 0.000000 0.000000
# 2 -0.006089 0.013172 -0.004195 0.000000 0.000000 0.000000
# 3 -0.000226 -0.004195 0.020270 0.000000 0.000000 0.000000
# 4 0.000000 0.000000 0.000000 0.020932 0.000000 0.000000
# 5 0.000000 0.000000 0.000000 0.000000 0.026160 0.000000
# 6 0.000000 0.000000 0.000000 0.000000 0.000000 0.070379
#
#
# Mechanical properties :
#
#
# Convention : Reuss Voigt Hill
#
# Bulk Modulus (GPa) = 29.77485 34.60785 32.19135
# Shear Modulus (GPa) = 24.47529 30.03950 27.25740
#
# Velocity S-wave (km/s) = 3.27926 3.63294 3.46062
# Velocity P-wave (km/s) = 5.23641 5.72740 5.48740
#
# Compressibility (1/GPa) = 0.03358539
#
# Stress axis : x y z
#
# Youngs Moduli (GPa) = 47.25547 75.91855 49.33415
#
# Poissons Ratio (x) = 0.46223 0.01113
# Poissons Ratio (y) = 0.28772 0.20695
# Poissons Ratio (z) = 0.01066 0.31847
#
# Static dielectric constant tensor:
#      x y z
#    x 1.804000 0.000000 0.000000 
#    y 0.000000 1.831440 0.000000 
#    z 0.000000 0.000000 1.947440 
# 
# From -- ./inp_files/4644.got.cif
#   From: 2010.05.17/outbox.cif.g08.bks.cpg/sg36_3_cif.got.tgz:4644.got - 2010.06.03 17:41:39.
