data_PCOD9353704
_publ_section_title
;
Structure prediction by ZEFSAII (Michael W. Deem and Ramdas Pophale) SiO2 
 PCOD9353704
Probable space group: C C C 2
;
_chemical_formula_sum "Si O2"
_cell_formula_units_Z 48
_cell_length_a 5.474258
_cell_length_b 27.434100
_cell_length_c 13.414436
_cell_angle_alpha 90.000000
_cell_angle_beta 90.000000
_cell_angle_gamma 90.000000
_cell_volume 2014.597993
_symmetry_space_group_name_H-M "C C C 2"
_symmetry_group_IT_number 37
_symmetry_cell_setting 'orthorhombic'
loop_
_space_group_symop_operation_xyz
x,y,z
-x,-y,z
-x,y,1/2+z
x,-y,1/2+z
1/2+x,1/2+y,z
1/2-x,1/2-y,z
1/2-x,1/2+y,1/2+z
1/2+x,1/2-y,1/2+z
loop_
_atom_site_type_symbol
_atom_site_label
_atom_site_fract_x
_atom_site_fract_y
_atom_site_fract_z
Si Si1 0.133542 0.102261 0.613680
Si Si2 0.641062 0.643068 0.842051
Si Si3 0.000000 0.500000 0.907457
Si Si4 0.641062 0.143068 0.602472
Si Si5 0.000000 0.000000 0.037065
Si Si6 0.750000 0.750000 0.787767
Si Si7 0.750000 0.250000 0.656755
Si Si8 0.133542 0.397739 0.330842
O O1 0.135250 0.124758 0.725340
O O2 0.381763 0.123005 0.567995
O O3 0.887713 0.120343 0.562653
O O4 0.100518 0.044338 0.605134
O O5 0.698932 0.700443 0.847173
O O6 0.381763 0.623005 0.876528
O O7 0.887713 0.620343 0.881870
O O8 0.750000 0.512083 0.972261
O O9 0.899481 0.455662 0.839389
O O10 0.698932 0.200443 0.597349
O O11 0.635250 0.124758 0.719183
O O12 0.500000 0.750000 0.722261
#
# Coordination Sequence:
#
# PCOD9353704 Si02
#       8
#     8   8   4   8   4   4   4   8
#     4  10  20  35  54  80 113 144 186 233 286 336
#     4  10  19  32  57  92 117 141 168 224 299 352
#     4  12  26  42  56  74 104 158 212 248 278 322
#     4  10  19  32  57  92 117 141 168 224 299 352
#     4  12  26  42  56  74 104 158 212 248 278 322
#     4  12  16  30  52  92 132 136 164 202 292 382
#     4  12  16  30  52  92 132 136 164 202 292 382
#     4  10  20  35  54  80 113 144 186 233 286 336
#
# _framework density 23.826091999999999
#
# number of rings (size 3 to 8) (size 9 to 14) (size 15 to 20)
#    0.000    1.333    6.667    2.000    0.000    5.333 
#    0.000    0.000    0.000    0.000    0.000   28.000 
#    0.000    0.000    0.000    0.000    0.000    0.000 
#
# Total GULP energy -133747.950240 kJ/mol
# GULP energy per Si atom -5572.831260 kJ/mol
# Density = 2.377186 g / cm^3
# Si number density = 23.826092 Si / 1000 Ang^3
#
#
#
# Elastic Constant Matrix: (Units=GPa)
#
#
# Indices 1 2 3 4 5 6 
#
# 1 291.2671 63.7818 50.5621 0.0000 0.0000 0.0000
# 2 63.7818 225.6547 19.8189 0.0000 0.0000 0.0000
# 3 50.5621 19.8189 91.6458 0.0000 0.0000 0.0000
# 4 0.0000 0.0000 0.0000 -108.0036 0.0000 0.0000
# 5 0.0000 0.0000 0.0000 0.0000 50.9033 0.0000
# 6 0.0000 0.0000 0.0000 0.0000 0.0000 53.9570
#
#
#
# Elastic Compliance Matrix: (Units=1/GPa)
#
#
# Indices 1 2 3 4 5 6 
#
# 1 0.003988 -0.000952 -0.001994 0.000000 0.000000 0.000000
# 2 -0.000952 0.004745 -0.000501 0.000000 0.000000 0.000000
# 3 -0.001994 -0.000501 0.012120 0.000000 0.000000 0.000000
# 4 0.000000 0.000000 0.000000 -0.009259 0.000000 0.000000
# 5 0.000000 0.000000 0.000000 0.000000 0.019645 0.000000
# 6 0.000000 0.000000 0.000000 0.000000 0.000000 0.018533
#
#
# Mechanical properties :
#
#
# Convention : Reuss Voigt Hill
#
# Bulk Modulus (GPa) = 71.64131 97.43259 84.53695
# Shear Modulus (GPa) = 81.54035 30.99830 56.26933
#
# Velocity S-wave (km/s) = 5.85640 3.61088 4.86497
# Velocity P-wave (km/s) = 8.70997 7.63981 8.19238
#
# Compressibility (1/GPa) = 0.01395843
#
# Stress axis : x y z
#
# Youngs Moduli (GPa) = 250.75511 210.76445 82.50713
#
# Poissons Ratio (x) = 0.20066 0.16455
# Poissons Ratio (y) = 0.23873 0.04132
# Poissons Ratio (z) = 0.50009 0.10555
#
# Static dielectric constant tensor:
#      x y z
#    x 1.901500 0.000000 0.000000 
#    y 0.000000 2.080670 0.000000 
#    z 0.000000 0.000000 1.935550 
# 
# From -- ./inp_files/9817.got.cif
#   From: 2010.05.17/outbox.cif.g08.bks.cpg/sg37_5_cif.got.tgz:9817.got - 2010.06.03 17:53:42.
