data_PCOD9353282
_publ_section_title
;
Structure prediction by ZEFSAII (Michael W. Deem and Ramdas Pophale) SiO2 
 PCOD9353282
Probable space group: C M C 21
;
_chemical_formula_sum "Si O2"
_cell_formula_units_Z 64
_cell_length_a 7.392689
_cell_length_b 26.355448
_cell_length_c 13.189670
_cell_angle_alpha 90.000000
_cell_angle_beta 90.000000
_cell_angle_gamma 90.000000
_cell_volume 2569.844050
_symmetry_space_group_name_H-M "C M C 21"
_symmetry_group_IT_number 36
_symmetry_cell_setting 'orthorhombic'
loop_
_space_group_symop_operation_xyz
x,y,z
-x,-y,1/2+z
x,-y,1/2+z
-x,y,z
1/2+x,1/2+y,z
1/2-x,1/2-y,1/2+z
1/2+x,1/2-y,1/2+z
1/2-x,1/2+y,z
loop_
_atom_site_type_symbol
_atom_site_label
_atom_site_fract_x
_atom_site_fract_y
_atom_site_fract_z
Si Si1 0.214161 0.569419 0.215080
Si Si2 0.779358 0.540375 0.651046
Si Si3 0.279363 0.957884 0.934161
Si Si4 0.780024 0.570229 0.874242
Si Si5 0.720817 0.179121 0.875143
Si Si6 0.784603 0.711143 0.653540
Si Si7 0.283417 0.320420 0.713249
Si Si8 0.215268 0.210499 0.432406
O O1 0.279190 0.518671 0.160094
O O2 0.285270 0.568357 0.331024
O O3 0.239763 0.624738 0.169130
O O4 0.000000 0.561857 0.221377
O O5 0.718092 0.561709 0.543239
O O6 0.725716 0.566225 0.755920
O O7 0.000000 0.542258 0.650329
O O8 0.500000 0.955610 0.933482
O O9 0.226903 0.017301 0.924704
O O10 0.718514 0.624534 0.915393
O O11 0.000000 0.570063 0.877956
O O12 0.500000 0.179183 0.879149
O O13 0.776492 0.184299 0.756693
O O14 0.782661 0.231024 0.927704
O O15 0.715666 0.769459 0.658861
O O16 0.750803 0.688505 0.543102
O O17 0.000000 0.712724 0.663550
O O18 0.500000 0.317500 0.713941
O O19 0.216670 0.316694 0.830492
O O20 0.000000 0.212416 0.421462
#
# Coordination Sequence:
#
# PCOD9353282 Si02
#       8
#     8   8   8   8   8   8   8   8
#     4   9  17  28  45  69  89 112 154 192 216 262
#     4   8  14  24  38  62  94 115 133 178 233 262
#     4   8  14  24  38  62  94 115 133 178 233 262
#     4   8  13  22  37  57  83 114 141 167 211 265
#     4   8  15  28  44  63  89 120 149 177 219 275
#     4   9  18  32  48  67  91 118 150 186 224 268
#     4   9  19  34  47  63  95 130 150 178 232 280
#     4   9  18  32  48  67  91 118 150 186 224 268
#
# _framework density 24.904235
#
# number of rings (size 3 to 8) (size 9 to 14) (size 15 to 20)
#    0.000    3.500    0.000    3.000    0.000    3.000 
#    0.000    6.875    0.000    0.750    0.000    7.000 
#    0.000    0.000    0.000    0.000    0.000    0.000 
#
# Total GULP energy -178583.600711 kJ/mol
# GULP energy per Si atom -5580.737522 kJ/mol
# Density = 2.484755 g / cm^3
# Si number density = 24.904235 Si / 1000 Ang^3
#
#
#
# Elastic Constant Matrix: (Units=GPa)
#
#
# Indices 1 2 3 4 5 6 
#
# 1 81.3236 -7.8838 -5.8187 0.0000 0.0000 0.0000
# 2 -7.8838 114.4307 -6.7383 0.0000 0.0000 0.0000
# 3 -5.8187 -6.7383 114.4574 0.0000 0.0000 0.0000
# 4 0.0000 0.0000 0.0000 -12.8837 0.0000 0.0000
# 5 0.0000 0.0000 0.0000 0.0000 0.4529 0.0000
# 6 0.0000 0.0000 0.0000 0.0000 0.0000 7.8852
#
#
#
# Elastic Compliance Matrix: (Units=1/GPa)
#
#
# Indices 1 2 3 4 5 6 
#
# 1 0.012432 0.000897 0.000685 0.000000 0.000000 0.000000
# 2 0.000897 0.008834 0.000566 0.000000 0.000000 0.000000
# 3 0.000685 0.000566 0.008805 0.000000 0.000000 0.000000
# 4 0.000000 0.000000 0.000000 -0.077618 0.000000 0.000000
# 5 0.000000 0.000000 0.000000 0.000000 2.207926 0.000000
# 6 0.000000 0.000000 0.000000 0.000000 0.000000 0.126819
#
#
# Mechanical properties :
#
#
# Convention : Reuss Voigt Hill
#
# Bulk Modulus (GPa) = 29.09833 29.92558 29.51195
# Shear Modulus (GPa) = 2.17926 21.13439 11.65682
#
# Velocity S-wave (km/s) = 0.93646 2.91628 2.16583
# Velocity P-wave (km/s) = 3.58869 4.83549 4.25797
#
# Compressibility (1/GPa) = 0.03436624
#
# Stress axis : x y z
#
# Youngs Moduli (GPa) = 80.43437 113.19880 113.57193
#
# Poissons Ratio (x) = -0.10152 -0.07778
# Poissons Ratio (y) = -0.07214 -0.06424
# Poissons Ratio (z) = -0.05508 -0.06403
#
# Static dielectric constant tensor:
#      x y z
#    x 1.975950 0.000000 0.000000 
#    y 0.000000 1.962130 0.000000 
#    z 0.000000 0.000000 1.960920 
# 
# From -- ./inp_files/11218.got.cif
#   From: 2010.05.17/outbox.cif.g08.bks.cpg/sg36_6_cif.got.tgz:11218.got - 2010.06.03 17:41:39.
