data_PCOD9353924
_publ_section_title
;
Structure prediction by ZEFSAII (Michael W. Deem and Ramdas Pophale) SiO2 
 PCOD9353924
Probable space group: C C C 2
;
_chemical_formula_sum "Si O2"
_cell_formula_units_Z 64
_cell_length_a 5.547927
_cell_length_b 26.925485
_cell_length_c 23.091820
_cell_angle_alpha 90.000000
_cell_angle_beta 90.000000
_cell_angle_gamma 90.000000
_cell_volume 3449.470509
_symmetry_space_group_name_H-M "C C C 2"
_symmetry_group_IT_number 37
_symmetry_cell_setting 'orthorhombic'
loop_
_space_group_symop_operation_xyz
x,y,z
-x,-y,z
-x,y,1/2+z
x,-y,1/2+z
1/2+x,1/2+y,z
1/2-x,1/2-y,z
1/2-x,1/2+y,1/2+z
1/2+x,1/2-y,1/2+z
loop_
_atom_site_type_symbol
_atom_site_label
_atom_site_fract_x
_atom_site_fract_y
_atom_site_fract_z
Si Si1 0.627044 0.862148 0.342820
Si Si2 0.242763 0.472439 0.518303
Si Si3 0.910975 0.369477 0.038652
Si Si4 0.368711 0.549823 0.891890
Si Si5 0.500886 0.221208 0.257796
Si Si6 0.498378 0.221417 0.618725
Si Si7 0.643841 0.695909 0.440999
Si Si8 0.258550 0.628360 0.443668
O O1 0.742929 0.917181 0.342055
O O2 0.526260 0.832564 0.288149
O O3 0.811362 0.825742 0.376710
O O4 0.421743 0.867933 0.390705
O O5 0.500000 0.500000 0.525679
O O6 0.244587 0.418522 0.549118
O O7 0.210962 0.464397 0.448317
O O8 0.000000 0.500000 0.538638
O O9 0.981230 0.332632 0.089676
O O10 0.777465 0.336761 0.989572
O O11 0.145629 0.387941 0.003979
O O12 0.500000 0.500000 0.871209
O O13 0.552118 0.587750 0.922889
O O14 0.250000 0.250000 0.271528
O O15 0.507998 0.216871 0.188273
O O16 0.750000 0.250000 0.275614
O O17 0.250000 0.250000 0.601203
O O18 0.750000 0.250000 0.603241
O O19 0.750000 0.750000 0.444130
O O20 0.366697 0.683545 0.452662
#
# Coordination Sequence:
#
# PCOD9353924 Si02
#       8
#     8   8   8   8   8   8   8   8
#     4  10  21  32  54  81 110 154 193 236 287 345
#     4  11  22  35  55  81 117 153 189 230 281 343
#     4  11  21  34  55  83 117 150 191 237 286 350
#     4  10  20  33  52  79 120 148 194 232 285 348
#     4  10  23  42  61  83 113 151 199 242 287 346
#     4  10  24  41  61  87 112 153 197 241 293 346
#     4  10  21  31  46  79 121 153 185 224 290 351
#     4  10  20  34  48  84 115 151 194 227 297 349
#
# _framework density 18.553571999999999
#
# number of rings (size 3 to 8) (size 9 to 14) (size 15 to 20)
#    0.000    1.750    3.750    2.250    8.750    1.000 
#    0.000    0.000    0.000    0.000    3.250    0.875 
#    0.000    0.000    0.000    0.000    0.000    0.000 
#
# Total GULP energy -178222.127957 kJ/mol
# GULP energy per Si atom -5569.441499 kJ/mol
# Density = 1.851134 g / cm^3
# Si number density = 18.553572 Si / 1000 Ang^3
#
#
#
# Elastic Constant Matrix: (Units=GPa)
#
#
# Indices 1 2 3 4 5 6 
#
# 1 102.5956 59.8387 22.8070 0.0000 0.0000 0.0000
# 2 59.8387 155.2325 33.0197 0.0000 0.0000 0.0000
# 3 22.8070 33.0197 38.5404 0.0000 0.0000 0.0000
# 4 0.0000 0.0000 0.0000 16.0042 0.0000 0.0000
# 5 0.0000 0.0000 0.0000 0.0000 7.0182 0.0000
# 6 0.0000 0.0000 0.0000 0.0000 0.0000 36.3005
#
#
#
# Elastic Compliance Matrix: (Units=1/GPa)
#
#
# Indices 1 2 3 4 5 6 
#
# 1 0.013105 -0.004160 -0.004191 0.000000 0.000000 0.000000
# 2 -0.004160 0.009198 -0.005419 0.000000 0.000000 0.000000
# 3 -0.004191 -0.005419 0.033069 0.000000 0.000000 0.000000
# 4 0.000000 0.000000 0.000000 0.062484 0.000000 0.000000
# 5 0.000000 0.000000 0.000000 0.000000 0.142486 0.000000
# 6 0.000000 0.000000 0.000000 0.000000 0.000000 0.027548
#
#
# Mechanical properties :
#
#
# Convention : Reuss Voigt Hill
#
# Bulk Modulus (GPa) = 35.92860 58.63328 47.28094
# Shear Modulus (GPa) = 15.39844 23.91145 19.65494
#
# Velocity S-wave (km/s) = 2.88400 3.59385 3.25831
# Velocity P-wave (km/s) = 5.52239 6.99227 6.30034
#
# Compressibility (1/GPa) = 0.02783298
#
# Stress axis : x y z
#
# Youngs Moduli (GPa) = 76.30611 108.71601 30.23944
#
# Poissons Ratio (x) = 0.45229 0.12673
# Poissons Ratio (y) = 0.31746 0.16386
# Poissons Ratio (z) = 0.31979 0.58911
#
# Static dielectric constant tensor:
#      x y z
#    x 1.791540 0.000000 0.000000 
#    y 0.000000 1.715620 0.000000 
#    z 0.000000 0.000000 1.604950 
# 
# From -- ./inp_files/16022.got.cif
#   From: 2010.05.17/outbox.cif.g08.bks.cpg/sg37_9_cif.got.tgz:16022.got - 2010.06.03 17:53:42.
