data_PCOD9353794
_publ_section_title
;
Structure prediction by ZEFSAII (Michael W. Deem and Ramdas Pophale) SiO2 
 PCOD9353794
Probable space group: C C C 2
;
_chemical_formula_sum "Si O2"
_cell_formula_units_Z 64
_cell_length_a 8.133454
_cell_length_b 15.098900
_cell_length_c 22.068317
_cell_angle_alpha 90.000000
_cell_angle_beta 90.000000
_cell_angle_gamma 90.000000
_cell_volume 2710.126341
_symmetry_space_group_name_H-M "C C C 2"
_symmetry_group_IT_number 37
_symmetry_cell_setting 'orthorhombic'
loop_
_space_group_symop_operation_xyz
x,y,z
-x,-y,z
-x,y,1/2+z
x,-y,1/2+z
1/2+x,1/2+y,z
1/2-x,1/2-y,z
1/2-x,1/2+y,1/2+z
1/2+x,1/2-y,1/2+z
loop_
_atom_site_type_symbol
_atom_site_label
_atom_site_fract_x
_atom_site_fract_y
_atom_site_fract_z
Si Si1 0.511821 0.161619 0.246000
Si Si2 0.186308 0.406057 0.583504
Si Si3 0.147967 0.388156 0.120117
Si Si4 0.687703 0.523624 0.459426
Si Si5 0.003644 0.898388 0.151817
Si Si6 0.367598 0.640228 0.276948
Si Si7 0.285078 0.153756 0.909626
Si Si8 0.895530 0.409036 0.857653
O O1 0.438651 0.145657 0.181122
O O2 0.574580 0.258713 0.264730
O O3 0.685081 0.110603 0.254265
O O4 0.371677 0.127438 0.291255
O O5 0.164933 0.504670 0.613337
O O6 0.257731 0.422205 0.517221
O O7 0.326538 0.358895 0.624465
O O8 0.003790 0.365553 0.575549
O O9 0.336889 0.355811 0.124786
O O10 0.500000 0.500000 0.462011
O O11 0.774446 0.427804 0.455300
O O12 0.739494 0.574433 0.398540
O O13 0.014323 0.902061 0.225284
O O14 0.000000 0.000000 0.130050
O O15 0.334856 0.633873 0.350345
O O16 0.250000 0.250000 0.935059
O O17 0.472208 0.156626 0.886750
O O18 0.000000 0.500000 0.854454
#
# Coordination Sequence:
#
# PCOD9353794 Si02
#       8
#     8   8   8   8   8   8   8   8
#     4  10  19  36  60  93 127 169 205 259 340 407
#     4  10  22  40  61  86 127 168 214 278 328 377
#     4  10  21  33  63  89 115 163 208 260 325 386
#     4  11  24  41  65  94 130 174 234 289 330 393
#     4  10  21  37  60  93 123 159 213 268 324 389
#     4  10  19  37  62  90 135 169 199 269 342 404
#     4  10  20  40  66  94 133 179 211 268 349 409
#     4   9  20  34  63  95 125 161 221 264 326 404
#
# _framework density 23.615134999999999
#
# number of rings (size 3 to 8) (size 9 to 14) (size 15 to 20)
#    0.000    2.000    3.750    1.125    7.000    5.000 
#    0.000    0.625    8.250    1.500    0.000    0.000 
#    0.000    0.000    0.000    0.000    0.000    0.000 
#
# Total GULP energy -178219.263694 kJ/mol
# GULP energy per Si atom -5569.351990 kJ/mol
# Density = 2.356139 g / cm^3
# Si number density = 23.615135 Si / 1000 Ang^3
#
#
#
# Elastic Constant Matrix: (Units=GPa)
#
#
# Indices 1 2 3 4 5 6 
#
# 1 143.7145 -7.0043 33.7942 0.0000 0.0000 0.0000
# 2 -7.0043 15.1663 -2.2072 0.0000 0.0000 0.0000
# 3 33.7942 -2.2072 78.2929 0.0000 0.0000 0.0000
# 4 0.0000 0.0000 0.0000 10.2043 0.0000 0.0000
# 5 0.0000 0.0000 0.0000 0.0000 23.4832 0.0000
# 6 0.0000 0.0000 0.0000 0.0000 0.0000 20.3356
#
#
#
# Elastic Compliance Matrix: (Units=1/GPa)
#
#
# Indices 1 2 3 4 5 6 
#
# 1 0.007892 0.003162 -0.003318 0.000000 0.000000 0.000000
# 2 0.003162 0.067474 0.000537 0.000000 0.000000 0.000000
# 3 -0.003318 0.000537 0.014220 0.000000 0.000000 0.000000
# 4 0.000000 0.000000 0.000000 0.097998 0.000000 0.000000
# 5 0.000000 0.000000 0.000000 0.000000 0.042584 0.000000
# 6 0.000000 0.000000 0.000000 0.000000 0.000000 0.049175
#
#
# Mechanical properties :
#
#
# Convention : Reuss Voigt Hill
#
# Bulk Modulus (GPa) = 11.06804 31.81545 21.44175
# Shear Modulus (GPa) = 16.19721 24.97738 20.58729
#
# Velocity S-wave (km/s) = 2.62178 3.25574 2.95580
# Velocity P-wave (km/s) = 3.72317 5.25688 4.55504
#
# Compressibility (1/GPa) = 0.09035022
#
# Stress axis : x y z
#
# Youngs Moduli (GPa) = 126.70303 14.82048 70.32512
#
# Poissons Ratio (x) = -0.04687 0.23331
# Poissons Ratio (y) = -0.40066 -0.03779
# Poissons Ratio (z) = 0.42034 -0.00796
#
# Static dielectric constant tensor:
#      x y z
#    x 2.019220 0.000000 0.000000 
#    y 0.000000 2.062540 0.000000 
#    z 0.000000 0.000000 1.931540 
# 
# From -- ./inp_files/16535.got.cif
#   From: 2010.05.17/outbox.cif.g08.bks.cpg/sg37_9_cif.got.tgz:16535.got - 2010.06.03 17:53:42.
