data_PCOD9353737
_publ_section_title
;
Structure prediction by ZEFSAII (Michael W. Deem and Ramdas Pophale) SiO2 
 PCOD9353737
Probable space group: C C C 2
;
_chemical_formula_sum "Si O2"
_cell_formula_units_Z 40
_cell_length_a 15.472752
_cell_length_b 18.484812
_cell_length_c 5.418844
_cell_angle_alpha 90.000000
_cell_angle_beta 90.000000
_cell_angle_gamma 90.000000
_cell_volume 1549.848514
_symmetry_space_group_name_H-M "C C C 2"
_symmetry_group_IT_number 37
_symmetry_cell_setting 'orthorhombic'
loop_
_space_group_symop_operation_xyz
x,y,z
-x,-y,z
-x,y,1/2+z
x,-y,1/2+z
1/2+x,1/2+y,z
1/2-x,1/2-y,z
1/2-x,1/2+y,1/2+z
1/2+x,1/2-y,1/2+z
loop_
_atom_site_type_symbol
_atom_site_label
_atom_site_fract_x
_atom_site_fract_y
_atom_site_fract_z
Si Si1 0.286051 0.834240 0.275830
Si Si2 0.358521 0.004812 0.774979
Si Si3 0.283349 0.624027 0.778729
Si Si4 0.468306 0.395199 0.488788
Si Si5 0.465304 0.774776 0.114209
O O1 0.231064 0.830752 0.527566
O O2 0.373000 0.788031 0.243204
O O3 0.315855 0.917055 0.277113
O O4 0.235600 0.828322 0.019978
O O5 0.283238 0.943652 0.773300
O O6 0.408873 0.000903 0.524742
O O7 0.379465 0.596990 0.835893
O O8 0.534161 0.423468 0.273803
O O9 0.482760 0.309611 0.551139
O O10 0.528569 0.805692 0.331942
#
# Coordination Sequence:
#
# PCOD9353737 Si02
#       5
#     8   8   8   8   8
#     4  10  19  34  58  82 109 145 190 238 287 342
#     4   8  16  30  52  76 104 138 178 228 284 332
#     4  10  19  34  58  82 109 145 190 238 287 342
#     4  10  21  37  55  79 114 151 186 229 284 343
#     4  10  21  37  55  79 114 151 186 229 284 343
#
# _framework density 25.808975
#
# number of rings (size 3 to 8) (size 9 to 14) (size 15 to 20)
#    0.000    2.400    0.000    2.400    0.000    0.800 
#    0.000    2.000    0.000   64.800    0.000    0.000 
#    0.000    0.000    0.000    0.000    0.000    0.000 
#
# Total GULP energy -111459.832674 kJ/mol
# GULP energy per Si atom -5572.991634 kJ/mol
# Density = 2.575023 g / cm^3
# Si number density = 25.808975 Si / 1000 Ang^3
#
#
#
# Elastic Constant Matrix: (Units=GPa)
#
#
# Indices 1 2 3 4 5 6 
#
# 1 92.7967 22.2134 52.4572 0.0000 0.0000 0.0000
# 2 22.2134 81.5820 44.3664 0.0000 0.0000 0.0000
# 3 52.4572 44.3664 307.1271 0.0000 0.0000 0.0000
# 4 0.0000 0.0000 0.0000 -19.4307 0.0000 0.0000
# 5 0.0000 0.0000 0.0000 0.0000 41.4718 0.0000
# 6 0.0000 0.0000 0.0000 0.0000 0.0000 303.2143
#
#
#
# Elastic Compliance Matrix: (Units=1/GPa)
#
#
# Indices 1 2 3 4 5 6 
#
# 1 0.012348 -0.002404 -0.001762 0.000000 0.000000 0.000000
# 2 -0.002404 0.013771 -0.001579 0.000000 0.000000 0.000000
# 3 -0.001762 -0.001579 0.003785 0.000000 0.000000 0.000000
# 4 0.000000 0.000000 0.000000 -0.051465 0.000000 0.000000
# 5 0.000000 0.000000 0.000000 0.000000 0.024113 0.000000
# 6 0.000000 0.000000 0.000000 0.000000 0.000000 0.003298
#
#
# Mechanical properties :
#
#
# Convention : Reuss Voigt Hill
#
# Bulk Modulus (GPa) = 54.30500 79.95333 67.12917
# Shear Modulus (GPa) = 212.98584 89.21567 151.10076
#
# Velocity S-wave (km/s) = 9.09412 5.88581 7.65982
# Velocity P-wave (km/s) = 11.46113 8.78843 10.21259
#
# Compressibility (1/GPa) = 0.01841451
#
# Stress axis : x y z
#
# Youngs Moduli (GPa) = 80.98759 72.61797 264.20608
#
# Poissons Ratio (x) = 0.17457 0.46545
# Poissons Ratio (y) = 0.19469 0.41709
# Poissons Ratio (z) = 0.14268 0.11464
#
# Static dielectric constant tensor:
#      x y z
#    x 2.071130 0.000000 0.000000 
#    y 0.000000 2.020720 0.000000 
#    z 0.000000 0.000000 2.174280 
# 
# From -- ./inp_files/521.got.cif
#   From: 2010.05.17/outbox.cif.g08.bks.cpg/sg37_1_cif.got.tgz:521.got - 2010.06.03 17:53:42.
