data_PCOD9353975
_publ_section_title
;
Structure prediction by ZEFSAII (Michael W. Deem and Ramdas Pophale) SiO2 
 PCOD9353975
Probable space group: C C C 2
;
_chemical_formula_sum "Si O2"
_cell_formula_units_Z 64
_cell_length_a 23.437343
_cell_length_b 14.294878
_cell_length_c 9.765620
_cell_angle_alpha 90.000000
_cell_angle_beta 90.000000
_cell_angle_gamma 90.000000
_cell_volume 3271.814329
_symmetry_space_group_name_H-M "C C C 2"
_symmetry_group_IT_number 37
_symmetry_cell_setting 'orthorhombic'
loop_
_space_group_symop_operation_xyz
x,y,z
-x,-y,z
-x,y,1/2+z
x,-y,1/2+z
1/2+x,1/2+y,z
1/2-x,1/2-y,z
1/2-x,1/2+y,1/2+z
1/2+x,1/2-y,1/2+z
loop_
_atom_site_type_symbol
_atom_site_label
_atom_site_fract_x
_atom_site_fract_y
_atom_site_fract_z
Si Si1 0.878826 0.702289 0.596090
Si Si2 0.723914 0.089377 0.989878
Si Si3 0.937707 0.392736 0.858335
Si Si4 0.724953 0.091459 0.667377
Si Si5 0.072199 0.610574 0.353360
Si Si6 0.379112 0.792143 0.615206
Si Si7 0.638578 0.587769 0.168504
Si Si8 0.139354 0.095241 0.493962
O O1 0.815848 0.671502 0.546822
O O2 0.922598 0.637538 0.511492
O O3 0.890736 0.673926 0.751333
O O4 0.886834 0.810121 0.556124
O O5 0.791590 0.104898 0.005786
O O6 0.707812 0.997646 0.076457
O O7 0.713243 0.076350 0.828442
O O8 0.918277 0.499610 0.836328
O O9 0.902770 0.324336 0.761258
O O10 0.004488 0.379933 0.830889
O O11 0.687354 0.178168 0.616305
O O12 0.792883 0.100602 0.655094
O O13 0.088352 0.646495 0.503470
O O14 0.387437 0.681637 0.603874
O O15 0.626253 0.582952 0.331903
O O16 0.622871 0.494965 0.084349
#
# Coordination Sequence:
#
# PCOD9353975 Si02
#       8
#     8   8   8   8   8   8   8   8
#     4  12  22  38  63  89 119 161 196 240 298 356
#     4  10  20  35  58  89 123 158 194 237 292 356
#     4  11  22  44  62  87 121 155 192 248 302 355
#     4  10  20  35  58  89 123 158 194 237 292 356
#     4  11  26  38  62  93 121 149 198 246 300 359
#     4  12  22  38  63  89 119 161 196 240 298 356
#     4  10  22  40  61  88 122 160 200 243 289 345
#     4  10  22  40  61  88 122 160 200 243 289 345
#
# _framework density 19.561011000000001
#
# number of rings (size 3 to 8) (size 9 to 14) (size 15 to 20)
#    0.000    1.250    2.500    3.750    3.500    4.000 
#    0.000    1.250    0.000    4.500    0.000    0.000 
#    0.000    0.000    0.000    0.000    0.000    0.000 
#
# Total GULP energy -178764.005855 kJ/mol
# GULP energy per Si atom -5586.375183 kJ/mol
# Density = 1.951649 g / cm^3
# Si number density = 19.561011 Si / 1000 Ang^3
#
#
#
# Elastic Constant Matrix: (Units=GPa)
#
#
# Indices 1 2 3 4 5 6 
#
# 1 27.1173 5.9591 -4.4511 0.0000 0.0000 0.0000
# 2 5.9591 133.8860 19.8775 0.0000 0.0000 0.0000
# 3 -4.4511 19.8775 43.5859 0.0000 0.0000 0.0000
# 4 0.0000 0.0000 0.0000 28.0786 0.0000 0.0000
# 5 0.0000 0.0000 0.0000 0.0000 9.9328 0.0000
# 6 0.0000 0.0000 0.0000 0.0000 0.0000 13.6681
#
#
#
# Elastic Compliance Matrix: (Units=1/GPa)
#
#
# Indices 1 2 3 4 5 6 
#
# 1 0.038239 -0.002447 0.005021 0.000000 0.000000 0.000000
# 2 -0.002447 0.008168 -0.003975 0.000000 0.000000 0.000000
# 3 0.005021 -0.003975 0.025269 0.000000 0.000000 0.000000
# 4 0.000000 0.000000 0.000000 0.035614 0.000000 0.000000
# 5 0.000000 0.000000 0.000000 0.000000 0.100677 0.000000
# 6 0.000000 0.000000 0.000000 0.000000 0.000000 0.073163
#
#
# Mechanical properties :
#
#
# Convention : Reuss Voigt Hill
#
# Bulk Modulus (GPa) = 14.51943 27.48447 21.00195
# Shear Modulus (GPa) = 16.29248 22.54949 19.42098
#
# Velocity S-wave (km/s) = 2.88914 3.39894 3.15436
# Velocity P-wave (km/s) = 4.30909 5.43000 4.90169
#
# Compressibility (1/GPa) = 0.06887322
#
# Stress axis : x y z
#
# Youngs Moduli (GPa) = 26.15145 122.42708 39.57449
#
# Poissons Ratio (x) = 0.29963 -0.19871
# Poissons Ratio (y) = 0.06400 0.15731
# Poissons Ratio (z) = -0.13131 0.48665
#
# Static dielectric constant tensor:
#      x y z
#    x 1.696890 0.000000 0.000000 
#    y 0.000000 1.673180 0.000000 
#    z 0.000000 0.000000 1.647340 
# 
# From -- ./inp_files/4660.got.cif
#   From: 2010.05.17/outbox.cif.g08.bks.cpg/sg37_3_cif.got.tgz:4660.got - 2010.06.03 17:53:42.
