data_PCOD9353777
_publ_section_title
;
Structure prediction by ZEFSAII (Michael W. Deem and Ramdas Pophale) SiO2 
 PCOD9353777
Probable space group: C C C 2
;
_chemical_formula_sum "Si O2"
_cell_formula_units_Z 48
_cell_length_a 8.845523
_cell_length_b 14.882009
_cell_length_c 17.723617
_cell_angle_alpha 90.000000
_cell_angle_beta 90.000000
_cell_angle_gamma 90.000000
_cell_volume 2333.121928
_symmetry_space_group_name_H-M "C C C 2"
_symmetry_group_IT_number 37
_symmetry_cell_setting 'orthorhombic'
loop_
_space_group_symop_operation_xyz
x,y,z
-x,-y,z
-x,y,1/2+z
x,-y,1/2+z
1/2+x,1/2+y,z
1/2-x,1/2-y,z
1/2-x,1/2+y,1/2+z
1/2+x,1/2-y,1/2+z
loop_
_atom_site_type_symbol
_atom_site_label
_atom_site_fract_x
_atom_site_fract_y
_atom_site_fract_z
Si Si1 0.411903 0.272610 0.847640
Si Si2 0.755113 0.150369 0.625176
Si Si3 0.434750 0.598577 0.204538
Si Si4 0.877974 0.919454 0.402615
Si Si5 0.320703 0.526134 0.060917
Si Si6 0.844055 0.656004 0.285778
O O1 0.250000 0.250000 0.880349
O O2 0.391683 0.338632 0.774408
O O3 0.522201 0.329024 0.901164
O O4 0.496877 0.182369 0.821474
O O5 0.750000 0.250000 0.592942
O O6 0.647272 0.134897 0.697439
O O7 0.921839 0.143415 0.663099
O O8 0.736465 0.068352 0.568687
O O9 0.500000 0.500000 0.227547
O O10 0.310139 0.580769 0.139484
O O11 0.791948 0.926696 0.482110
O O12 0.756989 0.912305 0.334670
O O13 0.000000 0.000000 0.395641
O O14 0.500000 0.500000 0.058419
O O15 0.750000 0.750000 0.288453
#
# Coordination Sequence:
#
# PCOD9353777 Si02
#       6
#     8   8   8   8   8   8
#     4  11  21  34  55  87 117 146 194 246 296 333
#     4   9  13  27  55  89 110 137 190 237 275 336
#     4   9  16  31  56  83 110 145 188 230 274 350
#     4  10  19  36  57  83 109 151 202 230 279 361
#     4   8  18  29  52  88 107 146 191 230 280 345
#     4   9  17  31  57  86 107 148 190 234 287 343
#
# _framework density 20.573293
#
# number of rings (size 3 to 8) (size 9 to 14) (size 15 to 20)
#    0.000    3.000    5.000    0.500    2.333    0.000 
#    0.000   10.833    0.000    0.000   17.333    0.000 
#    0.000    0.000    0.000    0.000    0.000    0.000 
#
# Total GULP energy -133688.122084 kJ/mol
# GULP energy per Si atom -5570.338420 kJ/mol
# Density = 2.052647 g / cm^3
# Si number density = 20.573293 Si / 1000 Ang^3
#
#
#
# Elastic Constant Matrix: (Units=GPa)
#
#
# Indices 1 2 3 4 5 6 
#
# 1 47.6088 20.2627 1.4804 0.0000 0.0000 0.0000
# 2 20.2627 76.8268 41.7509 0.0000 0.0000 0.0000
# 3 1.4804 41.7509 103.0263 0.0000 0.0000 0.0000
# 4 0.0000 0.0000 0.0000 16.0777 0.0000 0.0000
# 5 0.0000 0.0000 0.0000 0.0000 4.9942 0.0000
# 6 0.0000 0.0000 0.0000 0.0000 0.0000 29.1351
#
#
#
# Elastic Compliance Matrix: (Units=1/GPa)
#
#
# Indices 1 2 3 4 5 6 
#
# 1 0.024311 -0.007979 0.002884 0.000000 0.000000 0.000000
# 2 -0.007979 0.019311 -0.007711 0.000000 0.000000 0.000000
# 3 0.002884 -0.007711 0.012790 0.000000 0.000000 0.000000
# 4 0.000000 0.000000 0.000000 0.062198 0.000000 0.000000
# 5 0.000000 0.000000 0.000000 0.000000 0.200233 0.000000
# 6 0.000000 0.000000 0.000000 0.000000 0.000000 0.034323
#
#
# Mechanical properties :
#
#
# Convention : Reuss Voigt Hill
#
# Bulk Modulus (GPa) = 32.46804 39.38330 35.92567
# Shear Modulus (GPa) = 12.85200 20.97260 16.91230
#
# Velocity S-wave (km/s) = 2.50210 3.19628 2.87025
# Velocity P-wave (km/s) = 4.91561 5.72766 5.33710
#
# Compressibility (1/GPa) = 0.03079952
#
# Stress axis : x y z
#
# Youngs Moduli (GPa) = 41.13389 51.78300 78.18774
#
# Poissons Ratio (x) = 0.41319 -0.22551
# Poissons Ratio (y) = 0.32822 0.60292
# Poissons Ratio (z) = -0.11864 0.39931
#
# Static dielectric constant tensor:
#      x y z
#    x 1.767010 0.000000 0.000000 
#    y 0.000000 1.778590 0.000000 
#    z 0.000000 0.000000 1.829710 
# 
# From -- ./inp_files/16296.got.cif
#   From: 2010.05.17/outbox.cif.g08.bks.cpg/sg37_9_cif.got.tgz:16296.got - 2010.06.03 17:53:42.
