data_PCOD9353736
_publ_section_title
;
Structure prediction by ZEFSAII (Michael W. Deem and Ramdas Pophale) SiO2 
 PCOD9353736
Probable space group: C C C 2
;
_chemical_formula_sum "Si O2"
_cell_formula_units_Z 60
_cell_length_a 9.594736
_cell_length_b 23.750644
_cell_length_c 11.514819
_cell_angle_alpha 90.000000
_cell_angle_beta 90.000000
_cell_angle_gamma 90.000000
_cell_volume 2624.010300
_symmetry_space_group_name_H-M "C C C 2"
_symmetry_group_IT_number 37
_symmetry_cell_setting 'orthorhombic'
loop_
_space_group_symop_operation_xyz
x,y,z
-x,-y,z
-x,y,1/2+z
x,-y,1/2+z
1/2+x,1/2+y,z
1/2-x,1/2-y,z
1/2-x,1/2+y,1/2+z
1/2+x,1/2-y,1/2+z
loop_
_atom_site_type_symbol
_atom_site_label
_atom_site_fract_x
_atom_site_fract_y
_atom_site_fract_z
Si Si1 0.422669 0.341125 0.720930
Si Si2 0.500000 0.000000 0.889443
Si Si3 0.268520 0.368199 0.155517
Si Si4 0.025114 0.056912 0.867592
Si Si5 0.260494 0.515818 0.559368
Si Si6 0.764145 0.310254 0.414018
Si Si7 0.279302 0.607833 0.016192
Si Si8 0.458908 0.873858 0.836998
O O1 0.587947 0.341353 0.701345
O O2 0.394856 0.399090 0.790346
O O3 0.351134 0.300410 0.812548
O O4 0.346422 0.345193 0.597826
O O5 0.516238 0.058583 0.819201
O O6 0.373461 0.015860 0.975288
O O7 0.265539 0.436692 0.157550
O O8 0.135563 0.350932 0.231457
O O9 0.262888 0.353057 0.019842
O O10 0.113375 0.034349 0.975861
O O11 0.000000 0.000000 0.796186
O O12 0.889112 0.088615 0.916954
O O13 0.264793 0.449952 0.589600
O O14 0.750000 0.250000 0.476573
O O15 0.904249 0.336093 0.356622
O O16 0.137943 0.626064 0.953151
#
# Coordination Sequence:
#
# PCOD9353736 Si02
#       8
#     8   4   8   8   8   8   8   8
#     4  12  23  42  73 101 143 187 241 301 356 432
#     4  10  20  40  64 104 156 194 230 292 370 450
#     4  12  25  44  75 103 144 185 240 304 364 433
#     4  10  19  34  58 102 150 190 230 281 345 431
#     4  10  20  36  60 103 153 195 232 284 357 442
#     4  12  30  54  74 100 141 189 253 310 366 434
#     4  10  22  36  65 106 149 192 238 282 362 445
#     4  11  25  46  73 108 148 194 240 298 373 446
#
# _framework density 22.865763000000001
#
# number of rings (size 3 to 8) (size 9 to 14) (size 15 to 20)
#    0.000    1.067    5.333    0.000    3.733    2.667 
#    0.000    0.000    0.000    0.000    0.000    0.000 
#    0.000    0.000    0.000    0.000    0.000    0.000 
#
# Total GULP energy -167355.982965 kJ/mol
# GULP energy per Si atom -5578.532765 kJ/mol
# Density = 2.281372 g / cm^3
# Si number density = 22.865763 Si / 1000 Ang^3
#
#
#
# Elastic Constant Matrix: (Units=GPa)
#
#
# Indices 1 2 3 4 5 6 
#
# 1 140.4869 17.6958 43.5419 0.0000 0.0000 0.0000
# 2 17.6958 48.7526 6.7685 0.0000 0.0000 0.0000
# 3 43.5419 6.7685 71.4529 0.0000 0.0000 0.0000
# 4 0.0000 0.0000 0.0000 8.9650 0.0000 0.0000
# 5 0.0000 0.0000 0.0000 0.0000 60.4156 0.0000
# 6 0.0000 0.0000 0.0000 0.0000 0.0000 15.7285
#
#
#
# Elastic Compliance Matrix: (Units=1/GPa)
#
#
# Indices 1 2 3 4 5 6 
#
# 1 0.009081 -0.002561 -0.005291 0.000000 0.000000 0.000000
# 2 -0.002561 0.021508 -0.000476 0.000000 0.000000 0.000000
# 3 -0.005291 -0.000476 0.017265 0.000000 0.000000 0.000000
# 4 0.000000 0.000000 0.000000 0.111545 0.000000 0.000000
# 5 0.000000 0.000000 0.000000 0.000000 0.016552 0.000000
# 6 0.000000 0.000000 0.000000 0.000000 0.000000 0.063579
#
#
# Mechanical properties :
#
#
# Convention : Reuss Voigt Hill
#
# Bulk Modulus (GPa) = 32.05626 44.07831 38.06729
# Shear Modulus (GPa) = 18.75577 29.86756 24.31166
#
# Velocity S-wave (km/s) = 2.86712 3.61808 3.26426
# Velocity P-wave (km/s) = 5.00102 6.06406 5.55802
#
# Compressibility (1/GPa) = 0.03119515
#
# Stress axis : x y z
#
# Youngs Moduli (GPa) = 110.12518 46.49513 57.92229
#
# Poissons Ratio (x) = 0.11909 0.30646
# Poissons Ratio (y) = 0.28208 0.02760
# Poissons Ratio (z) = 0.58266 0.02215
#
# Static dielectric constant tensor:
#      x y z
#    x 1.915570 0.000000 0.000000 
#    y 0.000000 1.904400 0.000000 
#    z 0.000000 0.000000 1.885150 
# 
# From -- ./inp_files/6546.got.cif
#   From: 2010.05.17/outbox.cif.g08.bks.cpg/sg37_4_cif.got.tgz:6546.got - 2010.06.03 17:53:42.
