data_PCOD9353595
_publ_section_title
;
Structure prediction by ZEFSAII (Michael W. Deem and Ramdas Pophale) SiO2 
 PCOD9353595
Probable space group: C C C 2
;
_chemical_formula_sum "Si O2"
_cell_formula_units_Z 40
_cell_length_a 5.183465
_cell_length_b 17.673597
_cell_length_c 18.018795
_cell_angle_alpha 90.000000
_cell_angle_beta 90.000000
_cell_angle_gamma 90.000000
_cell_volume 1650.710305
_symmetry_space_group_name_H-M "C C C 2"
_symmetry_group_IT_number 37
_symmetry_cell_setting 'orthorhombic'
loop_
_space_group_symop_operation_xyz
x,y,z
-x,-y,z
-x,y,1/2+z
x,-y,1/2+z
1/2+x,1/2+y,z
1/2-x,1/2-y,z
1/2-x,1/2+y,1/2+z
1/2+x,1/2-y,1/2+z
loop_
_atom_site_type_symbol
_atom_site_label
_atom_site_fract_x
_atom_site_fract_y
_atom_site_fract_z
Si Si1 0.992692 0.201506 0.684610
Si Si2 0.121144 0.414988 0.941292
Si Si3 0.353542 0.880674 0.800251
Si Si4 0.000000 0.500000 0.714485
Si Si5 0.500000 0.500000 0.352795
Si Si6 0.142285 0.070628 0.087966
O O1 0.750000 0.250000 0.653600
O O2 0.856276 0.170833 0.760842
O O3 0.030293 0.135182 0.624822
O O4 0.250000 0.250000 0.697705
O O5 0.393396 0.430662 0.900641
O O6 0.000000 0.500000 0.942491
O O7 0.958985 0.364959 0.882535
O O8 0.170800 0.393452 0.025542
O O9 0.577648 0.912751 0.746877
O O10 0.226947 0.965075 0.804848
O O11 0.214992 0.529953 0.655437
O O12 0.000000 0.000000 0.048924
#
# Coordination Sequence:
#
# PCOD9353595 Si02
#       6
#     8   8   8   4   4   8
#     4  11  29  48  71 105 152 201 251 307 377 449
#     4  10  19  36  62 107 142 173 239 315 389 436
#     4  10  22  36  68  97 144 182 241 309 374 437
#     4  10  20  32  58 104 140 166 234 296 372 424
#     4  10  18  34  64 104 132 170 224 320 360 436
#     4  11  24  38  72 106 141 190 242 314 376 458
#
# _framework density 24.231995000000001
#
# number of rings (size 3 to 8) (size 9 to 14) (size 15 to 20)
#    0.000    1.600    5.000    0.000   14.000    0.000 
#    0.000    0.000    4.400    0.000    0.000    0.000 
#    0.000    0.000    0.000    0.000    0.000    0.000 
#
# Total GULP energy -111348.805343 kJ/mol
# GULP energy per Si atom -5567.440267 kJ/mol
# Density = 2.417684 g / cm^3
# Si number density = 24.231995 Si / 1000 Ang^3
#
#
#
# Elastic Constant Matrix: (Units=GPa)
#
#
# Indices 1 2 3 4 5 6 
#
# 1 74.6162 48.0709 26.1696 0.0000 0.0000 0.0000
# 2 48.0709 89.5495 41.3084 0.0000 0.0000 0.0000
# 3 26.1696 41.3084 161.1442 0.0000 0.0000 0.0000
# 4 0.0000 0.0000 0.0000 -3.6211 0.0000 0.0000
# 5 0.0000 0.0000 0.0000 0.0000 20.3307 0.0000
# 6 0.0000 0.0000 0.0000 0.0000 0.0000 45.8288
#
#
#
# Elastic Compliance Matrix: (Units=1/GPa)
#
#
# Indices 1 2 3 4 5 6 
#
# 1 0.020534 -0.010757 -0.000577 0.000000 0.000000 0.000000
# 2 -0.010757 0.018299 -0.002944 0.000000 0.000000 0.000000
# 3 -0.000577 -0.002944 0.007054 0.000000 0.000000 0.000000
# 4 0.000000 0.000000 0.000000 -0.276156 0.000000 0.000000
# 5 0.000000 0.000000 0.000000 0.000000 0.049187 0.000000
# 6 0.000000 0.000000 0.000000 0.000000 0.000000 0.021820
#
#
# Mechanical properties :
#
#
# Convention : Reuss Voigt Hill
#
# Bulk Modulus (GPa) = 57.69808 61.82307 59.76058
# Shear Modulus (GPa) = -40.02304 26.49175 -6.76564
#
# Velocity S-wave (km/s) = -4.06847 3.31003 -1.67275
# Velocity P-wave (km/s) = 1.33882 6.33851 4.58089
#
# Compressibility (1/GPa) = 0.01733160
#
# Stress axis : x y z
#
# Youngs Moduli (GPa) = 48.69910 54.64685 141.76200
#
# Poissons Ratio (x) = 0.58782 0.08184
# Poissons Ratio (y) = 0.52384 0.41736
# Poissons Ratio (z) = 0.02812 0.16088
#
# Static dielectric constant tensor:
#      x y z
#    x 2.189840 0.000000 0.000000 
#    y 0.000000 2.168730 0.000000 
#    z 0.000000 0.000000 2.057050 
# 
# From -- ./inp_files/13738.got.cif
#   From: 2010.05.17/outbox.cif.g08.bks.cpg/sg37_7_cif.got.tgz:13738.got - 2010.06.03 17:53:42.
