data_PCOD9353564
_publ_section_title
;
Structure prediction by ZEFSAII (Michael W. Deem and Ramdas Pophale) SiO2 
 PCOD9353564
Probable space group: C C C 2
;
_chemical_formula_sum "Si O2"
_cell_formula_units_Z 32
_cell_length_a 7.582526
_cell_length_b 16.914053
_cell_length_c 9.800977
_cell_angle_alpha 90.000000
_cell_angle_beta 90.000000
_cell_angle_gamma 90.000000
_cell_volume 1256.987519
_symmetry_space_group_name_H-M "C C C 2"
_symmetry_group_IT_number 37
_symmetry_cell_setting 'orthorhombic'
loop_
_space_group_symop_operation_xyz
x,y,z
-x,-y,z
-x,y,1/2+z
x,-y,1/2+z
1/2+x,1/2+y,z
1/2-x,1/2-y,z
1/2-x,1/2+y,1/2+z
1/2+x,1/2-y,1/2+z
loop_
_atom_site_type_symbol
_atom_site_label
_atom_site_fract_x
_atom_site_fract_y
_atom_site_fract_z
Si Si1 0.807225 0.580431 0.171610
Si Si2 0.545423 0.220568 0.524311
Si Si3 0.984646 0.812613 0.767151
Si Si4 0.690538 0.461851 0.376949
O O1 0.954932 0.635192 0.097392
O O2 0.822735 0.512562 0.285114
O O3 0.661790 0.371907 0.326878
O O4 0.727827 0.538338 0.037151
O O5 0.750000 0.250000 0.531920
O O6 0.437784 0.280333 0.619215
O O7 0.490165 0.239223 0.370382
O O8 0.165539 0.860460 0.742120
O O9 0.500000 0.500000 0.354795
#
# Coordination Sequence:
#
# PCOD9353564 Si02
#       4
#     8   8   8   8
#     4  10  21  34  58  89 121 151 192 258 302 361
#     4  10  20  37  55  89 120 154 197 249 306 359
#     4  10  18  34  60  83 119 152 197 250 295 363
#     4  10  18  32  57  89 115 146 197 251 307 339
#
# _framework density 25.457692000000002
#
# number of rings (size 3 to 8) (size 9 to 14) (size 15 to 20)
#    0.000    2.000    5.000    2.250    3.500    0.000 
#    0.000    6.250    0.000    4.500    0.000    0.000 
#    0.000    0.000    0.000    0.000    0.000    0.000 
#
# Total GULP energy -89338.925942 kJ/mol
# GULP energy per Si atom -5583.682871 kJ/mol
# Density = 2.539975 g / cm^3
# Si number density = 25.457692 Si / 1000 Ang^3
#
#
#
# Elastic Constant Matrix: (Units=GPa)
#
#
# Indices 1 2 3 4 5 6 
#
# 1 80.7591 38.9624 32.1407 0.0000 0.0000 0.0000
# 2 38.9624 105.8096 39.9891 0.0000 0.0000 0.0000
# 3 32.1407 39.9891 146.0497 0.0000 0.0000 0.0000
# 4 0.0000 0.0000 0.0000 5.8619 0.0000 0.0000
# 5 0.0000 0.0000 0.0000 0.0000 -10.5835 0.0000
# 6 0.0000 0.0000 0.0000 0.0000 0.0000 21.3398
#
#
#
# Elastic Compliance Matrix: (Units=1/GPa)
#
#
# Indices 1 2 3 4 5 6 
#
# 1 0.015602 -0.004961 -0.002075 0.000000 0.000000 0.000000
# 2 -0.004961 0.012119 -0.002227 0.000000 0.000000 0.000000
# 3 -0.002075 -0.002227 0.007913 0.000000 0.000000 0.000000
# 4 0.000000 0.000000 0.000000 0.170593 0.000000 0.000000
# 5 0.000000 0.000000 0.000000 0.000000 -0.094487 0.000000
# 6 0.000000 0.000000 0.000000 0.000000 0.000000 0.046861
#
#
# Mechanical properties :
#
#
# Convention : Reuss Voigt Hill
#
# Bulk Modulus (GPa) = 58.44812 61.64474 60.04643
# Shear Modulus (GPa) = 27.34783 18.09204 22.71993
#
# Velocity S-wave (km/s) = 3.28113 2.66873 2.99065
# Velocity P-wave (km/s) = 6.11254 5.81062 5.96349
#
# Compressibility (1/GPa) = 0.01710919
#
# Stress axis : x y z
#
# Youngs Moduli (GPa) = 64.09555 82.51401 126.36950
#
# Poissons Ratio (x) = 0.40933 0.26223
# Poissons Ratio (y) = 0.31796 0.28137
# Poissons Ratio (z) = 0.13301 0.18372
#
# Static dielectric constant tensor:
#      x y z
#    x 2.017740 0.000000 0.000000 
#    y 0.000000 2.104800 0.000000 
#    z 0.000000 0.000000 1.918180 
# 
# From -- ./inp_files/2569.got.cif
#   From: 2010.05.17/outbox.cif.g08.bks.cpg/sg37_2_cif.got.tgz:2569.got - 2010.06.03 17:53:42.
