data_PCOD9353204
_publ_section_title
;
Structure prediction by ZEFSAII (Michael W. Deem and Ramdas Pophale) SiO2 
 PCOD9353204
Probable space group: C M C 21
;
_chemical_formula_sum "Si O2"
_cell_formula_units_Z 64
_cell_length_a 29.770294
_cell_length_b 11.626065
_cell_length_c 8.473641
_cell_angle_alpha 90.000000
_cell_angle_beta 90.000000
_cell_angle_gamma 90.000000
_cell_volume 2932.823522
_symmetry_space_group_name_H-M "C M C 21"
_symmetry_group_IT_number 36
_symmetry_cell_setting 'orthorhombic'
loop_
_space_group_symop_operation_xyz
x,y,z
-x,-y,1/2+z
x,-y,1/2+z
-x,y,z
1/2+x,1/2+y,z
1/2-x,1/2-y,1/2+z
1/2+x,1/2-y,1/2+z
1/2-x,1/2+y,z
loop_
_atom_site_type_symbol
_atom_site_label
_atom_site_fract_x
_atom_site_fract_y
_atom_site_fract_z
Si Si1 0.807331 0.742366 0.291300
Si Si2 0.947292 0.734886 0.309512
Si Si3 0.908447 0.960699 0.475656
Si Si4 0.050756 0.198609 0.441741
Si Si5 0.377476 0.932670 0.926582
Si Si6 0.844777 0.023693 0.722532
Si Si7 0.630344 0.168361 0.776821
Si Si8 0.712059 0.683552 0.149930
O O1 0.839614 0.636365 0.329086
O O2 0.762250 0.709429 0.202123
O O3 0.794398 0.789627 0.465321
O O4 0.833975 0.842501 0.198137
O O5 0.924037 0.837455 0.411935
O O6 0.923931 0.614930 0.353975
O O7 0.000000 0.734696 0.345058
O O8 0.941968 0.761198 0.123292
O O9 0.891963 0.975388 0.653921
O O10 0.943744 0.060652 0.444301
O O11 0.858894 0.986651 0.404779
O O12 0.088577 0.253465 0.330674
O O13 0.000000 0.229780 0.393994
O O14 0.367830 0.066405 0.904155
O O15 0.377309 0.892516 0.107682
O O16 0.802266 0.946736 0.684882
O O17 0.675671 0.241298 0.749298
#
# Coordination Sequence:
#
# PCOD9353204 Si02
#       8
#     8   8   8   8   8   8   8   8
#     4  11  26  44  67  99 134 175 228 278 337 405
#     4  11  24  42  66  99 135 173 221 276 334 403
#     4  12  21  42  68  97 136 174 215 272 340 400
#     4  11  24  41  66 100 133 173 222 275 336 403
#     4  11  24  46  66  94 129 176 224 275 333 400
#     4  12  23  43  70  96 138 176 220 276 340 399
#     4  11  25  45  68  93 131 175 224 277 333 400
#     4  11  26  43  66 100 132 176 227 277 338 404
#
# _framework density 21.821974999999998
#
# number of rings (size 3 to 8) (size 9 to 14) (size 15 to 20)
#    0.000    0.750    5.000    1.875    3.500    3.000 
#    0.000    0.000    0.000    0.000    0.000    0.000 
#    0.000    0.000    0.000    0.000    0.000    0.000 
#
# Total GULP energy -178846.260385 kJ/mol
# GULP energy per Si atom -5588.945637 kJ/mol
# Density = 2.177231 g / cm^3
# Si number density = 21.821975 Si / 1000 Ang^3
#
#
#
# Elastic Constant Matrix: (Units=GPa)
#
#
# Indices 1 2 3 4 5 6 
#
# 1 120.0125 21.6974 32.9076 0.0000 0.0000 0.0000
# 2 21.6974 65.5484 6.7136 0.0000 0.0000 0.0000
# 3 32.9076 6.7136 42.0166 0.0000 0.0000 0.0000
# 4 0.0000 0.0000 0.0000 33.0952 0.0000 0.0000
# 5 0.0000 0.0000 0.0000 0.0000 32.9981 0.0000
# 6 0.0000 0.0000 0.0000 0.0000 0.0000 26.2623
#
#
#
# Elastic Compliance Matrix: (Units=1/GPa)
#
#
# Indices 1 2 3 4 5 6 
#
# 1 0.011105 -0.002831 -0.008245 0.000000 0.000000 0.000000
# 2 -0.002831 0.016232 -0.000376 0.000000 0.000000 0.000000
# 3 -0.008245 -0.000376 0.030318 0.000000 0.000000 0.000000
# 4 0.000000 0.000000 0.000000 0.030216 0.000000 0.000000
# 5 0.000000 0.000000 0.000000 0.000000 0.030305 0.000000
# 6 0.000000 0.000000 0.000000 0.000000 0.000000 0.038077
#
#
# Mechanical properties :
#
#
# Convention : Reuss Voigt Hill
#
# Bulk Modulus (GPa) = 28.77745 38.91275 33.84510
# Shear Modulus (GPa) = 26.21352 29.55504 27.88428
#
# Velocity S-wave (km/s) = 3.46966 3.68417 3.57852
# Velocity P-wave (km/s) = 5.40993 5.99734 5.71119
#
# Compressibility (1/GPa) = 0.03474943
#
# Stress axis : x y z
#
# Youngs Moduli (GPa) = 90.04769 61.60796 32.98387
#
# Poissons Ratio (x) = 0.17444 0.27196
# Poissons Ratio (y) = 0.25497 0.01240
# Poissons Ratio (z) = 0.74246 0.02316
#
# Static dielectric constant tensor:
#      x y z
#    x 1.747400 0.000000 0.000000 
#    y 0.000000 1.803050 0.000000 
#    z 0.000000 0.000000 1.808810 
# 
# From -- ./inp_files/6095.got.cif
#   From: 2010.05.17/outbox.cif.g08.bks.cpg/sg36_4_cif.got.tgz:6095.got - 2010.06.03 17:41:39.
