data_PCOD9353830
_publ_section_title
;
Structure prediction by ZEFSAII (Michael W. Deem and Ramdas Pophale) SiO2 
 PCOD9353830
Probable space group: C C C 2
;
_chemical_formula_sum "Si O2"
_cell_formula_units_Z 52
_cell_length_a 9.407227
_cell_length_b 18.200696
_cell_length_c 14.392310
_cell_angle_alpha 90.000000
_cell_angle_beta 90.000000
_cell_angle_gamma 90.000000
_cell_volume 2464.223668
_symmetry_space_group_name_H-M "C C C 2"
_symmetry_group_IT_number 37
_symmetry_cell_setting 'orthorhombic'
loop_
_space_group_symop_operation_xyz
x,y,z
-x,-y,z
-x,y,1/2+z
x,-y,1/2+z
1/2+x,1/2+y,z
1/2-x,1/2-y,z
1/2-x,1/2+y,1/2+z
1/2+x,1/2-y,1/2+z
loop_
_atom_site_type_symbol
_atom_site_label
_atom_site_fract_x
_atom_site_fract_y
_atom_site_fract_z
Si Si1 0.046190 0.122220 0.811760
Si Si2 0.800000 0.974609 0.249269
Si Si3 0.838121 0.820098 0.002825
Si Si4 0.885238 0.804760 0.623491
Si Si5 0.880628 0.550225 0.993088
Si Si6 0.000000 0.500000 0.820427
Si Si7 0.143051 0.966660 0.046053
O O1 0.073808 0.149588 0.915060
O O2 0.092453 0.180650 0.733185
O O3 0.887103 0.094116 0.789155
O O4 0.140079 0.049402 0.794322
O O5 0.632472 0.972609 0.262089
O O6 0.836469 0.986372 0.140820
O O7 0.750000 0.750000 0.972623
O O8 0.713815 0.880864 0.027060
O O9 0.956159 0.793771 0.078724
O O10 0.750000 0.750000 0.608012
O O11 0.849206 0.883436 0.577143
O O12 0.764949 0.486762 0.975572
O O13 0.000000 0.500000 0.047065
O O14 0.950384 0.563928 0.892743
O O15 0.000000 0.000000 0.005644
#
# Coordination Sequence:
#
# PCOD9353830 Si02
#       7
#     8   8   8   8   8   4   8
#     4  10  20  43  67  91 128 177 221 266 334 397
#     4  10  19  37  64 100 125 162 222 276 324 398
#     4  12  25  42  65  94 137 178 224 276 343 408
#     4  11  25  43  66  96 132 174 223 280 337 407
#     4  10  23  38  60  95 126 167 216 275 332 389
#     4  10  22  32  58  98 132 156 204 280 332 368
#     4  11  20  40  69  94 122 172 230 271 340 398
#
# _framework density 21.101980000000001
#
# number of rings (size 3 to 8) (size 9 to 14) (size 15 to 20)
#    0.462    0.923    6.154    0.462    5.385    0.000 
#    0.000    0.769    0.000    0.000    0.000    0.000 
#    0.000    0.000    0.000    0.000    0.000    0.000 
#
# Total GULP energy -144750.607771 kJ/mol
# GULP energy per Si atom -5567.331068 kJ/mol
# Density = 2.105395 g / cm^3
# Si number density = 21.101980 Si / 1000 Ang^3
#
#
#
# Elastic Constant Matrix: (Units=GPa)
#
#
# Indices 1 2 3 4 5 6 
#
# 1 171.8655 46.5608 27.4223 0.0000 0.0000 0.0000
# 2 46.5608 91.1482 18.4340 0.0000 0.0000 0.0000
# 3 27.4223 18.4340 69.7748 0.0000 0.0000 0.0000
# 4 0.0000 0.0000 0.0000 9.8857 0.0000 0.0000
# 5 0.0000 0.0000 0.0000 0.0000 24.3982 0.0000
# 6 0.0000 0.0000 0.0000 0.0000 0.0000 42.2122
#
#
#
# Elastic Compliance Matrix: (Units=1/GPa)
#
#
# Indices 1 2 3 4 5 6 
#
# 1 0.006985 -0.003183 -0.001904 0.000000 0.000000 0.000000
# 2 -0.003183 0.013041 -0.002194 0.000000 0.000000 0.000000
# 3 -0.001904 -0.002194 0.015660 0.000000 0.000000 0.000000
# 4 0.000000 0.000000 0.000000 0.101156 0.000000 0.000000
# 5 0.000000 0.000000 0.000000 0.000000 0.040987 0.000000
# 6 0.000000 0.000000 0.000000 0.000000 0.000000 0.023690
#
#
# Mechanical properties :
#
#
# Convention : Reuss Voigt Hill
#
# Bulk Modulus (GPa) = 47.34268 57.51363 52.42816
# Shear Modulus (GPa) = 22.40934 31.32398 26.86666
#
# Velocity S-wave (km/s) = 3.26230 3.85698 3.57204
# Velocity P-wave (km/s) = 6.05591 6.86654 6.47392
#
# Compressibility (1/GPa) = 0.02112259
#
# Stress axis : x y z
#
# Youngs Moduli (GPa) = 143.17236 76.68247 63.85732
#
# Poissons Ratio (x) = 0.24407 0.12159
# Poissons Ratio (y) = 0.45569 0.14013
# Poissons Ratio (z) = 0.27262 0.16827
#
# Static dielectric constant tensor:
#      x y z
#    x 1.838890 0.000000 0.000000 
#    y 0.000000 1.761190 0.000000 
#    z 0.000000 0.000000 1.801870 
# 
# From -- ./inp_files/14654.got.cif
#   From: 2010.05.17/outbox.cif.g08.bks.cpg/sg37_8_cif.got.tgz:14654.got - 2010.06.03 17:53:42.
