data_PCOD9353982
_publ_section_title
;
Structure prediction by ZEFSAII (Michael W. Deem and Ramdas Pophale) SiO2 
 PCOD9353982
Probable space group: C C C 2
;
_chemical_formula_sum "Si O2"
_cell_formula_units_Z 64
_cell_length_a 11.694184
_cell_length_b 11.160605
_cell_length_c 23.751844
_cell_angle_alpha 90.000000
_cell_angle_beta 90.000000
_cell_angle_gamma 90.000000
_cell_volume 3099.952168
_symmetry_space_group_name_H-M "C C C 2"
_symmetry_group_IT_number 37
_symmetry_cell_setting 'orthorhombic'
loop_
_space_group_symop_operation_xyz
x,y,z
-x,-y,z
-x,y,1/2+z
x,-y,1/2+z
1/2+x,1/2+y,z
1/2-x,1/2-y,z
1/2-x,1/2+y,1/2+z
1/2+x,1/2-y,1/2+z
loop_
_atom_site_type_symbol
_atom_site_label
_atom_site_fract_x
_atom_site_fract_y
_atom_site_fract_z
Si Si1 0.435866 0.282296 0.350460
Si Si2 0.358488 0.829929 0.417281
Si Si3 0.535679 0.363388 0.731704
Si Si4 0.036648 0.666735 0.650816
Si Si5 0.215499 0.387328 0.615938
Si Si6 0.276302 0.049586 0.344896
Si Si7 0.272256 0.959753 0.720109
Si Si8 0.879351 0.570691 0.040309
O O1 0.528367 0.241168 0.396709
O O2 0.498860 0.305870 0.290994
O O3 0.353768 0.168246 0.342360
O O4 0.351502 0.398369 0.359740
O O5 0.250000 0.750000 0.402213
O O6 0.357978 0.858504 0.483498
O O7 0.335286 0.957199 0.387156
O O8 0.500000 0.500000 0.732351
O O9 0.499491 0.292310 0.676821
O O10 0.673247 0.362320 0.727855
O O11 0.111242 0.601301 0.698715
O O12 0.108727 0.660659 0.593525
O O13 0.917677 0.607986 0.633904
O O14 0.250000 0.250000 0.606138
O O15 0.269073 0.449753 0.671083
O O16 0.215131 0.472873 0.560979
O O17 0.280405 0.988986 0.282913
O O18 0.000000 0.500000 0.031593
#
# Coordination Sequence:
#
# PCOD9353982 Si02
#       8
#     8   8   8   8   8   8   8   8
#     4  10  23  42  66  93 133 174 224 272 325 408
#     4  12  27  42  66  97 130 178 223 278 341 388
#     4  11  22  35  60  93 133 167 204 270 333 388
#     4  10  20  38  64  91 123 168 214 257 320 395
#     4  10  21  37  62  95 128 159 214 276 329 381
#     4  10  22  42  66  96 125 179 226 267 331 396
#     4  10  20  35  59  89 126 166 206 254 326 403
#     4   9  21  44  64  86 124 169 224 271 315 400
#
# _framework density 20.645479999999999
#
# number of rings (size 3 to 8) (size 9 to 14) (size 15 to 20)
#    0.000    1.750    1.250    3.375    5.250    3.500 
#    6.750    0.000    0.000    0.000    0.000    0.000 
#    0.000    0.000    0.000    0.000    0.000    0.000 
#
# Total GULP energy -178403.191599 kJ/mol
# GULP energy per Si atom -5575.099737 kJ/mol
# Density = 2.059849 g / cm^3
# Si number density = 20.645480 Si / 1000 Ang^3
#
#
#
# Elastic Constant Matrix: (Units=GPa)
#
#
# Indices 1 2 3 4 5 6 
#
# 1 68.6484 14.8741 21.5417 0.0000 0.0000 0.0000
# 2 14.8741 93.9082 45.3282 0.0000 0.0000 0.0000
# 3 21.5417 45.3282 125.1699 0.0000 0.0000 0.0000
# 4 0.0000 0.0000 0.0000 20.2372 0.0000 0.0000
# 5 0.0000 0.0000 0.0000 0.0000 6.7236 0.0000
# 6 0.0000 0.0000 0.0000 0.0000 0.0000 26.1484
#
#
#
# Elastic Compliance Matrix: (Units=1/GPa)
#
#
# Indices 1 2 3 4 5 6 
#
# 1 0.015553 -0.001420 -0.002163 0.000000 0.000000 0.000000
# 2 -0.001420 0.013034 -0.004476 0.000000 0.000000 0.000000
# 3 -0.002163 -0.004476 0.009982 0.000000 0.000000 0.000000
# 4 0.000000 0.000000 0.000000 0.049414 0.000000 0.000000
# 5 0.000000 0.000000 0.000000 0.000000 0.148730 0.000000
# 6 0.000000 0.000000 0.000000 0.000000 0.000000 0.038243
#
#
# Mechanical properties :
#
#
# Convention : Reuss Voigt Hill
#
# Bulk Modulus (GPa) = 44.53669 50.13493 47.33581
# Shear Modulus (GPa) = 16.74723 24.35401 20.55062
#
# Velocity S-wave (km/s) = 2.85121 3.43830 3.15843
# Velocity P-wave (km/s) = 5.69721 6.33238 6.02317
#
# Compressibility (1/GPa) = 0.02245340
#
# Stress axis : x y z
#
# Youngs Moduli (GPa) = 64.29553 76.72295 100.17907
#
# Poissons Ratio (x) = 0.10892 0.21665
# Poissons Ratio (y) = 0.09127 0.44837
# Poissons Ratio (z) = 0.13905 0.34339
#
# Static dielectric constant tensor:
#      x y z
#    x 1.827930 0.000000 0.000000 
#    y 0.000000 1.805100 0.000000 
#    z 0.000000 0.000000 1.789030 
# 
# From -- ./inp_files/18756.got.cif
#   From: 2010.05.17/outbox.cif.g08.bks.cpg/sg37_10_cif.got.tgz:18756.got - 2010.06.03 17:53:42.
