data_PCOD9353940
_publ_section_title
;
Structure prediction by ZEFSAII (Michael W. Deem and Ramdas Pophale) SiO2 
 PCOD9353940
Probable space group: C C C 2
;
_chemical_formula_sum "Si O2"
_cell_formula_units_Z 64
_cell_length_a 5.236260
_cell_length_b 32.772885
_cell_length_c 19.516042
_cell_angle_alpha 90.000000
_cell_angle_beta 90.000000
_cell_angle_gamma 90.000000
_cell_volume 3349.096188
_symmetry_space_group_name_H-M "C C C 2"
_symmetry_group_IT_number 37
_symmetry_cell_setting 'orthorhombic'
loop_
_space_group_symop_operation_xyz
x,y,z
-x,-y,z
-x,y,1/2+z
x,-y,1/2+z
1/2+x,1/2+y,z
1/2-x,1/2-y,z
1/2-x,1/2+y,1/2+z
1/2+x,1/2-y,1/2+z
loop_
_atom_site_type_symbol
_atom_site_label
_atom_site_fract_x
_atom_site_fract_y
_atom_site_fract_z
Si Si1 0.499999 0.723489 0.731060
Si Si2 0.999998 0.917120 0.731063
Si Si3 0.396472 0.043840 0.809207
Si Si4 0.883759 0.621439 0.062336
Si Si5 0.638735 0.650574 0.328210
Si Si6 0.883772 0.621439 0.899788
Si Si7 0.638747 0.349427 0.133914
Si Si8 0.103531 0.543840 0.652919
O O1 0.250000 0.750000 0.713646
O O2 0.418123 0.693330 0.792412
O O3 0.581876 0.693329 0.669710
O O4 0.750000 0.750000 0.748473
O O5 0.181538 0.883708 0.768494
O O6 0.100783 0.946929 0.671467
O O7 0.899214 0.946929 0.790659
O O8 0.818456 0.883708 0.693631
O O9 0.453803 0.077860 0.865514
O O10 0.500001 0.049355 0.731063
O O11 0.500000 0.000000 0.830859
O O12 0.614559 0.636118 0.093773
O O13 0.953795 0.577860 0.096611
O O14 0.112371 0.650722 0.086903
O O15 0.868630 0.618697 0.981062
O O16 0.385423 0.636120 0.368349
O O17 0.887610 0.650722 0.375224
O O18 0.000000 0.500000 0.631267
#
# Coordination Sequence:
#
# PCOD9353940 Si02
#       8
#     8   8   8   8   8   8   8   8
#     4  11  22  38  67 100 125 144 185 246 297 346
#     4   9  18  35  55  80 112 150 198 246 299 342
#     4  10  20  34  54  83 114 154 197 257 305 337
#     4  11  22  39  60  85 119 164 204 238 285 350
#     4  10  21  38  62  86 119 152 196 239 287 352
#     4  11  22  39  60  85 119 164 204 238 285 350
#     4  10  21  38  62  86 119 152 196 239 287 352
#     4  10  20  34  54  83 114 154 197 257 305 337
#
# _framework density 19.109635000000001
#
# number of rings (size 3 to 8) (size 9 to 14) (size 15 to 20)
#    0.000    1.750    2.500    2.250    0.000    2.500 
#    0.000    0.000    0.000   19.500    0.000    0.000 
#    0.000    0.000    0.000    0.000    0.000    0.000 
#
# Total GULP energy -178220.628439 kJ/mol
# GULP energy per Si atom -5569.394639 kJ/mol
# Density = 1.906614 g / cm^3
# Si number density = 19.109635 Si / 1000 Ang^3
#
#
#
# Elastic Constant Matrix: (Units=GPa)
#
#
# Indices 1 2 3 4 5 6 
#
# 1 84.0504 41.7337 19.8946 0.0000 0.0000 0.0000
# 2 41.7337 118.8088 39.0601 0.0000 0.0000 0.0000
# 3 19.8946 39.0601 94.6919 0.0000 0.0000 0.0000
# 4 0.0000 0.0000 0.0000 9.8486 0.0000 0.0000
# 5 0.0000 0.0000 0.0000 0.0000 20.3078 0.0000
# 6 0.0000 0.0000 0.0000 0.0000 0.0000 14.6840
#
#
#
# Elastic Compliance Matrix: (Units=1/GPa)
#
#
# Indices 1 2 3 4 5 6 
#
# 1 0.014509 -0.004737 -0.001094 0.000000 0.000000 0.000000
# 2 -0.004737 0.011284 -0.003659 0.000000 0.000000 0.000000
# 3 -0.001094 -0.003659 0.012300 0.000000 0.000000 0.000000
# 4 0.000000 0.000000 0.000000 0.101537 0.000000 0.000000
# 5 0.000000 0.000000 0.000000 0.000000 0.049242 0.000000
# 6 0.000000 0.000000 0.000000 0.000000 0.000000 0.068101
#
#
# Mechanical properties :
#
#
# Convention : Reuss Voigt Hill
#
# Bulk Modulus (GPa) = 52.32431 55.43645 53.88038
# Shear Modulus (GPa) = 17.71016 22.09228 19.90122
#
# Velocity S-wave (km/s) = 3.04759 3.40381 3.23061
# Velocity P-wave (km/s) = 6.31065 6.67237 6.49403
#
# Compressibility (1/GPa) = 0.01911158
#
# Stress axis : x y z
#
# Youngs Moduli (GPa) = 68.92503 88.62294 81.30101
#
# Poissons Ratio (x) = 0.41977 0.08897
# Poissons Ratio (y) = 0.32647 0.29751
# Poissons Ratio (z) = 0.07543 0.32430
#
# Static dielectric constant tensor:
#      x y z
#    x 1.951120 0.000000 0.000000 
#    y 0.000000 1.666550 0.000000 
#    z 0.000000 0.000000 1.651880 
# 
# From -- ./inp_files/14087.got.cif
#   From: 2010.05.17/outbox.cif.g08.bks.cpg/sg37_8_cif.got.tgz:14087.got - 2010.06.03 17:53:42.
