data_PCOD9353749
_publ_section_title
;
Structure prediction by ZEFSAII (Michael W. Deem and Ramdas Pophale) SiO2 
 PCOD9353749
Probable space group: C C C 2
;
_chemical_formula_sum "Si O2"
_cell_formula_units_Z 44
_cell_length_a 5.310714
_cell_length_b 23.985762
_cell_length_c 13.762078
_cell_angle_alpha 90.000000
_cell_angle_beta 90.000000
_cell_angle_gamma 90.000000
_cell_volume 1753.034442
_symmetry_space_group_name_H-M "C C C 2"
_symmetry_group_IT_number 37
_symmetry_cell_setting 'orthorhombic'
loop_
_space_group_symop_operation_xyz
x,y,z
-x,-y,z
-x,y,1/2+z
x,-y,1/2+z
1/2+x,1/2+y,z
1/2-x,1/2-y,z
1/2-x,1/2+y,1/2+z
1/2+x,1/2-y,1/2+z
loop_
_atom_site_type_symbol
_atom_site_label
_atom_site_fract_x
_atom_site_fract_y
_atom_site_fract_z
Si Si1 0.495733 0.734919 0.516340
Si Si2 0.383893 0.941537 0.492869
Si Si3 0.085173 0.563438 0.257832
Si Si4 0.091411 0.130616 0.268737
Si Si5 0.611985 0.613622 0.502238
Si Si6 0.250000 0.750000 0.698194
O O1 0.250000 0.750000 0.455647
O O2 0.508821 0.670927 0.544363
O O3 0.459875 0.768583 0.617095
O O4 0.750000 0.750000 0.464789
O O5 0.387148 0.939671 0.375359
O O6 0.598678 0.898121 0.525191
O O7 0.098943 0.932180 0.525397
O O8 0.500000 0.000000 0.521402
O O9 0.344692 0.596440 0.229812
O O10 0.000000 0.500000 0.230079
O O11 0.844944 0.600872 0.232324
O O12 0.093957 0.122043 0.385500
O O13 0.131636 0.196829 0.251399
#
# Coordination Sequence:
#
# PCOD9353749 Si02
#       6
#     8   8   8   8   8   4
#     4  10  23  39  57  77 110 163 187 230 293 346
#     4   9  17  31  55  86 117 143 180 238 296 338
#     4   9  18  34  56  86 118 149 187 241 301 348
#     4  10  21  34  60  87 116 150 197 246 288 342
#     4  10  19  35  56  87 111 149 192 238 281 347
#     4  10  26  40  58  84 122 160 196 244 296 358
#
# _framework density 25.099333999999999
#
# number of rings (size 3 to 8) (size 9 to 14) (size 15 to 20)
#    0.545    1.818    0.000    2.182    3.818    4.364 
#    0.000    0.000    0.000    6.545    0.000    0.000 
#    0.000    0.000    0.000    0.000    0.000    0.000 
#
# Total GULP energy -122757.584340 kJ/mol
# GULP energy per Si atom -5579.890197 kJ/mol
# Density = 2.504221 g / cm^3
# Si number density = 25.099334 Si / 1000 Ang^3
#
#
#
# Elastic Constant Matrix: (Units=GPa)
#
#
# Indices 1 2 3 4 5 6 
#
# 1 200.4613 80.1686 26.9583 0.0000 0.0000 0.0000
# 2 80.1686 154.8518 7.7501 0.0000 0.0000 0.0000
# 3 26.9583 7.7501 86.7526 0.0000 0.0000 0.0000
# 4 0.0000 0.0000 0.0000 -42.0210 0.0000 0.0000
# 5 0.0000 0.0000 0.0000 0.0000 14.7459 0.0000
# 6 0.0000 0.0000 0.0000 0.0000 0.0000 50.2715
#
#
#
# Elastic Compliance Matrix: (Units=1/GPa)
#
#
# Indices 1 2 3 4 5 6 
#
# 1 0.006542 -0.003300 -0.001738 0.000000 0.000000 0.000000
# 2 -0.003300 0.008151 0.000297 0.000000 0.000000 0.000000
# 3 -0.001738 0.000297 0.012041 0.000000 0.000000 0.000000
# 4 0.000000 0.000000 0.000000 -0.023798 0.000000 0.000000
# 5 0.000000 0.000000 0.000000 0.000000 0.067815 0.000000
# 6 0.000000 0.000000 0.000000 0.000000 0.000000 0.019892
#
#
# Mechanical properties :
#
#
# Convention : Reuss Voigt Hill
#
# Bulk Modulus (GPa) = 57.96313 74.64663 66.30488
# Shear Modulus (GPa) = 47.22516 26.41185 36.81850
#
# Velocity S-wave (km/s) = 4.34237 3.24743 3.83418
# Velocity P-wave (km/s) = 6.94875 6.62315 6.78790
#
# Compressibility (1/GPa) = 0.01725235
#
# Stress axis : x y z
#
# Youngs Moduli (GPa) = 152.86063 122.68021 83.05240
#
# Poissons Ratio (x) = 0.40482 0.14435
# Poissons Ratio (y) = 0.50441 -0.02468
# Poissons Ratio (z) = 0.26569 -0.03646
#
# Static dielectric constant tensor:
#      x y z
#    x 2.061640 0.000000 0.000000 
#    y 0.000000 2.041560 0.000000 
#    z 0.000000 0.000000 2.052250 
# 
# From -- ./inp_files/15738.got.cif
#   From: 2010.05.17/outbox.cif.g08.bks.cpg/sg37_8_cif.got.tgz:15738.got - 2010.06.03 17:53:42.
