data_PCOD9353578
_publ_section_title
;
Structure prediction by ZEFSAII (Michael W. Deem and Ramdas Pophale) SiO2 
 PCOD9353578
Probable space group: C C C 2
;
_chemical_formula_sum "Si O2"
_cell_formula_units_Z 48
_cell_length_a 26.383907
_cell_length_b 7.252025
_cell_length_c 9.748817
_cell_angle_alpha 90.000000
_cell_angle_beta 90.000000
_cell_angle_gamma 90.000000
_cell_volume 1865.306992
_symmetry_space_group_name_H-M "C C C 2"
_symmetry_group_IT_number 37
_symmetry_cell_setting 'orthorhombic'
loop_
_space_group_symop_operation_xyz
x,y,z
-x,-y,z
-x,y,1/2+z
x,-y,1/2+z
1/2+x,1/2+y,z
1/2-x,1/2-y,z
1/2-x,1/2+y,1/2+z
1/2+x,1/2-y,1/2+z
loop_
_atom_site_type_symbol
_atom_site_label
_atom_site_fract_x
_atom_site_fract_y
_atom_site_fract_z
Si Si1 0.163307 0.489472 0.767130
Si Si2 0.777036 0.435091 0.008612
Si Si3 0.320173 0.560893 0.346355
Si Si4 0.383680 0.452504 0.114530
Si Si5 0.480424 0.712399 0.500799
Si Si6 0.438990 0.176886 0.710245
O O1 0.177133 0.602951 0.902711
O O2 0.198254 0.537586 0.636903
O O3 0.176168 0.276547 0.807928
O O4 0.104515 0.475986 0.727044
O O5 0.750000 0.250000 0.060530
O O6 0.734084 0.525745 0.914520
O O7 0.335722 0.434334 0.216702
O O8 0.360912 0.520581 0.464572
O O9 0.409741 0.632367 0.177981
O O10 0.429097 0.309498 0.090390
O O11 0.500000 0.500000 0.480758
O O12 0.522085 0.824997 0.585041
O O13 0.467721 0.797432 0.353771
#
# Coordination Sequence:
#
# PCOD9353578 Si02
#       6
#     8   8   8   8   8   8
#     4  11  25  47  66 100 139 172 229 289 350 414
#     4  12  25  44  68  96 132 180 228 282 345 422
#     4  11  22  40  68 102 142 174 220 287 352 408
#     4  10  18  33  59 101 141 173 218 276 344 403
#     4  10  18  33  61 100 140 178 228 275 337 401
#     4  10  21  37  61  98 141 184 224 288 334 402
#
# _framework density 25.733029999999999
#
# number of rings (size 3 to 8) (size 9 to 14) (size 15 to 20)
#    0.000    1.333    3.333    6.000    2.333    2.667 
#    0.000    0.000    0.000    3.000    0.000    0.000 
#    0.000    0.000    0.000    0.000    0.000    0.000 
#
# Total GULP energy -134391.951421 kJ/mol
# GULP energy per Si atom -5599.664643 kJ/mol
# Density = 2.567446 g / cm^3
# Si number density = 25.733030 Si / 1000 Ang^3
#
#
#
# Elastic Constant Matrix: (Units=GPa)
#
#
# Indices 1 2 3 4 5 6 
#
# 1 140.5708 27.8267 62.8665 0.0000 0.0000 0.0000
# 2 27.8267 36.5005 20.8213 0.0000 0.0000 0.0000
# 3 62.8665 20.8213 148.1874 0.0000 0.0000 0.0000
# 4 0.0000 0.0000 0.0000 -3.0497 0.0000 0.0000
# 5 0.0000 0.0000 0.0000 0.0000 72.4124 0.0000
# 6 0.0000 0.0000 0.0000 0.0000 0.0000 25.2988
#
#
#
# Elastic Compliance Matrix: (Units=1/GPa)
#
#
# Indices 1 2 3 4 5 6 
#
# 1 0.009694 -0.005484 -0.003342 0.000000 0.000000 0.000000
# 2 -0.005484 0.032886 -0.002294 0.000000 0.000000 0.000000
# 3 -0.003342 -0.002294 0.008488 0.000000 0.000000 0.000000
# 4 0.000000 0.000000 0.000000 -0.327899 0.000000 0.000000
# 5 0.000000 0.000000 0.000000 0.000000 0.013810 0.000000
# 6 0.000000 0.000000 0.000000 0.000000 0.000000 0.039528
#
#
# Mechanical properties :
#
#
# Convention : Reuss Voigt Hill
#
# Bulk Modulus (GPa) = 34.68809 60.92083 47.80446
# Shear Modulus (GPa) = -26.09020 33.18191 3.54585
#
# Velocity S-wave (km/s) = -3.18760 3.59481 1.17513
# Velocity P-wave (km/s) = 0.19621 6.39967 4.52312
#
# Compressibility (1/GPa) = 0.02882834
#
# Stress axis : x y z
#
# Youngs Moduli (GPa) = 103.15572 30.40767 117.80798
#
# Poissons Ratio (x) = 0.16676 0.39372
# Poissons Ratio (y) = 0.56571 0.27028
# Poissons Ratio (z) = 0.34475 0.06976
#
# Static dielectric constant tensor:
#      x y z
#    x 2.289440 0.000000 0.000000 
#    y 0.000000 2.124390 0.000000 
#    z 0.000000 0.000000 1.955890 
# 
# From -- ./inp_files/2401.got.cif
#   From: 2010.05.17/outbox.cif.g08.bks.cpg/sg37_2_cif.got.tgz:2401.got - 2010.06.03 17:53:42.
