data_PCOD9353576
_publ_section_title
;
Structure prediction by ZEFSAII (Michael W. Deem and Ramdas Pophale) SiO2 
 PCOD9353576
Probable space group: C C C 2
;
_chemical_formula_sum "Si O2"
_cell_formula_units_Z 48
_cell_length_a 26.356654
_cell_length_b 8.068574
_cell_length_c 8.506046
_cell_angle_alpha 90.000000
_cell_angle_beta 90.000000
_cell_angle_gamma 90.000000
_cell_volume 1808.900958
_symmetry_space_group_name_H-M "C C C 2"
_symmetry_group_IT_number 37
_symmetry_cell_setting 'orthorhombic'
loop_
_space_group_symop_operation_xyz
x,y,z
-x,-y,z
-x,y,1/2+z
x,-y,1/2+z
1/2+x,1/2+y,z
1/2-x,1/2-y,z
1/2-x,1/2+y,1/2+z
1/2+x,1/2-y,1/2+z
loop_
_atom_site_type_symbol
_atom_site_label
_atom_site_fract_x
_atom_site_fract_y
_atom_site_fract_z
Si Si1 0.340227 0.619997 0.449180
Si Si2 0.980877 0.765531 0.737020
Si Si3 0.672922 0.858672 0.521592
Si Si4 0.276284 0.546474 0.148096
Si Si5 0.891516 0.572044 0.816572
Si Si6 0.939124 0.911169 0.406986
O O1 0.295547 0.613122 0.315972
O O2 0.310422 0.610323 0.611613
O O3 0.371056 0.789521 0.437677
O O4 0.381269 0.470700 0.429366
O O5 0.951698 0.599869 0.793369
O O6 0.961772 0.828773 0.566344
O O7 0.041237 0.786935 0.767934
O O8 0.960608 0.909634 0.853254
O O9 0.701498 0.683801 0.526376
O O10 0.718389 0.971883 0.596443
O O11 0.629863 0.862328 0.652789
O O12 0.641210 0.914532 0.370203
#
# Coordination Sequence:
#
# PCOD9353576 Si02
#       6
#     8   8   8   8   8   8
#     4  10  20  36  59  89 120 154 201 258 306 359
#     4  10  20  35  61  92 122 160 203 262 316 365
#     4  10  21  39  58  84 124 165 204 248 303 372
#     4  10  21  36  60  89 120 161 206 252 305 362
#     4  10  22  39  60  87 124 162 200 251 310 365
#     4  10  18  33  58  92 122 151 202 256 310 363
#
# _framework density 26.535447999999999
#
# number of rings (size 3 to 8) (size 9 to 14) (size 15 to 20)
#    0.000    2.000    0.000    6.000    0.000    4.667 
#    0.000    5.000    0.000    8.000    0.000    0.000 
#    0.000    0.000    0.000    0.000    0.000    0.000 
#
# Total GULP energy -133682.070000 kJ/mol
# GULP energy per Si atom -5570.086250 kJ/mol
# Density = 2.647505 g / cm^3
# Si number density = 26.535448 Si / 1000 Ang^3
#
#
#
# Elastic Constant Matrix: (Units=GPa)
#
#
# Indices 1 2 3 4 5 6 
#
# 1 140.1803 15.4642 13.8247 0.0000 0.0000 0.0000
# 2 15.4642 73.2889 6.8968 0.0000 0.0000 0.0000
# 3 13.8247 6.8968 61.7008 0.0000 0.0000 0.0000
# 4 0.0000 0.0000 0.0000 23.3567 0.0000 0.0000
# 5 0.0000 0.0000 0.0000 0.0000 5.2287 0.0000
# 6 0.0000 0.0000 0.0000 0.0000 0.0000 39.4405
#
#
#
# Elastic Compliance Matrix: (Units=1/GPa)
#
#
# Indices 1 2 3 4 5 6 
#
# 1 0.007440 -0.001428 -0.001507 0.000000 0.000000 0.000000
# 2 -0.001428 0.014064 -0.001252 0.000000 0.000000 0.000000
# 3 -0.001507 -0.001252 0.016685 0.000000 0.000000 0.000000
# 4 0.000000 0.000000 0.000000 0.042814 0.000000 0.000000
# 5 0.000000 0.000000 0.000000 0.000000 0.191251 0.000000
# 6 0.000000 0.000000 0.000000 0.000000 0.000000 0.025355
#
#
# Mechanical properties :
#
#
# Convention : Reuss Voigt Hill
#
# Bulk Modulus (GPa) = 33.54160 38.61572 36.07866
# Shear Modulus (GPa) = 15.82671 29.53746 22.68209
#
# Velocity S-wave (km/s) = 2.44485 3.33998 2.92684
# Velocity P-wave (km/s) = 4.54285 5.42753 5.00478
#
# Compressibility (1/GPa) = 0.02981373
#
# Stress axis : x y z
#
# Youngs Moduli (GPa) = 134.41122 71.10476 59.93425
#
# Poissons Ratio (x) = 0.10154 0.09034
# Poissons Ratio (y) = 0.19194 0.07504
# Poissons Ratio (z) = 0.20261 0.08903
#
# Static dielectric constant tensor:
#      x y z
#    x 2.239300 0.000000 0.000000 
#    y 0.000000 2.303200 0.000000 
#    z 0.000000 0.000000 2.068740 
# 
# From -- ./inp_files/4943.got.cif
#   From: 2010.05.17/outbox.cif.g08.bks.cpg/sg37_3_cif.got.tgz:4943.got - 2010.06.03 17:53:42.
