data_PCOD9354871
_publ_section_title
;
Structure prediction by ZEFSAII (Michael W. Deem and Ramdas Pophale) SiO2 
 PCOD9354871
Probable space group: C C C 2
;
_chemical_formula_sum "Si O2"
_cell_formula_units_Z 44
_cell_length_a 22.791138
_cell_length_b 8.829623
_cell_length_c 10.919208
_cell_angle_alpha 90.000000
_cell_angle_beta 90.000000
_cell_angle_gamma 90.000000
_cell_volume 2197.350367
_symmetry_space_group_name_H-M "C C C 2"
_symmetry_group_IT_number 37
_symmetry_cell_setting 'orthorhombic'
loop_
_space_group_symop_operation_xyz
x,y,z
-x,-y,z
-x,y,1/2+z
x,-y,1/2+z
1/2+x,1/2+y,z
1/2-x,1/2-y,z
1/2-x,1/2+y,1/2+z
1/2+x,1/2-y,1/2+z
loop_
_atom_site_type_symbol
_atom_site_label
_atom_site_fract_x
_atom_site_fract_y
_atom_site_fract_z
Si Si1 0.689095 0.206198 0.744770
Si Si2 0.201171 0.359082 0.780416
Si Si3 0.418210 0.254981 0.699343
Si Si4 0.419033 0.246158 0.419322
Si Si5 0.500000 0.500000 0.312929
Si Si6 0.750000 0.750000 0.014794
Si Si7 0.500000 0.000000 0.307699
O O1 0.750000 0.250000 0.810566
O O2 0.633638 0.253817 0.822290
O O3 0.697722 0.283545 0.611039
O O4 0.690552 0.024697 0.726216
O O5 0.250000 0.250000 0.718861
O O6 0.139562 0.271540 0.780732
O O7 0.226805 0.374633 0.918931
O O8 0.398914 0.250347 0.558721
O O9 0.453377 0.406300 0.732725
O O10 0.463518 0.118648 0.726735
O O11 0.464282 0.381317 0.394323
O O12 0.454327 0.092629 0.390065
#
# Coordination Sequence:
#
# PCOD9354871 Si02
#       7
#     8   8   8   8   4   4   4
#     4  10  23  43  66  95 122 172 205 259 326 367
#     4  10  23  43  66  95 122 172 205 259 326 367
#     4  11  23  42  67  94 128 164 216 260 310 383
#     4  11  23  42  67  94 128 164 216 260 310 383
#     4  10  26  46  54 100 128 176 204 260 322 350
#     4   8  24  44  60  96 140 154 208 274 306 376
#     4  10  22  42  66  96 124 168 208 260 326 362
#
# _framework density 20.024115999999999
#
# number of rings (size 3 to 8) (size 9 to 14) (size 15 to 20)
#    1.091    0.727    1.818    1.091    5.091    0.727 
#   22.909    0.000    0.000    0.000    0.000    0.000 
#    0.000    0.000    0.000    0.000    0.000    0.000 
#
# Total GULP energy -122566.514498 kJ/mol
# GULP energy per Si atom -5571.205204 kJ/mol
# Density = 1.997854 g / cm^3
# Si number density = 20.024116 Si / 1000 Ang^3
#
#
#
# Elastic Constant Matrix: (Units=GPa)
#
#
# Indices 1 2 3 4 5 6 
#
# 1 88.4128 19.0949 7.4902 0.0000 0.0000 0.0000
# 2 19.0949 66.4394 10.3310 0.0000 0.0000 0.0000
# 3 7.4902 10.3310 87.8368 0.0000 0.0000 0.0000
# 4 0.0000 0.0000 0.0000 -200.8688 0.0000 0.0000
# 5 0.0000 0.0000 0.0000 0.0000 5.9905 0.0000
# 6 0.0000 0.0000 0.0000 0.0000 0.0000 18.4441
#
#
#
# Elastic Compliance Matrix: (Units=1/GPa)
#
#
# Indices 1 2 3 4 5 6 
#
# 1 0.012094 -0.003377 -0.000634 0.000000 0.000000 0.000000
# 2 -0.003377 0.016275 -0.001626 0.000000 0.000000 0.000000
# 3 -0.000634 -0.001626 0.011630 0.000000 0.000000 0.000000
# 4 0.000000 0.000000 0.000000 -0.004978 0.000000 0.000000
# 5 0.000000 0.000000 0.000000 0.000000 0.166930 0.000000
# 6 0.000000 0.000000 0.000000 0.000000 0.000000 0.054218
#
#
# Mechanical properties :
#
#
# Convention : Reuss Voigt Hill
#
# Bulk Modulus (GPa) = 34.81445 35.16901 34.99173
# Shear Modulus (GPa) = 18.04941 -21.56862 -1.75960
#
# Velocity S-wave (km/s) = 3.00556 -3.28553 -0.93843
# Velocity P-wave (km/s) = 5.42849 1.79123 4.04209
#
# Compressibility (1/GPa) = 0.02872371
#
# Stress axis : x y z
#
# Youngs Moduli (GPa) = 82.68778 61.44477 85.98388
#
# Poissons Ratio (x) = 0.20751 0.05452
# Poissons Ratio (y) = 0.27925 0.13983
# Poissons Ratio (z) = 0.05243 0.09992
#
# Static dielectric constant tensor:
#      x y z
#    x 1.704250 0.000000 0.000000 
#    y 0.000000 1.929720 0.000000 
#    z 0.000000 0.000000 1.697720 
# 
# From -- ./inp_files/8827.got.cif
#   From: 2010.05.17/outbox.cif.g08.bks.cpg/sg37_5_cif.got.tgz:8827.got - 2010.06.03 17:53:42.
