data_PCOD9354473
_publ_section_title
;
Structure prediction by ZEFSAII (Michael W. Deem and Ramdas Pophale) SiO2 
 PCOD9354473
Probable space group: C C C 2
;
_chemical_formula_sum "Si O2"
_cell_formula_units_Z 64
_cell_length_a 8.882002
_cell_length_b 28.311939
_cell_length_c 13.084990
_cell_angle_alpha 90.000000
_cell_angle_beta 90.000000
_cell_angle_gamma 90.000000
_cell_volume 3290.439239
_symmetry_space_group_name_H-M "C C C 2"
_symmetry_group_IT_number 37
_symmetry_cell_setting 'orthorhombic'
loop_
_space_group_symop_operation_xyz
x,y,z
-x,-y,z
-x,y,1/2+z
x,-y,1/2+z
1/2+x,1/2+y,z
1/2-x,1/2-y,z
1/2-x,1/2+y,1/2+z
1/2+x,1/2-y,1/2+z
loop_
_atom_site_type_symbol
_atom_site_label
_atom_site_fract_x
_atom_site_fract_y
_atom_site_fract_z
Si Si1 0.517174 0.141160 0.420180
Si Si2 0.236844 0.306562 0.292422
Si Si3 0.763156 0.193438 0.554028
Si Si4 0.672652 0.518084 0.075234
Si Si5 0.722786 0.074117 0.981345
Si Si6 0.982826 0.141160 0.926270
Si Si7 0.672652 0.981916 0.271216
Si Si8 0.277214 0.574117 0.365105
O O1 0.413502 0.171651 0.343992
O O2 0.627325 0.172628 0.487458
O O3 0.409832 0.111224 0.495277
O O4 0.622306 0.103099 0.362824
O O5 0.250000 0.250000 0.298874
O O6 0.250000 0.319890 0.173225
O O7 0.372675 0.327372 0.358992
O O8 0.750000 0.250000 0.547576
O O9 0.913502 0.171651 0.502458
O O10 0.500000 0.500000 0.084461
O O11 0.750000 0.541270 0.173225
O O12 0.769788 0.470703 0.053939
O O13 0.695095 0.551943 0.977960
O O14 0.877694 0.103099 0.983626
O O15 0.695095 0.051943 0.868490
O O16 0.090168 0.111224 0.851173
O O17 0.769788 0.029297 0.292512
O O18 0.500000 0.000000 0.261989
#
# Coordination Sequence:
#
# PCOD9354473 Si02
#       8
#     8   8   8   8   8   8   8   8
#     4  10  21  39  64  87 121 161 196 256 302 356
#     4  10  22  41  66  93 122 156 199 249 310 374
#     4  10  22  41  66  93 122 156 199 249 310 374
#     4  11  24  37  58  84 119 164 202 247 301 348
#     4  10  22  40  56  82 122 155 205 245 291 356
#     4  10  21  39  64  87 121 161 196 256 302 356
#     4  11  24  37  58  84 119 164 202 247 301 348
#     4  10  22  40  56  82 122 155 205 245 291 356
#
# _framework density 19.450289999999999
#
# number of rings (size 3 to 8) (size 9 to 14) (size 15 to 20)
#    0.000    1.750    2.500    0.750    3.500    6.000 
#    0.000    3.750    0.000   13.500    0.000    0.000 
#    0.000    0.000    0.000    0.000    0.000    0.000 
#
# Total GULP energy -178654.940779 kJ/mol
# GULP energy per Si atom -5582.966899 kJ/mol
# Density = 1.940602 g / cm^3
# Si number density = 19.450290 Si / 1000 Ang^3
#
#
#
# Elastic Constant Matrix: (Units=GPa)
#
#
# Indices 1 2 3 4 5 6 
#
# 1 100.9341 32.6317 33.2559 0.0000 0.0000 0.0000
# 2 32.6317 77.7893 24.5522 0.0000 0.0000 0.0000
# 3 33.2559 24.5522 101.2934 0.0000 0.0000 0.0000
# 4 0.0000 0.0000 0.0000 -17.3882 0.0000 0.0000
# 5 0.0000 0.0000 0.0000 0.0000 15.8708 0.0000
# 6 0.0000 0.0000 0.0000 0.0000 0.0000 21.0823
#
#
#
# Elastic Compliance Matrix: (Units=1/GPa)
#
#
# Indices 1 2 3 4 5 6 
#
# 1 0.012253 -0.004191 -0.003007 0.000000 0.000000 0.000000
# 2 -0.004191 0.015354 -0.002346 0.000000 0.000000 0.000000
# 3 -0.003007 -0.002346 0.011428 0.000000 0.000000 0.000000
# 4 0.000000 0.000000 0.000000 -0.057510 0.000000 0.000000
# 5 0.000000 0.000000 0.000000 0.000000 0.063009 0.000000
# 6 0.000000 0.000000 0.000000 0.000000 0.000000 0.047433
#
#
# Mechanical properties :
#
#
# Convention : Reuss Voigt Hill
#
# Bulk Modulus (GPa) = 50.13102 51.21072 50.67087
# Shear Modulus (GPa) = 42.47970 16.55142 29.51556
#
# Velocity S-wave (km/s) = 4.67841 2.92029 3.89972
# Velocity P-wave (km/s) = 7.41709 6.14467 6.81066
#
# Compressibility (1/GPa) = 0.01994773
#
# Stress axis : x y z
#
# Youngs Moduli (GPa) = 81.61173 65.13123 87.50361
#
# Poissons Ratio (x) = 0.27296 0.26313
# Poissons Ratio (y) = 0.34203 0.20525
# Poissons Ratio (z) = 0.24541 0.15277
#
# Static dielectric constant tensor:
#      x y z
#    x 1.698740 0.000000 0.000000 
#    y 0.000000 1.678410 0.000000 
#    z 0.000000 0.000000 1.650010 
# 
# From -- ./inp_files/6618.got.cif
#   From: 2010.05.17/outbox.cif.g08.bks.cpg/sg37_4_cif.got.tgz:6618.got - 2010.06.03 17:53:42.
