data_PCOD9354472
_publ_section_title
;
Structure prediction by ZEFSAII (Michael W. Deem and Ramdas Pophale) SiO2 
 PCOD9354472
Probable space group: C C C 2
;
_chemical_formula_sum "Si O2"
_cell_formula_units_Z 64
_cell_length_a 13.036357
_cell_length_b 16.057692
_cell_length_c 13.726512
_cell_angle_alpha 90.000000
_cell_angle_beta 90.000000
_cell_angle_gamma 90.000000
_cell_volume 2873.422993
_symmetry_space_group_name_H-M "C C C 2"
_symmetry_group_IT_number 37
_symmetry_cell_setting 'orthorhombic'
loop_
_space_group_symop_operation_xyz
x,y,z
-x,-y,z
-x,y,1/2+z
x,-y,1/2+z
1/2+x,1/2+y,z
1/2-x,1/2-y,z
1/2-x,1/2+y,1/2+z
1/2+x,1/2-y,1/2+z
loop_
_atom_site_type_symbol
_atom_site_label
_atom_site_fract_x
_atom_site_fract_y
_atom_site_fract_z
Si Si1 0.143380 0.449161 0.646890
Si Si2 0.473490 0.846122 0.421109
Si Si3 0.706051 0.981608 0.960342
Si Si4 0.570053 0.883916 0.232143
Si Si5 0.906323 0.058763 0.588899
Si Si6 0.864214 0.786040 0.783368
Si Si7 0.823955 0.964180 0.770492
Si Si8 0.512866 0.742798 0.113657
O O1 0.151840 0.451544 0.531300
O O2 0.043560 0.407851 0.691758
O O3 0.244400 0.416342 0.698056
O O4 0.138523 0.545236 0.683952
O O5 0.381591 0.912198 0.440441
O O6 0.558087 0.885942 0.348312
O O7 0.429190 0.771856 0.355081
O O8 0.504654 0.801738 0.520897
O O9 0.759832 0.004195 0.858474
O O10 0.802701 0.952150 0.026585
O O11 0.589351 0.794106 0.185581
O O12 0.940635 0.154007 0.586901
O O13 0.883274 0.026719 0.699789
O O14 0.000000 0.000000 0.553052
O O15 0.750000 0.750000 0.793105
O O16 0.881448 0.882987 0.811623
O O17 0.910547 0.773793 0.675721
#
# Coordination Sequence:
#
# PCOD9354472 Si02
#       8
#     8   8   8   8   8   8   8   8
#     4  10  21  39  63  97 133 165 208 272 330 387
#     4  11  22  40  69 100 121 176 225 269 321 403
#     4  11  22  41  69  96 127 170 227 262 327 404
#     4  10  21  40  65  95 133 168 210 266 335 387
#     4  11  25  43  63  95 132 173 215 278 325 384
#     4  11  21  39  68  91 127 171 222 271 320 391
#     4  11  21  41  60  94 128 171 218 266 323 382
#     4  11  23  41  63  96 131 166 222 273 325 383
#
# _framework density 22.273087
#
# number of rings (size 3 to 8) (size 9 to 14) (size 15 to 20)
#    0.000    1.250    5.000    1.500    0.000    1.500 
#    4.500    0.000    0.000    0.000    0.000    0.000 
#    0.000    0.000    0.000    0.000    0.000    0.000 
#
# Total GULP energy -178723.606480 kJ/mol
# GULP energy per Si atom -5585.112702 kJ/mol
# Density = 2.222239 g / cm^3
# Si number density = 22.273087 Si / 1000 Ang^3
#
#
#
# Elastic Constant Matrix: (Units=GPa)
#
#
# Indices 1 2 3 4 5 6 
#
# 1 43.0640 10.3740 21.3504 0.0000 0.0000 0.0000
# 2 10.3740 85.2735 12.7806 0.0000 0.0000 0.0000
# 3 21.3504 12.7806 153.9287 0.0000 0.0000 0.0000
# 4 0.0000 0.0000 0.0000 32.5902 0.0000 0.0000
# 5 0.0000 0.0000 0.0000 0.0000 41.9093 0.0000
# 6 0.0000 0.0000 0.0000 0.0000 0.0000 19.3201
#
#
#
# Elastic Compliance Matrix: (Units=1/GPa)
#
#
# Indices 1 2 3 4 5 6 
#
# 1 0.025494 -0.002604 -0.003320 0.000000 0.000000 0.000000
# 2 -0.002604 0.012141 -0.000647 0.000000 0.000000 0.000000
# 3 -0.003320 -0.000647 0.007011 0.000000 0.000000 0.000000
# 4 0.000000 0.000000 0.000000 0.030684 0.000000 0.000000
# 5 0.000000 0.000000 0.000000 0.000000 0.023861 0.000000
# 6 0.000000 0.000000 0.000000 0.000000 0.000000 0.051760
#
#
# Mechanical properties :
#
#
# Convention : Reuss Voigt Hill
#
# Bulk Modulus (GPa) = 31.74164 41.25290 36.49727
# Shear Modulus (GPa) = 28.63790 34.61464 31.62627
#
# Velocity S-wave (km/s) = 3.58964 3.94649 3.77229
# Velocity P-wave (km/s) = 5.60917 6.27120 5.94940
#
# Compressibility (1/GPa) = 0.03150436
#
# Stress axis : x y z
#
# Youngs Moduli (GPa) = 39.22416 82.36749 142.63885
#
# Poissons Ratio (x) = 0.21448 0.47356
# Poissons Ratio (y) = 0.10214 0.09227
# Poissons Ratio (z) = 0.13022 0.05328
#
# Static dielectric constant tensor:
#      x y z
#    x 1.868110 0.000000 0.000000 
#    y 0.000000 1.871270 0.000000 
#    z 0.000000 0.000000 1.861930 
# 
# From -- ./inp_files/7985.got.cif
#   From: 2010.05.17/outbox.cif.g08.bks.cpg/sg37_4_cif.got.tgz:7985.got - 2010.06.03 17:53:42.
