data_PCOD9354565
_publ_section_title
;
Structure prediction by ZEFSAII (Michael W. Deem and Ramdas Pophale) SiO2 
 PCOD9354565
Probable space group: C C C 2
;
_chemical_formula_sum "Si O2"
_cell_formula_units_Z 64
_cell_length_a 18.249045
_cell_length_b 5.463084
_cell_length_c 32.408624
_cell_angle_alpha 90.000000
_cell_angle_beta 90.000000
_cell_angle_gamma 90.000000
_cell_volume 3231.012309
_symmetry_space_group_name_H-M "C C C 2"
_symmetry_group_IT_number 37
_symmetry_cell_setting 'orthorhombic'
loop_
_space_group_symop_operation_xyz
x,y,z
-x,-y,z
-x,y,1/2+z
x,-y,1/2+z
1/2+x,1/2+y,z
1/2-x,1/2-y,z
1/2-x,1/2+y,1/2+z
1/2+x,1/2-y,1/2+z
loop_
_atom_site_type_symbol
_atom_site_label
_atom_site_fract_x
_atom_site_fract_y
_atom_site_fract_z
Si Si1 0.923780 0.484353 0.020120
Si Si2 0.823413 0.904499 0.496832
Si Si3 0.423822 0.653211 0.442115
Si Si4 0.047016 0.251450 0.240281
Si Si5 0.046508 0.751000 0.645509
Si Si6 0.836773 0.742634 0.864333
Si Si7 0.671203 0.738125 0.077893
Si Si8 0.335216 0.255551 0.312199
O O1 0.901465 0.230419 0.001370
O O2 0.857568 0.533258 0.051226
O O3 0.000000 0.500000 0.043347
O O4 0.932499 0.669409 0.981946
O O5 0.750000 0.750000 0.491542
O O6 0.843666 0.039204 0.454757
O O7 0.818417 0.050483 0.539687
O O8 0.500000 0.500000 0.436953
O O9 0.399195 0.776494 0.399596
O O10 0.000000 0.500000 0.247438
O O11 0.073919 0.267088 0.192730
O O12 0.111677 0.239555 0.273142
O O13 0.000000 0.000000 0.243756
O O14 0.109828 0.793066 0.611992
O O15 0.000000 0.500000 0.638274
O O16 0.000000 0.000000 0.643016
O O17 0.750000 0.750000 0.877275
O O18 0.846267 0.497728 0.837085
O O19 0.848121 0.999400 0.839707
O O20 0.750000 0.750000 0.098225
O O21 0.250000 0.250000 0.299466
#
# Coordination Sequence:
#
# PCOD9354565 Si02
#       8
#     8   8   8   8   8   8   8   8
#     4  11  23  40  59  83 119 159 207 259 315 364
#     4  11  24  40  61  85 121 165 211 266 315 373
#     4  11  25  39  58  89 116 159 213 262 313 373
#     4  10  21  41  67  97 128 162 205 249 309 375
#     4  10  24  42  65  95 128 166 204 253 312 372
#     4  10  24  40  63  93 126 163 205 256 313 371
#     4  11  24  38  59  91 120 160 213 259 310 370
#     4  10  22  42  65  94 126 163 205 250 310 375
#
# _framework density 19.808032999999998
#
# number of rings (size 3 to 8) (size 9 to 14) (size 15 to 20)
#    0.000    1.500    2.500    1.125    7.000    2.500 
#    0.000    0.000    0.000    5.250    0.000    0.000 
#    0.000    0.000    0.000    0.000    0.000    0.000 
#
# Total GULP energy -178146.962847 kJ/mol
# GULP energy per Si atom -5567.092589 kJ/mol
# Density = 1.976295 g / cm^3
# Si number density = 19.808033 Si / 1000 Ang^3
#
#
#
# Elastic Constant Matrix: (Units=GPa)
#
#
# Indices 1 2 3 4 5 6 
#
# 1 98.2470 20.8473 62.0806 0.0000 0.0000 0.0000
# 2 20.8473 85.1163 23.4177 0.0000 0.0000 0.0000
# 3 62.0806 23.4177 109.6850 0.0000 0.0000 0.0000
# 4 0.0000 0.0000 0.0000 130.8561 0.0000 0.0000
# 5 0.0000 0.0000 0.0000 0.0000 28.6222 0.0000
# 6 0.0000 0.0000 0.0000 0.0000 0.0000 23.9714
#
#
#
# Elastic Compliance Matrix: (Units=1/GPa)
#
#
# Indices 1 2 3 4 5 6 
#
# 1 0.016028 -0.001519 -0.008747 0.000000 0.000000 0.000000
# 2 -0.001519 0.012626 -0.001836 0.000000 0.000000 0.000000
# 3 -0.008747 -0.001836 0.014460 0.000000 0.000000 0.000000
# 4 0.000000 0.000000 0.000000 0.007642 0.000000 0.000000
# 5 0.000000 0.000000 0.000000 0.000000 0.034938 0.000000
# 6 0.000000 0.000000 0.000000 0.000000 0.000000 0.041716
#
#
# Mechanical properties :
#
#
# Convention : Reuss Voigt Hill
#
# Bulk Modulus (GPa) = 52.88442 56.19328 54.53885
# Shear Modulus (GPa) = 31.66205 49.13678 40.39942
#
# Velocity S-wave (km/s) = 4.00239 4.98602 4.52103
# Velocity P-wave (km/s) = 6.93652 7.84714 7.40584
#
# Compressibility (1/GPa) = 0.01890916
#
# Stress axis : x y z
#
# Youngs Moduli (GPa) = 62.39044 79.20307 69.15679
#
# Poissons Ratio (x) = 0.12032 0.60494
# Poissons Ratio (y) = 0.09478 0.12696
# Poissons Ratio (z) = 0.54575 0.14540
#
# Static dielectric constant tensor:
#      x y z
#    x 1.682380 0.000000 0.000000 
#    y 0.000000 1.773440 0.000000 
#    z 0.000000 0.000000 1.686790 
# 
# From -- ./inp_files/20631.got.cif
#   From: 2010.05.17/outbox.cif.g08.bks.cpg/sg37_11_cif.got.tgz:20631.got - 2010.06.03 17:53:42.
