data_PCOD9354330
_publ_section_title
;
Structure prediction by ZEFSAII (Michael W. Deem and Ramdas Pophale) SiO2 
 PCOD9354330
Probable space group: C C C 2
;
_chemical_formula_sum "Si O2"
_cell_formula_units_Z 60
_cell_length_a 14.554974
_cell_length_b 22.012268
_cell_length_c 9.256723
_cell_angle_alpha 90.000000
_cell_angle_beta 90.000000
_cell_angle_gamma 90.000000
_cell_volume 2965.742861
_symmetry_space_group_name_H-M "C C C 2"
_symmetry_group_IT_number 37
_symmetry_cell_setting 'orthorhombic'
loop_
_space_group_symop_operation_xyz
x,y,z
-x,-y,z
-x,y,1/2+z
x,-y,1/2+z
1/2+x,1/2+y,z
1/2-x,1/2-y,z
1/2-x,1/2+y,1/2+z
1/2+x,1/2-y,1/2+z
loop_
_atom_site_type_symbol
_atom_site_label
_atom_site_fract_x
_atom_site_fract_y
_atom_site_fract_z
Si Si1 0.203999 0.656256 0.928520
Si Si2 0.878312 0.264687 0.179057
Si Si3 0.321928 0.378542 0.679057
Si Si4 0.157293 0.190971 0.179057
Si Si5 0.973325 0.918436 0.179057
Si Si6 0.203999 0.656256 0.429594
Si Si7 0.080252 0.674630 0.679057
Si Si8 0.500000 0.500000 0.929057
O O1 0.284005 0.675125 0.819226
O O2 0.117991 0.640685 0.822715
O O3 0.168069 0.708949 0.034693
O O4 0.255950 0.612022 0.040849
O O5 0.861210 0.192021 0.179057
O O6 0.831931 0.291051 0.323422
O O7 0.976943 0.299534 0.179057
O O8 0.415748 0.416065 0.679057
O O9 0.255950 0.387978 0.817265
O O10 0.068246 0.148281 0.179057
O O11 0.133490 0.261035 0.179057
O O12 0.215995 0.175125 0.038888
O O13 0.945352 0.955437 0.321652
O O14 0.945352 0.955437 0.036462
O O15 0.117990 0.640685 0.535399
#
# Coordination Sequence:
#
# PCOD9354330 Si02
#       8
#     8   8   8   8   8   8   8   4
#     4  10  21  30  46  69 102 131 177 221 234 271
#     4  11  19  31  45  71 102 141 176 209 239 277
#     4  11  19  34  49  70  94 139 181 203 244 305
#     4  11  19  34  49  70  94 139 181 203 244 305
#     4  11  22  38  56  74 100 138 172 216 260 321
#     4  10  21  30  46  69 102 131 177 221 234 271
#     4  11  19  31  45  71 102 141 176 209 239 277
#     4  10  24  38  52  78 100 122 170 234 280 282
#
# _framework density 20.231017999999999
#
# number of rings (size 3 to 8) (size 9 to 14) (size 15 to 20)
#    0.000    1.333    1.333    8.800    0.000    0.000 
#    0.000    0.000    0.000    0.000    0.000    0.000 
#    0.000    0.000    0.000 1108.800    0.000    0.000 
#
# Total GULP energy -167155.106050 kJ/mol
# GULP energy per Si atom -5571.836868 kJ/mol
# Density = 2.018497 g / cm^3
# Si number density = 20.231018 Si / 1000 Ang^3
#
#
#
# Elastic Constant Matrix: (Units=GPa)
#
#
# Indices 1 2 3 4 5 6 
#
# 1 106.4439 0.2635 31.4423 0.0000 0.0000 0.0000
# 2 0.2635 28.4702 5.0764 0.0000 0.0000 0.0000
# 3 31.4423 5.0764 153.8027 0.0000 0.0000 0.0000
# 4 0.0000 0.0000 0.0000 8.7078 0.0000 0.0000
# 5 0.0000 0.0000 0.0000 0.0000 -28.2327 0.0000
# 6 0.0000 0.0000 0.0000 0.0000 0.0000 6.5035
#
#
#
# Elastic Compliance Matrix: (Units=1/GPa)
#
#
# Indices 1 2 3 4 5 6 
#
# 1 0.010001 0.000274 -0.002053 0.000000 0.000000 0.000000
# 2 0.000274 0.035340 -0.001222 0.000000 0.000000 0.000000
# 3 -0.002053 -0.001222 0.006962 0.000000 0.000000 0.000000
# 4 0.000000 0.000000 0.000000 0.114839 0.000000 0.000000
# 5 0.000000 0.000000 0.000000 0.000000 -0.035420 0.000000
# 6 0.000000 0.000000 0.000000 0.000000 0.000000 0.153764
#
#
# Mechanical properties :
#
#
# Convention : Reuss Voigt Hill
#
# Bulk Modulus (GPa) = 21.59924 40.25348 30.92636
# Shear Modulus (GPa) = 16.29076 14.19136 15.24106
#
# Velocity S-wave (km/s) = 2.84075 2.65139 2.74770
# Velocity P-wave (km/s) = 4.63242 5.41417 5.03848
#
# Compressibility (1/GPa) = 0.04629792
#
# Stress axis : x y z
#
# Youngs Moduli (GPa) = 99.99492 28.29662 143.63741
#
# Poissons Ratio (x) = -0.00774 0.29495
# Poissons Ratio (y) = -0.02736 0.17558
# Poissons Ratio (z) = 0.20534 0.03459
#
# Static dielectric constant tensor:
#      x y z
#    x 1.796550 0.000000 0.000000 
#    y 0.000000 1.692130 0.000000 
#    z 0.000000 0.000000 1.786680 
# 
# From -- ./inp_files/3731.got.cif
#   From: 2010.05.17/outbox.cif.g08.bks.cpg/sg37_2_cif.got.tgz:3731.got - 2010.06.03 17:53:42.
