data_PCOD9354267
_publ_section_title
;
Structure prediction by ZEFSAII (Michael W. Deem and Ramdas Pophale) SiO2 
 PCOD9354267
Probable space group: C C C 2
;
_chemical_formula_sum "Si O2"
_cell_formula_units_Z 36
_cell_length_a 13.037656
_cell_length_b 10.409146
_cell_length_c 10.985098
_cell_angle_alpha 90.000000
_cell_angle_beta 90.000000
_cell_angle_gamma 90.000000
_cell_volume 1490.797150
_symmetry_space_group_name_H-M "C C C 2"
_symmetry_group_IT_number 37
_symmetry_cell_setting 'orthorhombic'
loop_
_space_group_symop_operation_xyz
x,y,z
-x,-y,z
-x,y,1/2+z
x,-y,1/2+z
1/2+x,1/2+y,z
1/2-x,1/2-y,z
1/2-x,1/2+y,1/2+z
1/2+x,1/2-y,1/2+z
loop_
_atom_site_type_symbol
_atom_site_label
_atom_site_fract_x
_atom_site_fract_y
_atom_site_fract_z
Si Si1 0.429137 0.667292 0.956680
Si Si2 0.790035 0.986845 0.629145
Si Si3 0.250000 0.250000 0.272455
Si Si4 0.143374 0.794066 0.344128
Si Si5 0.578068 0.885731 0.642771
O O1 0.349356 0.734348 0.861789
O O2 0.538878 0.647779 0.896030
O O3 0.371287 0.549174 0.024211
O O4 0.457689 0.765905 0.064565
O O5 0.821390 0.895568 0.741820
O O6 0.682457 0.933620 0.581460
O O7 0.766281 0.126128 0.685055
O O8 0.250000 0.750000 0.410629
O O9 0.104718 0.665298 0.276339
O O10 0.500000 0.000000 0.646781
#
# Coordination Sequence:
#
# PCOD9354267 Si02
#       5
#     8   8   4   8   8
#     4  11  22  46  79 109 152 202 250 326 393 455
#     4  10  23  46  72 111 154 192 264 322 381 479
#     4  12  24  44  82 108 152 212 244 316 414 458
#     4   9  21  43  74 107 151 201 252 320 389 458
#     4  10  20  41  75 110 146 193 262 321 371 470
#
# _framework density 24.148153000000001
#
# number of rings (size 3 to 8) (size 9 to 14) (size 15 to 20)
#    0.000    1.778    2.222    2.667    0.000    5.333 
#    0.000   13.333   19.556    0.000    0.000    0.000 
#    0.000    0.000    0.000    0.000    0.000    0.000 
#
# Total GULP energy -100514.844704 kJ/mol
# GULP energy per Si atom -5584.158039 kJ/mol
# Density = 2.409319 g / cm^3
# Si number density = 24.148153 Si / 1000 Ang^3
#
#
#
# Elastic Constant Matrix: (Units=GPa)
#
#
# Indices 1 2 3 4 5 6 
#
# 1 204.1497 57.9223 63.7626 0.0000 0.0000 0.0000
# 2 57.9223 111.1026 33.1225 0.0000 0.0000 0.0000
# 3 63.7626 33.1225 71.5874 0.0000 0.0000 0.0000
# 4 0.0000 0.0000 0.0000 36.2963 0.0000 0.0000
# 5 0.0000 0.0000 0.0000 0.0000 9.7804 0.0000
# 6 0.0000 0.0000 0.0000 0.0000 0.0000 45.1577
#
#
#
# Elastic Compliance Matrix: (Units=1/GPa)
#
#
# Indices 1 2 3 4 5 6 
#
# 1 0.007198 -0.002136 -0.005423 0.000000 0.000000 0.000000
# 2 -0.002136 0.011075 -0.003222 0.000000 0.000000 0.000000
# 3 -0.005423 -0.003222 0.020290 0.000000 0.000000 0.000000
# 4 0.000000 0.000000 0.000000 0.027551 0.000000 0.000000
# 5 0.000000 0.000000 0.000000 0.000000 0.102245 0.000000
# 6 0.000000 0.000000 0.000000 0.000000 0.000000 0.022145
#
#
# Mechanical properties :
#
#
# Convention : Reuss Voigt Hill
#
# Bulk Modulus (GPa) = 58.81875 77.38383 68.10129
# Shear Modulus (GPa) = 22.96398 33.71571 28.33984
#
# Velocity S-wave (km/s) = 3.08711 3.74063 3.42948
# Velocity P-wave (km/s) = 6.09240 7.12541 6.62906
#
# Compressibility (1/GPa) = 0.01700138
#
# Stress axis : x y z
#
# Youngs Moduli (GPa) = 138.92335 90.29597 49.28558
#
# Poissons Ratio (x) = 0.19287 0.26728
# Poissons Ratio (y) = 0.29673 0.15878
# Poissons Ratio (z) = 0.75340 0.29090
#
# Static dielectric constant tensor:
#      x y z
#    x 1.908440 0.000000 0.000000 
#    y 0.000000 1.911160 0.000000 
#    z 0.000000 0.000000 1.953800 
# 
# From -- ./inp_files/6876.got.cif
#   From: 2010.05.17/outbox.cif.g08.bks.cpg/sg37_4_cif.got.tgz:6876.got - 2010.06.03 17:53:42.
