data_PCOD9354252
_publ_section_title
;
Structure prediction by ZEFSAII (Michael W. Deem and Ramdas Pophale) SiO2 
 PCOD9354252
Probable space group: C C C 2
;
_chemical_formula_sum "Si O2"
_cell_formula_units_Z 44
_cell_length_a 8.745509
_cell_length_b 18.904150
_cell_length_c 13.022522
_cell_angle_alpha 90.000000
_cell_angle_beta 90.000000
_cell_angle_gamma 90.000000
_cell_volume 2152.966863
_symmetry_space_group_name_H-M "C C C 2"
_symmetry_group_IT_number 37
_symmetry_cell_setting 'orthorhombic'
loop_
_space_group_symop_operation_xyz
x,y,z
-x,-y,z
-x,y,1/2+z
x,-y,1/2+z
1/2+x,1/2+y,z
1/2-x,1/2-y,z
1/2-x,1/2+y,1/2+z
1/2+x,1/2-y,1/2+z
loop_
_atom_site_type_symbol
_atom_site_label
_atom_site_fract_x
_atom_site_fract_y
_atom_site_fract_z
Si Si1 0.750000 0.250000 0.911500
Si Si2 0.137923 0.103058 0.402993
Si Si3 0.848754 0.850558 0.770507
Si Si4 0.883361 0.562776 0.226825
Si Si5 0.468380 0.202745 0.769262
Si Si6 0.837252 0.026903 0.110479
O O1 0.809218 0.176709 0.957650
O O2 0.605171 0.224411 0.844393
O O3 0.258649 0.079742 0.315339
O O4 0.143217 0.046577 0.492660
O O5 0.974644 0.117546 0.348333
O O6 0.687212 0.827326 0.820563
O O7 0.919799 0.778312 0.722237
O O8 0.806963 0.905863 0.682550
O O9 0.791260 0.531219 0.131076
O O10 0.000000 0.500000 0.259131
O O11 0.966741 0.637100 0.204213
O O12 0.000000 0.000000 0.149276
#
# Coordination Sequence:
#
# PCOD9354252 Si02
#       6
#     4   8   8   8   8   8
#     4   8  18  40  66  94 122 168 206 262 322 376
#     4  10  23  41  66  88 128 165 215 264 320 384
#     4  10  20  41  66  92 125 170 213 262 322 383
#     4  11  22  41  63  93 128 164 208 266 325 383
#     4   9  19  37  71  90 127 169 210 260 324 385
#     4  12  25  38  63  95 124 170 213 259 324 385
#
# _framework density 20.436914000000002
#
# number of rings (size 3 to 8) (size 9 to 14) (size 15 to 20)
#    0.000    1.818    3.636    0.000    2.545    2.182 
#    0.000    1.818   12.000    0.000    0.000    0.000 
#    0.000    0.000    0.000    0.000    0.000    0.000 
#
# Total GULP energy -122510.798791 kJ/mol
# GULP energy per Si atom -5568.672672 kJ/mol
# Density = 2.039040 g / cm^3
# Si number density = 20.436914 Si / 1000 Ang^3
#
#
#
# Elastic Constant Matrix: (Units=GPa)
#
#
# Indices 1 2 3 4 5 6 
#
# 1 138.0453 42.4070 28.2811 0.0000 0.0000 0.0000
# 2 42.4070 114.5271 32.7819 0.0000 0.0000 0.0000
# 3 28.2811 32.7819 50.6518 0.0000 0.0000 0.0000
# 4 0.0000 0.0000 0.0000 17.6518 0.0000 0.0000
# 5 0.0000 0.0000 0.0000 0.0000 2.3857 0.0000
# 6 0.0000 0.0000 0.0000 0.0000 0.0000 49.1414
#
#
#
# Elastic Compliance Matrix: (Units=1/GPa)
#
#
# Indices 1 2 3 4 5 6 
#
# 1 0.008619 -0.002226 -0.003371 0.000000 0.000000 0.000000
# 2 -0.002226 0.011292 -0.006065 0.000000 0.000000 0.000000
# 3 -0.003371 -0.006065 0.025550 0.000000 0.000000 0.000000
# 4 0.000000 0.000000 0.000000 0.056651 0.000000 0.000000
# 5 0.000000 0.000000 0.000000 0.000000 0.419161 0.000000
# 6 0.000000 0.000000 0.000000 0.000000 0.000000 0.020349
#
#
# Mechanical properties :
#
#
# Convention : Reuss Voigt Hill
#
# Bulk Modulus (GPa) = 45.17637 56.68492 50.93065
# Shear Modulus (GPa) = 8.73627 27.15274 17.94451
#
# Velocity S-wave (km/s) = 2.06979 3.64897 2.96640
# Velocity P-wave (km/s) = 5.27876 6.74908 6.05869
#
# Compressibility (1/GPa) = 0.02213546
#
# Stress axis : x y z
#
# Youngs Moduli (GPa) = 116.02846 88.55847 39.13845
#
# Poissons Ratio (x) = 0.19716 0.13195
# Poissons Ratio (y) = 0.25831 0.23738
# Poissons Ratio (z) = 0.39116 0.53712
#
# Static dielectric constant tensor:
#      x y z
#    x 1.769870 0.000000 0.000000 
#    y 0.000000 1.803290 0.000000 
#    z 0.000000 0.000000 1.663270 
# 
# From -- ./inp_files/10518.got.cif
#   From: 2010.05.17/outbox.cif.g08.bks.cpg/sg37_6_cif.got.tgz:10518.got - 2010.06.03 17:53:42.
