data_PCOD9354896
_publ_section_title
;
Structure prediction by ZEFSAII (Michael W. Deem and Ramdas Pophale) SiO2 
 PCOD9354896
Probable space group: C C C 2
;
_chemical_formula_sum "Si O2"
_cell_formula_units_Z 40
_cell_length_a 11.139844
_cell_length_b 7.498436
_cell_length_c 19.219056
_cell_angle_alpha 90.000000
_cell_angle_beta 90.000000
_cell_angle_gamma 90.000000
_cell_volume 1605.394794
_symmetry_space_group_name_H-M "C C C 2"
_symmetry_group_IT_number 37
_symmetry_cell_setting 'orthorhombic'
loop_
_space_group_symop_operation_xyz
x,y,z
-x,-y,z
-x,y,1/2+z
x,-y,1/2+z
1/2+x,1/2+y,z
1/2-x,1/2-y,z
1/2-x,1/2+y,1/2+z
1/2+x,1/2-y,1/2+z
loop_
_atom_site_type_symbol
_atom_site_label
_atom_site_fract_x
_atom_site_fract_y
_atom_site_fract_z
Si Si1 0.504803 0.709988 0.256260
Si Si2 0.500000 0.000000 0.522321
Si Si3 0.914042 0.825989 0.114439
Si Si4 0.250000 0.250000 0.793655
Si Si5 0.654713 0.405651 0.878356
Si Si6 0.738850 0.451344 0.019603
O O1 0.500000 0.500000 0.243324
O O2 0.591392 0.759479 0.192361
O O3 0.372609 0.794138 0.251939
O O4 0.550553 0.698060 0.335816
O O5 0.521622 0.175145 0.568688
O O6 0.370435 0.011501 0.485831
O O7 0.795163 0.913919 0.080642
O O8 0.000000 0.000000 0.111448
O O9 0.291780 0.424048 0.837063
O O10 0.750000 0.250000 0.882404
O O11 0.640787 0.464976 0.958142
O O12 0.750000 0.250000 0.046447
#
# Coordination Sequence:
#
# PCOD9354896 Si02
#       6
#     8   4   8   4   8   8
#     4   9  22  44  69 103 138 183 228 286 354 415
#     4  12  26  42  72 108 132 194 236 288 370 416
#     4  11  24  44  71 103 146 183 235 299 352 426
#     4  10  22  42  70  98 138 180 224 292 346 418
#     4  10  24  42  66 101 135 180 235 285 353 418
#     4  11  25  47  70 102 144 187 237 298 352 424
#
# _framework density 24.915989
#
# number of rings (size 3 to 8) (size 9 to 14) (size 15 to 20)
#    0.000    1.600    2.000    0.600    2.800   14.400 
#    1.800    0.000    0.000    1.200    0.000    0.000 
#    0.000    0.000    0.000    0.000    0.000    0.000 
#
# Total GULP energy -111402.536338 kJ/mol
# GULP energy per Si atom -5570.126817 kJ/mol
# Density = 2.485928 g / cm^3
# Si number density = 24.915989 Si / 1000 Ang^3
#
#
#
# Elastic Constant Matrix: (Units=GPa)
#
#
# Indices 1 2 3 4 5 6 
#
# 1 157.4028 15.0607 64.4556 0.0000 0.0000 0.0000
# 2 15.0607 113.5711 23.7002 0.0000 0.0000 0.0000
# 3 64.4556 23.7002 117.1651 0.0000 0.0000 0.0000
# 4 0.0000 0.0000 0.0000 177.1129 0.0000 0.0000
# 5 0.0000 0.0000 0.0000 0.0000 35.5641 0.0000
# 6 0.0000 0.0000 0.0000 0.0000 0.0000 23.3032
#
#
#
# Elastic Compliance Matrix: (Units=1/GPa)
#
#
# Indices 1 2 3 4 5 6 
#
# 1 0.008203 -0.000153 -0.004482 0.000000 0.000000 0.000000
# 2 -0.000153 0.009196 -0.001776 0.000000 0.000000 0.000000
# 3 -0.004482 -0.001776 0.011360 0.000000 0.000000 0.000000
# 4 0.000000 0.000000 0.000000 0.005646 0.000000 0.000000
# 5 0.000000 0.000000 0.000000 0.000000 0.028118 0.000000
# 6 0.000000 0.000000 0.000000 0.000000 0.000000 0.042912
#
#
# Mechanical properties :
#
#
# Convention : Reuss Voigt Hill
#
# Bulk Modulus (GPa) = 62.74482 66.06357 64.40419
# Shear Modulus (GPa) = 40.46308 66.19088 53.32698
#
# Velocity S-wave (km/s) = 4.03424 5.15978 4.63133
# Velocity P-wave (km/s) = 6.85108 7.87844 7.38265
#
# Compressibility (1/GPa) = 0.01593757
#
# Stress axis : x y z
#
# Youngs Moduli (GPa) = 121.90646 108.74347 88.02931
#
# Poissons Ratio (x) = 0.01659 0.39453
# Poissons Ratio (y) = 0.01859 0.15636
# Poissons Ratio (z) = 0.54637 0.19316
#
# Static dielectric constant tensor:
#      x y z
#    x 2.060320 0.000000 0.000000 
#    y 0.000000 1.960290 0.000000 
#    z 0.000000 0.000000 2.170970 
# 
# From -- ./inp_files/16783.got.cif
#   From: 2010.05.17/outbox.cif.g08.bks.cpg/sg37_9_cif.got.tgz:16783.got - 2010.06.03 17:53:42.
