data_PCOD9354173
_publ_section_title
;
Structure prediction by ZEFSAII (Michael W. Deem and Ramdas Pophale) SiO2 
 PCOD9354173
Probable space group: C C C 2
;
_chemical_formula_sum "Si O2"
_cell_formula_units_Z 48
_cell_length_a 26.268412
_cell_length_b 8.093864
_cell_length_c 9.670782
_cell_angle_alpha 90.000000
_cell_angle_beta 90.000000
_cell_angle_gamma 90.000000
_cell_volume 2056.133531
_symmetry_space_group_name_H-M "C C C 2"
_symmetry_group_IT_number 37
_symmetry_cell_setting 'orthorhombic'
loop_
_space_group_symop_operation_xyz
x,y,z
-x,-y,z
-x,y,1/2+z
x,-y,1/2+z
1/2+x,1/2+y,z
1/2-x,1/2-y,z
1/2-x,1/2+y,1/2+z
1/2+x,1/2-y,1/2+z
loop_
_atom_site_type_symbol
_atom_site_label
_atom_site_fract_x
_atom_site_fract_y
_atom_site_fract_z
Si Si1 0.956407 0.638020 0.795750
Si Si2 0.518818 0.324038 0.013981
Si Si3 0.348925 0.776064 0.345219
Si Si4 0.804730 0.801473 0.126949
Si Si5 0.801510 0.187833 0.071473
Si Si6 0.381723 0.385656 0.352446
O O1 0.959992 0.730279 0.647905
O O2 0.896833 0.603497 0.822390
O O3 0.000000 0.500000 0.787012
O O4 0.973026 0.736298 0.933945
O O5 0.500000 0.500000 0.066504
O O6 0.560440 0.353190 0.892936
O O7 0.318219 0.796067 0.486834
O O8 0.311799 0.781911 0.214348
O O9 0.370685 0.584317 0.346217
O O10 0.750000 0.750000 0.186550
O O11 0.855920 0.804638 0.218705
O O12 0.796108 0.993742 0.095454
O O13 0.750000 0.250000 0.004854
O O14 0.850369 0.197845 0.976099
#
# Coordination Sequence:
#
# PCOD9354173 Si02
#       6
#     8   8   8   8   8   8
#     4  12  27  46  66 102 143 177 224 297 359 406
#     4  12  25  44  75  99 129 185 241 279 337 423
#     4  10  21  40  66  91 133 178 222 273 339 406
#     4  10  22  40  65  99 133 172 225 279 333 402
#     4  10  20  39  64  90 130 174 224 279 336 401
#     4  10  21  40  66  97 126 174 235 279 318 407
#
# _framework density 23.344787
#
# number of rings (size 3 to 8) (size 9 to 14) (size 15 to 20)
#    0.000    1.333    3.333    2.000    2.333    0.000 
#    6.000    0.000    0.000    0.000    0.000    0.000 
#    0.000    0.000    0.000    0.000    0.000    0.000 
#
# Total GULP energy -134118.887225 kJ/mol
# GULP energy per Si atom -5588.286968 kJ/mol
# Density = 2.329165 g / cm^3
# Si number density = 23.344787 Si / 1000 Ang^3
#
#
#
# Elastic Constant Matrix: (Units=GPa)
#
#
# Indices 1 2 3 4 5 6 
#
# 1 104.6070 17.2747 5.8921 0.0000 0.0000 0.0000
# 2 17.2747 30.0701 9.3212 0.0000 0.0000 0.0000
# 3 5.8921 9.3212 90.2953 0.0000 0.0000 0.0000
# 4 0.0000 0.0000 0.0000 183.5975 0.0000 0.0000
# 5 0.0000 0.0000 0.0000 0.0000 47.8217 0.0000
# 6 0.0000 0.0000 0.0000 0.0000 0.0000 32.2855
#
#
#
# Elastic Compliance Matrix: (Units=1/GPa)
#
#
# Indices 1 2 3 4 5 6 
#
# 1 0.010562 -0.006048 -0.000065 0.000000 0.000000 0.000000
# 2 -0.006048 0.037818 -0.003509 0.000000 0.000000 0.000000
# 3 -0.000065 -0.003509 0.011441 0.000000 0.000000 0.000000
# 4 0.000000 0.000000 0.000000 0.005447 0.000000 0.000000
# 5 0.000000 0.000000 0.000000 0.000000 0.020911 0.000000
# 6 0.000000 0.000000 0.000000 0.000000 0.000000 0.030974
#
#
# Mechanical properties :
#
#
# Convention : Reuss Voigt Hill
#
# Bulk Modulus (GPa) = 24.64426 32.21650 28.43038
# Shear Modulus (GPa) = 33.35079 65.57323 49.46201
#
# Velocity S-wave (km/s) = 3.78381 5.30566 4.60799
# Velocity P-wave (km/s) = 5.44694 7.16684 6.36525
#
# Compressibility (1/GPa) = 0.04057740
#
# Stress axis : x y z
#
# Youngs Moduli (GPa) = 94.67965 26.44267 87.40286
#
# Poissons Ratio (x) = 0.15991 0.00567
# Poissons Ratio (y) = 0.57258 0.30672
# Poissons Ratio (z) = 0.00615 0.09280
#
# Static dielectric constant tensor:
#      x y z
#    x 1.814350 0.000000 0.000000 
#    y 0.000000 1.906420 0.000000 
#    z 0.000000 0.000000 1.875520 
# 
# From -- ./inp_files/4946.got.cif
#   From: 2010.05.17/outbox.cif.g08.bks.cpg/sg37_3_cif.got.tgz:4946.got - 2010.06.03 17:53:42.
