data_PCOD9354623
_publ_section_title
;
Structure prediction by ZEFSAII (Michael W. Deem and Ramdas Pophale) SiO2 
 PCOD9354623
Probable space group: C C C 2
;
_chemical_formula_sum "Si O2"
_cell_formula_units_Z 40
_cell_length_a 15.220019
_cell_length_b 7.332016
_cell_length_c 15.871873
_cell_angle_alpha 90.000000
_cell_angle_beta 90.000000
_cell_angle_gamma 90.000000
_cell_volume 1771.196635
_symmetry_space_group_name_H-M "C C C 2"
_symmetry_group_IT_number 37
_symmetry_cell_setting 'orthorhombic'
loop_
_space_group_symop_operation_xyz
x,y,z
-x,-y,z
-x,y,1/2+z
x,-y,1/2+z
1/2+x,1/2+y,z
1/2-x,1/2-y,z
1/2-x,1/2+y,1/2+z
1/2+x,1/2-y,1/2+z
loop_
_atom_site_type_symbol
_atom_site_label
_atom_site_fract_x
_atom_site_fract_y
_atom_site_fract_z
Si Si1 0.855235 0.479973 0.906180
Si Si2 0.941107 0.154558 0.680190
Si Si3 0.676406 0.899836 0.083683
Si Si4 0.737226 0.534356 0.752168
Si Si5 0.489845 0.284088 0.857288
O O1 0.777749 0.456990 0.838498
O O2 0.928432 0.327450 0.892933
O O3 0.902925 0.677422 0.888150
O O4 0.828282 0.474702 0.003074
O O5 0.911584 0.293981 0.609222
O O6 0.998874 0.237009 0.755968
O O7 0.856459 0.057449 0.726530
O O8 0.000000 0.000000 0.639081
O O9 0.750000 0.750000 0.063105
O O10 0.703737 0.987510 0.171574
O O11 0.750000 0.750000 0.760896
O O12 0.500000 0.500000 0.875383
#
# Coordination Sequence:
#
# PCOD9354623 Si02
#       5
#     8   8   8   8   8
#     4  11  23  44  68  98 137 182 222 283 341 401
#     4  10  21  43  69  96 133 178 224 284 340 401
#     4  10  23  43  63  96 135 174 233 281 339 412
#     4  11  22  43  66  96 133 178 225 277 343 403
#     4  10  22  43  66 101 133 176 228 271 340 401
#
# _framework density 22.583603
#
# number of rings (size 3 to 8) (size 9 to 14) (size 15 to 20)
#    0.000    1.600    2.000    3.000    0.000    0.800 
#   25.200    0.000    0.000    0.000    0.000    0.000 
#    0.000    0.000    0.000    0.000    0.000    0.000 
#
# Total GULP energy -111776.208367 kJ/mol
# GULP energy per Si atom -5588.810418 kJ/mol
# Density = 2.253220 g / cm^3
# Si number density = 22.583603 Si / 1000 Ang^3
#
#
#
# Elastic Constant Matrix: (Units=GPa)
#
#
# Indices 1 2 3 4 5 6 
#
# 1 46.1230 6.9281 17.4836 0.0000 0.0000 0.0000
# 2 6.9281 80.7065 9.8641 0.0000 0.0000 0.0000
# 3 17.4836 9.8641 113.5576 0.0000 0.0000 0.0000
# 4 0.0000 0.0000 0.0000 -36.9510 0.0000 0.0000
# 5 0.0000 0.0000 0.0000 0.0000 59.1984 0.0000
# 6 0.0000 0.0000 0.0000 0.0000 0.0000 26.6643
#
#
#
# Elastic Compliance Matrix: (Units=1/GPa)
#
#
# Indices 1 2 3 4 5 6 
#
# 1 0.023221 -0.001573 -0.003438 0.000000 0.000000 0.000000
# 2 -0.001573 0.012630 -0.000855 0.000000 0.000000 0.000000
# 3 -0.003438 -0.000855 0.009410 0.000000 0.000000 0.000000
# 4 0.000000 0.000000 0.000000 -0.027063 0.000000 0.000000
# 5 0.000000 0.000000 0.000000 0.000000 0.016892 0.000000
# 6 0.000000 0.000000 0.000000 0.000000 0.000000 0.037503
#
#
# Mechanical properties :
#
#
# Convention : Reuss Voigt Hill
#
# Bulk Modulus (GPa) = 29.82602 34.32650 32.07626
# Shear Modulus (GPa) = 52.35467 23.52310 37.93888
#
# Velocity S-wave (km/s) = 4.82006 3.23089 4.10314
# Velocity P-wave (km/s) = 6.64927 5.39916 6.05656
#
# Compressibility (1/GPa) = 0.03352778
#
# Stress axis : x y z
#
# Youngs Moduli (GPa) = 43.06468 79.17589 106.27257
#
# Poissons Ratio (x) = 0.12455 0.36542
# Poissons Ratio (y) = 0.06774 0.09085
# Poissons Ratio (z) = 0.14808 0.06769
#
# Static dielectric constant tensor:
#      x y z
#    x 1.858300 0.000000 0.000000 
#    y 0.000000 2.425830 0.000000 
#    z 0.000000 0.000000 1.835690 
# 
# From -- ./inp_files/11987.got.cif
#   From: 2010.05.17/outbox.cif.g08.bks.cpg/sg37_6_cif.got.tgz:11987.got - 2010.06.03 17:53:42.
