data_PCOD9354840
_publ_section_title
;
Structure prediction by ZEFSAII (Michael W. Deem and Ramdas Pophale) SiO2 
 PCOD9354840
Probable space group: C C C 2
;
_chemical_formula_sum "Si O2"
_cell_formula_units_Z 64
_cell_length_a 24.124977
_cell_length_b 7.867574
_cell_length_c 15.202470
_cell_angle_alpha 90.000000
_cell_angle_beta 90.000000
_cell_angle_gamma 90.000000
_cell_volume 2885.505454
_symmetry_space_group_name_H-M "C C C 2"
_symmetry_group_IT_number 37
_symmetry_cell_setting 'orthorhombic'
loop_
_space_group_symop_operation_xyz
x,y,z
-x,-y,z
-x,y,1/2+z
x,-y,1/2+z
1/2+x,1/2+y,z
1/2-x,1/2-y,z
1/2-x,1/2+y,1/2+z
1/2+x,1/2-y,1/2+z
loop_
_atom_site_type_symbol
_atom_site_label
_atom_site_fract_x
_atom_site_fract_y
_atom_site_fract_z
Si Si1 0.496318 0.791721 0.610320
Si Si2 0.220766 0.574885 0.810767
Si Si3 0.819217 0.865213 0.847286
Si Si4 0.891997 0.668299 0.527860
Si Si5 0.625243 0.709695 0.356251
Si Si6 0.699308 0.852689 0.670554
Si Si7 0.999075 0.705564 0.312663
Si Si8 0.088626 0.711293 0.462548
O O1 0.551643 0.744177 0.558443
O O2 0.502212 0.736224 0.711173
O O3 0.442515 0.736191 0.553778
O O4 0.500000 0.000000 0.610902
O O5 0.250000 0.750000 0.832916
O O6 0.256360 0.434116 0.863472
O O7 0.156511 0.621685 0.822288
O O8 0.225434 0.524582 0.708842
O O9 0.818289 0.742912 0.761650
O O10 0.852959 0.786723 0.929013
O O11 0.851658 0.036228 0.817248
O O12 0.861690 0.790946 0.459864
O O13 0.852750 0.626398 0.609051
O O14 0.905209 0.491708 0.477639
O O15 0.560102 0.728958 0.345377
O O16 0.750000 0.750000 0.628471
O O17 0.000000 0.500000 0.311660
O O18 0.046962 0.752966 0.381645
#
# Coordination Sequence:
#
# PCOD9354840 Si02
#       8
#     8   8   8   8   8   8   8   8
#     4   9  20  33  58  95 123 157 218 266 328 387
#     4   9  21  42  66  94 123 174 233 266 329 413
#     4  10  23  42  63  92 134 176 213 279 343 399
#     4  11  21  39  63  95 127 171 216 278 329 401
#     4  11  22  39  66  91 128 175 222 268 332 407
#     4  10  22  41  65  95 134 173 217 280 342 401
#     4  11  20  37  65  94 126 171 216 273 328 396
#     4  11  20  39  63  95 128 165 222 276 332 402
#
# _framework density 22.179825000000001
#
# number of rings (size 3 to 8) (size 9 to 14) (size 15 to 20)
#    0.000    1.750    2.500    1.875    5.250    2.000 
#    2.250    2.500    0.000    0.000    0.000    0.000 
#    0.000    0.000    0.000    0.000    0.000    0.000 
#
# Total GULP energy -178429.815444 kJ/mol
# GULP energy per Si atom -5575.931733 kJ/mol
# Density = 2.212934 g / cm^3
# Si number density = 22.179825 Si / 1000 Ang^3
#
#
#
# Elastic Constant Matrix: (Units=GPa)
#
#
# Indices 1 2 3 4 5 6 
#
# 1 99.7015 18.4126 33.3350 0.0000 0.0000 0.0000
# 2 18.4126 52.6845 18.0227 0.0000 0.0000 0.0000
# 3 33.3350 18.0227 101.1120 0.0000 0.0000 0.0000
# 4 0.0000 0.0000 0.0000 7.0046 0.0000 0.0000
# 5 0.0000 0.0000 0.0000 0.0000 37.1470 0.0000
# 6 0.0000 0.0000 0.0000 0.0000 0.0000 22.4035
#
#
#
# Elastic Compliance Matrix: (Units=1/GPa)
#
#
# Indices 1 2 3 4 5 6 
#
# 1 0.011687 -0.002946 -0.003328 0.000000 0.000000 0.000000
# 2 -0.002946 0.020956 -0.002764 0.000000 0.000000 0.000000
# 3 -0.003328 -0.002764 0.011480 0.000000 0.000000 0.000000
# 4 0.000000 0.000000 0.000000 0.142764 0.000000 0.000000
# 5 0.000000 0.000000 0.000000 0.000000 0.026920 0.000000
# 6 0.000000 0.000000 0.000000 0.000000 0.000000 0.044636
#
#
# Mechanical properties :
#
#
# Convention : Reuss Voigt Hill
#
# Bulk Modulus (GPa) = 38.39234 43.67095 41.03164
# Shear Modulus (GPa) = 17.53155 25.55953 21.54554
#
# Velocity S-wave (km/s) = 2.81450 3.39835 3.12011
# Velocity P-wave (km/s) = 5.28290 5.92711 5.61425
#
# Compressibility (1/GPa) = 0.02604686
#
# Stress axis : x y z
#
# Youngs Moduli (GPa) = 85.56785 47.71896 87.10934
#
# Poissons Ratio (x) = 0.14058 0.28988
# Poissons Ratio (y) = 0.25208 0.24078
# Poissons Ratio (z) = 0.28475 0.13190
#
# Static dielectric constant tensor:
#      x y z
#    x 1.856190 0.000000 0.000000 
#    y 0.000000 1.890780 0.000000 
#    z 0.000000 0.000000 1.818220 
# 
# From -- ./inp_files/10979.got.cif
#   From: 2010.05.17/outbox.cif.g08.bks.cpg/sg37_6_cif.got.tgz:10979.got - 2010.06.03 17:53:42.
