data_PCOD9354271
_publ_section_title
;
Structure prediction by ZEFSAII (Michael W. Deem and Ramdas Pophale) SiO2 
 PCOD9354271
Probable space group: C C C 2
;
_chemical_formula_sum "Si O2"
_cell_formula_units_Z 60
_cell_length_a 27.448574
_cell_length_b 10.304745
_cell_length_c 9.465583
_cell_angle_alpha 90.000000
_cell_angle_beta 90.000000
_cell_angle_gamma 90.000000
_cell_volume 2677.345411
_symmetry_space_group_name_H-M "C C C 2"
_symmetry_group_IT_number 37
_symmetry_cell_setting 'orthorhombic'
loop_
_space_group_symop_operation_xyz
x,y,z
-x,-y,z
-x,y,1/2+z
x,-y,1/2+z
1/2+x,1/2+y,z
1/2-x,1/2-y,z
1/2-x,1/2+y,1/2+z
1/2+x,1/2-y,1/2+z
loop_
_atom_site_type_symbol
_atom_site_label
_atom_site_fract_x
_atom_site_fract_y
_atom_site_fract_z
Si Si1 0.305896 0.761919 0.946610
Si Si2 0.500000 0.500000 0.132966
Si Si3 0.159361 0.004765 0.794922
Si Si4 0.294016 0.404265 0.038485
Si Si5 0.612858 0.071869 0.055892
Si Si6 0.557240 0.635345 0.880231
Si Si7 0.447277 0.933465 0.328572
Si Si8 0.194021 0.384428 0.153712
O O1 0.250000 0.750000 0.998892
O O2 0.326793 0.634111 0.866665
O O3 0.301909 0.868671 0.821143
O O4 0.348571 0.810701 0.048666
O O5 0.476069 0.601437 0.243151
O O6 0.537069 0.569937 0.024188
O O7 0.167012 0.987630 0.628772
O O8 0.108573 0.068099 0.840298
O O9 0.199634 0.092251 0.872097
O O10 0.241805 0.452158 0.091244
O O11 0.302700 0.258630 0.088755
O O12 0.570605 0.090588 0.169354
O O13 0.645401 0.952329 0.107271
O O14 0.588859 0.032798 0.908035
O O15 0.556799 0.790831 0.899159
O O16 0.500000 0.000000 0.332784
#
# Coordination Sequence:
#
# PCOD9354271 Si02
#       8
#     8   4   8   8   8   8   8   8
#     4  11  22  44  68 103 148 196 228 286 369 442
#     4  10  26  48  74  98 144 180 232 308 370 440
#     4  11  22  39  67  97 134 180 228 287 341 426
#     4  10  21  37  66  92 138 178 223 275 344 410
#     4  12  26  45  73 105 140 192 247 302 364 452
#     4  11  26  47  72 106 136 185 242 300 377 438
#     4  12  30  49  74 105 144 192 253 314 380 442
#     4  10  20  42  62  96 138 187 228 274 348 429
#
# _framework density 22.410259
#
# number of rings (size 3 to 8) (size 9 to 14) (size 15 to 20)
#    0.000    1.067    4.000    2.800    7.467    2.133 
#    0.000    0.000    0.000    0.000    0.000    0.000 
#    0.000    0.000    0.000    0.000    0.000    0.000 
#
# Total GULP energy -167563.694110 kJ/mol
# GULP energy per Si atom -5585.456470 kJ/mol
# Density = 2.235925 g / cm^3
# Si number density = 22.410259 Si / 1000 Ang^3
#
#
#
# Elastic Constant Matrix: (Units=GPa)
#
#
# Indices 1 2 3 4 5 6 
#
# 1 118.5942 37.2640 8.4079 0.0000 0.0000 0.0000
# 2 37.2640 67.0940 9.2999 0.0000 0.0000 0.0000
# 3 8.4079 9.2999 66.8958 0.0000 0.0000 0.0000
# 4 0.0000 0.0000 0.0000 21.7512 0.0000 0.0000
# 5 0.0000 0.0000 0.0000 0.0000 25.7486 0.0000
# 6 0.0000 0.0000 0.0000 0.0000 0.0000 35.9335
#
#
#
# Elastic Compliance Matrix: (Units=1/GPa)
#
#
# Indices 1 2 3 4 5 6 
#
# 1 0.010231 -0.005612 -0.000506 0.000000 0.000000 0.000000
# 2 -0.005612 0.018276 -0.001835 0.000000 0.000000 0.000000
# 3 -0.000506 -0.001835 0.015267 0.000000 0.000000 0.000000
# 4 0.000000 0.000000 0.000000 0.045975 0.000000 0.000000
# 5 0.000000 0.000000 0.000000 0.000000 0.038837 0.000000
# 6 0.000000 0.000000 0.000000 0.000000 0.000000 0.027829
#
#
# Mechanical properties :
#
#
# Convention : Reuss Voigt Hill
#
# Bulk Modulus (GPa) = 35.88368 40.28083 38.08225
# Shear Modulus (GPa) = 27.53123 29.86080 28.69602
#
# Velocity S-wave (km/s) = 3.50881 3.65425 3.58227
# Velocity P-wave (km/s) = 5.69760 5.98482 5.84297
#
# Compressibility (1/GPa) = 0.02786782
#
# Stress axis : x y z
#
# Youngs Moduli (GPa) = 97.73747 54.71650 65.49935
#
# Poissons Ratio (x) = 0.30709 0.03312
# Poissons Ratio (y) = 0.54855 0.12021
# Poissons Ratio (z) = 0.04943 0.10042
#
# Static dielectric constant tensor:
#      x y z
#    x 1.858210 0.000000 0.000000 
#    y 0.000000 1.890420 0.000000 
#    z 0.000000 0.000000 1.823580 
# 
# From -- ./inp_files/4816.got.cif
#   From: 2010.05.17/outbox.cif.g08.bks.cpg/sg37_3_cif.got.tgz:4816.got - 2010.06.03 17:53:42.
