data_PCOD9354607
_publ_section_title
;
Structure prediction by ZEFSAII (Michael W. Deem and Ramdas Pophale) SiO2 
 PCOD9354607
Probable space group: C C C 2
;
_chemical_formula_sum "Si O2"
_cell_formula_units_Z 56
_cell_length_a 5.733807
_cell_length_b 14.799619
_cell_length_c 28.958539
_cell_angle_alpha 90.000000
_cell_angle_beta 90.000000
_cell_angle_gamma 90.000000
_cell_volume 2457.368307
_symmetry_space_group_name_H-M "C C C 2"
_symmetry_group_IT_number 37
_symmetry_cell_setting 'orthorhombic'
loop_
_space_group_symop_operation_xyz
x,y,z
-x,-y,z
-x,y,1/2+z
x,-y,1/2+z
1/2+x,1/2+y,z
1/2-x,1/2-y,z
1/2-x,1/2+y,1/2+z
1/2+x,1/2-y,1/2+z
loop_
_atom_site_type_symbol
_atom_site_label
_atom_site_fract_x
_atom_site_fract_y
_atom_site_fract_z
Si Si1 0.761583 0.858902 0.952450
Si Si2 0.189084 0.854581 0.801988
Si Si3 0.000000 0.500000 0.748013
Si Si4 0.250000 0.250000 0.566616
Si Si5 0.106432 0.098943 0.723185
Si Si6 0.888351 0.596960 0.048416
Si Si7 0.254248 0.857553 0.911444
Si Si8 0.104751 0.840472 0.629629
O O1 0.750000 0.750000 0.947081
O O2 0.508579 0.890441 0.930763
O O3 0.005619 0.892300 0.930646
O O4 0.783636 0.885125 0.006030
O O5 0.250000 0.750000 0.791874
O O6 0.340040 0.935512 0.779503
O O7 0.223430 0.867339 0.856296
O O8 0.942774 0.865064 0.774691
O O9 0.875677 0.576238 0.716907
O O10 0.438078 0.184270 0.542665
O O11 0.379655 0.321920 0.598909
O O12 0.979651 0.147037 0.681635
O O13 0.000000 0.000000 0.720648
O O14 0.765189 0.593848 0.098774
O O15 0.000000 0.500000 0.040644
O O16 0.250000 0.750000 0.921639
O O17 0.250000 0.750000 0.629050
#
# Coordination Sequence:
#
# PCOD9354607 Si02
#       8
#     8   8   4   4   8   8   8   8
#     4  10  21  42  71 102 141 184 235 294 357 425
#     4  10  22  43  69  99 136 180 235 283 351 421
#     4  10  24  42  64 100 138 182 226 292 354 414
#     4  10  24  42  70  98 134 180 226 296 352 424
#     4  10  23  41  65  97 137 175 224 284 344 420
#     4  11  26  44  69 100 136 183 234 291 355 429
#     4   9  21  39  71 102 138 186 235 291 357 421
#     4  10  23  44  67  97 130 175 229 282 354 416
#
# _framework density 22.788605
#
# number of rings (size 3 to 8) (size 9 to 14) (size 15 to 20)
#    0.000    2.000    0.000    1.714    9.000    6.286 
#    2.571    0.000    0.000    0.000    0.000    0.000 
#    0.000    0.000    0.000    0.000    0.000    0.000 
#
# Total GULP energy -155928.865948 kJ/mol
# GULP energy per Si atom -5568.888070 kJ/mol
# Density = 2.273674 g / cm^3
# Si number density = 22.788605 Si / 1000 Ang^3
#
#
#
# Elastic Constant Matrix: (Units=GPa)
#
#
# Indices 1 2 3 4 5 6 
#
# 1 102.0088 -0.7299 40.4445 0.0000 0.0000 0.0000
# 2 -0.7299 46.9662 -4.3358 0.0000 0.0000 0.0000
# 3 40.4445 -4.3358 67.8416 0.0000 0.0000 0.0000
# 4 0.0000 0.0000 0.0000 -0.9469 0.0000 0.0000
# 5 0.0000 0.0000 0.0000 0.0000 -207.3364 0.0000
# 6 0.0000 0.0000 0.0000 0.0000 0.0000 5.7159
#
#
#
# Elastic Compliance Matrix: (Units=1/GPa)
#
#
# Indices 1 2 3 4 5 6 
#
# 1 0.012850 -0.000510 -0.007693 0.000000 0.000000 0.000000
# 2 -0.000510 0.021439 0.001674 0.000000 0.000000 0.000000
# 3 -0.007693 0.001674 0.019434 0.000000 0.000000 0.000000
# 4 0.000000 0.000000 0.000000 -1.056038 0.000000 0.000000
# 5 0.000000 0.000000 0.000000 0.000000 -0.004823 0.000000
# 6 0.000000 0.000000 0.000000 0.000000 0.000000 0.174950
#
#
# Mechanical properties :
#
#
# Convention : Reuss Voigt Hill
#
# Bulk Modulus (GPa) = 24.59205 31.95269 28.27237
# Shear Modulus (GPa) = -6.20674 -28.41764 -17.31219
#
# Velocity S-wave (km/s) = -1.65213 -3.53513 -2.75923
# Velocity P-wave (km/s) = 2.67870 1.61590 1.51068
#
# Compressibility (1/GPa) = 0.04066355
#
# Stress axis : x y z
#
# Youngs Moduli (GPa) = 77.82371 46.64491 51.45748
#
# Poissons Ratio (x) = 0.02381 0.39586
# Poissons Ratio (y) = 0.03973 -0.08616
# Poissons Ratio (z) = 0.59870 -0.07811
#
# Static dielectric constant tensor:
#      x y z
#    x 0.355260 0.000000 0.000000 
#    y 0.000000 1.808340 0.000000 
#    z 0.000000 0.000000 1.837770 
# 
# From -- ./inp_files/20231.got.cif
#   From: 2010.05.17/outbox.cif.g08.bks.cpg/sg37_11_cif.got.tgz:20231.got - 2010.06.03 17:53:42.
