data_PCOD9354808
_publ_section_title
;
Structure prediction by ZEFSAII (Michael W. Deem and Ramdas Pophale) SiO2 
 PCOD9354808
Probable space group: C C C 2
;
_chemical_formula_sum "Si O2"
_cell_formula_units_Z 32
_cell_length_a 11.849306
_cell_length_b 7.893019
_cell_length_c 14.763720
_cell_angle_alpha 90.000000
_cell_angle_beta 90.000000
_cell_angle_gamma 90.000000
_cell_volume 1380.803449
_symmetry_space_group_name_H-M "C C C 2"
_symmetry_group_IT_number 37
_symmetry_cell_setting 'orthorhombic'
loop_
_space_group_symop_operation_xyz
x,y,z
-x,-y,z
-x,y,1/2+z
x,-y,1/2+z
1/2+x,1/2+y,z
1/2-x,1/2-y,z
1/2-x,1/2+y,1/2+z
1/2+x,1/2-y,1/2+z
loop_
_atom_site_type_symbol
_atom_site_label
_atom_site_fract_x
_atom_site_fract_y
_atom_site_fract_z
Si Si1 0.594462 0.640574 0.799130
Si Si2 0.844761 0.551032 0.511332
Si Si3 0.750000 0.250000 0.453276
Si Si4 0.105438 0.123849 0.594703
Si Si5 0.500000 0.000000 0.346796
O O1 0.500000 0.500000 0.816445
O O2 0.682163 0.635747 0.881153
O O3 0.641596 0.602029 0.699243
O O4 0.546346 0.833449 0.797068
O O5 0.839398 0.347394 0.515288
O O6 0.912972 0.676290 0.576004
O O7 0.712679 0.586179 0.531194
O O8 0.901170 0.572321 0.412822
O O9 0.000000 0.000000 0.577708
#
# Coordination Sequence:
#
# PCOD9354808 Si02
#       5
#     8   8   4   8   4
#     4  10  23  44  69  95 141 182 233 282 353 417
#     4  10  23  39  67  99 133 171 233 289 347 408
#     4  10  22  40  68 102 134 182 228 294 346 418
#     4  10  23  42  67  99 137 186 225 291 351 423
#     4  10  24  42  68 104 128 186 236 292 342 424
#
# _framework density 23.174911999999999
#
# number of rings (size 3 to 8) (size 9 to 14) (size 15 to 20)
#    0.000    2.000    0.000    1.500   14.000    1.000 
#    4.500    0.000    0.000    0.000    0.000    0.000 
#    0.000    0.000    0.000    0.000    0.000    0.000 
#
# Total GULP energy -89117.858642 kJ/mol
# GULP energy per Si atom -5569.866165 kJ/mol
# Density = 2.312216 g / cm^3
# Si number density = 23.174912 Si / 1000 Ang^3
#
#
#
# Elastic Constant Matrix: (Units=GPa)
#
#
# Indices 1 2 3 4 5 6 
#
# 1 131.3050 50.1609 56.0786 0.0000 0.0000 0.0000
# 2 50.1609 94.4590 63.1052 0.0000 0.0000 0.0000
# 3 56.0786 63.1052 89.7295 0.0000 0.0000 0.0000
# 4 0.0000 0.0000 0.0000 -2.5595 0.0000 0.0000
# 5 0.0000 0.0000 0.0000 0.0000 -55.5917 0.0000
# 6 0.0000 0.0000 0.0000 0.0000 0.0000 55.2425
#
#
#
# Elastic Compliance Matrix: (Units=1/GPa)
#
#
# Indices 1 2 3 4 5 6 
#
# 1 0.010643 -0.002279 -0.005049 0.000000 0.000000 0.000000
# 2 -0.002279 0.020457 -0.012963 0.000000 0.000000 0.000000
# 3 -0.005049 -0.012963 0.023416 0.000000 0.000000 0.000000
# 4 0.000000 0.000000 0.000000 -0.390704 0.000000 0.000000
# 5 0.000000 0.000000 0.000000 0.000000 -0.017988 0.000000
# 6 0.000000 0.000000 0.000000 0.000000 0.000000 0.018102
#
#
# Mechanical properties :
#
#
# Convention : Reuss Voigt Hill
#
# Bulk Modulus (GPa) = 71.75993 72.68697 72.22345
# Shear Modulus (GPa) = -17.19104 9.16152 -4.01476
#
# Velocity S-wave (km/s) = -2.72655 1.99042 -1.31762
# Velocity P-wave (km/s) = 4.59561 6.05929 5.37748
#
# Compressibility (1/GPa) = 0.01393535
#
# Stress axis : x y z
#
# Youngs Moduli (GPa) = 93.96171 48.88397 42.70498
#
# Poissons Ratio (x) = 0.11139 0.21561
# Poissons Ratio (y) = 0.21410 0.55357
# Poissons Ratio (z) = 0.47440 0.63367
#
# Static dielectric constant tensor:
#      x y z
#    x 2.275020 0.000000 0.000000 
#    y 0.000000 2.227310 0.000000 
#    z 0.000000 0.000000 1.801970 
# 
# From -- ./inp_files/11174.got.cif
#   From: 2010.05.17/outbox.cif.g08.bks.cpg/sg37_6_cif.got.tgz:11174.got - 2010.06.03 17:53:42.
