data_PCOD9354721
_publ_section_title
;
Structure prediction by ZEFSAII (Michael W. Deem and Ramdas Pophale) SiO2 
 PCOD9354721
Probable space group: C C C 2
;
_chemical_formula_sum "Si O2"
_cell_formula_units_Z 32
_cell_length_a 16.314583
_cell_length_b 15.229340
_cell_length_c 5.237980
_cell_angle_alpha 90.000000
_cell_angle_beta 90.000000
_cell_angle_gamma 90.000000
_cell_volume 1301.430247
_symmetry_space_group_name_H-M "C C C 2"
_symmetry_group_IT_number 37
_symmetry_cell_setting 'orthorhombic'
loop_
_space_group_symop_operation_xyz
x,y,z
-x,-y,z
-x,y,1/2+z
x,-y,1/2+z
1/2+x,1/2+y,z
1/2-x,1/2-y,z
1/2-x,1/2+y,1/2+z
1/2+x,1/2-y,1/2+z
loop_
_atom_site_type_symbol
_atom_site_label
_atom_site_fract_x
_atom_site_fract_y
_atom_site_fract_z
Si Si1 0.944718 0.334512 0.758460
Si Si2 0.463980 0.599556 0.340355
Si Si3 0.792610 0.447740 0.887090
Si Si4 0.818816 0.813320 0.104230
O O1 0.883709 0.414155 0.824444
O O2 0.882289 0.252667 0.737039
O O3 0.988470 0.336032 0.483093
O O4 0.500000 0.500000 0.313889
O O5 0.480534 0.638577 0.065209
O O6 0.372543 0.620460 0.429910
O O7 0.780660 0.524923 0.678921
O O8 0.728748 0.372804 0.806690
O O9 0.750000 0.750000 0.974863
#
# Coordination Sequence:
#
# PCOD9354721 Si02
#       4
#     8   8   8   8
#     4  11  24  45  71  96 134 180 229 279 339 406
#     4  10  22  38  64  95 125 167 217 273 323 387
#     4  11  26  43  68 100 136 178 224 283 341 406
#     4  10  24  44  66  99 140 179 220 278 348 408
#
# _framework density 24.588332999999999
#
# number of rings (size 3 to 8) (size 9 to 14) (size 15 to 20)
#    0.000    1.500    0.000    3.000    7.000    5.000 
#    0.000   13.750    0.000    0.000    0.000    0.000 
#    0.000    0.000    0.000    0.000    0.000    0.000 
#
# Total GULP energy -89455.441744 kJ/mol
# GULP energy per Si atom -5590.965109 kJ/mol
# Density = 2.453237 g / cm^3
# Si number density = 24.588333 Si / 1000 Ang^3
#
#
#
# Elastic Constant Matrix: (Units=GPa)
#
#
# Indices 1 2 3 4 5 6 
#
# 1 140.2001 42.7311 27.7552 0.0000 0.0000 0.0000
# 2 42.7311 70.9753 -5.9630 0.0000 0.0000 0.0000
# 3 27.7552 -5.9630 88.9178 0.0000 0.0000 0.0000
# 4 0.0000 0.0000 0.0000 29.4949 0.0000 0.0000
# 5 0.0000 0.0000 0.0000 0.0000 20.2159 0.0000
# 6 0.0000 0.0000 0.0000 0.0000 0.0000 61.8033
#
#
#
# Elastic Compliance Matrix: (Units=1/GPa)
#
#
# Indices 1 2 3 4 5 6 
#
# 1 0.009675 -0.006113 -0.003430 0.000000 0.000000 0.000000
# 2 -0.006113 0.018032 0.003117 0.000000 0.000000 0.000000
# 3 -0.003430 0.003117 0.012526 0.000000 0.000000 0.000000
# 4 0.000000 0.000000 0.000000 0.033904 0.000000 0.000000
# 5 0.000000 0.000000 0.000000 0.000000 0.049466 0.000000
# 6 0.000000 0.000000 0.000000 0.000000 0.000000 0.016180
#
#
# Mechanical properties :
#
#
# Convention : Reuss Voigt Hill
#
# Bulk Modulus (GPa) = 36.52096 47.68221 42.10159
# Shear Modulus (GPa) = 30.90976 38.00748 34.45862
#
# Velocity S-wave (km/s) = 3.54939 3.93587 3.74762
# Velocity P-wave (km/s) = 5.62875 6.33159 5.99049
#
# Compressibility (1/GPa) = 0.02738153
#
# Stress axis : x y z
#
# Youngs Moduli (GPa) = 103.36114 55.45802 79.83382
#
# Poissons Ratio (x) = 0.33901 0.27382
# Poissons Ratio (y) = 0.63184 -0.24887
# Poissons Ratio (z) = 0.35452 -0.17288
#
# Static dielectric constant tensor:
#      x y z
#    x 1.946880 0.000000 0.000000 
#    y 0.000000 1.816880 0.000000 
#    z 0.000000 0.000000 1.909570 
# 
# From -- ./inp_files/411.got.cif
#   From: 2010.05.17/outbox.cif.g08.bks.cpg/sg37_1_cif.got.tgz:411.got - 2010.06.03 17:53:42.
