data_PCOD9354694
_publ_section_title
;
Structure prediction by ZEFSAII (Michael W. Deem and Ramdas Pophale) SiO2 
 PCOD9354694
Probable space group: C C C 2
;
_chemical_formula_sum "Si O2"
_cell_formula_units_Z 32
_cell_length_a 5.193703
_cell_length_b 20.801605
_cell_length_c 15.779645
_cell_angle_alpha 90.000000
_cell_angle_beta 90.000000
_cell_angle_gamma 90.000000
_cell_volume 1704.791161
_symmetry_space_group_name_H-M "C C C 2"
_symmetry_group_IT_number 37
_symmetry_cell_setting 'orthorhombic'
loop_
_space_group_symop_operation_xyz
x,y,z
-x,-y,z
-x,y,1/2+z
x,-y,1/2+z
1/2+x,1/2+y,z
1/2-x,1/2-y,z
1/2-x,1/2+y,1/2+z
1/2+x,1/2-y,1/2+z
loop_
_atom_site_type_symbol
_atom_site_label
_atom_site_fract_x
_atom_site_fract_y
_atom_site_fract_z
Si Si1 0.600544 0.432193 0.978610
Si Si2 0.126535 0.680015 0.060383
Si Si3 0.406599 0.117072 0.904050
Si Si4 0.497200 0.794697 0.745912
O O1 0.500000 0.500000 0.013646
O O2 0.129074 0.566084 0.928579
O O3 0.378962 0.409441 0.914146
O O4 0.661790 0.376805 0.047883
O O5 0.250000 0.750000 0.053532
O O6 0.989969 0.676587 0.151072
O O7 0.940491 0.668684 0.980573
O O8 0.471974 0.150816 0.816392
O O9 0.750000 0.750000 0.750397
O O10 0.250000 0.750000 0.761414
#
# Coordination Sequence:
#
# PCOD9354694 Si02
#       4
#     8   8   8   8
#     4  10  22  40  63  85 121 168 206 249 308 369
#     4   9  23  36  63  92 123 157 203 257 312 367
#     4  10  22  37  64  82 127 158 206 245 316 357
#     4  11  23  36  60  96 129 153 204 260 315 373
#
# _framework density 18.770626
#
# number of rings (size 3 to 8) (size 9 to 14) (size 15 to 20)
#    1.500    0.500    0.000    3.000   10.500    0.000 
#    0.000    1.250    5.500    0.000    0.000    0.000 
#    0.000    0.000    0.000    0.000    0.000    0.000 
#
# Total GULP energy -89091.502358 kJ/mol
# GULP energy per Si atom -5568.218897 kJ/mol
# Density = 1.872790 g / cm^3
# Si number density = 18.770626 Si / 1000 Ang^3
#
#
#
# Elastic Constant Matrix: (Units=GPa)
#
#
# Indices 1 2 3 4 5 6 
#
# 1 93.6711 15.2816 -0.5670 0.0000 0.0000 0.0000
# 2 15.2816 101.0349 22.4822 0.0000 0.0000 0.0000
# 3 -0.5670 22.4822 72.2872 0.0000 0.0000 0.0000
# 4 0.0000 0.0000 0.0000 2.4023 0.0000 0.0000
# 5 0.0000 0.0000 0.0000 0.0000 -21.6584 0.0000
# 6 0.0000 0.0000 0.0000 0.0000 0.0000 32.7400
#
#
#
# Elastic Compliance Matrix: (Units=1/GPa)
#
#
# Indices 1 2 3 4 5 6 
#
# 1 0.010974 -0.001804 0.000647 0.000000 0.000000 0.000000
# 2 -0.001804 0.010930 -0.003413 0.000000 0.000000 0.000000
# 3 0.000647 -0.003413 0.014900 0.000000 0.000000 0.000000
# 4 0.000000 0.000000 0.000000 0.416273 0.000000 0.000000
# 5 0.000000 0.000000 0.000000 0.000000 -0.046172 0.000000
# 6 0.000000 0.000000 0.000000 0.000000 0.000000 0.030544
#
#
# Mechanical properties :
#
#
# Convention : Reuss Voigt Hill
#
# Bulk Modulus (GPa) = 36.14832 37.93187 37.04010
# Shear Modulus (GPa) = 10.96946 18.01654 14.49300
#
# Velocity S-wave (km/s) = 2.42005 3.10147 2.78170
# Velocity P-wave (km/s) = 5.20659 5.75130 5.48571
#
# Compressibility (1/GPa) = 0.02766380
#
# Stress axis : x y z
#
# Youngs Moduli (GPa) = 91.12580 91.49165 67.11220
#
# Poissons Ratio (x) = 0.16503 -0.04343
# Poissons Ratio (y) = 0.16437 0.22909
# Poissons Ratio (z) = -0.05897 0.31231
#
# Static dielectric constant tensor:
#      x y z
#    x 1.680700 0.000000 0.000000 
#    y 0.000000 1.665570 0.000000 
#    z 0.000000 0.000000 1.628120 
# 
# From -- ./inp_files/9505.got.cif
#   From: 2010.05.17/outbox.cif.g08.bks.cpg/sg37_5_cif.got.tgz:9505.got - 2010.06.03 17:53:42.
