data_PCOD9354058
_publ_section_title
;
Structure prediction by ZEFSAII (Michael W. Deem and Ramdas Pophale) SiO2 
 PCOD9354058
Probable space group: C C C 2
;
_chemical_formula_sum "Si O2"
_cell_formula_units_Z 60
_cell_length_a 30.342200
_cell_length_b 8.593430
_cell_length_c 11.610514
_cell_angle_alpha 90.000000
_cell_angle_beta 90.000000
_cell_angle_gamma 90.000000
_cell_volume 3027.366890
_symmetry_space_group_name_H-M "C C C 2"
_symmetry_group_IT_number 37
_symmetry_cell_setting 'orthorhombic'
loop_
_space_group_symop_operation_xyz
x,y,z
-x,-y,z
-x,y,1/2+z
x,-y,1/2+z
1/2+x,1/2+y,z
1/2-x,1/2-y,z
1/2-x,1/2+y,1/2+z
1/2+x,1/2-y,1/2+z
loop_
_atom_site_type_symbol
_atom_site_label
_atom_site_fract_x
_atom_site_fract_y
_atom_site_fract_z
Si Si1 0.338240 0.157607 0.179570
Si Si2 0.426098 0.694874 0.386385
Si Si3 0.500000 0.500000 0.994672
Si Si4 0.675180 0.677395 0.935242
Si Si5 0.472178 0.217701 0.653652
Si Si6 0.714259 0.369151 0.857502
Si Si7 0.064295 0.598027 0.612547
Si Si8 0.777268 0.613748 0.738533
O O1 0.320326 0.263832 0.285146
O O2 0.390592 0.130925 0.178997
O O3 0.315620 0.987073 0.180519
O O4 0.326060 0.245498 0.060962
O O5 0.459236 0.556529 0.418379
O O6 0.374362 0.660203 0.386535
O O7 0.443355 0.755888 0.265837
O O8 0.432899 0.815517 0.490711
O O9 0.519970 0.367359 0.076223
O O10 0.694113 0.501828 0.939037
O O11 0.701949 0.793384 0.849145
O O12 0.521881 0.161308 0.681416
O O13 0.446948 0.080531 0.587780
O O14 0.750000 0.250000 0.908763
O O15 0.742431 0.479177 0.771363
O O16 0.750000 0.750000 0.675845
#
# Coordination Sequence:
#
# PCOD9354058 Si02
#       8
#     8   8   4   8   8   8   8   8
#     4  10  20  39  60  84 118 151 190 244 291 342
#     4  10  21  37  57  84 114 152 192 233 284 334
#     4  10  22  36  54  86 116 148 198 230 274 350
#     4  10  21  38  60  84 117 152 191 242 291 348
#     4  10  20  37  58  80 118 155 181 239 288 324
#     4   9  20  37  58  84 112 145 190 236 289 356
#     4   9  21  37  58  85 111 149 200 231 275 347
#     4   9  19  37  58  84 111 144 190 236 291 356
#
# _framework density 19.819202000000001
#
# number of rings (size 3 to 8) (size 9 to 14) (size 15 to 20)
#    0.000    2.400    0.000    1.200    0.000   13.333 
#    0.000   14.667    0.000    0.000    0.000    0.000 
#    0.000    0.000    0.000    0.000    0.000    0.000 
#
# Total GULP energy -167237.494017 kJ/mol
# GULP energy per Si atom -5574.583134 kJ/mol
# Density = 1.977409 g / cm^3
# Si number density = 19.819202 Si / 1000 Ang^3
#
#
#
# Elastic Constant Matrix: (Units=GPa)
#
#
# Indices 1 2 3 4 5 6 
#
# 1 105.8485 48.7013 16.4768 0.0000 0.0000 0.0000
# 2 48.7013 122.8858 7.8789 0.0000 0.0000 0.0000
# 3 16.4768 7.8789 16.2943 0.0000 0.0000 0.0000
# 4 0.0000 0.0000 0.0000 9.0939 0.0000 0.0000
# 5 0.0000 0.0000 0.0000 0.0000 12.5262 0.0000
# 6 0.0000 0.0000 0.0000 0.0000 0.0000 44.2833
#
#
#
# Elastic Compliance Matrix: (Units=1/GPa)
#
#
# Indices 1 2 3 4 5 6 
#
# 1 0.013289 -0.004546 -0.011239 0.000000 0.000000 0.000000
# 2 -0.004546 0.009953 -0.000216 0.000000 0.000000 0.000000
# 3 -0.011239 -0.000216 0.072841 0.000000 0.000000 0.000000
# 4 0.000000 0.000000 0.000000 0.109964 0.000000 0.000000
# 5 0.000000 0.000000 0.000000 0.000000 0.079833 0.000000
# 6 0.000000 0.000000 0.000000 0.000000 0.000000 0.022582
#
#
# Mechanical properties :
#
#
# Convention : Reuss Voigt Hill
#
# Bulk Modulus (GPa) = 15.60544 43.46027 29.53286
# Shear Modulus (GPa) = 13.81890 24.64544 19.23217
#
# Velocity S-wave (km/s) = 2.64341 3.53017 3.11847
# Velocity P-wave (km/s) = 4.14823 6.21226 5.28204
#
# Compressibility (1/GPa) = 0.06408022
#
# Stress axis : x y z
#
# Youngs Moduli (GPa) = 75.25263 100.47166 13.72858
#
# Poissons Ratio (x) = 0.45673 0.15430
# Poissons Ratio (y) = 0.34209 0.00296
# Poissons Ratio (z) = 0.84579 0.02170
#
# Static dielectric constant tensor:
#      x y z
#    x 1.692430 0.000000 0.000000 
#    y 0.000000 1.715470 0.000000 
#    z 0.000000 0.000000 1.670780 
# 
# From -- ./inp_files/9198.got.cif
#   From: 2010.05.17/outbox.cif.g08.bks.cpg/sg37_5_cif.got.tgz:9198.got - 2010.06.03 17:53:42.
