data_PCOD9354995
_publ_section_title
;
Structure prediction by ZEFSAII (Michael W. Deem and Ramdas Pophale) SiO2 
 PCOD9354995
Probable space group: C C C 2
;
_chemical_formula_sum "Si O2"
_cell_formula_units_Z 64
_cell_length_a 7.743970
_cell_length_b 28.061703
_cell_length_c 13.541298
_cell_angle_alpha 90.000000
_cell_angle_beta 90.000000
_cell_angle_gamma 90.000000
_cell_volume 2942.645740
_symmetry_space_group_name_H-M "C C C 2"
_symmetry_group_IT_number 37
_symmetry_cell_setting 'orthorhombic'
loop_
_space_group_symop_operation_xyz
x,y,z
-x,-y,z
-x,y,1/2+z
x,-y,1/2+z
1/2+x,1/2+y,z
1/2-x,1/2-y,z
1/2-x,1/2+y,1/2+z
1/2+x,1/2-y,1/2+z
loop_
_atom_site_type_symbol
_atom_site_label
_atom_site_fract_x
_atom_site_fract_y
_atom_site_fract_z
Si Si1 0.749413 0.550506 0.549060
Si Si2 0.809561 0.381731 0.225676
Si Si3 0.343265 0.699554 0.882297
Si Si4 0.911783 0.137110 0.702708
Si Si5 0.155080 0.059972 0.057036
Si Si6 0.081532 0.781922 0.535901
Si Si7 0.049018 0.394497 0.937128
Si Si8 0.900300 0.686889 0.557114
O O1 0.816767 0.573574 0.650903
O O2 0.548820 0.565386 0.531407
O O3 0.724282 0.494031 0.562200
O O4 0.886031 0.572004 0.469738
O O5 0.604607 0.374480 0.241115
O O6 0.925255 0.387291 0.321578
O O7 0.872063 0.336957 0.161487
O O8 0.250000 0.750000 0.860212
O O9 0.320857 0.664255 0.792129
O O10 0.538291 0.706484 0.921407
O O11 0.258678 0.679404 0.982384
O O12 0.826376 0.089401 0.659107
O O13 0.918627 0.174049 0.610647
O O14 0.274490 0.082440 0.974483
O O15 0.250000 0.750000 0.544934
O O16 0.940374 0.742096 0.566111
O O17 0.039119 0.344528 0.996787
#
# Coordination Sequence:
#
# PCOD9354995 Si02
#       8
#     8   8   8   8   8   8   8   8
#     4   9  22  47  69  97 142 176 227 296 354 424
#     4  10  23  41  68 100 135 177 227 286 356 420
#     4  10  23  42  62  95 137 182 229 288 349 406
#     4  11  23  39  69  98 135 183 234 290 344 426
#     4  10  22  45  71  98 134 183 227 292 359 420
#     4  11  23  40  63  94 133 180 238 284 341 412
#     4  11  23  40  70 103 134 180 237 283 359 427
#     4  10  23  44  61  92 138 178 217 288 345 413
#
# _framework density 21.749134000000002
#
# number of rings (size 3 to 8) (size 9 to 14) (size 15 to 20)
#    0.000    1.750    1.250    1.500    3.500    5.000 
#    0.000   16.250    0.000    0.000    0.000    0.000 
#    0.000    0.000    0.000    0.000    0.000    0.000 
#
# Total GULP energy -178675.922884 kJ/mol
# GULP energy per Si atom -5583.622590 kJ/mol
# Density = 2.169963 g / cm^3
# Si number density = 21.749134 Si / 1000 Ang^3
#
#
#
# Elastic Constant Matrix: (Units=GPa)
#
#
# Indices 1 2 3 4 5 6 
#
# 1 67.5844 34.7222 52.9805 0.0000 0.0000 0.0000
# 2 34.7222 116.8868 53.0635 0.0000 0.0000 0.0000
# 3 52.9805 53.0635 118.6466 0.0000 0.0000 0.0000
# 4 0.0000 0.0000 0.0000 101.4530 0.0000 0.0000
# 5 0.0000 0.0000 0.0000 0.0000 22.5783 0.0000
# 6 0.0000 0.0000 0.0000 0.0000 0.0000 17.8872
#
#
#
# Elastic Compliance Matrix: (Units=1/GPa)
#
#
# Indices 1 2 3 4 5 6 
#
# 1 0.023463 -0.002777 -0.009235 0.000000 0.000000 0.000000
# 2 -0.002777 0.011064 -0.003708 0.000000 0.000000 0.000000
# 3 -0.009235 -0.003708 0.014210 0.000000 0.000000 0.000000
# 4 0.000000 0.000000 0.000000 0.009857 0.000000 0.000000
# 5 0.000000 0.000000 0.000000 0.000000 0.044290 0.000000
# 6 0.000000 0.000000 0.000000 0.000000 0.000000 0.055906
#
#
# Mechanical properties :
#
#
# Convention : Reuss Voigt Hill
#
# Bulk Modulus (GPa) = 57.81541 64.96115 61.38828
# Shear Modulus (GPa) = 25.51080 39.20713 32.35897
#
# Velocity S-wave (km/s) = 3.42856 4.25043 3.86142
# Velocity P-wave (km/s) = 6.50492 7.34992 6.94029
#
# Compressibility (1/GPa) = 0.01729643
#
# Stress axis : x y z
#
# Youngs Moduli (GPa) = 42.62104 90.38639 70.37082
#
# Poissons Ratio (x) = 0.25104 0.64986
# Poissons Ratio (y) = 0.11838 0.26093
# Poissons Ratio (z) = 0.39360 0.33514
#
# Static dielectric constant tensor:
#      x y z
#    x 2.051020 0.000000 0.000000 
#    y 0.000000 1.840230 0.000000 
#    z 0.000000 0.000000 1.767420 
# 
# From -- ./inp_files/6647.got.cif
#   From: 2010.05.17/outbox.cif.g08.bks.cpg/sg37_4_cif.got.tgz:6647.got - 2010.06.03 17:53:42.
