data_PCOD9354038
_publ_section_title
;
Structure prediction by ZEFSAII (Michael W. Deem and Ramdas Pophale) SiO2 
 PCOD9354038
Probable space group: C C C 2
;
_chemical_formula_sum "Si O2"
_cell_formula_units_Z 32
_cell_length_a 5.264030
_cell_length_b 13.509166
_cell_length_c 20.361062
_cell_angle_alpha 90.000000
_cell_angle_beta 90.000000
_cell_angle_gamma 90.000000
_cell_volume 1447.929179
_symmetry_space_group_name_H-M "C C C 2"
_symmetry_group_IT_number 37
_symmetry_cell_setting 'orthorhombic'
loop_
_space_group_symop_operation_xyz
x,y,z
-x,-y,z
-x,y,1/2+z
x,-y,1/2+z
1/2+x,1/2+y,z
1/2-x,1/2-y,z
1/2-x,1/2+y,1/2+z
1/2+x,1/2-y,1/2+z
loop_
_atom_site_type_symbol
_atom_site_label
_atom_site_fract_x
_atom_site_fract_y
_atom_site_fract_z
Si Si1 0.495675 0.183078 0.375000
Si Si2 0.177187 0.613377 0.016385
Si Si3 0.500000 0.500000 0.187008
Si Si4 0.500000 0.000000 0.275526
Si Si5 0.680179 0.391161 0.565544
O O1 0.250000 0.250000 0.361107
O O2 0.441953 0.132116 0.445548
O O3 0.504628 0.096435 0.321555
O O4 0.750000 0.250000 0.375753
O O5 0.247627 0.499180 0.033993
O O6 0.461687 0.657435 0.021026
O O7 0.964131 0.650858 0.067793
O O8 0.749851 0.492333 0.230626
O O9 0.442976 0.410013 0.136379
#
# Coordination Sequence:
#
# PCOD9354038 Si02
#       5
#     8   8   4   4   8
#     4  12  26  42  64  96 130 166 215 264 311 381
#     4   9  17  33  57  86 122 151 189 257 318 353
#     4  10  20  36  64  92 122 170 216 252 314 374
#     4  12  24  42  66  90 126 180 214 252 316 366
#     4   9  17  33  64  95 117 156 208 254 310 387
#
# _framework density 22.100529999999999
#
# number of rings (size 3 to 8) (size 9 to 14) (size 15 to 20)
#    0.000    2.000    0.000    7.500    0.000    4.000 
#    0.000    0.000    0.000   66.000    0.000    0.000 
#    0.000    0.000    0.000    0.000    0.000    0.000 
#
# Total GULP energy -89244.705221 kJ/mol
# GULP energy per Si atom -5577.794076 kJ/mol
# Density = 2.205023 g / cm^3
# Si number density = 22.100530 Si / 1000 Ang^3
#
#
#
# Elastic Constant Matrix: (Units=GPa)
#
#
# Indices 1 2 3 4 5 6 
#
# 1 269.6385 44.5870 89.0376 0.0000 0.0000 0.0000
# 2 44.5870 101.2672 47.8546 0.0000 0.0000 0.0000
# 3 89.0376 47.8546 152.2480 0.0000 0.0000 0.0000
# 4 0.0000 0.0000 0.0000 25.1540 0.0000 0.0000
# 5 0.0000 0.0000 0.0000 0.0000 46.0537 0.0000
# 6 0.0000 0.0000 0.0000 0.0000 0.0000 13.7431
#
#
#
# Elastic Compliance Matrix: (Units=1/GPa)
#
#
# Indices 1 2 3 4 5 6 
#
# 1 0.004665 -0.000898 -0.002446 0.000000 0.000000 0.000000
# 2 -0.000898 0.011770 -0.003174 0.000000 0.000000 0.000000
# 3 -0.002446 -0.003174 0.008996 0.000000 0.000000 0.000000
# 4 0.000000 0.000000 0.000000 0.039755 0.000000 0.000000
# 5 0.000000 0.000000 0.000000 0.000000 0.021714 0.000000
# 6 0.000000 0.000000 0.000000 0.000000 0.000000 0.072764
#
#
# Mechanical properties :
#
#
# Convention : Reuss Voigt Hill
#
# Bulk Modulus (GPa) = 80.67820 98.45690 89.56755
# Shear Modulus (GPa) = 28.27536 39.76845 34.02191
#
# Velocity S-wave (km/s) = 3.58075 4.24658 3.92780
# Velocity P-wave (km/s) = 7.32666 8.28799 7.82211
#
# Compressibility (1/GPa) = 0.01239492
#
# Stress axis : x y z
#
# Youngs Moduli (GPa) = 214.37149 84.95885 111.15608
#
# Poissons Ratio (x) = 0.07630 0.27186
# Poissons Ratio (y) = 0.19253 0.35286
# Poissons Ratio (z) = 0.52430 0.26970
#
# Static dielectric constant tensor:
#      x y z
#    x 2.026740 0.000000 0.000000 
#    y 0.000000 2.065450 0.000000 
#    z 0.000000 0.000000 1.797270 
# 
# From -- ./inp_files/15550.got.cif
#   From: 2010.05.17/outbox.cif.g08.bks.cpg/sg37_8_cif.got.tgz:15550.got - 2010.06.03 17:53:42.
