data_PCOD9354869
_publ_section_title
;
Structure prediction by ZEFSAII (Michael W. Deem and Ramdas Pophale) SiO2 
 PCOD9354869
Probable space group: C C C 2
;
_chemical_formula_sum "Si O2"
_cell_formula_units_Z 60
_cell_length_a 9.094850
_cell_length_b 17.607797
_cell_length_c 19.250611
_cell_angle_alpha 90.000000
_cell_angle_beta 90.000000
_cell_angle_gamma 90.000000
_cell_volume 3082.798092
_symmetry_space_group_name_H-M "C C C 2"
_symmetry_group_IT_number 37
_symmetry_cell_setting 'orthorhombic'
loop_
_space_group_symop_operation_xyz
x,y,z
-x,-y,z
-x,y,1/2+z
x,-y,1/2+z
1/2+x,1/2+y,z
1/2-x,1/2-y,z
1/2-x,1/2+y,1/2+z
1/2+x,1/2-y,1/2+z
loop_
_atom_site_type_symbol
_atom_site_label
_atom_site_fract_x
_atom_site_fract_y
_atom_site_fract_z
Si Si1 0.575485 0.256831 0.442470
Si Si2 0.539935 0.627541 0.689578
Si Si3 0.858567 0.822866 0.540945
Si Si4 0.571616 0.752314 0.298074
Si Si5 0.407337 0.927016 0.818874
Si Si6 0.219507 0.981537 0.704022
Si Si7 0.500000 0.000000 0.603218
Si Si8 0.405514 0.102956 0.478612
O O1 0.750000 0.250000 0.437567
O O2 0.512514 0.311094 0.502114
O O3 0.500153 0.277730 0.369356
O O4 0.502608 0.176836 0.462878
O O5 0.613930 0.658580 0.620243
O O6 0.490789 0.698395 0.737422
O O7 0.652430 0.564572 0.720200
O O8 0.399963 0.574966 0.670606
O O9 0.750000 0.750000 0.535890
O O10 0.762465 0.884344 0.500727
O O11 0.750000 0.750000 0.301060
O O12 0.534440 0.843209 0.296658
O O13 0.258782 0.939882 0.776184
O O14 0.397296 0.933328 0.901955
O O15 0.500000 0.000000 0.795418
O O16 0.358137 0.988967 0.652317
O O17 0.523615 0.932976 0.547415
#
# Coordination Sequence:
#
# PCOD9354869 Si02
#       8
#     8   8   8   8   8   8   4   8
#     4  10  23  40  65  99 131 165 227 283 328 403
#     4  11  25  43  65  98 134 175 228 279 344 399
#     4  10  22  42  66  92 133 171 214 280 337 404
#     4  11  23  45  70  94 133 185 225 276 344 409
#     4  11  22  41  70  99 130 173 229 277 335 411
#     4  11  25  42  65  98 137 173 227 289 335 404
#     4  12  22  42  70  94 134 182 220 282 350 406
#     4  10  22  42  68  94 129 181 223 267 349 411
#
# _framework density 19.462838999999999
#
# number of rings (size 3 to 8) (size 9 to 14) (size 15 to 20)
#    0.000    1.333    4.000    2.000    1.867    6.400 
#    0.000    0.000    0.000    0.000    0.000    0.000 
#    0.000    0.000    0.000    0.000    0.000    0.000 
#
# Total GULP energy -167124.945693 kJ/mol
# GULP energy per Si atom -5570.831523 kJ/mol
# Density = 1.941854 g / cm^3
# Si number density = 19.462839 Si / 1000 Ang^3
#
#
#
# Elastic Constant Matrix: (Units=GPa)
#
#
# Indices 1 2 3 4 5 6 
#
# 1 87.5083 24.9972 42.9230 0.0000 0.0000 0.0000
# 2 24.9972 76.1947 49.5488 0.0000 0.0000 0.0000
# 3 42.9230 49.5488 117.0445 0.0000 0.0000 0.0000
# 4 0.0000 0.0000 0.0000 31.7712 0.0000 0.0000
# 5 0.0000 0.0000 0.0000 0.0000 28.4437 0.0000
# 6 0.0000 0.0000 0.0000 0.0000 0.0000 21.8052
#
#
#
# Elastic Compliance Matrix: (Units=1/GPa)
#
#
# Indices 1 2 3 4 5 6 
#
# 1 0.014100 -0.001743 -0.004433 0.000000 0.000000 0.000000
# 2 -0.001743 0.018325 -0.007118 0.000000 0.000000 0.000000
# 3 -0.004433 -0.007118 0.013183 0.000000 0.000000 0.000000
# 4 0.000000 0.000000 0.000000 0.031475 0.000000 0.000000
# 5 0.000000 0.000000 0.000000 0.000000 0.035157 0.000000
# 6 0.000000 0.000000 0.000000 0.000000 0.000000 0.045861
#
#
# Mechanical properties :
#
#
# Convention : Reuss Voigt Hill
#
# Bulk Modulus (GPa) = 52.57868 57.29838 54.93853
# Shear Modulus (GPa) = 26.17404 27.28923 26.73164
#
# Velocity S-wave (km/s) = 3.67116 3.74855 3.71006
# Velocity P-wave (km/s) = 6.71144 6.94545 6.82945
#
# Compressibility (1/GPa) = 0.01901912
#
# Stress axis : x y z
#
# Youngs Moduli (GPa) = 70.92351 54.56975 75.85633
#
# Poissons Ratio (x) = 0.09512 0.33625
# Poissons Ratio (y) = 0.12363 0.53998
# Poissons Ratio (z) = 0.31439 0.38845
#
# Static dielectric constant tensor:
#      x y z
#    x 1.715020 0.000000 0.000000 
#    y 0.000000 1.754670 0.000000 
#    z 0.000000 0.000000 1.654330 
# 
# From -- ./inp_files/14689.got.cif
#   From: 2010.05.17/outbox.cif.g08.bks.cpg/sg37_8_cif.got.tgz:14689.got - 2010.06.03 17:53:42.
