data_PCOD9354241
_publ_section_title
;
Structure prediction by ZEFSAII (Michael W. Deem and Ramdas Pophale) SiO2 
 PCOD9354241
Probable space group: C C C 2
;
_chemical_formula_sum "Si O2"
_cell_formula_units_Z 40
_cell_length_a 11.970988
_cell_length_b 8.282130
_cell_length_c 17.918026
_cell_angle_alpha 90.000000
_cell_angle_beta 90.000000
_cell_angle_gamma 90.000000
_cell_volume 1776.487684
_symmetry_space_group_name_H-M "C C C 2"
_symmetry_group_IT_number 37
_symmetry_cell_setting 'orthorhombic'
loop_
_space_group_symop_operation_xyz
x,y,z
-x,-y,z
-x,y,1/2+z
x,-y,1/2+z
1/2+x,1/2+y,z
1/2-x,1/2-y,z
1/2-x,1/2+y,1/2+z
1/2+x,1/2-y,1/2+z
loop_
_atom_site_type_symbol
_atom_site_label
_atom_site_fract_x
_atom_site_fract_y
_atom_site_fract_z
Si Si1 0.000000 0.000000 0.441221
Si Si2 0.500000 0.000000 0.740228
Si Si3 0.874121 0.801641 0.317321
Si Si4 0.649624 0.911960 0.599955
Si Si5 0.869454 0.032204 0.664138
Si Si6 0.573388 0.763107 0.049385
O O1 0.077918 0.881747 0.490638
O O2 0.931645 0.882553 0.387555
O O3 0.448068 0.850203 0.786792
O O4 0.593747 0.939367 0.681795
O O5 0.750000 0.750000 0.337526
O O6 0.857534 0.935133 0.251611
O O7 0.559148 0.790723 0.563285
O O8 0.780218 0.915133 0.623983
O O9 0.630391 0.062509 0.542134
O O10 0.864596 0.203712 0.623752
O O11 0.000000 0.000000 0.651986
#
# Coordination Sequence:
#
# PCOD9354241 Si02
#       6
#     4   4   8   8   8   8
#     4  12  28  44  64 106 148 194 226 276 366 438
#     4  10  20  40  72 106 132 178 232 296 354 398
#     4  12  24  45  71 103 150 184 234 295 353 428
#     4  10  21  40  77 102 128 175 242 302 348 395
#     4  12  21  40  75 105 134 176 241 306 338 407
#     4  10  22  44  66 101 137 177 237 289 348 420
#
# _framework density 22.51634
#
# number of rings (size 3 to 8) (size 9 to 14) (size 15 to 20)
#    0.000    1.200    8.000    0.600    0.000    4.000 
#    0.000    5.000    0.000    0.000    0.000    0.000 
#    0.000    0.000    0.000    0.000    0.000    0.000 
#
# Total GULP energy -111407.454880 kJ/mol
# GULP energy per Si atom -5570.372744 kJ/mol
# Density = 2.246509 g / cm^3
# Si number density = 22.516340 Si / 1000 Ang^3
#
#
#
# Elastic Constant Matrix: (Units=GPa)
#
#
# Indices 1 2 3 4 5 6 
#
# 1 157.2810 21.1956 16.0223 0.0000 0.0000 0.0000
# 2 21.1956 64.7646 29.6630 0.0000 0.0000 0.0000
# 3 16.0223 29.6630 88.5450 0.0000 0.0000 0.0000
# 4 0.0000 0.0000 0.0000 36.5579 0.0000 0.0000
# 5 0.0000 0.0000 0.0000 0.0000 3.8079 0.0000
# 6 0.0000 0.0000 0.0000 0.0000 0.0000 34.0706
#
#
#
# Elastic Compliance Matrix: (Units=1/GPa)
#
#
# Indices 1 2 3 4 5 6 
#
# 1 0.006675 -0.001927 -0.000562 0.000000 0.000000 0.000000
# 2 -0.001927 0.018795 -0.005948 0.000000 0.000000 0.000000
# 3 -0.000562 -0.005948 0.013388 0.000000 0.000000 0.000000
# 4 0.000000 0.000000 0.000000 0.027354 0.000000 0.000000
# 5 0.000000 0.000000 0.000000 0.000000 0.262613 0.000000
# 6 0.000000 0.000000 0.000000 0.000000 0.000000 0.029351
#
#
# Mechanical properties :
#
#
# Convention : Reuss Voigt Hill
#
# Bulk Modulus (GPa) = 45.48743 49.37249 47.42996
# Shear Modulus (GPa) = 13.07606 31.13459 22.10532
#
# Velocity S-wave (km/s) = 2.41246 3.72258 3.13668
# Velocity P-wave (km/s) = 5.29205 6.36017 5.85054
#
# Compressibility (1/GPa) = 0.02198410
#
# Stress axis : x y z
#
# Youngs Moduli (GPa) = 149.81231 53.20457 74.69381
#
# Poissons Ratio (x) = 0.10253 0.04200
# Poissons Ratio (y) = 0.28869 0.44427
# Poissons Ratio (z) = 0.08424 0.31645
#
# Static dielectric constant tensor:
#      x y z
#    x 1.905740 0.000000 0.000000 
#    y 0.000000 2.089640 0.000000 
#    z 0.000000 0.000000 1.823900 
# 
# From -- ./inp_files/14889.got.cif
#   From: 2010.05.17/outbox.cif.g08.bks.cpg/sg37_8_cif.got.tgz:14889.got - 2010.06.03 17:53:42.
