data_PCOD9354129
_publ_section_title
;
Structure prediction by ZEFSAII (Michael W. Deem and Ramdas Pophale) SiO2 
 PCOD9354129
Probable space group: C C C 2
;
_chemical_formula_sum "Si O2"
_cell_formula_units_Z 32
_cell_length_a 14.813380
_cell_length_b 4.983937
_cell_length_c 18.825652
_cell_angle_alpha 90.000000
_cell_angle_beta 90.000000
_cell_angle_gamma 90.000000
_cell_volume 1389.878171
_symmetry_space_group_name_H-M "C C C 2"
_symmetry_group_IT_number 37
_symmetry_cell_setting 'orthorhombic'
loop_
_space_group_symop_operation_xyz
x,y,z
-x,-y,z
-x,y,1/2+z
x,-y,1/2+z
1/2+x,1/2+y,z
1/2-x,1/2-y,z
1/2-x,1/2+y,1/2+z
1/2+x,1/2-y,1/2+z
loop_
_atom_site_type_symbol
_atom_site_label
_atom_site_fract_x
_atom_site_fract_y
_atom_site_fract_z
Si Si1 0.442340 0.255904 0.622650
Si Si2 0.640942 0.712198 0.893735
Si Si3 0.681535 0.492121 0.245739
Si Si4 0.641489 0.218027 0.976941
O O1 0.500000 0.500000 0.591836
O O2 0.384282 0.422316 0.680616
O O3 0.385897 0.140134 0.556417
O O4 0.500000 0.000000 0.651648
O O5 0.750000 0.750000 0.896073
O O6 0.626456 0.562310 0.818699
O O7 0.609101 0.509387 0.953716
O O8 0.609391 0.005622 0.917459
O O9 0.750000 0.750000 0.245563
O O10 0.750000 0.250000 0.242426
O O11 0.750000 0.250000 0.975139
#
# Coordination Sequence:
#
# PCOD9354129 Si02
#       4
#     8   8   8   8
#     4  12  26  42  58  90 134 172 211 263 324 395
#     4   9  18  35  63  93 116 147 208 272 314 366
#     4  11  22  41  68  95 124 167 217 271 328 390
#     4  10  20  38  63  88 117 160 209 258 313 379
#
# _framework density 23.023598
#
# number of rings (size 3 to 8) (size 9 to 14) (size 15 to 20)
#    0.000    1.500    0.000    7.500    0.000    3.000 
#    0.000    7.500    0.000    0.000    0.000    0.000 
#    0.000    0.000    0.000    0.000    0.000    0.000 
#
# Total GULP energy -89106.734610 kJ/mol
# GULP energy per Si atom -5569.170913 kJ/mol
# Density = 2.297120 g / cm^3
# Si number density = 23.023598 Si / 1000 Ang^3
#
#
#
# Elastic Constant Matrix: (Units=GPa)
#
#
# Indices 1 2 3 4 5 6 
#
# 1 62.1441 28.0251 40.5580 0.0000 0.0000 0.0000
# 2 28.0251 168.2397 38.0263 0.0000 0.0000 0.0000
# 3 40.5580 38.0263 155.8536 0.0000 0.0000 0.0000
# 4 0.0000 0.0000 0.0000 32.2089 0.0000 0.0000
# 5 0.0000 0.0000 0.0000 0.0000-2160.7954 0.0000
# 6 0.0000 0.0000 0.0000 0.0000 0.0000 18.5949
#
#
#
# Elastic Compliance Matrix: (Units=1/GPa)
#
#
# Indices 1 2 3 4 5 6 
#
# 1 0.020193 -0.002303 -0.004693 0.000000 0.000000 0.000000
# 2 -0.002303 0.006553 -0.001000 0.000000 0.000000 0.000000
# 3 -0.004693 -0.001000 0.007881 0.000000 0.000000 0.000000
# 4 0.000000 0.000000 0.000000 0.031047 0.000000 0.000000
# 5 0.000000 0.000000 0.000000 0.000000 -0.000463 0.000000
# 6 0.000000 0.000000 0.000000 0.000000 0.000000 0.053778
#
#
# Mechanical properties :
#
#
# Convention : Reuss Voigt Hill
#
# Bulk Modulus (GPa) = 53.65747 66.60624 60.13186
# Shear Modulus (GPa) = 35.41222 -403.35647 -183.97212
#
# Velocity S-wave (km/s) = 3.92610 -13.25039 -8.94871
# Velocity P-wave (km/s) = 6.62634 14.32148 8.97766
#
# Compressibility (1/GPa) = 0.01863673
#
# Stress axis : x y z
#
# Youngs Moduli (GPa) = 49.52197 152.59073 126.88042
#
# Poissons Ratio (x) = 0.35142 0.59544
# Poissons Ratio (y) = 0.11405 0.12684
# Poissons Ratio (z) = 0.23240 0.15254
#
# Static dielectric constant tensor:
#      x y z
#    x 2.083230 0.000000 0.000000 
#    y 0.000000 1.821170 0.000000 
#    z 0.000000 0.000000 2.057400 
# 
# From -- ./inp_files/13583.got.cif
#   From: 2010.05.17/outbox.cif.g08.bks.cpg/sg37_7_cif.got.tgz:13583.got - 2010.06.03 17:53:42.
