data_PCOD9354436
_publ_section_title
;
Structure prediction by ZEFSAII (Michael W. Deem and Ramdas Pophale) SiO2 
 PCOD9354436
Probable space group: C C C 2
;
_chemical_formula_sum "Si O2"
_cell_formula_units_Z 32
_cell_length_a 21.045962
_cell_length_b 8.360779
_cell_length_c 8.439155
_cell_angle_alpha 90.000000
_cell_angle_beta 90.000000
_cell_angle_gamma 90.000000
_cell_volume 1484.959091
_symmetry_space_group_name_H-M "C C C 2"
_symmetry_group_IT_number 37
_symmetry_cell_setting 'orthorhombic'
loop_
_space_group_symop_operation_xyz
x,y,z
-x,-y,z
-x,y,1/2+z
x,-y,1/2+z
1/2+x,1/2+y,z
1/2-x,1/2-y,z
1/2-x,1/2+y,1/2+z
1/2+x,1/2-y,1/2+z
loop_
_atom_site_type_symbol
_atom_site_label
_atom_site_fract_x
_atom_site_fract_y
_atom_site_fract_z
Si Si1 0.381273 0.061942 0.508190
Si Si2 0.324372 0.775408 0.305296
Si Si3 0.544747 0.183269 0.716561
Si Si4 0.446891 0.363592 0.902101
O O1 0.339910 0.163837 0.629037
O O2 0.410034 0.171282 0.369767
O O3 0.343459 0.918595 0.424560
O O4 0.435280 0.969909 0.610496
O O5 0.250000 0.750000 0.323134
O O6 0.373883 0.630834 0.344622
O O7 0.477245 0.216821 0.800499
O O8 0.554113 0.322984 0.588259
O O9 0.500000 0.500000 0.879920
#
# Coordination Sequence:
#
# PCOD9354436 Si02
#       4
#     8   8   8   8
#     4   9  21  42  66  94 124 171 227 270 329 397
#     4  10  22  44  65  96 132 180 222 275 335 407
#     4  10  21  38  64  93 125 164 216 278 326 384
#     4  11  23  40  63  98 132 168 217 270 340 386
#
# _framework density 21.549416999999998
#
# number of rings (size 3 to 8) (size 9 to 14) (size 15 to 20)
#    0.000    2.000    0.000    2.250    0.000   17.000 
#   18.000    7.500    0.000    0.000    0.000    0.000 
#    0.000    0.000    0.000    0.000    0.000    0.000 
#
# Total GULP energy -89243.252087 kJ/mol
# GULP energy per Si atom -5577.703255 kJ/mol
# Density = 2.150037 g / cm^3
# Si number density = 21.549417 Si / 1000 Ang^3
#
#
#
# Elastic Constant Matrix: (Units=GPa)
#
#
# Indices 1 2 3 4 5 6 
#
# 1 207.6856 56.1792 68.6753 0.0000 0.0000 0.0000
# 2 56.1792 72.3470 43.9492 0.0000 0.0000 0.0000
# 3 68.6753 43.9492 155.9721 0.0000 0.0000 0.0000
# 4 0.0000 0.0000 0.0000 22.4663 0.0000 0.0000
# 5 0.0000 0.0000 0.0000 0.0000 22.9444 0.0000
# 6 0.0000 0.0000 0.0000 0.0000 0.0000 27.0736
#
#
#
# Elastic Compliance Matrix: (Units=1/GPa)
#
#
# Indices 1 2 3 4 5 6 
#
# 1 0.006459 -0.003967 -0.001726 0.000000 0.000000 0.000000
# 2 -0.003967 0.019113 -0.003639 0.000000 0.000000 0.000000
# 3 -0.001726 -0.003639 0.008197 0.000000 0.000000 0.000000
# 4 0.000000 0.000000 0.000000 0.044511 0.000000 0.000000
# 5 0.000000 0.000000 0.000000 0.000000 0.043584 0.000000
# 6 0.000000 0.000000 0.000000 0.000000 0.000000 0.036936
#
#
# Mechanical properties :
#
#
# Convention : Reuss Voigt Hill
#
# Bulk Modulus (GPa) = 66.20360 85.95689 76.08025
# Shear Modulus (GPa) = 27.39743 32.31024 29.85384
#
# Velocity S-wave (km/s) = 3.56951 3.87635 3.72609
# Velocity P-wave (km/s) = 6.91209 7.74659 7.34121
#
# Compressibility (1/GPa) = 0.01510492
#
# Stress axis : x y z
#
# Youngs Moduli (GPa) = 154.82844 52.31972 121.99892
#
# Poissons Ratio (x) = 0.20754 0.21058
# Poissons Ratio (y) = 0.61418 0.44396
# Poissons Ratio (z) = 0.26724 0.19039
#
# Static dielectric constant tensor:
#      x y z
#    x 1.789070 0.000000 0.000000 
#    y 0.000000 1.921180 0.000000 
#    z 0.000000 0.000000 1.772720 
# 
# From -- ./inp_files/2087.got.cif
#   From: 2010.05.17/outbox.cif.g08.bks.cpg/sg37_2_cif.got.tgz:2087.got - 2010.06.03 17:53:42.
