data_PCOD9354084
_publ_section_title
;
Structure prediction by ZEFSAII (Michael W. Deem and Ramdas Pophale) SiO2 
 PCOD9354084
Probable space group: C C C 2
;
_chemical_formula_sum "Si O2"
_cell_formula_units_Z 40
_cell_length_a 7.297753
_cell_length_b 26.032578
_cell_length_c 9.296490
_cell_angle_alpha 90.000000
_cell_angle_beta 90.000000
_cell_angle_gamma 90.000000
_cell_volume 1766.140888
_symmetry_space_group_name_H-M "C C C 2"
_symmetry_group_IT_number 37
_symmetry_cell_setting 'orthorhombic'
loop_
_space_group_symop_operation_xyz
x,y,z
-x,-y,z
-x,y,1/2+z
x,-y,1/2+z
1/2+x,1/2+y,z
1/2-x,1/2-y,z
1/2-x,1/2+y,1/2+z
1/2+x,1/2-y,1/2+z
loop_
_atom_site_type_symbol
_atom_site_label
_atom_site_fract_x
_atom_site_fract_y
_atom_site_fract_z
Si Si1 0.914727 0.847065 0.705720
Si Si2 0.595377 0.889756 0.834497
Si Si3 0.688297 0.695426 0.976054
Si Si4 0.692181 0.429748 0.804974
Si Si5 0.207976 0.485996 0.022185
O O1 0.324519 0.942027 0.402272
O O2 0.032075 0.830396 0.571647
O O3 0.028663 0.890026 0.792329
O O4 0.891024 0.799359 0.814426
O O5 0.646930 0.844965 0.948718
O O6 0.383915 0.898735 0.805080
O O7 0.713059 0.872279 0.694602
O O8 0.750000 0.750000 0.034236
O O9 0.692266 0.464186 0.661234
O O10 0.695866 0.466356 0.943682
O O11 0.000000 0.500000 0.069395
#
# Coordination Sequence:
#
# PCOD9354084 Si02
#       5
#     8   8   8   8   8
#     4  10  23  44  69  95 133 174 219 278 333 396
#     4   9  22  41  64  96 135 172 222 272 325 396
#     4  10  23  47  68  99 131 165 229 279 332 405
#     4  11  21  41  66  94 138 180 217 268 328 389
#     4  10  20  37  61  97 135 178 218 263 320 392
#
# _framework density 22.648250000000001
#
# number of rings (size 3 to 8) (size 9 to 14) (size 15 to 20)
#    1.200    0.800    2.000    1.800    0.000    7.200 
#    0.000    7.000    0.000    0.000    0.000    0.000 
#    0.000    0.000    0.000    0.000    0.000    0.000 
#
# Total GULP energy -111728.416628 kJ/mol
# GULP energy per Si atom -5586.420831 kJ/mol
# Density = 2.259670 g / cm^3
# Si number density = 22.648250 Si / 1000 Ang^3
#
#
#
# Elastic Constant Matrix: (Units=GPa)
#
#
# Indices 1 2 3 4 5 6 
#
# 1 99.0741 24.7696 21.1454 0.0000 0.0000 0.0000
# 2 24.7696 70.4309 -3.1317 0.0000 0.0000 0.0000
# 3 21.1454 -3.1317 53.0134 0.0000 0.0000 0.0000
# 4 0.0000 0.0000 0.0000 29.3423 0.0000 0.0000
# 5 0.0000 0.0000 0.0000 0.0000 28.8954 0.0000
# 6 0.0000 0.0000 0.0000 0.0000 0.0000 30.7421
#
#
#
# Elastic Compliance Matrix: (Units=1/GPa)
#
#
# Indices 1 2 3 4 5 6 
#
# 1 0.012345 -0.004573 -0.005194 0.000000 0.000000 0.000000
# 2 -0.004573 0.015929 0.002765 0.000000 0.000000 0.000000
# 3 -0.005194 0.002765 0.021098 0.000000 0.000000 0.000000
# 4 0.000000 0.000000 0.000000 0.034080 0.000000 0.000000
# 5 0.000000 0.000000 0.000000 0.000000 0.034608 0.000000
# 6 0.000000 0.000000 0.000000 0.000000 0.000000 0.032529
#
#
# Mechanical properties :
#
#
# Convention : Reuss Voigt Hill
#
# Bulk Modulus (GPa) = 28.27339 34.23167 31.25253
# Shear Modulus (GPa) = 28.34733 29.77829 29.06281
#
# Velocity S-wave (km/s) = 3.54168 3.62997 3.58610
# Velocity P-wave (km/s) = 5.40699 5.71981 5.56560
#
# Compressibility (1/GPa) = 0.03536895
#
# Stress axis : x y z
#
# Youngs Moduli (GPa) = 81.00271 62.77712 47.39715
#
# Poissons Ratio (x) = 0.28706 0.24619
# Poissons Ratio (y) = 0.37039 -0.13105
# Poissons Ratio (z) = 0.42075 -0.17357
#
# Static dielectric constant tensor:
#      x y z
#    x 1.812980 0.000000 0.000000 
#    y 0.000000 1.811290 0.000000 
#    z 0.000000 0.000000 1.862260 
# 
# From -- ./inp_files/2293.got.cif
#   From: 2010.05.17/outbox.cif.g08.bks.cpg/sg37_2_cif.got.tgz:2293.got - 2010.06.03 17:53:42.
