data_PCOD9354811
_publ_section_title
;
Structure prediction by ZEFSAII (Michael W. Deem and Ramdas Pophale) SiO2 
 PCOD9354811
Probable space group: C C C 2
;
_chemical_formula_sum "Si O2"
_cell_formula_units_Z 60
_cell_length_a 19.423909
_cell_length_b 5.164873
_cell_length_c 26.944383
_cell_angle_alpha 90.000000
_cell_angle_beta 90.000000
_cell_angle_gamma 90.000000
_cell_volume 2703.115015
_symmetry_space_group_name_H-M "C C C 2"
_symmetry_group_IT_number 37
_symmetry_cell_setting 'orthorhombic'
loop_
_space_group_symop_operation_xyz
x,y,z
-x,-y,z
-x,y,1/2+z
x,-y,1/2+z
1/2+x,1/2+y,z
1/2-x,1/2-y,z
1/2-x,1/2+y,1/2+z
1/2+x,1/2-y,1/2+z
loop_
_atom_site_type_symbol
_atom_site_label
_atom_site_fract_x
_atom_site_fract_y
_atom_site_fract_z
Si Si1 0.705151 0.016158 0.713820
Si Si2 0.073340 0.860528 0.368847
Si Si3 0.823440 0.378143 0.108512
Si Si4 0.541516 0.730104 0.652597
Si Si5 0.500000 0.000000 0.439711
Si Si6 0.625047 0.913575 0.498862
Si Si7 0.320100 0.583793 0.447669
Si Si8 0.568089 0.838545 0.762716
O O1 0.750000 0.750000 0.715143
O O2 0.687461 0.069672 0.655470
O O3 0.635301 0.995271 0.745210
O O4 0.750000 0.250000 0.733343
O O5 0.139342 0.974618 0.396654
O O6 0.085787 0.826549 0.310865
O O7 0.056554 0.602093 0.400086
O O8 0.000000 0.000000 0.375688
O O9 0.750000 0.250000 0.098186
O O10 0.881591 0.201226 0.132978
O O11 0.858876 0.448460 0.056891
O O12 0.500000 0.500000 0.628904
O O13 0.548369 0.698061 0.711804
O O14 0.500000 0.000000 0.644520
O O15 0.548708 0.839270 0.478134
O O16 0.675206 0.687469 0.477520
O O17 0.637887 0.203448 0.479078
O O18 0.250000 0.750000 0.439086
O O19 0.500000 0.000000 0.776880
#
# Coordination Sequence:
#
# PCOD9354811 Si02
#       8
#     8   8   8   8   4   8   8   8
#     4  10  24  45  67  97 141 176 219 277 341 405
#     4  11  21  40  65  91 127 171 219 267 339 396
#     4  10  23  41  68  96 129 175 221 265 332 402
#     4  10  23  42  61  94 130 166 208 268 319 382
#     4  10  22  42  60  94 130 168 218 278 334 388
#     4  11  24  42  67  92 131 171 222 271 335 397
#     4  11  24  42  64  94 131 167 219 280 333 394
#     4  10  22  40  68  96 127 172 221 271 326 402
#
# _framework density 22.196615000000001
#
# number of rings (size 3 to 8) (size 9 to 14) (size 15 to 20)
#    0.000    1.600    2.000    1.600    0.933   14.933 
#    2.400    2.667    0.000    0.000    0.000    0.000 
#    0.000    0.000    0.000    0.000    0.000    0.000 
#
# Total GULP energy -167036.855276 kJ/mol
# GULP energy per Si atom -5567.895176 kJ/mol
# Density = 2.214609 g / cm^3
# Si number density = 22.196615 Si / 1000 Ang^3
#
#
#
# Elastic Constant Matrix: (Units=GPa)
#
#
# Indices 1 2 3 4 5 6 
#
# 1 101.2736 31.8743 1.3012 0.0000 0.0000 0.0000
# 2 31.8743 71.0339 17.0771 0.0000 0.0000 0.0000
# 3 1.3012 17.0771 37.6990 0.0000 0.0000 0.0000
# 4 0.0000 0.0000 0.0000 33.3855 0.0000 0.0000
# 5 0.0000 0.0000 0.0000 0.0000 7.1553 0.0000
# 6 0.0000 0.0000 0.0000 0.0000 0.0000 20.8981
#
#
#
# Elastic Compliance Matrix: (Units=1/GPa)
#
#
# Indices 1 2 3 4 5 6 
#
# 1 0.011660 -0.005763 0.002208 0.000000 0.000000 0.000000
# 2 -0.005763 0.018646 -0.008248 0.000000 0.000000 0.000000
# 3 0.002208 -0.008248 0.030186 0.000000 0.000000 0.000000
# 4 0.000000 0.000000 0.000000 0.029953 0.000000 0.000000
# 5 0.000000 0.000000 0.000000 0.000000 0.139757 0.000000
# 6 0.000000 0.000000 0.000000 0.000000 0.000000 0.047851
#
#
# Mechanical properties :
#
#
# Convention : Reuss Voigt Hill
#
# Bulk Modulus (GPa) = 27.10978 34.50128 30.80553
# Shear Modulus (GPa) = 15.92590 22.93803 19.43196
#
# Velocity S-wave (km/s) = 2.68151 3.21814 2.96201
# Velocity P-wave (km/s) = 4.67197 5.42087 5.06029
#
# Compressibility (1/GPa) = 0.03688705
#
# Stress axis : x y z
#
# Youngs Moduli (GPa) = 85.76626 53.62955 33.12818
#
# Poissons Ratio (x) = 0.30905 -0.07315
# Poissons Ratio (y) = 0.49425 0.27323
# Poissons Ratio (z) = -0.18937 0.44232
#
# Static dielectric constant tensor:
#      x y z
#    x 1.969650 0.000000 0.000000 
#    y 0.000000 1.827140 0.000000 
#    z 0.000000 0.000000 1.833160 
# 
# From -- ./inp_files/19078.got.cif
#   From: 2010.05.17/outbox.cif.g08.bks.cpg/sg37_10_cif.got.tgz:19078.got - 2010.06.03 17:53:42.
