data_PCOD9354231
_publ_section_title
;
Structure prediction by ZEFSAII (Michael W. Deem and Ramdas Pophale) SiO2 
 PCOD9354231
Probable space group: C C C 2
;
_chemical_formula_sum "Si O2"
_cell_formula_units_Z 48
_cell_length_a 5.817254
_cell_length_b 14.298136
_cell_length_c 25.899193
_cell_angle_alpha 90.000000
_cell_angle_beta 90.000000
_cell_angle_gamma 90.000000
_cell_volume 2154.188398
_symmetry_space_group_name_H-M "C C C 2"
_symmetry_group_IT_number 37
_symmetry_cell_setting 'orthorhombic'
loop_
_space_group_symop_operation_xyz
x,y,z
-x,-y,z
-x,y,1/2+z
x,-y,1/2+z
1/2+x,1/2+y,z
1/2-x,1/2-y,z
1/2-x,1/2+y,1/2+z
1/2+x,1/2-y,1/2+z
loop_
_atom_site_type_symbol
_atom_site_label
_atom_site_fract_x
_atom_site_fract_y
_atom_site_fract_z
Si Si1 0.898529 0.604491 0.879390
Si Si2 0.250000 0.750000 0.868081
Si Si3 0.243670 0.055028 0.985639
Si Si4 0.533974 0.609402 0.799413
Si Si5 0.500000 0.000000 0.662330
Si Si6 0.643182 0.597439 0.094580
Si Si7 0.864022 0.848944 0.689592
O O1 0.732790 0.597696 0.928527
O O2 0.784245 0.630899 0.824583
O O3 0.000000 0.500000 0.873490
O O4 0.071123 0.685473 0.897430
O O5 0.369739 0.673332 0.832583
O O6 0.500000 0.000000 0.989656
O O7 0.217760 0.120715 0.036366
O O8 0.000000 0.000000 0.987681
O O9 0.500000 0.500000 0.809409
O O10 0.484202 0.630240 0.739745
O O11 0.628791 0.073568 0.626024
O O12 0.312852 0.063246 0.691065
O O13 0.500000 0.500000 0.092318
O O14 0.490383 0.657208 0.134224
O O15 0.750000 0.750000 0.699359
#
# Coordination Sequence:
#
# PCOD9354231 Si02
#       7
#     8   4   8   8   4   8   8
#     4  11  24  43  74 104 144 191 246 310 372 451
#     4  12  26  46  72 102 150 188 242 310 374 446
#     4  10  21  40  76 108 141 197 248 307 372 444
#     4  12  25  45  70 105 142 193 245 305 375 449
#     4  10  20  40  68  86 130 180 226 296 362 430
#     4   9  19  39  66  98 131 181 241 294 365 438
#     4  11  25  40  66 102 140 183 245 300 371 444
#
# _framework density 22.282171999999999
#
# number of rings (size 3 to 8) (size 9 to 14) (size 15 to 20)
#    0.000    1.333    2.500    3.500    3.500    4.667 
#    0.000    0.000   11.000    0.000    0.000    0.000 
#    0.000    0.000    0.000    0.000    0.000    0.000 
#
# Total GULP energy -133710.451615 kJ/mol
# GULP energy per Si atom -5571.268817 kJ/mol
# Density = 2.223146 g / cm^3
# Si number density = 22.282172 Si / 1000 Ang^3
#
#
#
# Elastic Constant Matrix: (Units=GPa)
#
#
# Indices 1 2 3 4 5 6 
#
# 1 64.9198 10.8804 6.0564 0.0000 0.0000 0.0000
# 2 10.8804 92.0586 9.1009 0.0000 0.0000 0.0000
# 3 6.0564 9.1009 93.2678 0.0000 0.0000 0.0000
# 4 0.0000 0.0000 0.0000 7.3557 0.0000 0.0000
# 5 0.0000 0.0000 0.0000 0.0000 -91.1452 0.0000
# 6 0.0000 0.0000 0.0000 0.0000 0.0000 20.7932
#
#
#
# Elastic Compliance Matrix: (Units=1/GPa)
#
#
# Indices 1 2 3 4 5 6 
#
# 1 0.015782 -0.001781 -0.000851 0.000000 0.000000 0.000000
# 2 -0.001781 0.011169 -0.000974 0.000000 0.000000 0.000000
# 3 -0.000851 -0.000974 0.010872 0.000000 0.000000 0.000000
# 4 0.000000 0.000000 0.000000 0.135949 0.000000 0.000000
# 5 0.000000 0.000000 0.000000 0.000000 -0.010972 0.000000
# 6 0.000000 0.000000 0.000000 0.000000 0.000000 0.048093
#
#
# Mechanical properties :
#
#
# Convention : Reuss Voigt Hill
#
# Bulk Modulus (GPa) = 32.66854 33.59129 33.12991
# Shear Modulus (GPa) = 21.90013 2.34798 12.12406
#
# Velocity S-wave (km/s) = 3.13845 1.02764 2.33516
# Velocity P-wave (km/s) = 5.27506 4.06401 4.70863
#
# Compressibility (1/GPa) = 0.03061049
#
# Stress axis : x y z
#
# Youngs Moduli (GPa) = 63.36525 89.52980 91.97824
#
# Poissons Ratio (x) = 0.15946 0.07827
# Poissons Ratio (y) = 0.11286 0.08961
# Poissons Ratio (z) = 0.05392 0.08722
#
# Static dielectric constant tensor:
#      x y z
#    x 2.462650 0.000000 0.000000 
#    y 0.000000 1.721440 0.000000 
#    z 0.000000 0.000000 1.791690 
# 
# From -- ./inp_files/19368.got.cif
#   From: 2010.05.17/outbox.cif.g08.bks.cpg/sg37_10_cif.got.tgz:19368.got - 2010.06.03 17:53:42.
