data_PCOD9354537
_publ_section_title
;
Structure prediction by ZEFSAII (Michael W. Deem and Ramdas Pophale) SiO2 
 PCOD9354537
Probable space group: C C C 2
;
_chemical_formula_sum "Si O2"
_cell_formula_units_Z 64
_cell_length_a 8.900119
_cell_length_b 14.289477
_cell_length_c 24.097016
_cell_angle_alpha 90.000000
_cell_angle_beta 90.000000
_cell_angle_gamma 90.000000
_cell_volume 3064.611403
_symmetry_space_group_name_H-M "C C C 2"
_symmetry_group_IT_number 37
_symmetry_cell_setting 'orthorhombic'
loop_
_space_group_symop_operation_xyz
x,y,z
-x,-y,z
-x,y,1/2+z
x,-y,1/2+z
1/2+x,1/2+y,z
1/2-x,1/2-y,z
1/2-x,1/2+y,1/2+z
1/2+x,1/2-y,1/2+z
loop_
_atom_site_type_symbol
_atom_site_label
_atom_site_fract_x
_atom_site_fract_y
_atom_site_fract_z
Si Si1 0.584567 0.897816 0.112790
Si Si2 0.872501 0.330792 0.199459
Si Si3 0.572883 0.749637 0.411960
Si Si4 0.379809 0.824023 0.796132
Si Si5 0.671722 0.508815 0.313000
Si Si6 0.689997 0.642803 0.895659
Si Si7 0.668043 0.513774 0.183377
Si Si8 0.586021 0.097607 0.485811
O O1 0.475362 0.824730 0.144041
O O2 0.500000 0.000000 0.113575
O O3 0.734932 0.912693 0.148790
O O4 0.619304 0.875335 0.049236
O O5 0.750000 0.250000 0.210227
O O6 0.768274 0.420573 0.188225
O O7 0.997046 0.344451 0.248448
O O8 0.750000 0.750000 0.417191
O O9 0.539228 0.776648 0.348040
O O10 0.482969 0.653055 0.414809
O O11 0.511913 0.822336 0.456576
O O12 0.250000 0.750000 0.776980
O O13 0.295787 0.912343 0.825446
O O14 0.500000 0.500000 0.333353
O O15 0.726763 0.409856 0.337917
O O16 0.652931 0.536312 0.248315
O O17 0.750000 0.750000 0.895527
O O18 0.773194 0.589102 0.945028
O O19 0.500000 0.500000 0.160883
O O20 0.500000 0.000000 0.486499
#
# Coordination Sequence:
#
# PCOD9354537 Si02
#       8
#     8   8   8   8   8   8   8   8
#     4   9  20  45  62  92 126 169 218 272 311 393
#     4  11  25  38  65  93 125 171 216 269 333 385
#     4  10  22  40  60  91 133 162 208 272 319 380
#     4  11  24  40  61  96 136 171 217 273 327 392
#     4  11  22  38  65  91 131 172 210 263 337 388
#     4  10  23  40  61  98 127 167 216 265 316 397
#     4  10  23  41  62  91 128 168 216 267 324 392
#     4  10  21  40  68  88 126 169 216 262 323 377
#
# _framework density 20.883559000000002
#
# number of rings (size 3 to 8) (size 9 to 14) (size 15 to 20)
#    0.000    1.750    1.250    2.250    8.750    0.500 
#    0.000   10.000    0.000    0.000    0.000    0.000 
#    0.000    0.000    0.000    0.000    0.000    0.000 
#
# Total GULP energy -178211.452285 kJ/mol
# GULP energy per Si atom -5569.107884 kJ/mol
# Density = 2.083603 g / cm^3
# Si number density = 20.883559 Si / 1000 Ang^3
#
#
#
# Elastic Constant Matrix: (Units=GPa)
#
#
# Indices 1 2 3 4 5 6 
#
# 1 137.2731 34.3964 42.8454 0.0000 0.0000 0.0000
# 2 34.3964 68.0245 23.6814 0.0000 0.0000 0.0000
# 3 42.8454 23.6814 102.0927 0.0000 0.0000 0.0000
# 4 0.0000 0.0000 0.0000 -3.9774 0.0000 0.0000
# 5 0.0000 0.0000 0.0000 0.0000 6.5251 0.0000
# 6 0.0000 0.0000 0.0000 0.0000 0.0000 31.6315
#
#
#
# Elastic Compliance Matrix: (Units=1/GPa)
#
#
# Indices 1 2 3 4 5 6 
#
# 1 0.009114 -0.003565 -0.002998 0.000000 0.000000 0.000000
# 2 -0.003565 0.017386 -0.002537 0.000000 0.000000 0.000000
# 3 -0.002998 -0.002537 0.011642 0.000000 0.000000 0.000000
# 4 0.000000 0.000000 0.000000 -0.251418 0.000000 0.000000
# 5 0.000000 0.000000 0.000000 0.000000 0.153253 0.000000
# 6 0.000000 0.000000 0.000000 0.000000 0.000000 0.031614
#
#
# Mechanical properties :
#
#
# Convention : Reuss Voigt Hill
#
# Bulk Modulus (GPa) = 50.14399 56.58187 53.36293
# Shear Modulus (GPa) = -1403.19036 20.60031 -691.29503
#
# Velocity S-wave (km/s) = -25.94938 3.14417 -18.21379
# Velocity P-wave (km/s) = 29.55949 6.35089 20.41359
#
# Compressibility (1/GPa) = 0.01994257
#
# Stress axis : x y z
#
# Youngs Moduli (GPa) = 109.72579 57.51682 85.89877
#
# Poissons Ratio (x) = 0.20503 0.25751
# Poissons Ratio (y) = 0.39113 0.21792
# Poissons Ratio (z) = 0.32894 0.14592
#
# Static dielectric constant tensor:
#      x y z
#    x 1.853000 0.000000 0.000000 
#    y 0.000000 1.819440 0.000000 
#    z 0.000000 0.000000 1.747100 
# 
# From -- ./inp_files/18474.got.cif
#   From: 2010.05.17/outbox.cif.g08.bks.cpg/sg37_10_cif.got.tgz:18474.got - 2010.06.03 17:53:42.
