data_PCOD9354660
_publ_section_title
;
Structure prediction by ZEFSAII (Michael W. Deem and Ramdas Pophale) SiO2 
 PCOD9354660
Probable space group: C C C 2
;
_chemical_formula_sum "Si O2"
_cell_formula_units_Z 60
_cell_length_a 27.014611
_cell_length_b 8.331278
_cell_length_c 12.412394
_cell_angle_alpha 90.000000
_cell_angle_beta 90.000000
_cell_angle_gamma 90.000000
_cell_volume 2793.610776
_symmetry_space_group_name_H-M "C C C 2"
_symmetry_group_IT_number 37
_symmetry_cell_setting 'orthorhombic'
loop_
_space_group_symop_operation_xyz
x,y,z
-x,-y,z
-x,y,1/2+z
x,-y,1/2+z
1/2+x,1/2+y,z
1/2-x,1/2-y,z
1/2-x,1/2+y,1/2+z
1/2+x,1/2-y,1/2+z
loop_
_atom_site_type_symbol
_atom_site_label
_atom_site_fract_x
_atom_site_fract_y
_atom_site_fract_z
Si Si1 0.157725 0.830358 0.680590
Si Si2 0.627231 0.352462 0.237677
Si Si3 0.595983 0.798544 0.537397
Si Si4 0.182880 0.623788 0.367412
Si Si5 0.307183 0.216742 0.393462
Si Si6 0.910020 0.657417 0.028342
Si Si7 0.555494 0.475037 0.425035
Si Si8 0.750000 0.250000 0.535908
O O1 0.172775 0.841808 0.805696
O O2 0.117165 0.701616 0.641264
O O3 0.206246 0.805951 0.610617
O O4 0.138376 0.006624 0.653801
O O5 0.598907 0.222685 0.165866
O O6 0.676773 0.267011 0.283127
O O7 0.592487 0.429651 0.328357
O O8 0.652594 0.802436 0.488632
O O9 0.571035 0.643251 0.481697
O O10 0.571164 0.974250 0.520879
O O11 0.186916 0.446379 0.321734
O O12 0.133926 0.652489 0.439077
O O13 0.227459 0.623856 0.452461
O O14 0.250000 0.250000 0.422130
O O15 0.942607 0.813927 0.999928
O O16 0.500000 0.500000 0.384443
#
# Coordination Sequence:
#
# PCOD9354660 Si02
#       8
#     8   8   8   8   8   8   8   4
#     4  11  20  37  63  90 128 175 217 271 335 393
#     4  11  23  42  67  93 133 179 225 277 355 399
#     4  11  23  44  68  95 136 179 222 278 345 401
#     4   9  22  37  56  86 126 172 219 269 328 389
#     4  11  23  37  60  91 131 176 228 275 325 393
#     4   9  21  42  66  94 131 170 211 273 341 404
#     4  11  24  44  72 101 131 170 228 283 344 418
#     4  10  22  34  58  86 128 168 222 276 316 388
#
# _framework density 21.47758
#
# number of rings (size 3 to 8) (size 9 to 14) (size 15 to 20)
#    0.000    1.600    3.333    0.800    3.733    1.067 
#    1.200    0.000    0.000    0.000    0.000    0.000 
#    0.000    0.000    0.000    0.000    0.000    0.000 
#
# Total GULP energy -167040.326643 kJ/mol
# GULP energy per Si atom -5568.010888 kJ/mol
# Density = 2.142870 g / cm^3
# Si number density = 21.477580 Si / 1000 Ang^3
#
#
#
# Elastic Constant Matrix: (Units=GPa)
#
#
# Indices 1 2 3 4 5 6 
#
# 1 73.8776 33.3541 12.0189 0.0000 0.0000 0.0000
# 2 33.3541 141.7499 17.6283 0.0000 0.0000 0.0000
# 3 12.0189 17.6283 49.5659 0.0000 0.0000 0.0000
# 4 0.0000 0.0000 0.0000 24.7805 0.0000 0.0000
# 5 0.0000 0.0000 0.0000 0.0000 12.3386 0.0000
# 6 0.0000 0.0000 0.0000 0.0000 0.0000 13.4064
#
#
#
# Elastic Compliance Matrix: (Units=1/GPa)
#
#
# Indices 1 2 3 4 5 6 
#
# 1 0.015451 -0.003316 -0.002567 0.000000 0.000000 0.000000
# 2 -0.003316 0.008093 -0.002074 0.000000 0.000000 0.000000
# 3 -0.002567 -0.002074 0.021535 0.000000 0.000000 0.000000
# 4 0.000000 0.000000 0.000000 0.040354 0.000000 0.000000
# 5 0.000000 0.000000 0.000000 0.000000 0.081047 0.000000
# 6 0.000000 0.000000 0.000000 0.000000 0.000000 0.074591
#
#
# Mechanical properties :
#
#
# Convention : Reuss Voigt Hill
#
# Bulk Modulus (GPa) = 34.28896 43.46623 38.87760
# Shear Modulus (GPa) = 18.74711 23.58457 21.16584
#
# Velocity S-wave (km/s) = 2.95764 3.31736 3.14265
# Velocity P-wave (km/s) = 5.25958 5.91228 5.59545
#
# Compressibility (1/GPa) = 0.02916390
#
# Stress axis : x y z
#
# Youngs Moduli (GPa) = 64.72158 123.56408 46.43537
#
# Poissons Ratio (x) = 0.40978 0.11920
# Poissons Ratio (y) = 0.21464 0.09631
# Poissons Ratio (z) = 0.16615 0.25629
#
# Static dielectric constant tensor:
#      x y z
#    x 1.767410 0.000000 0.000000 
#    y 0.000000 1.900160 0.000000 
#    z 0.000000 0.000000 1.773670 
# 
# From -- ./inp_files/9085.got.cif
#   From: 2010.05.17/outbox.cif.g08.bks.cpg/sg37_5_cif.got.tgz:9085.got - 2010.06.03 17:53:42.
