data_PCOD9354310
_publ_section_title
;
Structure prediction by ZEFSAII (Michael W. Deem and Ramdas Pophale) SiO2 
 PCOD9354310
Probable space group: C C C 2
;
_chemical_formula_sum "Si O2"
_cell_formula_units_Z 52
_cell_length_a 8.574915
_cell_length_b 25.423325
_cell_length_c 10.022922
_cell_angle_alpha 90.000000
_cell_angle_beta 90.000000
_cell_angle_gamma 90.000000
_cell_volume 2185.025570
_symmetry_space_group_name_H-M "C C C 2"
_symmetry_group_IT_number 37
_symmetry_cell_setting 'orthorhombic'
loop_
_space_group_symop_operation_xyz
x,y,z
-x,-y,z
-x,y,1/2+z
x,-y,1/2+z
1/2+x,1/2+y,z
1/2-x,1/2-y,z
1/2-x,1/2+y,1/2+z
1/2+x,1/2-y,1/2+z
loop_
_atom_site_type_symbol
_atom_site_label
_atom_site_fract_x
_atom_site_fract_y
_atom_site_fract_z
Si Si1 0.000000 0.500000 0.267591
Si Si2 0.775472 0.580440 0.184919
Si Si3 0.135269 0.170038 0.475974
Si Si4 0.971112 0.940514 0.399386
Si Si5 0.785227 0.586145 0.892510
Si Si6 0.050307 0.331095 0.347770
Si Si7 0.073214 0.228164 0.199695
O O1 0.916899 0.540693 0.171975
O O2 0.887866 0.464383 0.357714
O O3 0.659440 0.553619 0.286055
O O4 0.850207 0.632246 0.247622
O O5 0.710983 0.587857 0.039644
O O6 0.102553 0.107597 0.485326
O O7 0.324483 0.179636 0.467742
O O8 0.085884 0.189012 0.326733
O O9 0.031437 0.202082 0.583626
O O10 0.122662 0.919048 0.317315
O O11 0.000000 0.000000 0.454229
O O12 0.898703 0.635605 0.884823
O O13 0.000432 0.279539 0.269101
O O14 0.250000 0.250000 0.161063
#
# Coordination Sequence:
#
# PCOD9354310 Si02
#       7
#     4   8   8   8   8   8   8
#     4  10  20  44  58 108 134 184 242 292 364 450
#     4  10  22  42  66  97 141 184 239 303 366 443
#     4  10  24  46  72 107 148 195 249 312 377 457
#     4  11  24  44  65 107 143 193 247 300 372 452
#     4  11  23  42  73  97 143 193 241 303 376 447
#     4   9  23  45  71 105 139 184 249 312 375 459
#     4  10  23  47  76 105 150 192 249 316 380 455
#
# _framework density 23.798347
#
# number of rings (size 3 to 8) (size 9 to 14) (size 15 to 20)
#    0.000    1.846    1.538    0.462    8.615    0.615 
#    5.538    2.308    0.000    0.000    0.000    0.000 
#    0.000    0.000    0.000    0.000    0.000    0.000 
#
# Total GULP energy -145026.609242 kJ/mol
# GULP energy per Si atom -5577.946509 kJ/mol
# Density = 2.374418 g / cm^3
# Si number density = 23.798347 Si / 1000 Ang^3
#
#
#
# Elastic Constant Matrix: (Units=GPa)
#
#
# Indices 1 2 3 4 5 6 
#
# 1 53.4254 50.2778 10.9534 0.0000 0.0000 0.0000
# 2 50.2778 155.5796 38.0533 0.0000 0.0000 0.0000
# 3 10.9534 38.0533 54.6185 0.0000 0.0000 0.0000
# 4 0.0000 0.0000 0.0000 -3.4120 0.0000 0.0000
# 5 0.0000 0.0000 0.0000 0.0000 14.0052 0.0000
# 6 0.0000 0.0000 0.0000 0.0000 0.0000 42.2586
#
#
#
# Elastic Compliance Matrix: (Units=1/GPa)
#
#
# Indices 1 2 3 4 5 6 
#
# 1 0.026927 -0.008897 0.000799 0.000000 0.000000 0.000000
# 2 -0.008897 0.010688 -0.005662 0.000000 0.000000 0.000000
# 3 0.000799 -0.005662 0.022093 0.000000 0.000000 0.000000
# 4 0.000000 0.000000 0.000000 -0.293086 0.000000 0.000000
# 5 0.000000 0.000000 0.000000 0.000000 0.071402 0.000000
# 6 0.000000 0.000000 0.000000 0.000000 0.000000 0.023664
#
#
# Mechanical properties :
#
#
# Convention : Reuss Voigt Hill
#
# Bulk Modulus (GPa) = 31.06831 51.35473 41.21152
# Shear Modulus (GPa) = -49.96871 21.52631 -14.22120
#
# Velocity S-wave (km/s) = -4.58719 3.01080 -2.44718
# Velocity P-wave (km/s) = 3.86953 5.80625 3.06099
#
# Compressibility (1/GPa) = 0.03218714
#
# Stress axis : x y z
#
# Youngs Moduli (GPa) = 37.13757 93.56572 45.26249
#
# Poissons Ratio (x) = 0.83247 -0.03615
# Poissons Ratio (y) = 0.33042 0.25627
# Poissons Ratio (z) = -0.02966 0.52976
#
# Static dielectric constant tensor:
#      x y z
#    x 2.307280 0.000000 0.000000 
#    y 0.000000 1.943940 0.000000 
#    z 0.000000 0.000000 1.960650 
# 
# From -- ./inp_files/6504.got.cif
#   From: 2010.05.17/outbox.cif.g08.bks.cpg/sg37_4_cif.got.tgz:6504.got - 2010.06.03 17:53:42.
