data_PCOD9354830
_publ_section_title
;
Structure prediction by ZEFSAII (Michael W. Deem and Ramdas Pophale) SiO2 
 PCOD9354830
Probable space group: C C C 2
;
_chemical_formula_sum "Si O2"
_cell_formula_units_Z 64
_cell_length_a 14.131925
_cell_length_b 8.201630
_cell_length_c 27.637393
_cell_angle_alpha 90.000000
_cell_angle_beta 90.000000
_cell_angle_gamma 90.000000
_cell_volume 3203.307062
_symmetry_space_group_name_H-M "C C C 2"
_symmetry_group_IT_number 37
_symmetry_cell_setting 'orthorhombic'
loop_
_space_group_symop_operation_xyz
x,y,z
-x,-y,z
-x,y,1/2+z
x,-y,1/2+z
1/2+x,1/2+y,z
1/2-x,1/2-y,z
1/2-x,1/2+y,1/2+z
1/2+x,1/2-y,1/2+z
loop_
_atom_site_type_symbol
_atom_site_label
_atom_site_fract_x
_atom_site_fract_y
_atom_site_fract_z
Si Si1 0.920017 0.861245 0.416310
Si Si2 0.248238 0.945422 0.750161
Si Si3 0.060837 0.354526 0.737699
Si Si4 0.427517 0.357053 0.309667
Si Si5 0.767879 0.064804 0.473414
Si Si6 0.580585 0.877992 0.501798
Si Si7 0.834121 0.129031 0.161668
Si Si8 0.394273 0.445060 0.557311
O O1 0.904558 0.787727 0.362794
O O2 0.951180 0.725841 0.454982
O O3 0.826410 0.952643 0.436040
O O4 0.000000 0.000000 0.416634
O O5 0.250000 0.750000 0.748595
O O6 0.163118 0.955576 0.788597
O O7 0.343018 0.055936 0.759166
O O8 0.212595 0.001998 0.698124
O O9 0.094259 0.229108 0.696442
O O10 0.000000 0.500000 0.714885
O O11 0.986480 0.267287 0.774859
O O12 0.500000 0.500000 0.318185
O O13 0.750000 0.250000 0.457718
O O14 0.668843 0.981908 0.484430
O O15 0.826456 0.053180 0.523730
O O16 0.613321 0.743072 0.540435
O O17 0.500000 0.000000 0.519775
O O18 0.750000 0.250000 0.146019
O O19 0.876312 0.047952 0.114263
O O20 0.500000 0.500000 0.546252
#
# Coordination Sequence:
#
# PCOD9354830 Si02
#       8
#     8   8   8   8   8   8   8   8
#     4  10  22  41  62  93 122 162 206 259 313 382
#     4  11  23  40  64  89 126 165 215 266 319 385
#     4  11  23  41  63  90 125 170 211 271 323 378
#     4  11  23  42  65  89 129 166 217 265 324 385
#     4  11  22  42  65  91 130 165 207 261 316 376
#     4  11  22  41  65  89 129 165 206 258 314 373
#     4  10  23  41  62  91 128 166 216 258 319 384
#     4  11  23  38  65  95 126 166 205 260 315 383
#
# _framework density 19.979351999999999
#
# number of rings (size 3 to 8) (size 9 to 14) (size 15 to 20)
#    0.000    1.250    2.500    5.250    1.750    2.500 
#    6.750    2.500    0.000    0.000    0.000    0.000 
#    0.000    0.000    0.000    0.000    0.000    0.000 
#
# Total GULP energy -178392.521940 kJ/mol
# GULP energy per Si atom -5574.766311 kJ/mol
# Density = 1.993388 g / cm^3
# Si number density = 19.979352 Si / 1000 Ang^3
#
#
#
# Elastic Constant Matrix: (Units=GPa)
#
#
# Indices 1 2 3 4 5 6 
#
# 1 83.8742 -4.5887 10.7842 0.0000 0.0000 0.0000
# 2 -4.5887 15.7378 -16.2620 0.0000 0.0000 0.0000
# 3 10.7842 -16.2620 79.0056 0.0000 0.0000 0.0000
# 4 0.0000 0.0000 0.0000 -98.2732 0.0000 0.0000
# 5 0.0000 0.0000 0.0000 0.0000 110.4239 0.0000
# 6 0.0000 0.0000 0.0000 0.0000 0.0000 35.1187
#
#
#
# Elastic Compliance Matrix: (Units=1/GPa)
#
#
# Indices 1 2 3 4 5 6 
#
# 1 0.012203 0.002333 -0.001185 0.000000 0.000000 0.000000
# 2 0.002333 0.081153 0.016385 0.000000 0.000000 0.000000
# 3 -0.001185 0.016385 0.016192 0.000000 0.000000 0.000000
# 4 0.000000 0.000000 0.000000 -0.010176 0.000000 0.000000
# 5 0.000000 0.000000 0.000000 0.000000 0.009056 0.000000
# 6 0.000000 0.000000 0.000000 0.000000 0.000000 0.028475
#
#
# Mechanical properties :
#
#
# Convention : Reuss Voigt Hill
#
# Bulk Modulus (GPa) = 6.91499 17.60942 12.26220
# Shear Modulus (GPa) = 33.32426 22.03281 27.67854
#
# Velocity S-wave (km/s) = 4.08847 3.32441 3.72608
# Velocity P-wave (km/s) = 5.07504 4.85475 4.96611
#
# Compressibility (1/GPa) = 0.14461333
#
# Stress axis : x y z
#
# Youngs Moduli (GPa) = 81.94923 12.32243 61.75958
#
# Poissons Ratio (x) = -0.02875 0.07321
# Poissons Ratio (y) = -0.19119 -1.01196
# Poissons Ratio (z) = 0.09715 -0.20191
#
# Static dielectric constant tensor:
#      x y z
#    x 1.629490 0.000000 0.000000 
#    y 0.000000 1.812090 0.000000 
#    z 0.000000 0.000000 1.716130 
# 
# From -- ./inp_files/20477.got.cif
#   From: 2010.05.17/outbox.cif.g08.bks.cpg/sg37_11_cif.got.tgz:20477.got - 2010.06.03 17:53:42.
