data_PCOD9354073
_publ_section_title
;
Structure prediction by ZEFSAII (Michael W. Deem and Ramdas Pophale) SiO2 
 PCOD9354073
Probable space group: C C C 2
;
_chemical_formula_sum "Si O2"
_cell_formula_units_Z 56
_cell_length_a 12.278801
_cell_length_b 10.070461
_cell_length_c 19.701799
_cell_angle_alpha 90.000000
_cell_angle_beta 90.000000
_cell_angle_gamma 90.000000
_cell_volume 2436.190228
_symmetry_space_group_name_H-M "C C C 2"
_symmetry_group_IT_number 37
_symmetry_cell_setting 'orthorhombic'
loop_
_space_group_symop_operation_xyz
x,y,z
-x,-y,z
-x,y,1/2+z
x,-y,1/2+z
1/2+x,1/2+y,z
1/2-x,1/2-y,z
1/2-x,1/2+y,1/2+z
1/2+x,1/2-y,1/2+z
loop_
_atom_site_type_symbol
_atom_site_label
_atom_site_fract_x
_atom_site_fract_y
_atom_site_fract_z
Si Si1 0.281609 0.976265 0.912180
Si Si2 0.000000 0.500000 0.469325
Si Si3 0.322266 0.037187 0.261816
Si Si4 0.554404 0.803794 0.065615
Si Si5 0.250000 0.250000 0.987322
Si Si6 0.400445 0.400913 0.514589
Si Si7 0.989870 0.302436 0.221387
Si Si8 0.324256 0.614612 0.166390
O O1 0.260053 0.966793 0.832554
O O2 0.270077 0.128936 0.936264
O O3 0.409106 0.937415 0.920508
O O4 0.195582 0.902969 0.960326
O O5 0.080470 0.562905 0.525913
O O6 0.406760 0.911951 0.252344
O O7 0.240025 0.005761 0.200715
O O8 0.395091 0.169965 0.257096
O O9 0.452342 0.744362 0.025067
O O10 0.522951 0.826942 0.142304
O O11 0.654038 0.714448 0.040477
O O12 0.500000 0.500000 0.495750
O O13 0.361791 0.427463 0.591788
O O14 0.924757 0.164442 0.213773
O O15 0.250000 0.750000 0.160137
#
# Coordination Sequence:
#
# PCOD9354073 Si02
#       8
#     8   4   8   8   4   8   8   8
#     4  11  24  38  62  93 134 179 218 276 349 410
#     4  10  22  36  62  96 120 164 222 282 324 386
#     4  10  20  37  60  92 131 169 219 278 340 417
#     4  10  21  39  65  99 126 167 224 287 335 391
#     4  10  22  38  62  92 130 172 226 276 340 414
#     4  11  23  41  61  92 132 177 220 274 335 410
#     4   9  19  34  62  92 125 164 222 281 336 392
#     4   9  21  37  65  92 121 172 224 283 339 391
#
# _framework density 22.986711
#
# number of rings (size 3 to 8) (size 9 to 14) (size 15 to 20)
#    0.000    2.000    1.429    1.714   13.000    0.000 
#    0.000    0.714    0.000    8.571    0.000    0.000 
#    0.000    0.000    0.000    0.000    0.000    0.000 
#
# Total GULP energy -155898.895330 kJ/mol
# GULP energy per Si atom -5567.817690 kJ/mol
# Density = 2.293439 g / cm^3
# Si number density = 22.986711 Si / 1000 Ang^3
#
#
#
# Elastic Constant Matrix: (Units=GPa)
#
#
# Indices 1 2 3 4 5 6 
#
# 1 108.4485 7.4575 42.3882 0.0000 0.0000 0.0000
# 2 7.4575 32.2841 3.2928 0.0000 0.0000 0.0000
# 3 42.3882 3.2928 83.2356 0.0000 0.0000 0.0000
# 4 0.0000 0.0000 0.0000 27.0583 0.0000 0.0000
# 5 0.0000 0.0000 0.0000 0.0000 -19.3016 0.0000
# 6 0.0000 0.0000 0.0000 0.0000 0.0000 15.4495
#
#
#
# Elastic Compliance Matrix: (Units=1/GPa)
#
#
# Indices 1 2 3 4 5 6 
#
# 1 0.011652 -0.002095 -0.005851 0.000000 0.000000 0.000000
# 2 -0.002095 0.031477 -0.000178 0.000000 0.000000 0.000000
# 3 -0.005851 -0.000178 0.015001 0.000000 0.000000 0.000000
# 4 0.000000 0.000000 0.000000 0.036957 0.000000 0.000000
# 5 0.000000 0.000000 0.000000 0.000000 -0.051809 0.000000
# 6 0.000000 0.000000 0.000000 0.000000 0.000000 0.064727
#
#
# Mechanical properties :
#
#
# Convention : Reuss Voigt Hill
#
# Bulk Modulus (GPa) = 23.87695 36.69393 30.28544
# Shear Modulus (GPa) = 36.17592 16.02990 26.10291
#
# Velocity S-wave (km/s) = 3.97139 2.64361 3.37347
# Velocity P-wave (km/s) = 5.60705 5.03150 5.32706
#
# Compressibility (1/GPa) = 0.04188139
#
# Stress axis : x y z
#
# Youngs Moduli (GPa) = 85.82284 31.76915 66.66320
#
# Poissons Ratio (x) = 0.06655 0.39004
# Poissons Ratio (y) = 0.17978 0.01190
# Poissons Ratio (z) = 0.50214 0.00567
#
# Static dielectric constant tensor:
#      x y z
#    x 2.080980 0.000000 0.000000 
#    y 0.000000 2.198680 0.000000 
#    z 0.000000 0.000000 1.779650 
# 
# From -- ./inp_files/16917.got.cif
#   From: 2010.05.17/outbox.cif.g08.bks.cpg/sg37_9_cif.got.tgz:16917.got - 2010.06.03 17:53:42.
