data_PCOD9354986
_publ_section_title
;
Structure prediction by ZEFSAII (Michael W. Deem and Ramdas Pophale) SiO2 
 PCOD9354986
Probable space group: C C C 2
;
_chemical_formula_sum "Si O2"
_cell_formula_units_Z 40
_cell_length_a 14.552578
_cell_length_b 10.892174
_cell_length_c 10.997122
_cell_angle_alpha 90.000000
_cell_angle_beta 90.000000
_cell_angle_gamma 90.000000
_cell_volume 1743.145139
_symmetry_space_group_name_H-M "C C C 2"
_symmetry_group_IT_number 37
_symmetry_cell_setting 'orthorhombic'
loop_
_space_group_symop_operation_xyz
x,y,z
-x,-y,z
-x,y,1/2+z
x,-y,1/2+z
1/2+x,1/2+y,z
1/2-x,1/2-y,z
1/2-x,1/2+y,1/2+z
1/2+x,1/2-y,1/2+z
loop_
_atom_site_type_symbol
_atom_site_label
_atom_site_fract_x
_atom_site_fract_y
_atom_site_fract_z
Si Si1 0.151817 0.276444 0.355600
Si Si2 0.336704 0.402393 0.120743
Si Si3 0.045985 0.763688 0.427133
Si Si4 0.681127 0.343725 0.234093
Si Si5 0.676242 0.947854 0.936010
O O1 0.250000 0.250000 0.412530
O O2 0.157928 0.201295 0.226935
O O3 0.148188 0.423680 0.373487
O O4 0.062285 0.225543 0.421900
O O5 0.357834 0.535857 0.171749
O O6 0.406352 0.358878 0.017383
O O7 0.236659 0.429259 0.059156
O O8 0.092493 0.781823 0.294960
O O9 0.084722 0.629940 0.460692
O O10 0.750000 0.250000 0.166475
O O11 0.751949 0.388977 0.339619
#
# Coordination Sequence:
#
# PCOD9354986 Si02
#       5
#     8   8   8   8   8
#     4  12  24  46  72 109 145 198 252 310 371 451
#     4  11  23  48  79 100 149 200 242 314 397 434
#     4  10  24  46  70 109 148 191 252 310 368 461
#     4   9  20  43  71 104 142 187 243 311 371 452
#     4  10  22  44  75 104 146 190 253 303 367 465
#
# _framework density 22.947026999999999
#
# number of rings (size 3 to 8) (size 9 to 14) (size 15 to 20)
#    0.000    1.600    2.000    3.600    0.000    1.600 
#   14.400    2.000    0.000    0.000    0.000    0.000 
#    0.000    0.000    0.000    0.000    0.000    0.000 
#
# Total GULP energy -111487.189844 kJ/mol
# GULP energy per Si atom -5574.359492 kJ/mol
# Density = 2.289480 g / cm^3
# Si number density = 22.947027 Si / 1000 Ang^3
#
#
#
# Elastic Constant Matrix: (Units=GPa)
#
#
# Indices 1 2 3 4 5 6 
#
# 1 157.3205 30.1611 27.3772 0.0000 0.0000 0.0000
# 2 30.1611 110.9721 26.9443 0.0000 0.0000 0.0000
# 3 27.3772 26.9443 73.5435 0.0000 0.0000 0.0000
# 4 0.0000 0.0000 0.0000 28.9899 0.0000 0.0000
# 5 0.0000 0.0000 0.0000 0.0000 11.5966 0.0000
# 6 0.0000 0.0000 0.0000 0.0000 0.0000 21.4638
#
#
#
# Elastic Compliance Matrix: (Units=1/GPa)
#
#
# Indices 1 2 3 4 5 6 
#
# 1 0.006987 -0.001391 -0.002091 0.000000 0.000000 0.000000
# 2 -0.001391 0.010168 -0.003207 0.000000 0.000000 0.000000
# 3 -0.002091 -0.003207 0.015551 0.000000 0.000000 0.000000
# 4 0.000000 0.000000 0.000000 0.034495 0.000000 0.000000
# 5 0.000000 0.000000 0.000000 0.000000 0.086232 0.000000
# 6 0.000000 0.000000 0.000000 0.000000 0.000000 0.046590
#
#
# Mechanical properties :
#
#
# Convention : Reuss Voigt Hill
#
# Bulk Modulus (GPa) = 51.74288 56.75571 54.24929
# Shear Modulus (GPa) = 22.74324 29.56696 26.15510
#
# Velocity S-wave (km/s) = 3.15162 3.59345 3.37976
# Velocity P-wave (km/s) = 5.98677 6.48106 6.23881
#
# Compressibility (1/GPa) = 0.01932633
#
# Stress axis : x y z
#
# Youngs Moduli (GPa) = 143.12071 98.34607 64.30449
#
# Poissons Ratio (x) = 0.13682 0.13448
# Poissons Ratio (y) = 0.19912 0.20625
# Poissons Ratio (z) = 0.29931 0.31544
#
# Static dielectric constant tensor:
#      x y z
#    x 1.836500 0.000000 0.000000 
#    y 0.000000 2.012630 0.000000 
#    z 0.000000 0.000000 1.938160 
# 
# From -- ./inp_files/7034.got.cif
#   From: 2010.05.17/outbox.cif.g08.bks.cpg/sg37_4_cif.got.tgz:7034.got - 2010.06.03 17:53:42.
