data_PCOD9354902
_publ_section_title
;
Structure prediction by ZEFSAII (Michael W. Deem and Ramdas Pophale) SiO2 
 PCOD9354902
Probable space group: C C C 2
;
_chemical_formula_sum "Si O2"
_cell_formula_units_Z 32
_cell_length_a 14.991005
_cell_length_b 7.172511
_cell_length_c 12.852201
_cell_angle_alpha 90.000000
_cell_angle_beta 90.000000
_cell_angle_gamma 90.000000
_cell_volume 1381.909114
_symmetry_space_group_name_H-M "C C C 2"
_symmetry_group_IT_number 37
_symmetry_cell_setting 'orthorhombic'
loop_
_space_group_symop_operation_xyz
x,y,z
-x,-y,z
-x,y,1/2+z
x,-y,1/2+z
1/2+x,1/2+y,z
1/2-x,1/2-y,z
1/2-x,1/2+y,1/2+z
1/2+x,1/2-y,1/2+z
loop_
_atom_site_type_symbol
_atom_site_label
_atom_site_fract_x
_atom_site_fract_y
_atom_site_fract_z
Si Si1 0.250000 0.250000 0.215340
Si Si2 0.384587 0.699231 0.564024
Si Si3 0.434439 0.843350 0.370792
Si Si4 0.000000 0.000000 0.732523
Si Si5 0.242654 0.957945 0.913489
O O1 0.322099 0.167427 0.134772
O O2 0.211487 0.100207 0.297030
O O3 0.457465 0.791719 0.490289
O O4 0.428249 0.577189 0.651729
O O5 0.323799 0.579425 0.483221
O O6 0.455423 0.661887 0.302535
O O7 0.500000 0.000000 0.329004
O O8 0.335666 0.934436 0.388093
O O9 0.250000 0.750000 0.963115
#
# Coordination Sequence:
#
# PCOD9354902 Si02
#       5
#     4   8   8   4   8
#     4  10  22  42  72 110 144 202 258 308 402 454
#     4  12  24  47  76 108 153 208 256 320 406 460
#     4  12  27  50  77 112 158 207 267 328 395 483
#     4  12  30  46  78 114 166 206 266 332 402 484
#     4  10  25  46  77 113 155 199 266 325 384 483
#
# _framework density 23.156369000000002
#
# number of rings (size 3 to 8) (size 9 to 14) (size 15 to 20)
#    0.750    0.000    2.500    3.750    7.000    5.000 
#    0.000    0.000    0.000    0.000    0.000    0.000 
#    0.000    0.000    0.000    0.000    0.000    0.000 
#
# Total GULP energy -89076.191577 kJ/mol
# GULP energy per Si atom -5567.261974 kJ/mol
# Density = 2.310366 g / cm^3
# Si number density = 23.156369 Si / 1000 Ang^3
#
#
#
# Elastic Constant Matrix: (Units=GPa)
#
#
# Indices 1 2 3 4 5 6 
#
# 1 76.2044 40.4891 33.6684 0.0000 0.0000 0.0000
# 2 40.4891 128.8718 36.6529 0.0000 0.0000 0.0000
# 3 33.6684 36.6529 141.4028 0.0000 0.0000 0.0000
# 4 0.0000 0.0000 0.0000 8.3704 0.0000 0.0000
# 5 0.0000 0.0000 0.0000 0.0000 40.3536 0.0000
# 6 0.0000 0.0000 0.0000 0.0000 0.0000 28.2472
#
#
#
# Elastic Compliance Matrix: (Units=1/GPa)
#
#
# Indices 1 2 3 4 5 6 
#
# 1 0.016740 -0.004454 -0.002831 0.000000 0.000000 0.000000
# 2 -0.004454 0.009562 -0.001418 0.000000 0.000000 0.000000
# 3 -0.002831 -0.001418 0.008114 0.000000 0.000000 0.000000
# 4 0.000000 0.000000 0.000000 0.119468 0.000000 0.000000
# 5 0.000000 0.000000 0.000000 0.000000 0.024781 0.000000
# 6 0.000000 0.000000 0.000000 0.000000 0.000000 0.035402
#
#
# Mechanical properties :
#
#
# Convention : Reuss Voigt Hill
#
# Bulk Modulus (GPa) = 58.79218 63.12220 60.95719
# Shear Modulus (GPa) = 21.08422 31.10547 26.09485
#
# Velocity S-wave (km/s) = 3.02075 3.66905 3.36057
# Velocity P-wave (km/s) = 6.13277 6.72812 6.43733
#
# Compressibility (1/GPa) = 0.01700907
#
# Stress axis : x y z
#
# Youngs Moduli (GPa) = 59.73669 104.57624 123.24796
#
# Poissons Ratio (x) = 0.46580 0.34895
# Poissons Ratio (y) = 0.26608 0.17478
# Poissons Ratio (z) = 0.16913 0.14830
#
# Static dielectric constant tensor:
#      x y z
#    x 2.216750 0.000000 0.000000 
#    y 0.000000 1.994750 0.000000 
#    z 0.000000 0.000000 1.841230 
# 
# From -- ./inp_files/7558.got.cif
#   From: 2010.05.17/outbox.cif.g08.bks.cpg/sg37_4_cif.got.tgz:7558.got - 2010.06.03 17:53:42.
