data_PCOD9354270
_publ_section_title
;
Structure prediction by ZEFSAII (Michael W. Deem and Ramdas Pophale) SiO2 
 PCOD9354270
Probable space group: C C C 2
;
_chemical_formula_sum "Si O2"
_cell_formula_units_Z 60
_cell_length_a 27.035767
_cell_length_b 17.875905
_cell_length_c 5.104401
_cell_angle_alpha 90.000000
_cell_angle_beta 90.000000
_cell_angle_gamma 90.000000
_cell_volume 2466.899847
_symmetry_space_group_name_H-M "C C C 2"
_symmetry_group_IT_number 37
_symmetry_cell_setting 'orthorhombic'
loop_
_space_group_symop_operation_xyz
x,y,z
-x,-y,z
-x,y,1/2+z
x,-y,1/2+z
1/2+x,1/2+y,z
1/2-x,1/2-y,z
1/2-x,1/2+y,1/2+z
1/2+x,1/2-y,1/2+z
loop_
_atom_site_type_symbol
_atom_site_label
_atom_site_fract_x
_atom_site_fract_y
_atom_site_fract_z
Si Si1 0.775289 0.535287 0.246030
Si Si2 0.884926 0.144589 0.187600
Si Si3 0.019191 0.084433 0.932109
Si Si4 0.679780 0.627689 0.203609
Si Si5 0.400485 0.810449 0.987847
Si Si6 0.338897 0.156859 0.983531
Si Si7 0.250000 0.250000 0.141343
Si Si8 0.944955 0.463765 0.046161
O O1 0.778238 0.537279 0.559237
O O2 0.720990 0.565011 0.165216
O O3 0.819624 0.582579 0.122849
O O4 0.928132 0.092225 0.299089
O O5 0.846427 0.148981 0.430074
O O6 0.906615 0.225960 0.099286
O O7 0.859118 0.110921 0.930646
O O8 0.982620 0.120629 0.717993
O O9 0.000000 0.000000 0.980807
O O10 0.713743 0.696840 0.303375
O O11 0.362551 0.844554 0.199964
O O12 0.443203 0.874859 0.993610
O O13 0.377497 0.808198 0.696246
O O14 0.287859 0.202751 0.970890
O O15 0.920253 0.489433 0.314652
O O16 0.000000 0.500000 0.069844
#
# Coordination Sequence:
#
# PCOD9354270 Si02
#       8
#     8   8   8   8   8   8   4   8
#     4  11  24  44  58  95 138 183 229 270 337 396
#     4  12  23  44  68 105 134 171 243 282 343 423
#     4  10  23  47  69  97 132 174 219 281 361 410
#     4  11  24  41  68  99 136 183 218 288 334 402
#     4  12  23  41  66 104 125 174 234 282 336 404
#     4  11  24  38  67  92 134 180 220 279 327 393
#     4  10  20  42  62  92 144 172 220 256 340 382
#     4  10  23  44  65  92 131 174 218 276 356 416
#
# _framework density 24.322025
#
# number of rings (size 3 to 8) (size 9 to 14) (size 15 to 20)
#    0.000    1.067    2.667    3.200    0.000    7.467 
#   19.200    0.000    0.000    0.000    0.000    0.000 
#    0.000    0.000    0.000    0.000    0.000    0.000 
#
# Total GULP energy -167412.396070 kJ/mol
# GULP energy per Si atom -5580.413202 kJ/mol
# Density = 2.426667 g / cm^3
# Si number density = 24.322025 Si / 1000 Ang^3
#
#
#
# Elastic Constant Matrix: (Units=GPa)
#
#
# Indices 1 2 3 4 5 6 
#
# 1 74.6670 21.3526 -2.8427 0.0000 0.0000 0.0000
# 2 21.3526 55.7407 -12.6190 0.0000 0.0000 0.0000
# 3 -2.8427 -12.6190 118.9317 0.0000 0.0000 0.0000
# 4 0.0000 0.0000 0.0000 26.4113 0.0000 0.0000
# 5 0.0000 0.0000 0.0000 0.0000 25.6023 0.0000
# 6 0.0000 0.0000 0.0000 0.0000 0.0000 45.2986
#
#
#
# Elastic Compliance Matrix: (Units=1/GPa)
#
#
# Indices 1 2 3 4 5 6 
#
# 1 0.015048 -0.005823 -0.000258 0.000000 0.000000 0.000000
# 2 -0.005823 0.020635 0.002050 0.000000 0.000000 0.000000
# 3 -0.000258 0.002050 0.008620 0.000000 0.000000 0.000000
# 4 0.000000 0.000000 0.000000 0.037863 0.000000 0.000000
# 5 0.000000 0.000000 0.000000 0.000000 0.039059 0.000000
# 6 0.000000 0.000000 0.000000 0.000000 0.000000 0.022076
#
#
# Mechanical properties :
#
#
# Convention : Reuss Voigt Hill
#
# Bulk Modulus (GPa) = 27.59306 29.01346 28.30326
# Shear Modulus (GPa) = 30.59190 35.69234 33.14212
#
# Velocity S-wave (km/s) = 3.55038 3.83494 3.69540
# Velocity P-wave (km/s) = 5.30814 5.61817 5.46535
#
# Compressibility (1/GPa) = 0.03624099
#
# Stress axis : x y z
#
# Youngs Moduli (GPa) = 66.45327 48.46142 116.01524
#
# Poissons Ratio (x) = 0.28219 0.02995
# Poissons Ratio (y) = 0.38695 -0.23786
# Poissons Ratio (z) = 0.01716 -0.09936
#
# Static dielectric constant tensor:
#      x y z
#    x 1.882720 0.000000 0.000000 
#    y 0.000000 2.104050 0.000000 
#    z 0.000000 0.000000 2.032830 
# 
# From -- ./inp_files/850.got.cif
#   From: 2010.05.17/outbox.cif.g08.bks.cpg/sg37_1_cif.got.tgz:850.got - 2010.06.03 17:53:42.
