data_PCOD9354720
_publ_section_title
;
Structure prediction by ZEFSAII (Michael W. Deem and Ramdas Pophale) SiO2 
 PCOD9354720
Probable space group: C C C 2
;
_chemical_formula_sum "Si O2"
_cell_formula_units_Z 52
_cell_length_a 20.497340
_cell_length_b 13.624270
_cell_length_c 8.920500
_cell_angle_alpha 90.000000
_cell_angle_beta 90.000000
_cell_angle_gamma 90.000000
_cell_volume 2491.150377
_symmetry_space_group_name_H-M "C C C 2"
_symmetry_group_IT_number 37
_symmetry_cell_setting 'orthorhombic'
loop_
_space_group_symop_operation_xyz
x,y,z
-x,-y,z
-x,y,1/2+z
x,-y,1/2+z
1/2+x,1/2+y,z
1/2-x,1/2-y,z
1/2-x,1/2+y,1/2+z
1/2+x,1/2-y,1/2+z
loop_
_atom_site_type_symbol
_atom_site_label
_atom_site_fract_x
_atom_site_fract_y
_atom_site_fract_z
Si Si1 0.096262 0.934733 0.853710
Si Si2 0.284018 0.424935 0.840016
Si Si3 0.500000 0.000000 0.261194
Si Si4 0.347556 0.224284 0.369585
Si Si5 0.419908 0.073406 0.520208
Si Si6 0.500000 0.500000 0.600999
Si Si7 0.801880 0.566161 0.134188
Si Si8 0.750000 0.750000 0.626985
O O1 0.141679 0.838704 0.846082
O O2 0.144780 0.028369 0.866811
O O3 0.050062 0.942593 0.708716
O O4 0.046738 0.935638 0.993962
O O5 0.242978 0.505961 0.748836
O O6 0.284517 0.329361 0.733396
O O7 0.243114 0.406556 0.991826
O O8 0.558696 0.986783 0.374349
O O9 0.475974 0.918505 0.144810
O O10 0.410994 0.178557 0.445241
O O11 0.327938 0.161911 0.223450
O O12 0.298229 0.201496 0.506585
O O13 0.360299 0.008289 0.585815
#
# Coordination Sequence:
#
# PCOD9354720 Si02
#       8
#     8   8   4   8   8   4   8   4
#     4  11  25  45  72  99 134 184 233 288 344 407
#     4  12  24  43  71 102 141 176 228 292 360 428
#     4  10  22  38  64  90 132 184 228 264 338 400
#     4  12  24  42  69 101 139 182 231 281 356 419
#     4  11  21  40  62  95 134 183 217 277 331 407
#     4  10  24  50  70  92 138 182 236 294 332 394
#     4  12  22  42  68 100 142 178 218 290 353 419
#     4  12  26  42  66 106 136 182 224 288 360 432
#
# _framework density 20.873889999999999
#
# number of rings (size 3 to 8) (size 9 to 14) (size 15 to 20)
#    0.000    0.615    4.615    3.692    0.000    4.308 
#    0.000    0.000    0.000    0.000    0.000    0.000 
#    0.000    0.000    0.000    0.000    0.000    0.000 
#
# Total GULP energy -144966.903994 kJ/mol
# GULP energy per Si atom -5575.650154 kJ/mol
# Density = 2.082638 g / cm^3
# Si number density = 20.873890 Si / 1000 Ang^3
#
#
#
# Elastic Constant Matrix: (Units=GPa)
#
#
# Indices 1 2 3 4 5 6 
#
# 1 78.1828 20.1673 46.8808 0.0000 0.0000 0.0000
# 2 20.1673 81.1679 35.2558 0.0000 0.0000 0.0000
# 3 46.8808 35.2558 145.6601 0.0000 0.0000 0.0000
# 4 0.0000 0.0000 0.0000 -33.1782 0.0000 0.0000
# 5 0.0000 0.0000 0.0000 0.0000 55.9884 0.0000
# 6 0.0000 0.0000 0.0000 0.0000 0.0000 -10.4053
#
#
#
# Elastic Compliance Matrix: (Units=1/GPa)
#
#
# Indices 1 2 3 4 5 6 
#
# 1 0.016123 -0.001958 -0.004715 0.000000 0.000000 0.000000
# 2 -0.001958 0.014005 -0.002760 0.000000 0.000000 0.000000
# 3 -0.004715 -0.002760 0.009051 0.000000 0.000000 0.000000
# 4 0.000000 0.000000 0.000000 -0.030140 0.000000 0.000000
# 5 0.000000 0.000000 0.000000 0.000000 0.017861 0.000000
# 6 0.000000 0.000000 0.000000 0.000000 0.000000 -0.096105
#
#
# Mechanical properties :
#
#
# Convention : Reuss Voigt Hill
#
# Bulk Modulus (GPa) = 49.22856 56.62430 52.92643
# Shear Modulus (GPa) = -114.76257 15.99478 -49.38390
#
# Velocity S-wave (km/s) = -7.42283 2.77114 -4.86925
# Velocity P-wave (km/s) = 7.05900 6.11757 2.49046
#
# Compressibility (1/GPa) = 0.02031341
#
# Stress axis : x y z
#
# Youngs Moduli (GPa) = 62.02307 71.40150 110.48624
#
# Poissons Ratio (x) = 0.13979 0.52098
# Poissons Ratio (y) = 0.12143 0.30491
# Poissons Ratio (z) = 0.29246 0.19705
#
# Static dielectric constant tensor:
#      x y z
#    x 1.580440 0.000000 0.000000 
#    y 0.000000 3.239690 0.000000 
#    z 0.000000 0.000000 1.738760 
# 
# From -- ./inp_files/3620.got.cif
#   From: 2010.05.17/outbox.cif.g08.bks.cpg/sg37_2_cif.got.tgz:3620.got - 2010.06.03 17:53:42.
