data_PCOD9354647
_publ_section_title
;
Structure prediction by ZEFSAII (Michael W. Deem and Ramdas Pophale) SiO2 
 PCOD9354647
Probable space group: C C C 2
;
_chemical_formula_sum "Si O2"
_cell_formula_units_Z 40
_cell_length_a 12.534943
_cell_length_b 8.726397
_cell_length_c 15.455562
_cell_angle_alpha 90.000000
_cell_angle_beta 90.000000
_cell_angle_gamma 90.000000
_cell_volume 1690.604934
_symmetry_space_group_name_H-M "C C C 2"
_symmetry_group_IT_number 37
_symmetry_cell_setting 'orthorhombic'
loop_
_space_group_symop_operation_xyz
x,y,z
-x,-y,z
-x,y,1/2+z
x,-y,1/2+z
1/2+x,1/2+y,z
1/2-x,1/2-y,z
1/2-x,1/2+y,1/2+z
1/2+x,1/2-y,1/2+z
loop_
_atom_site_type_symbol
_atom_site_label
_atom_site_fract_x
_atom_site_fract_y
_atom_site_fract_z
Si Si1 0.954295 0.153911 0.090640
Si Si2 0.156742 0.453675 0.810034
Si Si3 0.097409 0.885460 0.286733
Si Si4 0.343881 0.136946 0.138064
Si Si5 0.617182 0.927158 0.492198
O O1 0.899539 0.114779 0.181764
O O2 0.055548 0.256992 0.117349
O O3 0.882787 0.256434 0.028682
O O4 0.000000 0.000000 0.049088
O O5 0.093308 0.292013 0.817659
O O6 0.284362 0.432643 0.814501
O O7 0.130635 0.524597 0.717049
O O8 0.133789 0.560647 0.891043
O O9 0.000000 0.000000 0.311184
O O10 0.250000 0.250000 0.164803
O O11 0.312187 0.037618 0.053427
O O12 0.500000 0.000000 0.507257
#
# Coordination Sequence:
#
# PCOD9354647 Si02
#       5
#     8   8   8   8   8
#     4  10  21  45  74 101 140 192 241 307 370 436
#     4  11  24  44  74 106 151 196 242 307 381 447
#     4  10  22  43  78 108 144 194 252 307 370 448
#     4  11  23  43  70 102 144 191 240 301 368 445
#     4  10  24  43  72 106 142 193 237 303 377 445
#
# _framework density 23.660169
#
# number of rings (size 3 to 8) (size 9 to 14) (size 15 to 20)
#    0.000    1.600    2.000    2.400    5.600    0.000 
#    0.000    9.000   13.200    0.000    0.000    0.000 
#    0.000    0.000    0.000    0.000    0.000    0.000 
#
# Total GULP energy -111927.205560 kJ/mol
# GULP energy per Si atom -5596.360278 kJ/mol
# Density = 2.360632 g / cm^3
# Si number density = 23.660169 Si / 1000 Ang^3
#
#
#
# Elastic Constant Matrix: (Units=GPa)
#
#
# Indices 1 2 3 4 5 6 
#
# 1 92.2739 53.4559 11.5593 0.0000 0.0000 0.0000
# 2 53.4559 111.1064 21.1911 0.0000 0.0000 0.0000
# 3 11.5593 21.1911 62.3940 0.0000 0.0000 0.0000
# 4 0.0000 0.0000 0.0000 11.9297 0.0000 0.0000
# 5 0.0000 0.0000 0.0000 0.0000 3.3913 0.0000
# 6 0.0000 0.0000 0.0000 0.0000 0.0000 30.5832
#
#
#
# Elastic Compliance Matrix: (Units=1/GPa)
#
#
# Indices 1 2 3 4 5 6 
#
# 1 0.015032 -0.007165 -0.000351 0.000000 0.000000 0.000000
# 2 -0.007165 0.013039 -0.003101 0.000000 0.000000 0.000000
# 3 -0.000351 -0.003101 0.017145 0.000000 0.000000 0.000000
# 4 0.000000 0.000000 0.000000 0.083824 0.000000 0.000000
# 5 0.000000 0.000000 0.000000 0.000000 0.294874 0.000000
# 6 0.000000 0.000000 0.000000 0.000000 0.000000 0.032698
#
#
# Mechanical properties :
#
#
# Convention : Reuss Voigt Hill
#
# Bulk Modulus (GPa) = 41.69885 48.68744 45.19315
# Shear Modulus (GPa) = 10.29140 21.15204 15.72172
#
# Velocity S-wave (km/s) = 2.08785 2.99322 2.58055
# Velocity P-wave (km/s) = 4.84505 5.70686 5.29352
#
# Compressibility (1/GPa) = 0.02398148
#
# Stress axis : x y z
#
# Youngs Moduli (GPa) = 66.52313 76.69119 58.32435
#
# Poissons Ratio (x) = 0.54952 0.02049
# Poissons Ratio (y) = 0.47667 0.18087
# Poissons Ratio (z) = 0.02337 0.23783
#
# Static dielectric constant tensor:
#      x y z
#    x 2.099880 0.000000 0.000000 
#    y 0.000000 1.956360 0.000000 
#    z 0.000000 0.000000 1.855540 
# 
# From -- ./inp_files/11991.got.cif
#   From: 2010.05.17/outbox.cif.g08.bks.cpg/sg37_6_cif.got.tgz:11991.got - 2010.06.03 17:53:42.
