data_PCOD9354358
_publ_section_title
;
Structure prediction by ZEFSAII (Michael W. Deem and Ramdas Pophale) SiO2 
 PCOD9354358
Probable space group: C C C 2
;
_chemical_formula_sum "Si O2"
_cell_formula_units_Z 60
_cell_length_a 17.532740
_cell_length_b 19.071509
_cell_length_c 9.639419
_cell_angle_alpha 90.000000
_cell_angle_beta 90.000000
_cell_angle_gamma 90.000000
_cell_volume 3223.188524
_symmetry_space_group_name_H-M "C C C 2"
_symmetry_group_IT_number 37
_symmetry_cell_setting 'orthorhombic'
loop_
_space_group_symop_operation_xyz
x,y,z
-x,-y,z
-x,y,1/2+z
x,-y,1/2+z
1/2+x,1/2+y,z
1/2-x,1/2-y,z
1/2-x,1/2+y,1/2+z
1/2+x,1/2-y,1/2+z
loop_
_atom_site_type_symbol
_atom_site_label
_atom_site_fract_x
_atom_site_fract_y
_atom_site_fract_z
Si Si1 0.563790 0.860448 0.579310
Si Si2 0.166249 0.285887 0.028010
Si Si3 0.056238 0.761362 0.284391
Si Si4 0.334434 0.051801 0.935958
Si Si5 0.281354 0.063659 0.645399
Si Si6 0.896581 0.254425 0.832846
Si Si7 0.186221 0.191993 0.580577
Si Si8 0.500000 0.000000 0.965952
O O1 0.534687 0.810145 0.700327
O O2 0.645677 0.885632 0.629979
O O3 0.576706 0.817885 0.436131
O O4 0.515136 0.929802 0.553970
O O5 0.250000 0.250000 0.009643
O O6 0.164399 0.367709 0.984588
O O7 0.139228 0.277153 0.186977
O O8 0.104037 0.251632 0.923999
O O9 0.112796 0.798712 0.177931
O O10 0.972994 0.791768 0.312733
O O11 0.301431 0.003888 0.057051
O O12 0.278588 0.045505 0.805876
O O13 0.418718 0.020032 0.894782
O O14 0.214514 0.113031 0.593104
O O15 0.835833 0.212550 0.924841
O O16 0.250000 0.250000 0.626410
#
# Coordination Sequence:
#
# PCOD9354358 Si02
#       8
#     8   8   8   8   8   8   8   4
#     4  10  21  36  56  77 126 168 204 227 297 365
#     4  12  24  38  60  91 124 160 214 263 299 358
#     4  11  20  38  60  86 120 158 209 251 309 363
#     4  11  24  38  57  90 125 164 209 242 308 366
#     4  11  23  39  57  85 116 168 203 248 296 371
#     4  11  23  35  60  90 119 159 205 260 304 362
#     4  11  20  40  63  81 120 167 205 248 317 365
#     4  10  22  36  56  86 132 170 198 240 292 384
#
# _framework density 18.615107999999999
#
# number of rings (size 3 to 8) (size 9 to 14) (size 15 to 20)
#    0.000    1.067    4.000    4.800    3.733    2.133 
#    0.000    0.000    0.000    0.000    0.000   15.867 
#    0.000    0.000    0.000    0.000    0.000    0.000 
#
# Total GULP energy -167424.955858 kJ/mol
# GULP energy per Si atom -5580.831862 kJ/mol
# Density = 1.857274 g / cm^3
# Si number density = 18.615108 Si / 1000 Ang^3
#
#
#
# Elastic Constant Matrix: (Units=GPa)
#
#
# Indices 1 2 3 4 5 6 
#
# 1 72.4729 26.3742 12.2087 0.0000 0.0000 0.0000
# 2 26.3742 55.8070 20.5345 0.0000 0.0000 0.0000
# 3 12.2087 20.5345 123.5384 0.0000 0.0000 0.0000
# 4 0.0000 0.0000 0.0000 17.4916 0.0000 0.0000
# 5 0.0000 0.0000 0.0000 0.0000 21.2650 0.0000
# 6 0.0000 0.0000 0.0000 0.0000 0.0000 26.1322
#
#
#
# Elastic Compliance Matrix: (Units=1/GPa)
#
#
# Indices 1 2 3 4 5 6 
#
# 1 0.016679 -0.007750 -0.000360 0.000000 0.000000 0.000000
# 2 -0.007750 0.022687 -0.003005 0.000000 0.000000 0.000000
# 3 -0.000360 -0.003005 0.008630 0.000000 0.000000 0.000000
# 4 0.000000 0.000000 0.000000 0.057170 0.000000 0.000000
# 5 0.000000 0.000000 0.000000 0.000000 0.047026 0.000000
# 6 0.000000 0.000000 0.000000 0.000000 0.000000 0.038267
#
#
# Mechanical properties :
#
#
# Convention : Reuss Voigt Hill
#
# Bulk Modulus (GPa) = 38.81136 41.11702 39.96419
# Shear Modulus (GPa) = 22.59597 25.82451 24.21024
#
# Velocity S-wave (km/s) = 3.48782 3.72867 3.61025
# Velocity P-wave (km/s) = 6.09216 6.37756 6.23649
#
# Compressibility (1/GPa) = 0.02576565
#
# Stress axis : x y z
#
# Youngs Moduli (GPa) = 59.95448 44.07747 115.87819
#
# Poissons Ratio (x) = 0.34160 0.04173
# Poissons Ratio (y) = 0.46465 0.34823
# Poissons Ratio (z) = 0.02159 0.13246
#
# Static dielectric constant tensor:
#      x y z
#    x 1.715770 0.000000 0.000000 
#    y 0.000000 1.645950 0.000000 
#    z 0.000000 0.000000 1.689610 
# 
# From -- ./inp_files/4077.got.cif
#   From: 2010.05.17/outbox.cif.g08.bks.cpg/sg37_3_cif.got.tgz:4077.got - 2010.06.03 17:53:42.
