data_PCOD9354477
_publ_section_title
;
Structure prediction by ZEFSAII (Michael W. Deem and Ramdas Pophale) SiO2 
 PCOD9354477
Probable space group: C C C 2
;
_chemical_formula_sum "Si O2"
_cell_formula_units_Z 64
_cell_length_a 24.028499
_cell_length_b 9.356537
_cell_length_c 13.997493
_cell_angle_alpha 90.000000
_cell_angle_beta 90.000000
_cell_angle_gamma 90.000000
_cell_volume 3146.965927
_symmetry_space_group_name_H-M "C C C 2"
_symmetry_group_IT_number 37
_symmetry_cell_setting 'orthorhombic'
loop_
_space_group_symop_operation_xyz
x,y,z
-x,-y,z
-x,y,1/2+z
x,-y,1/2+z
1/2+x,1/2+y,z
1/2-x,1/2-y,z
1/2-x,1/2+y,1/2+z
1/2+x,1/2-y,1/2+z
loop_
_atom_site_type_symbol
_atom_site_label
_atom_site_fract_x
_atom_site_fract_y
_atom_site_fract_z
Si Si1 0.584675 0.309461 0.008150
Si Si2 0.598879 0.637597 0.009048
Si Si3 0.806651 0.662417 0.056735
Si Si4 0.963115 0.794803 0.723085
Si Si5 0.815499 0.288883 0.767940
Si Si6 0.304363 0.148972 0.473287
Si Si7 0.588400 0.583410 0.234170
Si Si8 0.990055 0.661821 0.907615
O O1 0.590862 0.474512 0.975054
O O2 0.552462 0.284869 0.110414
O O3 0.644544 0.236392 0.018410
O O4 0.549910 0.233404 0.924890
O O5 0.652569 0.737740 0.994180
O O6 0.600895 0.602179 0.121720
O O7 0.549297 0.738428 0.972836
O O8 0.750000 0.750000 0.061785
O O9 0.829999 0.646445 0.165050
O O10 0.796417 0.504011 0.020104
O O11 0.964138 0.667067 0.800344
O O12 0.026342 0.850332 0.736690
O O13 0.920875 0.917751 0.759407
O O14 0.750000 0.250000 0.763612
O O15 0.820144 0.381004 0.862889
O O16 0.858450 0.157613 0.782203
O O17 0.250000 0.250000 0.477346
O O18 0.000000 0.500000 0.939104
#
# Coordination Sequence:
#
# PCOD9354477 Si02
#       8
#     8   8   8   8   8   8   8   8
#     4  11  23  43  66  93 129 169 223 274 321 388
#     4  10  21  39  64  91 124 168 217 265 320 381
#     4  10  21  43  65  91 131 169 210 271 330 384
#     4  10  22  38  61  93 127 165 218 265 331 386
#     4   9  20  38  66  96 126 168 223 267 327 389
#     4  11  23  41  67  99 126 170 219 267 328 392
#     4   9  18  38  63  91 121 167 213 271 319 381
#     4  12  25  39  59  96 134 171 211 264 335 398
#
# _framework density 20.337049
#
# number of rings (size 3 to 8) (size 9 to 14) (size 15 to 20)
#    0.000    1.750    1.250    2.625    5.250    1.500 
#    9.000    0.625    0.000    0.000    0.000    0.000 
#    0.000    0.000    0.000    0.000    0.000    0.000 
#
# Total GULP energy -178180.228250 kJ/mol
# GULP energy per Si atom -5568.132133 kJ/mol
# Density = 2.029076 g / cm^3
# Si number density = 20.337049 Si / 1000 Ang^3
#
#
#
# Elastic Constant Matrix: (Units=GPa)
#
#
# Indices 1 2 3 4 5 6 
#
# 1 113.1331 47.7776 17.1898 0.0000 0.0000 0.0000
# 2 47.7776 156.6216 39.7249 0.0000 0.0000 0.0000
# 3 17.1898 39.7249 76.2631 0.0000 0.0000 0.0000
# 4 0.0000 0.0000 0.0000 -6.4392 0.0000 0.0000
# 5 0.0000 0.0000 0.0000 0.0000 21.0994 0.0000
# 6 0.0000 0.0000 0.0000 0.0000 0.0000 34.7692
#
#
#
# Elastic Compliance Matrix: (Units=1/GPa)
#
#
# Indices 1 2 3 4 5 6 
#
# 1 0.010186 -0.002909 -0.000781 0.000000 0.000000 0.000000
# 2 -0.002909 0.008188 -0.003609 0.000000 0.000000 0.000000
# 3 -0.000781 -0.003609 0.015168 0.000000 0.000000 0.000000
# 4 0.000000 0.000000 0.000000 -0.155298 0.000000 0.000000
# 5 0.000000 0.000000 0.000000 0.000000 0.047395 0.000000
# 6 0.000000 0.000000 0.000000 0.000000 0.000000 0.028761
#
#
# Mechanical properties :
#
#
# Convention : Reuss Voigt Hill
#
# Bulk Modulus (GPa) = 52.78610 61.71137 57.24873
# Shear Modulus (GPa) = -202.53766 25.97426 -88.28170
#
# Velocity S-wave (km/s) = -9.99033 3.57766 -6.59572
# Velocity P-wave (km/s) = 10.34715 6.89031 5.45835
#
# Compressibility (1/GPa) = 0.01894438
#
# Stress axis : x y z
#
# Youngs Moduli (GPa) = 98.16991 122.13378 65.92648
#
# Poissons Ratio (x) = 0.35534 0.05146
# Poissons Ratio (y) = 0.28562 0.23794
# Poissons Ratio (z) = 0.07663 0.44080
#
# Static dielectric constant tensor:
#      x y z
#    x 1.823430 0.000000 0.000000 
#    y 0.000000 1.739860 0.000000 
#    z 0.000000 0.000000 1.802360 
# 
# From -- ./inp_files/13173.got.cif
#   From: 2010.05.17/outbox.cif.g08.bks.cpg/sg37_7_cif.got.tgz:13173.got - 2010.06.03 17:53:42.
