data_PCOD9354275
_publ_section_title
;
Structure prediction by ZEFSAII (Michael W. Deem and Ramdas Pophale) SiO2 
 PCOD9354275
Probable space group: C C C 2
;
_chemical_formula_sum "Si O2"
_cell_formula_units_Z 40
_cell_length_a 10.860970
_cell_length_b 7.713524
_cell_length_c 21.819725
_cell_angle_alpha 90.000000
_cell_angle_beta 90.000000
_cell_angle_gamma 90.000000
_cell_volume 1827.976979
_symmetry_space_group_name_H-M "C C C 2"
_symmetry_group_IT_number 37
_symmetry_cell_setting 'orthorhombic'
loop_
_space_group_symop_operation_xyz
x,y,z
-x,-y,z
-x,y,1/2+z
x,-y,1/2+z
1/2+x,1/2+y,z
1/2-x,1/2-y,z
1/2-x,1/2+y,1/2+z
1/2+x,1/2-y,1/2+z
loop_
_atom_site_type_symbol
_atom_site_label
_atom_site_fract_x
_atom_site_fract_y
_atom_site_fract_z
Si Si1 0.761349 0.946656 0.376560
Si Si2 0.500000 0.000000 0.413571
Si Si3 0.089610 0.836975 0.988616
Si Si4 0.500000 0.500000 0.304475
Si Si5 0.110994 0.186006 0.192274
Si Si6 0.879545 0.809238 0.630882
O O1 0.750000 0.750000 0.351189
O O2 0.799709 0.914724 0.447451
O O3 0.625876 0.028176 0.375155
O O4 0.878985 0.037513 0.345237
O O5 0.470949 0.173008 0.453297
O O6 0.120656 0.789923 0.057958
O O7 0.000000 0.000000 0.992738
O O8 0.549098 0.646023 0.257914
O O9 0.250000 0.250000 0.197439
O O10 0.001810 0.284163 0.156493
O O11 0.119789 0.009187 0.152476
O O12 0.750000 0.750000 0.657537
#
# Coordination Sequence:
#
# PCOD9354275 Si02
#       6
#     8   4   8   4   8   8
#     4  10  21  40  61  92 129 165 211 265 317 387
#     4  10  24  38  64 100 130 172 214 254 330 388
#     4  11  21  42  64  97 135 170 210 262 318 391
#     4  10  20  42  66  84 130 166 210 278 316 374
#     4  10  23  41  63  93 121 168 217 264 329 374
#     4  10  21  41  63  91 128 164 208 263 318 381
#
# _framework density 21.882114000000001
#
# number of rings (size 3 to 8) (size 9 to 14) (size 15 to 20)
#    0.000    2.000    3.000    2.400    0.000    4.800 
#    0.000   20.000    0.000    0.000    0.000    0.000 
#    0.000    0.000    0.000    0.000    0.000    0.000 
#
# Total GULP energy -111406.039947 kJ/mol
# GULP energy per Si atom -5570.301997 kJ/mol
# Density = 2.183231 g / cm^3
# Si number density = 21.882114 Si / 1000 Ang^3
#
#
#
# Elastic Constant Matrix: (Units=GPa)
#
#
# Indices 1 2 3 4 5 6 
#
# 1 269.0084 43.4622 70.9701 0.0000 0.0000 0.0000
# 2 43.4622 62.5874 -0.3509 0.0000 0.0000 0.0000
# 3 70.9701 -0.3509 112.9173 0.0000 0.0000 0.0000
# 4 0.0000 0.0000 0.0000 2.4894 0.0000 0.0000
# 5 0.0000 0.0000 0.0000 0.0000 31.7546 0.0000
# 6 0.0000 0.0000 0.0000 0.0000 0.0000 39.0939
#
#
#
# Elastic Compliance Matrix: (Units=1/GPa)
#
#
# Indices 1 2 3 4 5 6 
#
# 1 0.005157 -0.003599 -0.003252 0.000000 0.000000 0.000000
# 2 -0.003599 0.018490 0.002320 0.000000 0.000000 0.000000
# 3 -0.003252 0.002320 0.010907 0.000000 0.000000 0.000000
# 4 0.000000 0.000000 0.000000 0.401709 0.000000 0.000000
# 5 0.000000 0.000000 0.000000 0.000000 0.031491 0.000000
# 6 0.000000 0.000000 0.000000 0.000000 0.000000 0.025579
#
#
# Mechanical properties :
#
#
# Convention : Reuss Voigt Hill
#
# Bulk Modulus (GPa) = 39.23048 74.74177 56.98613
# Shear Modulus (GPa) = 9.78674 36.69635 23.24155
#
# Velocity S-wave (km/s) = 2.11712 4.09956 3.26256
# Velocity P-wave (km/s) = 4.89319 7.52591 6.34754
#
# Compressibility (1/GPa) = 0.02549039
#
# Stress axis : x y z
#
# Youngs Moduli (GPa) = 193.91398 54.08298 91.68076
#
# Poissons Ratio (x) = 0.19466 0.29818
# Poissons Ratio (y) = 0.69796 -0.21267
# Poissons Ratio (z) = 0.63068 -0.12546
#
# Static dielectric constant tensor:
#      x y z
#    x 2.026540 0.000000 0.000000 
#    y 0.000000 1.825900 0.000000 
#    z 0.000000 0.000000 1.823650 
# 
# From -- ./inp_files/16789.got.cif
#   From: 2010.05.17/outbox.cif.g08.bks.cpg/sg37_9_cif.got.tgz:16789.got - 2010.06.03 17:53:42.
