data_PCOD9354861
_publ_section_title
;
Structure prediction by ZEFSAII (Michael W. Deem and Ramdas Pophale) SiO2 
 PCOD9354861
Probable space group: C C C 2
;
_chemical_formula_sum "Si O2"
_cell_formula_units_Z 48
_cell_length_a 21.236357
_cell_length_b 11.456931
_cell_length_c 8.712698
_cell_angle_alpha 90.000000
_cell_angle_beta 90.000000
_cell_angle_gamma 90.000000
_cell_volume 2119.829716
_symmetry_space_group_name_H-M "C C C 2"
_symmetry_group_IT_number 37
_symmetry_cell_setting 'orthorhombic'
loop_
_space_group_symop_operation_xyz
x,y,z
-x,-y,z
-x,y,1/2+z
x,-y,1/2+z
1/2+x,1/2+y,z
1/2-x,1/2-y,z
1/2-x,1/2+y,1/2+z
1/2+x,1/2-y,1/2+z
loop_
_atom_site_type_symbol
_atom_site_label
_atom_site_fract_x
_atom_site_fract_y
_atom_site_fract_z
Si Si1 0.250000 0.250000 0.903100
Si Si2 0.077963 0.123340 0.988151
Si Si3 0.190134 0.370422 0.666351
Si Si4 0.428044 0.883000 0.351216
Si Si5 0.000000 0.500000 0.109151
Si Si6 0.250000 0.750000 0.893246
Si Si7 0.500000 0.500000 0.733627
Si Si8 0.212542 0.073258 0.138823
O O1 0.194503 0.259470 0.781535
O O2 0.255028 0.139732 0.011850
O O3 0.077779 0.256393 0.929547
O O4 0.055354 0.046507 0.843462
O O5 0.144194 0.078311 0.059509
O O6 0.026962 0.099954 0.122067
O O7 0.130150 0.427630 0.746376
O O8 0.198103 0.315384 0.498743
O O9 0.250675 0.455250 0.676220
O O10 0.483757 0.894073 0.224660
O O11 0.444159 0.967886 0.492072
O O12 0.215320 0.844883 0.787898
#
# Coordination Sequence:
#
# PCOD9354861 Si02
#       8
#     4   8   8   8   4   4   4   8
#     4  10  22  42  60 102 136 174 230 278 366 412
#     4  11  24  48  71 103 145 186 236 297 349 429
#     4  11  24  42  70 102 137 180 231 290 360 426
#     4  11  24  48  71 103 145 186 236 297 349 429
#     4  10  26  44  74 108 136 194 240 286 354 416
#     4  10  26  42  64 106 132 186 226 282 378 424
#     4  10  26  44  74 108 136 194 240 286 354 416
#     4  11  24  42  70 102 137 180 231 290 360 426
#
# _framework density 22.643328
#
# number of rings (size 3 to 8) (size 9 to 14) (size 15 to 20)
#    0.000    1.333    1.667    2.000    9.333    0.000 
#    9.000    0.000    0.000    0.000    0.000    0.000 
#    0.000    0.000    0.000    0.000    0.000    0.000 
#
# Total GULP energy -133683.612097 kJ/mol
# GULP energy per Si atom -5570.150504 kJ/mol
# Density = 2.259179 g / cm^3
# Si number density = 22.643328 Si / 1000 Ang^3
#
#
#
# Elastic Constant Matrix: (Units=GPa)
#
#
# Indices 1 2 3 4 5 6 
#
# 1 96.5666 45.3098 70.5870 0.0000 0.0000 0.0000
# 2 45.3098 114.4151 67.2990 0.0000 0.0000 0.0000
# 3 70.5870 67.2990 183.9123 0.0000 0.0000 0.0000
# 4 0.0000 0.0000 0.0000 42.3461 0.0000 0.0000
# 5 0.0000 0.0000 0.0000 0.0000 9.5122 0.0000
# 6 0.0000 0.0000 0.0000 0.0000 0.0000 18.4591
#
#
#
# Elastic Compliance Matrix: (Units=1/GPa)
#
#
# Indices 1 2 3 4 5 6 
#
# 1 0.015326 -0.003325 -0.004666 0.000000 0.000000 0.000000
# 2 -0.003325 0.011859 -0.003063 0.000000 0.000000 0.000000
# 3 -0.004666 -0.003063 0.008349 0.000000 0.000000 0.000000
# 4 0.000000 0.000000 0.000000 0.023615 0.000000 0.000000
# 5 0.000000 0.000000 0.000000 0.000000 0.105128 0.000000
# 6 0.000000 0.000000 0.000000 0.000000 0.000000 0.054174
#
#
# Mechanical properties :
#
#
# Convention : Reuss Voigt Hill
#
# Bulk Modulus (GPa) = 74.48220 84.58728 79.53474
# Shear Modulus (GPa) = 20.40538 28.17672 24.29105
#
# Velocity S-wave (km/s) = 3.00520 3.53139 3.27887
# Velocity P-wave (km/s) = 6.70870 7.35290 7.03817
#
# Compressibility (1/GPa) = 0.01342603
#
# Stress axis : x y z
#
# Youngs Moduli (GPa) = 65.24856 84.32645 119.77523
#
# Poissons Ratio (x) = 0.28039 0.55881
# Poissons Ratio (y) = 0.21695 0.36690
# Poissons Ratio (z) = 0.30442 0.25831
#
# Static dielectric constant tensor:
#      x y z
#    x 2.035740 0.000000 0.000000 
#    y 0.000000 1.860020 0.000000 
#    z 0.000000 0.000000 1.824470 
# 
# From -- ./inp_files/2957.got.cif
#   From: 2010.05.17/outbox.cif.g08.bks.cpg/sg37_2_cif.got.tgz:2957.got - 2010.06.03 17:53:42.
