data_PCOD9354912
_publ_section_title
;
Structure prediction by ZEFSAII (Michael W. Deem and Ramdas Pophale) SiO2 
 PCOD9354912
Probable space group: C C C 2
;
_chemical_formula_sum "Si O2"
_cell_formula_units_Z 64
_cell_length_a 8.967328
_cell_length_b 10.910531
_cell_length_c 30.200054
_cell_angle_alpha 90.000000
_cell_angle_beta 90.000000
_cell_angle_gamma 90.000000
_cell_volume 2954.722249
_symmetry_space_group_name_H-M "C C C 2"
_symmetry_group_IT_number 37
_symmetry_cell_setting 'orthorhombic'
loop_
_space_group_symop_operation_xyz
x,y,z
-x,-y,z
-x,y,1/2+z
x,-y,1/2+z
1/2+x,1/2+y,z
1/2-x,1/2-y,z
1/2-x,1/2+y,1/2+z
1/2+x,1/2-y,1/2+z
loop_
_atom_site_type_symbol
_atom_site_label
_atom_site_fract_x
_atom_site_fract_y
_atom_site_fract_z
Si Si1 0.382374 0.889942 0.063330
Si Si2 0.415517 0.869360 0.792941
Si Si3 0.180354 0.620578 0.162708
Si Si4 0.346977 0.556482 0.850575
Si Si5 0.580971 0.717638 0.435810
Si Si6 0.351617 0.141448 0.193382
Si Si7 0.070842 0.126052 0.528932
Si Si8 0.119321 0.345964 0.875271
O O1 0.296385 0.897372 0.110417
O O2 0.248719 0.898657 0.028141
O O3 0.450432 0.753322 0.056117
O O4 0.500000 0.000000 0.060015
O O5 0.248169 0.878354 0.812359
O O6 0.401304 0.822977 0.743175
O O7 0.521191 0.814140 0.831418
O O8 0.500000 0.000000 0.786708
O O9 0.250000 0.750000 0.177756
O O10 0.218782 0.495739 0.189557
O O11 0.002886 0.634601 0.166184
O O12 0.500000 0.500000 0.831793
O O13 0.404998 0.630460 0.893017
O O14 0.212882 0.469004 0.868129
O O15 0.750000 0.750000 0.446217
O O16 0.514088 0.654710 0.479148
O O17 0.487556 0.832885 0.417443
O O18 0.250000 0.250000 0.175965
O O19 0.000000 0.000000 0.546013
O O20 0.250000 0.250000 0.881140
#
# Coordination Sequence:
#
# PCOD9354912 Si02
#       8
#     8   8   8   8   8   8   8   8
#     4  11  23  48  74  99 135 183 222 281 355 420
#     4  10  22  43  62  93 138 179 233 290 343 402
#     4  11  23  49  71  96 142 176 223 287 353 424
#     4  11  23  40  63  94 132 184 232 284 331 412
#     4  12  23  44  65  93 141 181 228 288 346 399
#     4  11  25  43  70 106 139 179 227 294 351 414
#     4  11  26  46  70 108 140 177 234 288 343 426
#     4  11  24  39  66  96 127 188 236 276 350 406
#
# _framework density 21.660240999999999
#
# number of rings (size 3 to 8) (size 9 to 14) (size 15 to 20)
#    0.000    1.000    7.500    0.375    1.750    3.500 
#    2.250    0.000    0.000    0.000    0.000    0.000 
#    0.000    0.000    0.000    0.000    0.000    0.000 
#
# Total GULP energy -178449.027808 kJ/mol
# GULP energy per Si atom -5576.532119 kJ/mol
# Density = 2.161094 g / cm^3
# Si number density = 21.660241 Si / 1000 Ang^3
#
#
#
# Elastic Constant Matrix: (Units=GPa)
#
#
# Indices 1 2 3 4 5 6 
#
# 1 96.4270 43.0326 7.4644 0.0000 0.0000 0.0000
# 2 43.0326 139.6632 3.3789 0.0000 0.0000 0.0000
# 3 7.4644 3.3789 64.4952 0.0000 0.0000 0.0000
# 4 0.0000 0.0000 0.0000 29.2264 0.0000 0.0000
# 5 0.0000 0.0000 0.0000 0.0000 11.5296 0.0000
# 6 0.0000 0.0000 0.0000 0.0000 0.0000 41.8909
#
#
#
# Elastic Compliance Matrix: (Units=1/GPa)
#
#
# Indices 1 2 3 4 5 6 
#
# 1 0.012117 -0.003704 -0.001208 0.000000 0.000000 0.000000
# 2 -0.003704 0.008302 -0.000006 0.000000 0.000000 0.000000
# 3 -0.001208 -0.000006 0.015645 0.000000 0.000000 0.000000
# 4 0.000000 0.000000 0.000000 0.034216 0.000000 0.000000
# 5 0.000000 0.000000 0.000000 0.000000 0.086734 0.000000
# 6 0.000000 0.000000 0.000000 0.000000 0.000000 0.023872
#
#
# Mechanical properties :
#
#
# Convention : Reuss Voigt Hill
#
# Bulk Modulus (GPa) = 38.12957 45.37080 41.75019
# Shear Modulus (GPa) = 25.06712 32.97666 29.02189
#
# Velocity S-wave (km/s) = 3.40558 3.90609 3.66439
# Velocity P-wave (km/s) = 5.75375 6.42927 6.10087
#
# Compressibility (1/GPa) = 0.02622636
#
# Stress axis : x y z
#
# Youngs Moduli (GPa) = 82.52737 120.45895 63.91736
#
# Poissons Ratio (x) = 0.44621 0.07723
# Poissons Ratio (y) = 0.30570 0.00040
# Poissons Ratio (z) = 0.09972 0.00075
#
# Static dielectric constant tensor:
#      x y z
#    x 1.820390 0.000000 0.000000 
#    y 0.000000 2.107150 0.000000 
#    z 0.000000 0.000000 1.774150 
# 
# From -- ./inp_files/20416.got.cif
#   From: 2010.05.17/outbox.cif.g08.bks.cpg/sg37_11_cif.got.tgz:20416.got - 2010.06.03 17:53:42.
