data_PCOD9354822
_publ_section_title
;
Structure prediction by ZEFSAII (Michael W. Deem and Ramdas Pophale) SiO2 
 PCOD9354822
Probable space group: C C C 2
;
_chemical_formula_sum "Si O2"
_cell_formula_units_Z 60
_cell_length_a 26.236175
_cell_length_b 17.792563
_cell_length_c 5.577875
_cell_angle_alpha 90.000000
_cell_angle_beta 90.000000
_cell_angle_gamma 90.000000
_cell_volume 2603.801116
_symmetry_space_group_name_H-M "C C C 2"
_symmetry_group_IT_number 37
_symmetry_cell_setting 'orthorhombic'
loop_
_space_group_symop_operation_xyz
x,y,z
-x,-y,z
-x,y,1/2+z
x,-y,1/2+z
1/2+x,1/2+y,z
1/2-x,1/2-y,z
1/2-x,1/2+y,1/2+z
1/2+x,1/2-y,1/2+z
loop_
_atom_site_type_symbol
_atom_site_label
_atom_site_fract_x
_atom_site_fract_y
_atom_site_fract_z
Si Si1 0.512626 0.201776 0.827800
Si Si2 0.227579 0.902453 0.979587
Si Si3 0.383372 0.544103 0.117439
Si Si4 0.836327 0.537786 0.477141
Si Si5 0.250000 0.250000 0.752817
Si Si6 0.327224 0.311536 0.122756
Si Si7 0.423506 0.687355 0.331600
Si Si8 0.877381 0.294859 0.967703
O O1 0.493869 0.162656 0.585995
O O2 0.480067 0.279379 0.870749
O O3 0.572680 0.211966 0.800422
O O4 0.176203 0.929622 0.113052
O O5 0.249792 0.827286 0.105451
O O6 0.274600 0.958639 0.973707
O O7 0.208059 0.879201 0.714089
O O8 0.392131 0.495376 0.359568
O O9 0.418906 0.618090 0.147111
O O10 0.852517 0.498967 0.725314
O O11 0.858036 0.621678 0.480335
O O12 0.297942 0.261900 0.928888
O O13 0.336035 0.260101 0.354581
O O14 0.383002 0.337160 0.034850
O O15 0.396518 0.759920 0.214373
#
# Coordination Sequence:
#
# PCOD9354822 Si02
#       8
#     8   8   8   8   4   8   8   8
#     4  10  22  40  75 108 134 170 239 303 363 423
#     4  12  25  43  61 104 141 203 246 294 356 437
#     4  12  26  43  68 102 150 194 234 288 359 440
#     4  12  30  47  69 102 152 200 239 297 372 444
#     4  12  24  36  68 104 140 184 254 318 346 414
#     4  12  21  40  71 104 139 178 250 312 358 407
#     4  11  23  43  74 108 138 187 246 310 362 432
#     4  11  24  46  74 107 138 187 252 311 366 431
#
# _framework density 23.043237000000001
#
# number of rings (size 3 to 8) (size 9 to 14) (size 15 to 20)
#    0.000    0.533    4.000    4.400    5.600    0.000 
#    0.000    0.000    0.000   19.200    0.000    0.000 
#    0.000    0.000    0.000    0.000    0.000    0.000 
#
# Total GULP energy -167596.232819 kJ/mol
# GULP energy per Si atom -5586.541094 kJ/mol
# Density = 2.299079 g / cm^3
# Si number density = 23.043237 Si / 1000 Ang^3
#
#
#
# Elastic Constant Matrix: (Units=GPa)
#
#
# Indices 1 2 3 4 5 6 
#
# 1 55.2902 23.9098 2.7316 0.0000 0.0000 0.0000
# 2 23.9098 87.1688 34.1213 0.0000 0.0000 0.0000
# 3 2.7316 34.1213 128.8018 0.0000 0.0000 0.0000
# 4 0.0000 0.0000 0.0000 33.2492 0.0000 0.0000
# 5 0.0000 0.0000 0.0000 0.0000 39.6999 0.0000
# 6 0.0000 0.0000 0.0000 0.0000 0.0000 21.6468
#
#
#
# Elastic Compliance Matrix: (Units=1/GPa)
#
#
# Indices 1 2 3 4 5 6 
#
# 1 0.020682 -0.006138 0.001187 0.000000 0.000000 0.000000
# 2 -0.006138 0.014621 -0.003743 0.000000 0.000000 0.000000
# 3 0.001187 -0.003743 0.008730 0.000000 0.000000 0.000000
# 4 0.000000 0.000000 0.000000 0.030076 0.000000 0.000000
# 5 0.000000 0.000000 0.000000 0.000000 0.025189 0.000000
# 6 0.000000 0.000000 0.000000 0.000000 0.000000 0.046196
#
#
# Mechanical properties :
#
#
# Convention : Reuss Voigt Hill
#
# Bulk Modulus (GPa) = 37.52896 43.64291 40.58593
# Shear Modulus (GPa) = 29.10991 32.95238 31.03115
#
# Velocity S-wave (km/s) = 3.55811 3.78567 3.67365
# Velocity P-wave (km/s) = 5.76211 6.17163 5.97038
#
# Compressibility (1/GPa) = 0.02664609
#
# Stress axis : x y z
#
# Youngs Moduli (GPa) = 48.35142 68.39619 114.54402
#
# Poissons Ratio (x) = 0.41979 -0.13600
# Poissons Ratio (y) = 0.29677 0.42874
# Poissons Ratio (z) = -0.05741 0.25601
#
# Static dielectric constant tensor:
#      x y z
#    x 1.914590 0.000000 0.000000 
#    y 0.000000 1.832630 0.000000 
#    z 0.000000 0.000000 1.964060 
# 
# From -- ./inp_files/1385.got.cif
#   From: 2010.05.17/outbox.cif.g08.bks.cpg/sg37_1_cif.got.tgz:1385.got - 2010.06.03 17:53:42.
