data_PCOD9354622
_publ_section_title
;
Structure prediction by ZEFSAII (Michael W. Deem and Ramdas Pophale) SiO2 
 PCOD9354622
Probable space group: C C C 2
;
_chemical_formula_sum "Si O2"
_cell_formula_units_Z 64
_cell_length_a 10.889883
_cell_length_b 27.183309
_cell_length_c 9.943062
_cell_angle_alpha 90.000000
_cell_angle_beta 90.000000
_cell_angle_gamma 90.000000
_cell_volume 2943.375585
_symmetry_space_group_name_H-M "C C C 2"
_symmetry_group_IT_number 37
_symmetry_cell_setting 'orthorhombic'
loop_
_space_group_symop_operation_xyz
x,y,z
-x,-y,z
-x,y,1/2+z
x,-y,1/2+z
1/2+x,1/2+y,z
1/2-x,1/2-y,z
1/2-x,1/2+y,1/2+z
1/2+x,1/2-y,1/2+z
loop_
_atom_site_type_symbol
_atom_site_label
_atom_site_fract_x
_atom_site_fract_y
_atom_site_fract_z
Si Si1 0.128584 0.778209 0.649870
Si Si2 0.938905 0.859478 0.928952
Si Si3 0.705128 0.670140 0.420800
Si Si4 0.263847 0.512767 0.769911
Si Si5 0.641070 0.283137 0.202395
Si Si6 0.383085 0.468113 0.008437
Si Si7 0.928289 0.552395 0.655074
Si Si8 0.912907 0.596414 0.362488
O O1 0.250000 0.750000 0.596216
O O2 0.098735 0.824051 0.552519
O O3 0.171023 0.795279 0.796883
O O4 0.990247 0.755970 0.670991
O O5 0.894339 0.829287 0.797925
O O6 0.885714 0.912878 0.955077
O O7 0.087018 0.866198 0.924831
O O8 0.697274 0.697295 0.562694
O O9 0.835504 0.645199 0.391986
O O10 0.279261 0.495147 0.922127
O O11 0.370194 0.529588 0.668869
O O12 0.206873 0.465558 0.693892
O O13 0.179766 0.560607 0.782815
O O14 0.750000 0.250000 0.263681
O O15 0.500000 0.500000 0.969071
O O16 0.944849 0.572686 0.505987
O O17 0.000000 0.500000 0.668590
O O18 0.971612 0.593207 0.763069
#
# Coordination Sequence:
#
# PCOD9354622 Si02
#       8
#     8   8   8   8   8   8   8   8
#     4  10  21  43  69  95 133 178 222 275 349 419
#     4  10  23  40  67  98 134 174 223 280 345 404
#     4  10  22  40  64  94 131 170 207 277 341 413
#     4  11  23  39  61  86 126 175 218 276 329 397
#     4  10  22  43  70  98 133 177 224 282 351 415
#     4  12  25  39  61  96 133 174 227 277 334 412
#     4  10  22  39  61  83 122 177 220 274 332 402
#     4  11  22  41  62  88 126 168 224 268 344 399
#
# _framework density 21.743742000000001
#
# number of rings (size 3 to 8) (size 9 to 14) (size 15 to 20)
#    0.000    1.500    1.250    3.750    3.500    4.000 
#    2.250    0.000    0.000    0.000    0.000    0.000 
#    0.000    0.000    0.000    0.000    0.000    0.000 
#
# Total GULP energy -178384.462685 kJ/mol
# GULP energy per Si atom -5574.514459 kJ/mol
# Density = 2.169425 g / cm^3
# Si number density = 21.743742 Si / 1000 Ang^3
#
#
#
# Elastic Constant Matrix: (Units=GPa)
#
#
# Indices 1 2 3 4 5 6 
#
# 1 65.9050 36.9515 7.4828 0.0000 0.0000 0.0000
# 2 36.9515 46.1418 12.4576 0.0000 0.0000 0.0000
# 3 7.4828 12.4576 130.1635 0.0000 0.0000 0.0000
# 4 0.0000 0.0000 0.0000 19.2926 0.0000 0.0000
# 5 0.0000 0.0000 0.0000 0.0000 22.6815 0.0000
# 6 0.0000 0.0000 0.0000 0.0000 0.0000 23.9431
#
#
#
# Elastic Compliance Matrix: (Units=1/GPa)
#
#
# Indices 1 2 3 4 5 6 
#
# 1 0.027575 -0.022229 0.000542 0.000000 0.000000 0.000000
# 2 -0.022229 0.040167 -0.002566 0.000000 0.000000 0.000000
# 3 0.000542 -0.002566 0.007897 0.000000 0.000000 0.000000
# 4 0.000000 0.000000 0.000000 0.051833 0.000000 0.000000
# 5 0.000000 0.000000 0.000000 0.000000 0.044089 0.000000
# 6 0.000000 0.000000 0.000000 0.000000 0.000000 0.041766
#
#
# Mechanical properties :
#
#
# Convention : Reuss Voigt Hill
#
# Bulk Modulus (GPa) = 36.85620 39.55490 38.20555
# Shear Modulus (GPa) = 18.45844 25.53800 21.99822
#
# Velocity S-wave (km/s) = 2.91676 3.43081 3.18418
# Velocity P-wave (km/s) = 5.32263 5.82451 5.57921
#
# Compressibility (1/GPa) = 0.02713248
#
# Stress axis : x y z
#
# Youngs Moduli (GPa) = 36.26420 24.89596 126.62888
#
# Poissons Ratio (x) = 0.55342 -0.06867
# Poissons Ratio (y) = 0.80613 0.32498
# Poissons Ratio (z) = -0.01967 0.06389
#
# Static dielectric constant tensor:
#      x y z
#    x 1.888060 0.000000 0.000000 
#    y 0.000000 1.781080 0.000000 
#    z 0.000000 0.000000 1.748360 
# 
# From -- ./inp_files/3127.got.cif
#   From: 2010.05.17/outbox.cif.g08.bks.cpg/sg37_2_cif.got.tgz:3127.got - 2010.06.03 17:53:42.
