data_PCOD9354783
_publ_section_title
;
Structure prediction by ZEFSAII (Michael W. Deem and Ramdas Pophale) SiO2 
 PCOD9354783
Probable space group: C C C 2
;
_chemical_formula_sum "Si O2"
_cell_formula_units_Z 64
_cell_length_a 27.649625
_cell_length_b 9.522696
_cell_length_c 10.112301
_cell_angle_alpha 90.000000
_cell_angle_beta 90.000000
_cell_angle_gamma 90.000000
_cell_volume 2662.558472
_symmetry_space_group_name_H-M "C C C 2"
_symmetry_group_IT_number 37
_symmetry_cell_setting 'orthorhombic'
loop_
_space_group_symop_operation_xyz
x,y,z
-x,-y,z
-x,y,1/2+z
x,-y,1/2+z
1/2+x,1/2+y,z
1/2-x,1/2-y,z
1/2-x,1/2+y,1/2+z
1/2+x,1/2-y,1/2+z
loop_
_atom_site_type_symbol
_atom_site_label
_atom_site_fract_x
_atom_site_fract_y
_atom_site_fract_z
Si Si1 0.012361 0.646413 0.828840
Si Si2 0.806199 0.789844 0.046807
Si Si3 0.358400 0.068986 0.884988
Si Si4 0.928741 0.806473 0.713634
Si Si5 0.923397 0.528297 0.626688
Si Si6 0.805413 0.296527 0.840024
Si Si7 0.548989 0.446642 0.880869
Si Si8 0.144982 0.080534 0.536428
O O1 0.039994 0.578050 0.699366
O O2 0.045329 0.782363 0.851927
O O3 0.000000 0.500000 0.905758
O O4 0.959172 0.722085 0.826459
O O5 0.750000 0.750000 0.028688
O O6 0.837427 0.716648 0.932589
O O7 0.821979 0.726849 0.188888
O O8 0.817353 0.954888 0.053869
O O9 0.396385 0.021003 0.996746
O O10 0.383657 0.060453 0.742418
O O11 0.315244 0.955842 0.881144
O O12 0.943435 0.688113 0.603857
O O13 0.874326 0.847289 0.670430
O O14 0.947902 0.961568 0.747237
O O15 0.750000 0.250000 0.845266
O O16 0.834238 0.197507 0.939415
O O17 0.500000 0.500000 0.950030
O O18 0.596367 0.477499 0.966393
#
# Coordination Sequence:
#
# PCOD9354783 Si02
#       8
#     8   8   8   8   8   8   8   8
#     4   9  21  42  62  96 140 191 241 303 351 434
#     4  11  26  46  71 106 145 189 244 312 385 454
#     4  12  23  44  70 102 136 188 243 302 372 451
#     4  10  22  41  60  95 137 182 242 293 362 427
#     4  11  23  42  67 100 138 185 245 300 366 430
#     4  11  24  45  70 100 142 188 241 309 381 451
#     4  10  22  40  63  96 138 188 239 294 358 434
#     4  12  23  42  70 101 141 189 243 302 371 444
#
# _framework density 24.037032
#
# number of rings (size 3 to 8) (size 9 to 14) (size 15 to 20)
#    0.000    1.250    2.500    3.000    1.750    1.500 
#    6.750    0.625    0.000    0.000    0.000    0.000 
#    0.000    0.000    0.000    0.000    0.000    0.000 
#
# Total GULP energy -178303.700922 kJ/mol
# GULP energy per Si atom -5571.990654 kJ/mol
# Density = 2.398232 g / cm^3
# Si number density = 24.037032 Si / 1000 Ang^3
#
#
#
# Elastic Constant Matrix: (Units=GPa)
#
#
# Indices 1 2 3 4 5 6 
#
# 1 93.4581 36.9765 33.3622 0.0000 0.0000 0.0000
# 2 36.9765 167.7210 49.0599 0.0000 0.0000 0.0000
# 3 33.3622 49.0599 106.1936 0.0000 0.0000 0.0000
# 4 0.0000 0.0000 0.0000 17.7646 0.0000 0.0000
# 5 0.0000 0.0000 0.0000 0.0000 24.7178 0.0000
# 6 0.0000 0.0000 0.0000 0.0000 0.0000 47.4622
#
#
#
# Elastic Compliance Matrix: (Units=1/GPa)
#
#
# Indices 1 2 3 4 5 6 
#
# 1 0.012536 -0.001864 -0.003077 0.000000 0.000000 0.000000
# 2 -0.001864 0.007171 -0.002727 0.000000 0.000000 0.000000
# 3 -0.003077 -0.002727 0.011644 0.000000 0.000000 0.000000
# 4 0.000000 0.000000 0.000000 0.056292 0.000000 0.000000
# 5 0.000000 0.000000 0.000000 0.000000 0.040457 0.000000
# 6 0.000000 0.000000 0.000000 0.000000 0.000000 0.021069
#
#
# Mechanical properties :
#
#
# Convention : Reuss Voigt Hill
#
# Bulk Modulus (GPa) = 62.44656 67.35222 64.89939
# Shear Modulus (GPa) = 29.43898 34.52051 31.97975
#
# Velocity S-wave (km/s) = 3.50342 3.79375 3.65147
# Velocity P-wave (km/s) = 6.51160 6.87540 6.69597
#
# Compressibility (1/GPa) = 0.01601369
#
# Stress axis : x y z
#
# Youngs Moduli (GPa) = 79.77134 139.45218 85.88418
#
# Poissons Ratio (x) = 0.25988 0.26430
# Poissons Ratio (y) = 0.14866 0.23424
# Poissons Ratio (z) = 0.24549 0.38034
#
# Static dielectric constant tensor:
#      x y z
#    x 1.965030 0.000000 0.000000 
#    y 0.000000 1.985450 0.000000 
#    z 0.000000 0.000000 2.057250 
# 
# From -- ./inp_files/9215.got.cif
#   From: 2010.05.17/outbox.cif.g08.bks.cpg/sg37_5_cif.got.tgz:9215.got - 2010.06.03 17:53:42.
