data_PCOD9354736
_publ_section_title
;
Structure prediction by ZEFSAII (Michael W. Deem and Ramdas Pophale) SiO2 
 PCOD9354736
Probable space group: C C C 2
;
_chemical_formula_sum "Si O2"
_cell_formula_units_Z 52
_cell_length_a 6.568451
_cell_length_b 20.181858
_cell_length_c 17.973394
_cell_angle_alpha 90.000000
_cell_angle_beta 90.000000
_cell_angle_gamma 90.000000
_cell_volume 2382.616831
_symmetry_space_group_name_H-M "C C C 2"
_symmetry_group_IT_number 37
_symmetry_cell_setting 'orthorhombic'
loop_
_space_group_symop_operation_xyz
x,y,z
-x,-y,z
-x,y,1/2+z
x,-y,1/2+z
1/2+x,1/2+y,z
1/2-x,1/2-y,z
1/2-x,1/2+y,1/2+z
1/2+x,1/2-y,1/2+z
loop_
_atom_site_type_symbol
_atom_site_label
_atom_site_fract_x
_atom_site_fract_y
_atom_site_fract_z
Si Si1 0.106222 0.334292 0.266080
Si Si2 0.516694 0.635343 0.154830
Si Si3 0.250000 0.250000 0.711004
Si Si4 0.699767 0.325659 0.499920
Si Si5 0.556764 0.922720 0.508994
Si Si6 0.361337 0.064593 0.681433
Si Si7 0.188719 0.176873 0.425317
O O1 0.288720 0.346893 0.206446
O O2 0.209373 0.329321 0.345441
O O3 0.953073 0.272645 0.254285
O O4 0.946074 0.392309 0.249431
O O5 0.340744 0.690895 0.162151
O O6 0.596487 0.638939 0.071043
O O7 0.385522 0.570387 0.178668
O O8 0.750000 0.250000 0.522552
O O9 0.887287 0.371726 0.480762
O O10 0.553495 0.321214 0.429196
O O11 0.577566 0.913027 0.597652
O O12 0.751030 0.889849 0.469883
O O13 0.500000 0.000000 0.495167
O O14 0.500000 0.000000 0.688975
O O15 0.250000 0.250000 0.457779
#
# Coordination Sequence:
#
# PCOD9354736 Si02
#       7
#     8   8   4   8   8   8   8
#     4  11  24  43  67 101 139 182 233 294 361 427
#     4  11  22  39  68  99 132 179 239 293 350 422
#     4  10  22  38  68  96 138 172 222 290 360 418
#     4  12  24  41  73 102 137 184 239 298 358 423
#     4  11  25  47  69 100 143 189 237 294 359 432
#     4  10  23  44  68  97 137 189 240 294 353 433
#     4  12  26  44  68 105 143 183 235 296 361 436
#
# _framework density 21.824745
#
# number of rings (size 3 to 8) (size 9 to 14) (size 15 to 20)
#    0.000    0.923    4.615    2.308    3.231    5.538 
#    1.385    1.538    0.000    0.000    0.000    0.000 
#    0.000    0.000    0.000    0.000    0.000    0.000 
#
# Total GULP energy -144895.254452 kJ/mol
# GULP energy per Si atom -5572.894402 kJ/mol
# Density = 2.177507 g / cm^3
# Si number density = 21.824745 Si / 1000 Ang^3
#
#
#
# Elastic Constant Matrix: (Units=GPa)
#
#
# Indices 1 2 3 4 5 6 
#
# 1 115.3840 28.4631 13.1995 0.0000 0.0000 0.0000
# 2 28.4631 105.2162 16.2851 0.0000 0.0000 0.0000
# 3 13.1995 16.2851 43.7906 0.0000 0.0000 0.0000
# 4 0.0000 0.0000 0.0000 17.3219 0.0000 0.0000
# 5 0.0000 0.0000 0.0000 0.0000 40.4385 0.0000
# 6 0.0000 0.0000 0.0000 0.0000 0.0000 40.3269
#
#
#
# Elastic Compliance Matrix: (Units=1/GPa)
#
#
# Indices 1 2 3 4 5 6 
#
# 1 0.009451 -0.002245 -0.002014 0.000000 0.000000 0.000000
# 2 -0.002245 0.010618 -0.003272 0.000000 0.000000 0.000000
# 3 -0.002014 -0.003272 0.024660 0.000000 0.000000 0.000000
# 4 0.000000 0.000000 0.000000 0.057730 0.000000 0.000000
# 5 0.000000 0.000000 0.000000 0.000000 0.024729 0.000000
# 6 0.000000 0.000000 0.000000 0.000000 0.000000 0.024797
#
#
# Mechanical properties :
#
#
# Convention : Reuss Voigt Hill
#
# Bulk Modulus (GPa) = 33.70744 42.25401 37.98072
# Shear Modulus (GPa) = 28.25882 33.38034 30.81958
#
# Velocity S-wave (km/s) = 3.60225 3.91509 3.76192
# Velocity P-wave (km/s) = 5.72535 6.31188 6.02576
#
# Compressibility (1/GPa) = 0.02966704
#
# Stress axis : x y z
#
# Youngs Moduli (GPa) = 105.81027 94.17991 40.55189
#
# Poissons Ratio (x) = 0.21143 0.08167
# Poissons Ratio (y) = 0.23754 0.13269
# Poissons Ratio (z) = 0.21309 0.30816
#
# Static dielectric constant tensor:
#      x y z
#    x 2.015240 0.000000 0.000000 
#    y 0.000000 1.964370 0.000000 
#    z 0.000000 0.000000 1.752210 
# 
# From -- ./inp_files/15842.got.cif
#   From: 2010.05.17/outbox.cif.g08.bks.cpg/sg37_8_cif.got.tgz:15842.got - 2010.06.03 17:53:42.
