data_PCOD9354528
_publ_section_title
;
Structure prediction by ZEFSAII (Michael W. Deem and Ramdas Pophale) SiO2 
 PCOD9354528
Probable space group: C C C 2
;
_chemical_formula_sum "Si O2"
_cell_formula_units_Z 60
_cell_length_a 16.693513
_cell_length_b 13.052856
_cell_length_c 11.182999
_cell_angle_alpha 90.000000
_cell_angle_beta 90.000000
_cell_angle_gamma 90.000000
_cell_volume 2436.753355
_symmetry_space_group_name_H-M "C C C 2"
_symmetry_group_IT_number 37
_symmetry_cell_setting 'orthorhombic'
loop_
_space_group_symop_operation_xyz
x,y,z
-x,-y,z
-x,y,1/2+z
x,-y,1/2+z
1/2+x,1/2+y,z
1/2-x,1/2-y,z
1/2-x,1/2+y,1/2+z
1/2+x,1/2-y,1/2+z
loop_
_atom_site_type_symbol
_atom_site_label
_atom_site_fract_x
_atom_site_fract_y
_atom_site_fract_z
Si Si1 0.862014 0.792052 0.392920
Si Si2 0.635664 0.152676 0.703656
Si Si3 0.403990 0.339490 0.648690
Si Si4 0.577655 0.343367 0.568340
Si Si5 0.800164 0.008507 0.294665
Si Si6 0.956433 0.712499 0.855269
Si Si7 0.258562 0.551729 0.555174
Si Si8 0.000000 0.500000 0.792370
O O1 0.824488 0.690167 0.329611
O O2 0.848435 0.814647 0.534048
O O3 0.955527 0.757880 0.387009
O O4 0.840363 0.898221 0.325937
O O5 0.591816 0.256740 0.666520
O O6 0.700397 0.140426 0.599464
O O7 0.569769 0.062948 0.721059
O O8 0.487862 0.381193 0.593912
O O9 0.369037 0.414051 0.750577
O O10 0.425157 0.237082 0.722812
O O11 0.592629 0.278531 0.448642
O O12 0.646405 0.427607 0.568277
O O13 0.750752 0.031387 0.415411
O O14 0.743747 0.014844 0.176398
O O15 0.960397 0.590662 0.870043
#
# Coordination Sequence:
#
# PCOD9354528 Si02
#       8
#     8   8   8   8   8   8   8   4
#     4  10  22  41  68 106 142 190 238 299 376 451
#     4  11  24  47  71 100 141 193 246 301 372 444
#     4  11  21  42  67 108 147 180 247 309 364 444
#     4  11  22  41  69 102 140 193 229 298 376 441
#     4  12  24  44  70 111 147 191 239 302 375 456
#     4  10  21  40  66 104 142 182 241 307 366 426
#     4  12  26  45  72 104 152 193 242 299 382 459
#     4  10  22  46  72 104 136 190 262 310 356 434
#
# _framework density 24.622926
#
# number of rings (size 3 to 8) (size 9 to 14) (size 15 to 20)
#    0.000    1.067    6.667    0.400    0.000    3.733 
#    4.800    0.000    0.000    0.000    0.000    0.000 
#    0.000    0.000    0.000    0.000    0.000    0.000 
#
# Total GULP energy -167018.653701 kJ/mol
# GULP energy per Si atom -5567.288457 kJ/mol
# Density = 2.456688 g / cm^3
# Si number density = 24.622926 Si / 1000 Ang^3
#
#
#
# Elastic Constant Matrix: (Units=GPa)
#
#
# Indices 1 2 3 4 5 6 
#
# 1 63.3471 21.6160 20.6978 0.0000 0.0000 0.0000
# 2 21.6160 111.4386 55.3691 0.0000 0.0000 0.0000
# 3 20.6978 55.3691 199.1514 0.0000 0.0000 0.0000
# 4 0.0000 0.0000 0.0000 -7.5734 0.0000 0.0000
# 5 0.0000 0.0000 0.0000 0.0000 22.0836 0.0000
# 6 0.0000 0.0000 0.0000 0.0000 0.0000 24.8420
#
#
#
# Elastic Compliance Matrix: (Units=1/GPa)
#
#
# Indices 1 2 3 4 5 6 
#
# 1 0.017072 -0.002819 -0.000990 0.000000 0.000000 0.000000
# 2 -0.002819 0.010877 -0.002731 0.000000 0.000000 0.000000
# 3 -0.000990 -0.002731 0.005884 0.000000 0.000000 0.000000
# 4 0.000000 0.000000 0.000000 -0.132040 0.000000 0.000000
# 5 0.000000 0.000000 0.000000 0.000000 0.045282 0.000000
# 6 0.000000 0.000000 0.000000 0.000000 0.000000 0.040254
#
#
# Mechanical properties :
#
#
# Convention : Reuss Voigt Hill
#
# Bulk Modulus (GPa) = 48.19083 63.25586 55.72335
# Shear Modulus (GPa) = 682.31379 26.28737 354.30058
#
# Velocity S-wave (km/s) = 16.66453 3.27096 12.00845
# Velocity P-wave (km/s) = 19.74562 6.32544 14.66119
#
# Compressibility (1/GPa) = 0.02075084
#
# Stress axis : x y z
#
# Youngs Moduli (GPa) = 58.57645 91.93342 169.96456
#
# Poissons Ratio (x) = 0.25919 0.16834
# Poissons Ratio (y) = 0.16515 0.46420
# Poissons Ratio (z) = 0.05802 0.25109
#
# Static dielectric constant tensor:
#      x y z
#    x 2.130920 0.000000 0.000000 
#    y 0.000000 2.258760 0.000000 
#    z 0.000000 0.000000 2.133650 
# 
# From -- ./inp_files/8335.got.cif
#   From: 2010.05.17/outbox.cif.g08.bks.cpg/sg37_5_cif.got.tgz:8335.got - 2010.06.03 17:53:42.
