data_PCOD9354641
_publ_section_title
;
Structure prediction by ZEFSAII (Michael W. Deem and Ramdas Pophale) SiO2 
 PCOD9354641
Probable space group: C C C 2
;
_chemical_formula_sum "Si O2"
_cell_formula_units_Z 60
_cell_length_a 25.742840
_cell_length_b 10.940867
_cell_length_c 9.759803
_cell_angle_alpha 90.000000
_cell_angle_beta 90.000000
_cell_angle_gamma 90.000000
_cell_volume 2748.838644
_symmetry_space_group_name_H-M "C C C 2"
_symmetry_group_IT_number 37
_symmetry_cell_setting 'orthorhombic'
loop_
_space_group_symop_operation_xyz
x,y,z
-x,-y,z
-x,y,1/2+z
x,-y,1/2+z
1/2+x,1/2+y,z
1/2-x,1/2-y,z
1/2-x,1/2+y,1/2+z
1/2+x,1/2-y,1/2+z
loop_
_atom_site_type_symbol
_atom_site_label
_atom_site_fract_x
_atom_site_fract_y
_atom_site_fract_z
Si Si1 0.603726 0.301987 0.549100
Si Si2 0.462630 0.385150 0.819243
Si Si3 0.419369 0.790802 0.100558
Si Si4 0.212767 0.133139 0.181032
Si Si5 0.767898 0.935099 0.887781
Si Si6 0.948289 0.710078 0.316642
Si Si7 0.000000 0.500000 0.186092
Si Si8 0.664248 0.809927 0.824217
O O1 0.579656 0.398221 0.440332
O O2 0.655047 0.337940 0.631192
O O3 0.564907 0.269901 0.670796
O O4 0.622488 0.192225 0.448822
O O5 0.500000 0.500000 0.801097
O O6 0.438146 0.332908 0.679164
O O7 0.499115 0.273942 0.868861
O O8 0.368389 0.824852 0.186565
O O9 0.464802 0.895483 0.112086
O O10 0.408797 0.772486 0.940430
O O11 0.250000 0.250000 0.192254
O O12 0.211977 0.055763 0.317364
O O13 0.234152 0.057427 0.051185
O O14 0.709732 0.906860 0.838472
O O15 0.805194 0.820712 0.843349
O O16 0.959346 0.570996 0.281198
#
# Coordination Sequence:
#
# PCOD9354641 Si02
#       8
#     8   8   8   8   8   8   4   8
#     4  10  22  41  67  90 136 176 215 273 344 402
#     4  10  22  40  62  90 131 179 215 264 331 405
#     4  10  22  39  63  90 127 170 223 268 327 389
#     4  11  23  46  69  99 135 174 225 286 349 409
#     4  10  21  44  70  91 134 170 215 282 342 397
#     4  11  23  38  61  94 125 168 223 275 319 389
#     4  10  22  42  58  88 136 176 212 276 332 380
#     4   9  20  44  64  88 128 177 209 269 349 402
#
# _framework density 21.827400000000001
#
# number of rings (size 3 to 8) (size 9 to 14) (size 15 to 20)
#    0.000    1.867    2.667    2.000    0.000   10.667 
#    7.200    0.000    0.000    0.000    0.000    0.000 
#    0.000    0.000    0.000    0.000    0.000    0.000 
#
# Total GULP energy -167399.628357 kJ/mol
# GULP energy per Si atom -5579.987612 kJ/mol
# Density = 2.177772 g / cm^3
# Si number density = 21.827400 Si / 1000 Ang^3
#
#
#
# Elastic Constant Matrix: (Units=GPa)
#
#
# Indices 1 2 3 4 5 6 
#
# 1 65.1726 -5.5344 -6.2669 0.0000 0.0000 0.0000
# 2 -5.5344 58.0762 12.8249 0.0000 0.0000 0.0000
# 3 -6.2669 12.8249 85.5811 0.0000 0.0000 0.0000
# 4 0.0000 0.0000 0.0000 2.2924 0.0000 0.0000
# 5 0.0000 0.0000 0.0000 0.0000 26.4888 0.0000
# 6 0.0000 0.0000 0.0000 0.0000 0.0000 11.6454
#
#
#
# Elastic Compliance Matrix: (Units=1/GPa)
#
#
# Indices 1 2 3 4 5 6 
#
# 1 0.015543 0.001272 0.000948 0.000000 0.000000 0.000000
# 2 0.001272 0.017912 -0.002591 0.000000 0.000000 0.000000
# 3 0.000948 -0.002591 0.012143 0.000000 0.000000 0.000000
# 4 0.000000 0.000000 0.000000 0.436232 0.000000 0.000000
# 5 0.000000 0.000000 0.000000 0.000000 0.037752 0.000000
# 6 0.000000 0.000000 0.000000 0.000000 0.000000 0.085871
#
#
# Mechanical properties :
#
#
# Convention : Reuss Voigt Hill
#
# Bulk Modulus (GPa) = 22.29435 23.43080 22.86258
# Shear Modulus (GPa) = 8.04963 21.93906 14.99434
#
# Velocity S-wave (km/s) = 1.92246 3.17380 2.62382
# Velocity P-wave (km/s) = 3.89409 4.91818 4.43579
#
# Compressibility (1/GPa) = 0.04485441
#
# Stress axis : x y z
#
# Youngs Moduli (GPa) = 64.33768 55.82794 82.35534
#
# Poissons Ratio (x) = -0.07101 -0.07804
# Poissons Ratio (y) = -0.08183 0.21339
# Poissons Ratio (z) = -0.06096 0.14466
#
# Static dielectric constant tensor:
#      x y z
#    x 1.836910 0.000000 0.000000 
#    y 0.000000 1.917330 0.000000 
#    z 0.000000 0.000000 1.807020 
# 
# From -- ./inp_files/4987.got.cif
#   From: 2010.05.17/outbox.cif.g08.bks.cpg/sg37_3_cif.got.tgz:4987.got - 2010.06.03 17:53:42.
