data_PCOD9354074
_publ_section_title
;
Structure prediction by ZEFSAII (Michael W. Deem and Ramdas Pophale) SiO2 
 PCOD9354074
Probable space group: C C C 2
;
_chemical_formula_sum "Si O2"
_cell_formula_units_Z 48
_cell_length_a 29.382715
_cell_length_b 5.939892
_cell_length_c 12.047445
_cell_angle_alpha 90.000000
_cell_angle_beta 90.000000
_cell_angle_gamma 90.000000
_cell_volume 2102.642428
_symmetry_space_group_name_H-M "C C C 2"
_symmetry_group_IT_number 37
_symmetry_cell_setting 'orthorhombic'
loop_
_space_group_symop_operation_xyz
x,y,z
-x,-y,z
-x,y,1/2+z
x,-y,1/2+z
1/2+x,1/2+y,z
1/2-x,1/2-y,z
1/2-x,1/2+y,1/2+z
1/2+x,1/2-y,1/2+z
loop_
_atom_site_type_symbol
_atom_site_label
_atom_site_fract_x
_atom_site_fract_y
_atom_site_fract_z
Si Si1 0.794475 0.129202 0.391000
Si Si2 0.957324 0.377472 0.758687
Si Si3 0.250000 0.250000 0.546198
Si Si4 0.500000 0.500000 0.097374
Si Si5 0.583760 0.746141 0.593593
Si Si6 0.333062 0.030770 0.071409
Si Si7 0.629559 0.373102 0.749559
O O1 0.750000 0.250000 0.337908
O O2 0.818142 0.314173 0.469311
O O3 0.773859 0.936984 0.470097
O O4 0.832893 0.007450 0.318831
O O5 0.978645 0.189220 0.677382
O O6 0.937019 0.573150 0.680070
O O7 0.913321 0.250622 0.809503
O O8 0.000000 0.500000 0.821272
O O9 0.208992 0.374715 0.606761
O O10 0.458872 0.623891 0.033868
O O11 0.608084 0.552261 0.664444
O O12 0.623988 0.881023 0.534941
O O13 0.346278 0.184155 0.175222
#
# Coordination Sequence:
#
# PCOD9354074 Si02
#       7
#     8   8   4   4   8   8   8
#     4  10  23  42  56  85 122 165 212 261 315 371
#     4   8  15  28  53  88 120 149 192 249 304 367
#     4  10  22  44  56  80 122 162 202 260 314 360
#     4   8  14  28  52  86 122 146 194 250 294 372
#     4   9  17  32  55  91 118 152 201 245 310 369
#     4  10  21  38  60  86 121 163 207 254 317 372
#     4  10  20  37  60  93 117 161 212 251 316 385
#
# _framework density 22.828420000000001
#
# number of rings (size 3 to 8) (size 9 to 14) (size 15 to 20)
#    0.000    2.667    0.000    1.000    0.000    5.333 
#   19.500    0.000    0.000    0.000    0.000  378.000 
#    0.000    0.000    0.000    0.000    0.000    0.000 
#
# Total GULP energy -133922.515354 kJ/mol
# GULP energy per Si atom -5580.104806 kJ/mol
# Density = 2.277646 g / cm^3
# Si number density = 22.828420 Si / 1000 Ang^3
#
#
#
# Elastic Constant Matrix: (Units=GPa)
#
#
# Indices 1 2 3 4 5 6 
#
# 1 229.8359 106.0219 66.8175 0.0000 0.0000 0.0000
# 2 106.0219 146.5815 35.3076 0.0000 0.0000 0.0000
# 3 66.8175 35.3076 50.9093 0.0000 0.0000 0.0000
# 4 0.0000 0.0000 0.0000 -58.7722 0.0000 0.0000
# 5 0.0000 0.0000 0.0000 0.0000 -38.6348 0.0000
# 6 0.0000 0.0000 0.0000 0.0000 0.0000 91.2734
#
#
#
# Elastic Compliance Matrix: (Units=1/GPa)
#
#
# Indices 1 2 3 4 5 6 
#
# 1 0.008852 -0.004327 -0.008617 0.000000 0.000000 0.000000
# 2 -0.004327 0.010306 -0.001468 0.000000 0.000000 0.000000
# 3 -0.008617 -0.001468 0.031971 0.000000 0.000000 0.000000
# 4 0.000000 0.000000 0.000000 -0.017015 0.000000 0.000000
# 5 0.000000 0.000000 0.000000 0.000000 -0.025883 0.000000
# 6 0.000000 0.000000 0.000000 0.000000 0.000000 0.010956
#
#
# Mechanical properties :
#
#
# Convention : Reuss Voigt Hill
#
# Bulk Modulus (GPa) = 44.83541 93.73563 69.28552
# Shear Modulus (GPa) = 90.17731 13.38526 51.78128
#
# Velocity S-wave (km/s) = 6.29190 2.42408 4.76781
# Velocity P-wave (km/s) = 8.51274 6.99892 7.79268
#
# Compressibility (1/GPa) = 0.02230380
#
# Stress axis : x y z
#
# Youngs Moduli (GPa) = 112.96614 97.03533 31.27825
#
# Poissons Ratio (x) = 0.41988 0.26954
# Poissons Ratio (y) = 0.48881 0.04592
# Poissons Ratio (z) = 0.97347 0.14245
#
# Static dielectric constant tensor:
#      x y z
#    x 2.136960 0.000000 0.000000 
#    y 0.000000 1.846920 0.000000 
#    z 0.000000 0.000000 1.839510 
# 
# From -- ./inp_files/9785.got.cif
#   From: 2010.05.17/outbox.cif.g08.bks.cpg/sg37_5_cif.got.tgz:9785.got - 2010.06.03 17:53:42.
