data_PCOD9354636
_publ_section_title
;
Structure prediction by ZEFSAII (Michael W. Deem and Ramdas Pophale) SiO2 
 PCOD9354636
Probable space group: C C C 2
;
_chemical_formula_sum "Si O2"
_cell_formula_units_Z 40
_cell_length_a 7.308474
_cell_length_b 18.405013
_cell_length_c 12.676080
_cell_angle_alpha 90.000000
_cell_angle_beta 90.000000
_cell_angle_gamma 90.000000
_cell_volume 1705.091959
_symmetry_space_group_name_H-M "C C C 2"
_symmetry_group_IT_number 37
_symmetry_cell_setting 'orthorhombic'
loop_
_space_group_symop_operation_xyz
x,y,z
-x,-y,z
-x,y,1/2+z
x,-y,1/2+z
1/2+x,1/2+y,z
1/2-x,1/2-y,z
1/2-x,1/2+y,1/2+z
1/2+x,1/2-y,1/2+z
loop_
_atom_site_type_symbol
_atom_site_label
_atom_site_fract_x
_atom_site_fract_y
_atom_site_fract_z
Si Si1 0.562550 0.924384 0.295850
Si Si2 0.049013 0.267734 0.759954
Si Si3 0.030280 0.112311 0.266669
Si Si4 0.754973 0.406386 0.458663
Si Si5 0.750000 0.750000 0.969828
Si Si6 0.500000 0.500000 0.592642
O O1 0.508992 0.849428 0.237092
O O2 0.780607 0.923156 0.304735
O O3 0.500000 0.000000 0.243870
O O4 0.549045 0.078928 0.406192
O O5 0.250000 0.250000 0.713411
O O6 0.082064 0.262238 0.887217
O O7 0.933064 0.196331 0.737949
O O8 0.879603 0.106765 0.358350
O O9 0.954918 0.067361 0.168307
O O10 0.742160 0.329302 0.520908
O O11 0.669458 0.471678 0.524175
#
# Coordination Sequence:
#
# PCOD9354636 Si02
#       6
#     8   8   8   8   4   4
#     4  11  20  36  68  98 122 174 228 274 333 404
#     4   8  17  37  65  91 125 172 217 273 331 405
#     4  11  22  40  67  97 131 183 229 271 351 413
#     4  10  21  44  62  92 142 176 220 287 341 407
#     4   6  14  34  66  78 114 180 208 260 338 392
#     4  12  24  38  68 102 140 178 228 290 352 402
#
# _framework density 23.459147000000002
#
# number of rings (size 3 to 8) (size 9 to 14) (size 15 to 20)
#    0.600    1.600    2.000    3.600    0.000    0.000 
#    3.600    9.000    0.000    0.000    0.000    0.000 
#    0.000    0.000    0.000    0.000    0.000    0.000 
#
# Total GULP energy -111530.422326 kJ/mol
# GULP energy per Si atom -5576.521116 kJ/mol
# Density = 2.340575 g / cm^3
# Si number density = 23.459147 Si / 1000 Ang^3
#
#
#
# Elastic Constant Matrix: (Units=GPa)
#
#
# Indices 1 2 3 4 5 6 
#
# 1 87.9516 37.6926 25.3148 0.0000 0.0000 0.0000
# 2 37.6926 226.1995 38.7895 0.0000 0.0000 0.0000
# 3 25.3148 38.7895 71.0454 0.0000 0.0000 0.0000
# 4 0.0000 0.0000 0.0000 -21.7615 0.0000 0.0000
# 5 0.0000 0.0000 0.0000 0.0000 -91.3080 0.0000
# 6 0.0000 0.0000 0.0000 0.0000 0.0000 43.9347
#
#
#
# Elastic Compliance Matrix: (Units=1/GPa)
#
#
# Indices 1 2 3 4 5 6 
#
# 1 0.013132 -0.001529 -0.003844 0.000000 0.000000 0.000000
# 2 -0.001529 0.005056 -0.002215 0.000000 0.000000 0.000000
# 3 -0.003844 -0.002215 0.016655 0.000000 0.000000 0.000000
# 4 0.000000 0.000000 0.000000 -0.045953 0.000000 0.000000
# 5 0.000000 0.000000 0.000000 0.000000 -0.010952 0.000000
# 6 0.000000 0.000000 0.000000 0.000000 0.000000 0.022761
#
#
# Mechanical properties :
#
#
# Convention : Reuss Voigt Hill
#
# Bulk Modulus (GPa) = 50.85243 65.42114 58.13678
# Shear Modulus (GPa) = 222.90887 5.06635 113.98761
#
# Velocity S-wave (km/s) = 9.75840 1.47117 6.97820
# Velocity P-wave (km/s) = 12.19395 5.55280 9.47434
#
# Compressibility (1/GPa) = 0.01966475
#
# Stress axis : x y z
#
# Youngs Moduli (GPa) = 76.15213 197.80181 60.04246
#
# Poissons Ratio (x) = 0.30243 0.23082
# Poissons Ratio (y) = 0.11643 0.13302
# Poissons Ratio (z) = 0.29275 0.43822
#
# Static dielectric constant tensor:
#      x y z
#    x 2.039460 0.000000 0.000000 
#    y 0.000000 1.982030 0.000000 
#    z 0.000000 0.000000 1.913850 
# 
# From -- ./inp_files/10482.got.cif
#   From: 2010.05.17/outbox.cif.g08.bks.cpg/sg37_6_cif.got.tgz:10482.got - 2010.06.03 17:53:42.
