data_PCOD9354959
_publ_section_title
;
Structure prediction by ZEFSAII (Michael W. Deem and Ramdas Pophale) SiO2 
 PCOD9354959
Probable space group: C C C 2
;
_chemical_formula_sum "Si O2"
_cell_formula_units_Z 52
_cell_length_a 5.441535
_cell_length_b 29.930127
_cell_length_c 16.447409
_cell_angle_alpha 90.000000
_cell_angle_beta 90.000000
_cell_angle_gamma 90.000000
_cell_volume 2678.720978
_symmetry_space_group_name_H-M "C C C 2"
_symmetry_group_IT_number 37
_symmetry_cell_setting 'orthorhombic'
loop_
_space_group_symop_operation_xyz
x,y,z
-x,-y,z
-x,y,1/2+z
x,-y,1/2+z
1/2+x,1/2+y,z
1/2-x,1/2-y,z
1/2-x,1/2+y,1/2+z
1/2+x,1/2-y,1/2+z
loop_
_atom_site_type_symbol
_atom_site_label
_atom_site_fract_x
_atom_site_fract_y
_atom_site_fract_z
Si Si1 0.750000 0.250000 0.752301
Si Si2 0.134545 0.798751 0.182902
Si Si3 0.726538 0.383035 0.073660
Si Si4 0.249043 0.473624 0.869798
Si Si5 0.749005 0.526292 0.673876
Si Si6 0.656230 0.203770 0.358829
Si Si7 0.277392 0.117450 0.969217
O O1 0.650659 0.287296 0.689213
O O2 0.591379 0.220177 0.814706
O O3 0.250000 0.750000 0.164911
O O4 0.220500 0.837584 0.125715
O O5 0.188025 0.807978 0.278076
O O6 0.727557 0.425641 0.132761
O O7 0.478479 0.381629 0.019250
O O8 0.978881 0.386962 0.023794
O O9 0.500000 0.500000 0.892494
O O10 0.246841 0.469378 0.771825
O O11 0.242427 0.425263 0.910433
O O12 0.000000 0.500000 0.893569
O O13 0.500000 0.500000 0.651414
O O14 0.000000 0.500000 0.650071
O O15 0.750000 0.250000 0.398348
O O16 0.675104 0.162699 0.418525
#
# Coordination Sequence:
#
# PCOD9354959 Si02
#       7
#     4   8   8   8   8   8   8
#     4   8  18  40  68  86 116 172 220 268 302 352
#     4   9  21  41  65  90 121 167 218 262 303 364
#     4  12  27  40  61  97 133 167 200 253 325 379
#     4  10  22  44  68  91 119 163 216 262 304 366
#     4  10  22  44  68  91 119 163 216 262 304 366
#     4   9  21  41  65  90 121 167 218 262 303 364
#     4  12  27  40  61  97 133 167 200 253 325 379
#
# _framework density 19.412251999999999
#
# number of rings (size 3 to 8) (size 9 to 14) (size 15 to 20)
#    0.000    2.154    0.000    2.769    8.615    4.923 
#    8.308    0.000    0.000    0.000    0.000    0.000 
#    0.000    0.000    0.000    0.000    0.000    0.000 
#
# Total GULP energy -144854.453791 kJ/mol
# GULP energy per Si atom -5571.325146 kJ/mol
# Density = 1.936807 g / cm^3
# Si number density = 19.412252 Si / 1000 Ang^3
#
#
#
# Elastic Constant Matrix: (Units=GPa)
#
#
# Indices 1 2 3 4 5 6 
#
# 1 119.5244 52.2155 34.3200 0.0000 0.0000 0.0000
# 2 52.2155 161.4938 60.6696 0.0000 0.0000 0.0000
# 3 34.3200 60.6696 37.5437 0.0000 0.0000 0.0000
# 4 0.0000 0.0000 0.0000 277.4598 0.0000 0.0000
# 5 0.0000 0.0000 0.0000 0.0000 8.6771 0.0000
# 6 0.0000 0.0000 0.0000 0.0000 0.0000 9.0304
#
#
#
# Elastic Compliance Matrix: (Units=1/GPa)
#
#
# Indices 1 2 3 4 5 6 
#
# 1 0.011366 0.000581 -0.011329 0.000000 0.000000 0.000000
# 2 0.000581 0.015789 -0.026046 0.000000 0.000000 0.000000
# 3 -0.011329 -0.026046 0.079082 0.000000 0.000000 0.000000
# 4 0.000000 0.000000 0.000000 0.003604 0.000000 0.000000
# 5 0.000000 0.000000 0.000000 0.000000 0.115245 0.000000
# 6 0.000000 0.000000 0.000000 0.000000 0.000000 0.110738
#
#
# Mechanical properties :
#
#
# Convention : Reuss Voigt Hill
#
# Bulk Modulus (GPa) = 30.62900 68.10800 49.36850
# Shear Modulus (GPa) = 11.89640 70.45725 41.17683
#
# Velocity S-wave (km/s) = 2.47823 6.03109 4.61062
# Velocity P-wave (km/s) = 4.89911 9.14658 7.33693
#
# Compressibility (1/GPa) = 0.03264880
#
# Stress axis : x y z
#
# Youngs Moduli (GPa) = 87.98548 63.33386 12.64511
#
# Poissons Ratio (x) = -0.03681 0.14325
# Poissons Ratio (y) = -0.05113 0.32936
# Poissons Ratio (z) = 0.99677 1.64962
#
# Static dielectric constant tensor:
#      x y z
#    x 1.868550 0.000000 0.000000 
#    y 0.000000 1.636390 0.000000 
#    z 0.000000 0.000000 1.654810 
# 
# From -- ./inp_files/13976.got.cif
#   From: 2010.05.17/outbox.cif.g08.bks.cpg/sg37_7_cif.got.tgz:13976.got - 2010.06.03 17:53:42.
