data_PCOD9354685
_publ_section_title
;
Structure prediction by ZEFSAII (Michael W. Deem and Ramdas Pophale) SiO2 
 PCOD9354685
Probable space group: C C C 2
;
_chemical_formula_sum "Si O2"
_cell_formula_units_Z 60
_cell_length_a 26.492894
_cell_length_b 7.432894
_cell_length_c 13.349711
_cell_angle_alpha 90.000000
_cell_angle_beta 90.000000
_cell_angle_gamma 90.000000
_cell_volume 2628.810043
_symmetry_space_group_name_H-M "C C C 2"
_symmetry_group_IT_number 37
_symmetry_cell_setting 'orthorhombic'
loop_
_space_group_symop_operation_xyz
x,y,z
-x,-y,z
-x,y,1/2+z
x,-y,1/2+z
1/2+x,1/2+y,z
1/2-x,1/2-y,z
1/2-x,1/2+y,1/2+z
1/2+x,1/2-y,1/2+z
loop_
_atom_site_type_symbol
_atom_site_label
_atom_site_fract_x
_atom_site_fract_y
_atom_site_fract_z
Si Si1 0.423794 0.299562 0.069160
Si Si2 0.977744 0.700931 0.666664
Si Si3 0.645763 0.349075 0.860555
Si Si4 0.109314 0.611257 0.030592
Si Si5 0.818859 0.090206 0.549930
Si Si6 0.945566 0.912513 0.843680
Si Si7 0.785457 0.499003 0.035402
Si Si8 0.750000 0.750000 0.355104
O O1 0.472436 0.314589 0.139104
O O2 0.371952 0.390385 0.105558
O O3 0.410582 0.090157 0.047362
O O4 0.437183 0.370479 0.959559
O O5 0.934560 0.726481 0.582332
O O6 0.950480 0.743130 0.770647
O O7 0.000000 0.500000 0.168256
O O8 0.600715 0.460568 0.812862
O O9 0.697353 0.301121 0.801082
O O10 0.619545 0.179301 0.917554
O O11 0.666803 0.473376 0.951982
O O12 0.166133 0.608831 0.076964
O O13 0.803587 0.295443 0.521349
O O14 0.767561 0.005022 0.594345
O O15 0.000000 0.000000 0.835852
O O16 0.770235 0.406547 0.930166
#
# Coordination Sequence:
#
# PCOD9354685 Si02
#       8
#     8   8   8   8   8   8   8   4
#     4   9  19  36  55  77 109 147 187 233 283 342
#     4  10  22  37  53  77 110 149 190 232 284 347
#     4   9  17  30  51  82 109 139 181 231 282 341
#     4   9  17  32  55  79 108 144 183 230 284 344
#     4   8  14  25  46  77 108 136 175 225 279 333
#     4  11  23  35  53  82 113 146 186 232 286 341
#     4   8  13  24  45  78 107 134 178 225 273 337
#     4   8  14  26  48  78 106 138 182 224 272 336
#
# _framework density 22.824013999999998
#
# number of rings (size 3 to 8) (size 9 to 14) (size 15 to 20)
#    0.000    2.933    0.000    0.800    0.000    5.333 
#    0.000    0.000    0.000    0.000    0.000  190.400 
#    0.000    0.000    0.000    0.533    0.000    1.267 
#
# Total GULP energy -167138.034447 kJ/mol
# GULP energy per Si atom -5571.267815 kJ/mol
# Density = 2.277207 g / cm^3
# Si number density = 22.824014 Si / 1000 Ang^3
#
#
#
# Elastic Constant Matrix: (Units=GPa)
#
#
# Indices 1 2 3 4 5 6 
#
# 1 230.6249 54.4306 45.0487 0.0000 0.0000 0.0000
# 2 54.4306 38.9541 9.1758 0.0000 0.0000 0.0000
# 3 45.0487 9.1758 59.3120 0.0000 0.0000 0.0000
# 4 0.0000 0.0000 0.0000 3.9228 0.0000 0.0000
# 5 0.0000 0.0000 0.0000 0.0000 6.9347 0.0000
# 6 0.0000 0.0000 0.0000 0.0000 0.0000 42.1680
#
#
#
# Elastic Compliance Matrix: (Units=1/GPa)
#
#
# Indices 1 2 3 4 5 6 
#
# 1 0.007332 -0.009271 -0.004134 0.000000 0.000000 0.000000
# 2 -0.009271 0.038364 0.001106 0.000000 0.000000 0.000000
# 3 -0.004134 0.001106 0.019829 0.000000 0.000000 0.000000
# 4 0.000000 0.000000 0.000000 0.254918 0.000000 0.000000
# 5 0.000000 0.000000 0.000000 0.000000 0.144202 0.000000
# 6 0.000000 0.000000 0.000000 0.000000 0.000000 0.023715
#
#
# Mechanical properties :
#
#
# Convention : Reuss Voigt Hill
#
# Bulk Modulus (GPa) = 24.43352 60.68903 42.56128
# Shear Modulus (GPa) = 9.49487 25.28750 17.39119
#
# Velocity S-wave (km/s) = 2.04183 3.33218 2.76337
# Velocity P-wave (km/s) = 4.03574 6.43834 5.37305
#
# Compressibility (1/GPa) = 0.04092738
#
# Stress axis : x y z
#
# Youngs Moduli (GPa) = 136.39592 26.06577 50.43123
#
# Poissons Ratio (x) = 0.24165 0.20850
# Poissons Ratio (y) = 1.26447 -0.05578
# Poissons Ratio (z) = 0.56390 -0.02883
#
# Static dielectric constant tensor:
#      x y z
#    x 1.903660 0.000000 0.000000 
#    y 0.000000 1.930480 0.000000 
#    z 0.000000 0.000000 1.840870 
# 
# From -- ./inp_files/9067.got.cif
#   From: 2010.05.17/outbox.cif.g08.bks.cpg/sg37_5_cif.got.tgz:9067.got - 2010.06.03 17:53:42.
