data_PCOD9354248
_publ_section_title
;
Structure prediction by ZEFSAII (Michael W. Deem and Ramdas Pophale) SiO2 
 PCOD9354248
Probable space group: C C C 2
;
_chemical_formula_sum "Si O2"
_cell_formula_units_Z 60
_cell_length_a 17.724528
_cell_length_b 18.842249
_cell_length_c 9.089730
_cell_angle_alpha 90.000000
_cell_angle_beta 90.000000
_cell_angle_gamma 90.000000
_cell_volume 3035.696855
_symmetry_space_group_name_H-M "C C C 2"
_symmetry_group_IT_number 37
_symmetry_cell_setting 'orthorhombic'
loop_
_space_group_symop_operation_xyz
x,y,z
-x,-y,z
-x,y,1/2+z
x,-y,1/2+z
1/2+x,1/2+y,z
1/2-x,1/2-y,z
1/2-x,1/2+y,1/2+z
1/2+x,1/2-y,1/2+z
loop_
_atom_site_type_symbol
_atom_site_label
_atom_site_fract_x
_atom_site_fract_y
_atom_site_fract_z
Si Si1 0.339194 0.730137 0.921380
Si Si2 0.597057 0.570977 0.476189
Si Si3 0.500000 0.500000 0.718377
Si Si4 0.666302 0.984400 0.380960
Si Si5 0.755064 0.950096 0.645737
Si Si6 0.931179 0.617821 0.913768
Si Si7 0.188756 0.697984 0.222087
Si Si8 0.587386 0.148076 0.756897
O O1 0.250000 0.750000 0.895149
O O2 0.384451 0.773641 0.797870
O O3 0.370862 0.649539 0.933006
O O4 0.351186 0.765212 0.082893
O O5 0.533978 0.560028 0.606452
O O6 0.562450 0.533394 0.330645
O O7 0.668765 0.535826 0.559110
O O8 0.685044 0.978386 0.551361
O O9 0.648800 0.908036 0.315453
O O10 0.740771 0.015255 0.302528
O O11 0.597780 0.039359 0.369719
O O12 0.739234 0.866856 0.661654
O O13 0.871624 0.669265 0.834818
O O14 0.012819 0.632022 0.849807
O O15 0.927930 0.632178 0.086947
O O16 0.250000 0.750000 0.291920
#
# Coordination Sequence:
#
# PCOD9354248 Si02
#       8
#     8   8   4   8   8   8   8   8
#     4  11  22  42  72  93 129 174 218 272 330 395
#     4  11  22  45  67  99 129 169 220 268 334 394
#     4  10  26  42  68 100 134 170 214 278 336 390
#     4  11  22  37  62  95 127 169 218 264 315 379
#     4  11  20  38  67  90 125 167 217 270 318 381
#     4  11  26  38  61  91 131 177 215 264 318 392
#     4  10  20  41  64  90 121 170 216 266 327 383
#     4  12  24  41  60  94 133 172 216 260 327 387
#
# _framework density 19.764818999999999
#
# number of rings (size 3 to 8) (size 9 to 14) (size 15 to 20)
#    0.000    1.067    5.333    2.000    1.867    3.733 
#    0.000    1.333    0.000    0.000    0.000    0.000 
#    0.000    0.000    0.000    0.000    0.000    0.000 
#
# Total GULP energy -167275.094228 kJ/mol
# GULP energy per Si atom -5575.836474 kJ/mol
# Density = 1.971983 g / cm^3
# Si number density = 19.764819 Si / 1000 Ang^3
#
#
#
# Elastic Constant Matrix: (Units=GPa)
#
#
# Indices 1 2 3 4 5 6 
#
# 1 66.6647 37.6542 14.4128 0.0000 0.0000 0.0000
# 2 37.6542 85.9715 26.6035 0.0000 0.0000 0.0000
# 3 14.4128 26.6035 91.3054 0.0000 0.0000 0.0000
# 4 0.0000 0.0000 0.0000 17.4113 0.0000 0.0000
# 5 0.0000 0.0000 0.0000 0.0000 26.7945 0.0000
# 6 0.0000 0.0000 0.0000 0.0000 0.0000 18.7797
#
#
#
# Elastic Compliance Matrix: (Units=1/GPa)
#
#
# Indices 1 2 3 4 5 6 
#
# 1 0.019968 -0.008540 -0.000664 0.000000 0.000000 0.000000
# 2 -0.008540 0.016437 -0.003441 0.000000 0.000000 0.000000
# 3 -0.000664 -0.003441 0.012060 0.000000 0.000000 0.000000
# 4 0.000000 0.000000 0.000000 0.057434 0.000000 0.000000
# 5 0.000000 0.000000 0.000000 0.000000 0.037321 0.000000
# 6 0.000000 0.000000 0.000000 0.000000 0.000000 0.053249
#
#
# Mechanical properties :
#
#
# Convention : Reuss Voigt Hill
#
# Bulk Modulus (GPa) = 43.15085 44.58694 43.86890
# Shear Modulus (GPa) = 21.78809 23.61517 22.70163
#
# Velocity S-wave (km/s) = 3.32379 3.46035 3.39276
# Velocity P-wave (km/s) = 6.05059 6.21072 6.13118
#
# Compressibility (1/GPa) = 0.02317451
#
# Stress axis : x y z
#
# Youngs Moduli (GPa) = 50.08102 60.83813 82.92118
#
# Poissons Ratio (x) = 0.51957 0.05503
# Poissons Ratio (y) = 0.42770 0.28534
# Poissons Ratio (z) = 0.03323 0.20935
#
# Static dielectric constant tensor:
#      x y z
#    x 1.754230 0.000000 0.000000 
#    y 0.000000 1.719870 0.000000 
#    z 0.000000 0.000000 1.678760 
# 
# From -- ./inp_files/4087.got.cif
#   From: 2010.05.17/outbox.cif.g08.bks.cpg/sg37_3_cif.got.tgz:4087.got - 2010.06.03 17:53:42.
