data_PCOD9354137
_publ_section_title
;
Structure prediction by ZEFSAII (Michael W. Deem and Ramdas Pophale) SiO2 
 PCOD9354137
Probable space group: C C C 2
;
_chemical_formula_sum "Si O2"
_cell_formula_units_Z 56
_cell_length_a 18.659431
_cell_length_b 12.463727
_cell_length_c 10.201028
_cell_angle_alpha 90.000000
_cell_angle_beta 90.000000
_cell_angle_gamma 90.000000
_cell_volume 2372.412828
_symmetry_space_group_name_H-M "C C C 2"
_symmetry_group_IT_number 37
_symmetry_cell_setting 'orthorhombic'
loop_
_space_group_symop_operation_xyz
x,y,z
-x,-y,z
-x,y,1/2+z
x,-y,1/2+z
1/2+x,1/2+y,z
1/2-x,1/2-y,z
1/2-x,1/2+y,1/2+z
1/2+x,1/2-y,1/2+z
loop_
_atom_site_type_symbol
_atom_site_label
_atom_site_fract_x
_atom_site_fract_y
_atom_site_fract_z
Si Si1 0.462590 0.117003 0.848500
Si Si2 0.864290 0.220882 0.879366
Si Si3 0.182162 0.689731 0.474051
Si Si4 0.738353 0.507504 0.134263
Si Si5 0.033753 0.755065 0.081424
Si Si6 0.404489 0.376828 0.127026
Si Si7 0.720771 0.909085 0.379154
O O1 0.378936 0.122464 0.895914
O O2 0.467014 0.187580 0.715305
O O3 0.500000 0.000000 0.831269
O O4 0.504059 0.177798 0.966000
O O5 0.913733 0.158493 0.778451
O O6 0.789995 0.163049 0.851282
O O7 0.850736 0.345327 0.845841
O O8 0.888258 0.214507 0.028527
O O9 0.250000 0.750000 0.405165
O O10 0.221036 0.615106 0.582320
O O11 0.136819 0.781294 0.549857
O O12 0.652751 0.526548 0.118746
O O13 0.761187 0.492188 0.284216
O O14 0.772330 0.425597 0.033169
O O15 0.985441 0.863089 0.078398
#
# Coordination Sequence:
#
# PCOD9354137 Si02
#       7
#     8   8   8   8   8   8   8
#     4  11  24  39  60  94 129 166 212 267 325 393
#     4  10  20  41  63  85 124 164 206 248 323 382
#     4   9  19  38  63  89 123 171 214 253 314 395
#     4  10  20  38  64  90 121 158 207 265 309 377
#     4  11  22  40  62  83 125 168 208 254 319 399
#     4   9  18  39  63  84 114 169 210 239 314 388
#     4  10  22  39  63  92 120 158 206 265 314 377
#
# _framework density 23.604659999999999
#
# number of rings (size 3 to 8) (size 9 to 14) (size 15 to 20)
#    0.000    2.000    2.857    0.429    2.000    1.143 
#   10.286    0.714    0.000    3.429    0.000    0.000 
#    0.000    0.000    0.000    0.000    0.000    0.000 
#
# Total GULP energy -155918.603678 kJ/mol
# GULP energy per Si atom -5568.521560 kJ/mol
# Density = 2.355094 g / cm^3
# Si number density = 23.604660 Si / 1000 Ang^3
#
#
#
# Elastic Constant Matrix: (Units=GPa)
#
#
# Indices 1 2 3 4 5 6 
#
# 1 90.5803 14.6248 33.6320 0.0000 0.0000 0.0000
# 2 14.6248 43.0398 10.3896 0.0000 0.0000 0.0000
# 3 33.6320 10.3896 111.2569 0.0000 0.0000 0.0000
# 4 0.0000 0.0000 0.0000 17.2879 0.0000 0.0000
# 5 0.0000 0.0000 0.0000 0.0000 18.4582 0.0000
# 6 0.0000 0.0000 0.0000 0.0000 0.0000 21.5954
#
#
#
# Elastic Compliance Matrix: (Units=1/GPa)
#
#
# Indices 1 2 3 4 5 6 
#
# 1 0.012940 -0.003532 -0.003582 0.000000 0.000000 0.000000
# 2 -0.003532 0.024734 -0.001242 0.000000 0.000000 0.000000
# 3 -0.003582 -0.001242 0.010187 0.000000 0.000000 0.000000
# 4 0.000000 0.000000 0.000000 0.057844 0.000000 0.000000
# 5 0.000000 0.000000 0.000000 0.000000 0.054176 0.000000
# 6 0.000000 0.000000 0.000000 0.000000 0.000000 0.046306
#
#
# Mechanical properties :
#
#
# Convention : Reuss Voigt Hill
#
# Bulk Modulus (GPa) = 32.10367 40.24110 36.17238
# Shear Modulus (GPa) = 21.43316 23.88368 22.65842
#
# Velocity S-wave (km/s) = 3.01658 3.18436 3.10161
# Velocity P-wave (km/s) = 5.07574 5.53220 5.30887
#
# Compressibility (1/GPa) = 0.03114909
#
# Stress axis : x y z
#
# Youngs Moduli (GPa) = 77.27874 40.42955 98.16486
#
# Poissons Ratio (x) = 0.14281 0.35161
# Poissons Ratio (y) = 0.27298 0.12192
# Poissons Ratio (z) = 0.27680 0.05021
#
# Static dielectric constant tensor:
#      x y z
#    x 2.105170 0.000000 0.000000 
#    y 0.000000 1.994820 0.000000 
#    z 0.000000 0.000000 1.906740 
# 
# From -- ./inp_files/4379.got.cif
#   From: 2010.05.17/outbox.cif.g08.bks.cpg/sg37_3_cif.got.tgz:4379.got - 2010.06.03 17:53:42.
