data_PCOD9354373
_publ_section_title
;
Structure prediction by ZEFSAII (Michael W. Deem and Ramdas Pophale) SiO2 
 PCOD9354373
Probable space group: C C C 2
;
_chemical_formula_sum "Si O2"
_cell_formula_units_Z 48
_cell_length_a 22.234023
_cell_length_b 15.170208
_cell_length_c 5.491890
_cell_angle_alpha 90.000000
_cell_angle_beta 90.000000
_cell_angle_gamma 90.000000
_cell_volume 1852.385684
_symmetry_space_group_name_H-M "C C C 2"
_symmetry_group_IT_number 37
_symmetry_cell_setting 'orthorhombic'
loop_
_space_group_symop_operation_xyz
x,y,z
-x,-y,z
-x,y,1/2+z
x,-y,1/2+z
1/2+x,1/2+y,z
1/2-x,1/2-y,z
1/2-x,1/2+y,1/2+z
1/2+x,1/2-y,1/2+z
loop_
_atom_site_type_symbol
_atom_site_label
_atom_site_fract_x
_atom_site_fract_y
_atom_site_fract_z
Si Si1 0.694196 0.793179 0.782950
Si Si2 0.145336 0.859353 0.589751
Si Si3 0.582759 0.231685 0.952179
Si Si4 0.983108 0.870615 0.966989
Si Si5 0.739738 0.039311 0.576650
Si Si6 0.568507 0.037997 0.770477
O O1 0.750000 0.750000 0.628795
O O2 0.630175 0.802259 0.650966
O O3 0.710584 0.880122 0.930064
O O4 0.685099 0.717683 0.980313
O O5 0.118222 0.813471 0.829060
O O6 0.187926 0.943659 0.590864
O O7 0.087447 0.867666 0.417057
O O8 0.570154 0.143884 0.792706
O O9 0.518973 0.277788 0.017459
O O10 0.987056 0.912400 0.232925
O O11 0.725594 0.035001 0.867691
O O12 0.500000 0.000000 0.764875
O O13 0.595658 0.004114 0.516843
#
# Coordination Sequence:
#
# PCOD9354373 Si02
#       6
#     8   8   8   8   8   8
#     4  10  24  44  72 105 138 189 247 299 355 446
#     4  10  24  43  73 106 141 190 250 298 360 447
#     4  11  24  40  74 101 149 187 252 290 366 441
#     4  10  21  36  66 102 138 178 235 295 356 426
#     4  11  28  49  74 103 147 192 242 313 379 421
#     4  10  25  38  58  93 150 190 219 273 347 425
#
# _framework density 25.912531999999999
#
# number of rings (size 3 to 8) (size 9 to 14) (size 15 to 20)
#    0.000    1.667    1.667    0.000   18.667    2.000 
#    0.000    0.000    0.000   12.000    0.000    0.000 
#    0.000    0.000    0.000    0.000    0.000    0.000 
#
# Total GULP energy -133811.929839 kJ/mol
# GULP energy per Si atom -5575.497077 kJ/mol
# Density = 2.585355 g / cm^3
# Si number density = 25.912532 Si / 1000 Ang^3
#
#
#
# Elastic Constant Matrix: (Units=GPa)
#
#
# Indices 1 2 3 4 5 6 
#
# 1 99.7734 34.6521 25.3068 0.0000 0.0000 0.0000
# 2 34.6521 82.3230 19.0316 0.0000 0.0000 0.0000
# 3 25.3068 19.0316 133.5923 0.0000 0.0000 0.0000
# 4 0.0000 0.0000 0.0000 -87.9744 0.0000 0.0000
# 5 0.0000 0.0000 0.0000 0.0000 60.9875 0.0000
# 6 0.0000 0.0000 0.0000 0.0000 0.0000 22.9338
#
#
#
# Elastic Compliance Matrix: (Units=1/GPa)
#
#
# Indices 1 2 3 4 5 6 
#
# 1 0.012067 -0.004706 -0.001615 0.000000 0.000000 0.000000
# 2 -0.004706 0.014396 -0.001159 0.000000 0.000000 0.000000
# 3 -0.001615 -0.001159 0.007957 0.000000 0.000000 0.000000
# 4 0.000000 0.000000 0.000000 -0.011367 0.000000 0.000000
# 5 0.000000 0.000000 0.000000 0.000000 0.016397 0.000000
# 6 0.000000 0.000000 0.000000 0.000000 0.000000 0.043604
#
#
# Mechanical properties :
#
#
# Convention : Reuss Voigt Hill
#
# Bulk Modulus (GPa) = 51.39226 52.62997 52.01112
# Shear Modulus (GPa) = 47.84653 14.96925 31.40789
#
# Velocity S-wave (km/s) = 4.30171 2.40611 3.48526
# Velocity P-wave (km/s) = 6.67450 5.29848 6.02590
#
# Compressibility (1/GPa) = 0.01945818
#
# Stress axis : x y z
#
# Youngs Moduli (GPa) = 82.87179 69.46307 125.68085
#
# Poissons Ratio (x) = 0.32688 0.20303
# Poissons Ratio (y) = 0.38998 0.14572
# Poissons Ratio (z) = 0.13388 0.08054
#
# Static dielectric constant tensor:
#      x y z
#    x 1.899230 0.000000 0.000000 
#    y 0.000000 2.118400 0.000000 
#    z 0.000000 0.000000 2.090010 
# 
# From -- ./inp_files/1188.got.cif
#   From: 2010.05.17/outbox.cif.g08.bks.cpg/sg37_1_cif.got.tgz:1188.got - 2010.06.03 17:53:42.
