data_PCOD9354578
_publ_section_title
;
Structure prediction by ZEFSAII (Michael W. Deem and Ramdas Pophale) SiO2 
 PCOD9354578
Probable space group: C C C 2
;
_chemical_formula_sum "Si O2"
_cell_formula_units_Z 40
_cell_length_a 7.712436
_cell_length_b 15.490282
_cell_length_c 15.415327
_cell_angle_alpha 90.000000
_cell_angle_beta 90.000000
_cell_angle_gamma 90.000000
_cell_volume 1841.635335
_symmetry_space_group_name_H-M "C C C 2"
_symmetry_group_IT_number 37
_symmetry_cell_setting 'orthorhombic'
loop_
_space_group_symop_operation_xyz
x,y,z
-x,-y,z
-x,y,1/2+z
x,-y,1/2+z
1/2+x,1/2+y,z
1/2-x,1/2-y,z
1/2-x,1/2+y,1/2+z
1/2+x,1/2-y,1/2+z
loop_
_atom_site_type_symbol
_atom_site_label
_atom_site_fract_x
_atom_site_fract_y
_atom_site_fract_z
Si Si1 0.986773 0.625312 0.672650
Si Si2 0.636431 0.830887 0.850592
Si Si3 0.125947 0.673181 0.990495
Si Si4 0.308171 0.516207 0.892488
Si Si5 0.305500 0.525623 0.692517
O O1 0.995241 0.660054 0.770190
O O2 0.910667 0.676617 0.592311
O O3 0.834140 0.552621 0.685122
O O4 0.182936 0.596983 0.647665
O O5 0.750000 0.750000 0.822962
O O6 0.547654 0.807693 0.939702
O O7 0.723178 0.923104 0.872713
O O8 0.250000 0.750000 0.964959
O O9 0.199717 0.581007 0.954028
O O10 0.500000 0.500000 0.929067
O O11 0.327858 0.552285 0.793908
O O12 0.500000 0.500000 0.661907
#
# Coordination Sequence:
#
# PCOD9354578 Si02
#       5
#     8   8   8   8   8
#     4  10  22  41  67  97 140 180 223 284 352 408
#     4  11  23  44  67  95 136 180 229 286 348 415
#     4  12  25  42  64 100 137 179 234 288 346 412
#     4  10  21  41  70  98 131 178 225 281 348 410
#     4   9  19  39  68 102 131 178 227 271 344 418
#
# _framework density 21.719825
#
# number of rings (size 3 to 8) (size 9 to 14) (size 15 to 20)
#    0.000    1.600    2.000    2.400    5.600    0.800 
#    3.600    1.000    0.000    0.000    0.000    0.000 
#    0.000    0.000    0.000    0.000    0.000    0.000 
#
# Total GULP energy -111334.913514 kJ/mol
# GULP energy per Si atom -5566.745676 kJ/mol
# Density = 2.167039 g / cm^3
# Si number density = 21.719825 Si / 1000 Ang^3
#
#
#
# Elastic Constant Matrix: (Units=GPa)
#
#
# Indices 1 2 3 4 5 6 
#
# 1 122.4217 18.7246 -0.7704 0.0000 0.0000 0.0000
# 2 18.7246 60.2510 4.2384 0.0000 0.0000 0.0000
# 3 -0.7704 4.2384 60.6649 0.0000 0.0000 0.0000
# 4 0.0000 0.0000 0.0000 10.7934 0.0000 0.0000
# 5 0.0000 0.0000 0.0000 0.0000 29.3236 0.0000
# 6 0.0000 0.0000 0.0000 0.0000 0.0000 29.1060
#
#
#
# Elastic Compliance Matrix: (Units=1/GPa)
#
#
# Indices 1 2 3 4 5 6 
#
# 1 0.008581 -0.002688 0.000297 0.000000 0.000000 0.000000
# 2 -0.002688 0.017521 -0.001258 0.000000 0.000000 0.000000
# 3 0.000297 -0.001258 0.016576 0.000000 0.000000 0.000000
# 4 0.000000 0.000000 0.000000 0.092649 0.000000 0.000000
# 5 0.000000 0.000000 0.000000 0.000000 0.034102 0.000000
# 6 0.000000 0.000000 0.000000 0.000000 0.000000 0.034357
#
#
# Mechanical properties :
#
#
# Convention : Reuss Voigt Hill
#
# Bulk Modulus (GPa) = 28.26485 31.96918 30.11702
# Shear Modulus (GPa) = 22.43375 28.58759 25.51067
#
# Velocity S-wave (km/s) = 3.21732 3.63188 3.43087
# Velocity P-wave (km/s) = 5.18104 5.68667 5.43973
#
# Compressibility (1/GPa) = 0.03537964
#
# Stress axis : x y z
#
# Youngs Moduli (GPa) = 116.53034 57.07418 60.32935
#
# Poissons Ratio (x) = 0.15340 -0.01790
# Poissons Ratio (y) = 0.31321 0.07591
# Poissons Ratio (z) = -0.03458 0.07181
#
# Static dielectric constant tensor:
#      x y z
#    x 1.797220 0.000000 0.000000 
#    y 0.000000 1.699700 0.000000 
#    z 0.000000 0.000000 1.754620 
# 
# From -- ./inp_files/10336.got.cif
#   From: 2010.05.17/outbox.cif.g08.bks.cpg/sg37_6_cif.got.tgz:10336.got - 2010.06.03 17:53:42.
