data_PCOD9354525
_publ_section_title
;
Structure prediction by ZEFSAII (Michael W. Deem and Ramdas Pophale) SiO2 
 PCOD9354525
Probable space group: C C C 2
;
_chemical_formula_sum "Si O2"
_cell_formula_units_Z 36
_cell_length_a 23.297247
_cell_length_b 12.017353
_cell_length_c 5.363295
_cell_angle_alpha 90.000000
_cell_angle_beta 90.000000
_cell_angle_gamma 90.000000
_cell_volume 1501.568358
_symmetry_space_group_name_H-M "C C C 2"
_symmetry_group_IT_number 37
_symmetry_cell_setting 'orthorhombic'
loop_
_space_group_symop_operation_xyz
x,y,z
-x,-y,z
-x,y,1/2+z
x,-y,1/2+z
1/2+x,1/2+y,z
1/2-x,1/2-y,z
1/2-x,1/2+y,1/2+z
1/2+x,1/2-y,1/2+z
loop_
_atom_site_type_symbol
_atom_site_label
_atom_site_fract_x
_atom_site_fract_y
_atom_site_fract_z
Si Si1 0.750000 0.250000 0.733040
Si Si2 0.294628 0.540008 0.502986
Si Si3 0.076455 0.051350 0.458401
Si Si4 0.656924 0.070511 0.841169
Si Si5 0.462337 0.199667 0.359388
O O1 0.709424 0.331339 0.570441
O O2 0.704513 0.169781 0.871010
O O3 0.267081 0.521854 0.237066
O O4 0.355864 0.478629 0.473801
O O5 0.061918 0.173996 0.370323
O O6 0.055959 0.967727 0.241024
O O7 0.593459 0.122653 0.867136
O O8 0.660661 0.021648 0.559527
O O9 0.501838 0.183487 0.604570
#
# Coordination Sequence:
#
# PCOD9354525 Si02
#       5
#     4   8   8   8   8
#     4  12  26  48  76 110 150 194 246 300 372 446
#     4  10  22  40  66  98 139 185 230 292 355 423
#     4  10  21  40  66 100 140 182 231 294 359 421
#     4  12  29  50  77 111 147 194 247 303 368 438
#     4  12  27  47  75 107 145 196 249 305 368 437
#
# _framework density 23.974930000000001
#
# number of rings (size 3 to 8) (size 9 to 14) (size 15 to 20)
#    0.000    0.889    0.000    6.667    0.000   14.222 
#    0.000    0.000    0.000    0.000    0.000    0.000 
#    0.000    0.000    0.000    0.000    0.000    0.000 
#
# Total GULP energy -100598.465563 kJ/mol
# GULP energy per Si atom -5588.803642 kJ/mol
# Density = 2.392036 g / cm^3
# Si number density = 23.974930 Si / 1000 Ang^3
#
#
#
# Elastic Constant Matrix: (Units=GPa)
#
#
# Indices 1 2 3 4 5 6 
#
# 1 162.5543 51.2183 43.0305 0.0000 0.0000 0.0000
# 2 51.2183 102.0742 47.8458 0.0000 0.0000 0.0000
# 3 43.0305 47.8458 189.3141 0.0000 0.0000 0.0000
# 4 0.0000 0.0000 0.0000 25.8144 0.0000 0.0000
# 5 0.0000 0.0000 0.0000 0.0000 42.0681 0.0000
# 6 0.0000 0.0000 0.0000 0.0000 0.0000 59.4002
#
#
#
# Elastic Compliance Matrix: (Units=1/GPa)
#
#
# Indices 1 2 3 4 5 6 
#
# 1 0.007425 -0.003329 -0.000846 0.000000 0.000000 0.000000
# 2 -0.003329 0.012606 -0.002429 0.000000 0.000000 0.000000
# 3 -0.000846 -0.002429 0.006089 0.000000 0.000000 0.000000
# 4 0.000000 0.000000 0.000000 0.038738 0.000000 0.000000
# 5 0.000000 0.000000 0.000000 0.000000 0.023771 0.000000
# 6 0.000000 0.000000 0.000000 0.000000 0.000000 0.016835
#
#
# Mechanical properties :
#
#
# Convention : Reuss Voigt Hill
#
# Bulk Modulus (GPa) = 77.45794 82.01465 79.73630
# Shear Modulus (GPa) = 40.65858 46.24641 43.45249
#
# Velocity S-wave (km/s) = 4.12257 4.39674 4.26186
# Velocity P-wave (km/s) = 7.41882 7.74970 7.58606
#
# Compressibility (1/GPa) = 0.01291023
#
# Stress axis : x y z
#
# Youngs Moduli (GPa) = 134.68589 79.32856 164.24286
#
# Poissons Ratio (x) = 0.26407 0.13900
# Poissons Ratio (y) = 0.44835 0.39899
# Poissons Ratio (z) = 0.11399 0.19271
#
# Static dielectric constant tensor:
#      x y z
#    x 2.045480 0.000000 0.000000 
#    y 0.000000 1.909430 0.000000 
#    z 0.000000 0.000000 1.947770 
# 
# From -- ./inp_files/1153.got.cif
#   From: 2010.05.17/outbox.cif.g08.bks.cpg/sg37_1_cif.got.tgz:1153.got - 2010.06.03 17:53:42.
