data_PCOD9354604
_publ_section_title
;
Structure prediction by ZEFSAII (Michael W. Deem and Ramdas Pophale) SiO2 
 PCOD9354604
Probable space group: C C C 2
;
_chemical_formula_sum "Si O2"
_cell_formula_units_Z 56
_cell_length_a 14.509965
_cell_length_b 5.628971
_cell_length_c 29.711860
_cell_angle_alpha 90.000000
_cell_angle_beta 90.000000
_cell_angle_gamma 90.000000
_cell_volume 2426.750994
_symmetry_space_group_name_H-M "C C C 2"
_symmetry_group_IT_number 37
_symmetry_cell_setting 'orthorhombic'
loop_
_space_group_symop_operation_xyz
x,y,z
-x,-y,z
-x,y,1/2+z
x,-y,1/2+z
1/2+x,1/2+y,z
1/2-x,1/2-y,z
1/2-x,1/2+y,1/2+z
1/2+x,1/2-y,1/2+z
loop_
_atom_site_type_symbol
_atom_site_label
_atom_site_fract_x
_atom_site_fract_y
_atom_site_fract_z
Si Si1 0.593825 0.645035 0.605060
Si Si2 0.500000 0.000000 0.044816
Si Si3 0.604567 0.908990 0.790591
Si Si4 0.890629 0.545679 0.895270
Si Si5 0.346621 0.627639 0.524341
Si Si6 0.390289 0.457105 0.434563
Si Si7 0.650481 0.371088 0.205541
Si Si8 0.250000 0.250000 0.244732
O O1 0.500000 0.500000 0.602291
O O2 0.575231 0.881949 0.577614
O O3 0.660805 0.486327 0.574314
O O4 0.609772 0.686484 0.657477
O O5 0.563497 0.803331 0.020126
O O6 0.605145 0.704673 0.752565
O O7 0.500000 0.000000 0.787931
O O8 0.620957 0.873675 0.843396
O O9 0.690039 0.075327 0.775511
O O10 0.854742 0.777742 0.921659
O O11 0.000000 0.500000 0.903218
O O12 0.856296 0.278537 0.907965
O O13 0.250000 0.750000 0.514740
O O14 0.366804 0.425916 0.487111
O O15 0.500000 0.500000 0.427498
O O16 0.750000 0.250000 0.205370
O O17 0.672293 0.646057 0.211685
#
# Coordination Sequence:
#
# PCOD9354604 Si02
#       8
#     8   4   8   8   8   8   8   4
#     4  10  24  41  65  98 131 181 230 284 353 421
#     4  10  24  44  68  90 142 182 222 296 352 412
#     4  10  23  42  67  99 129 178 229 282 355 427
#     4   9  21  40  69 102 135 180 231 289 358 420
#     4  11  26  43  67 102 135 181 238 282 360 426
#     4  10  21  42  70 100 139 181 233 291 353 424
#     4  10  24  40  64  97 132 178 230 282 355 415
#     4  10  24  42  62  90 136 176 220 290 350 412
#
# _framework density 23.076121000000001
#
# number of rings (size 3 to 8) (size 9 to 14) (size 15 to 20)
#    0.000    2.000    0.000    1.286   13.000    2.286 
#    2.571    0.000    0.000    0.000    0.000    0.000 
#    0.000    0.000    0.000    0.000    0.000    0.000 
#
# Total GULP energy -156021.339752 kJ/mol
# GULP energy per Si atom -5572.190705 kJ/mol
# Density = 2.302360 g / cm^3
# Si number density = 23.076121 Si / 1000 Ang^3
#
#
#
# Elastic Constant Matrix: (Units=GPa)
#
#
# Indices 1 2 3 4 5 6 
#
# 1 71.5636 8.4525 15.7064 0.0000 0.0000 0.0000
# 2 8.4525 85.2134 52.7871 0.0000 0.0000 0.0000
# 3 15.7064 52.7871 134.2456 0.0000 0.0000 0.0000
# 4 0.0000 0.0000 0.0000 190.1537 0.0000 0.0000
# 5 0.0000 0.0000 0.0000 0.0000 23.1588 0.0000
# 6 0.0000 0.0000 0.0000 0.0000 0.0000 5.1267
#
#
#
# Elastic Compliance Matrix: (Units=1/GPa)
#
#
# Indices 1 2 3 4 5 6 
#
# 1 0.014358 -0.000507 -0.001480 0.000000 0.000000 0.000000
# 2 -0.000507 0.015532 -0.006048 0.000000 0.000000 0.000000
# 3 -0.001480 -0.006048 0.010000 0.000000 0.000000 0.000000
# 4 0.000000 0.000000 0.000000 0.005259 0.000000 0.000000
# 5 0.000000 0.000000 0.000000 0.000000 0.043180 0.000000
# 6 0.000000 0.000000 0.000000 0.000000 0.000000 0.195057
#
#
# Mechanical properties :
#
#
# Convention : Reuss Voigt Hill
#
# Bulk Modulus (GPa) = 41.98227 49.43494 45.70861
# Shear Modulus (GPa) = 16.26553 57.95960 37.11257
#
# Velocity S-wave (km/s) = 2.65781 5.01709 4.01467
# Velocity P-wave (km/s) = 5.25843 7.41827 6.42969
#
# Compressibility (1/GPa) = 0.02381958
#
# Stress axis : x y z
#
# Youngs Moduli (GPa) = 69.64559 64.38243 99.99545
#
# Poissons Ratio (x) = 0.03265 0.14804
# Poissons Ratio (y) = 0.03532 0.60479
# Poissons Ratio (z) = 0.10311 0.38939
#
# Static dielectric constant tensor:
#      x y z
#    x 1.841150 0.000000 0.000000 
#    y 0.000000 1.773220 0.000000 
#    z 0.000000 0.000000 1.984980 
# 
# From -- ./inp_files/20556.got.cif
#   From: 2010.05.17/outbox.cif.g08.bks.cpg/sg37_11_cif.got.tgz:20556.got - 2010.06.03 17:53:42.
