data_PCOD9354625
_publ_section_title
;
Structure prediction by ZEFSAII (Michael W. Deem and Ramdas Pophale) SiO2 
 PCOD9354625
Probable space group: C C C 2
;
_chemical_formula_sum "Si O2"
_cell_formula_units_Z 24
_cell_length_a 6.760734
_cell_length_b 12.484975
_cell_length_c 10.686809
_cell_angle_alpha 90.000000
_cell_angle_beta 90.000000
_cell_angle_gamma 90.000000
_cell_volume 902.047846
_symmetry_space_group_name_H-M "C C C 2"
_symmetry_group_IT_number 37
_symmetry_cell_setting 'orthorhombic'
loop_
_space_group_symop_operation_xyz
x,y,z
-x,-y,z
-x,y,1/2+z
x,-y,1/2+z
1/2+x,1/2+y,z
1/2-x,1/2-y,z
1/2-x,1/2+y,1/2+z
1/2+x,1/2-y,1/2+z
loop_
_atom_site_type_symbol
_atom_site_label
_atom_site_fract_x
_atom_site_fract_y
_atom_site_fract_z
Si Si1 0.294356 0.606438 0.746510
Si Si2 0.170731 0.363371 0.769134
Si Si3 0.936847 0.122520 0.482199
O O1 0.283894 0.474714 0.733752
O O2 0.397952 0.655257 0.624197
O O3 0.060797 0.627721 0.749502
O O4 0.403469 0.651700 0.872216
O O5 0.250000 0.250000 0.717231
O O6 0.223926 0.362794 0.916419
O O7 0.000000 0.000000 0.493608
#
# Coordination Sequence:
#
# PCOD9354625 Si02
#       3
#     8   8   8
#     4  10  23  44  76 102 154 195 251 312 389 448
#     4  10  23  44  71 113 146 200 257 313 379 460
#     4  10  21  43  70 102 146 201 241 310 381 449
#
# _framework density 26.60613
#
# number of rings (size 3 to 8) (size 9 to 14) (size 15 to 20)
#    0.000    2.000    0.000    3.000    0.000   14.667 
#   18.000    0.000    0.000    0.000    0.000    2.333 
#    0.000    0.000    0.000    0.000    0.000    0.000 
#
# Total GULP energy -66886.696449 kJ/mol
# GULP energy per Si atom -5573.891371 kJ/mol
# Density = 2.654557 g / cm^3
# Si number density = 26.606130 Si / 1000 Ang^3
#
#
#
# Elastic Constant Matrix: (Units=GPa)
#
#
# Indices 1 2 3 4 5 6 
#
# 1 201.0680 43.1230 125.0787 0.0000 0.0000 0.0000
# 2 43.1230 162.5245 46.6047 0.0000 0.0000 0.0000
# 3 125.0787 46.6047 205.0234 0.0000 0.0000 0.0000
# 4 0.0000 0.0000 0.0000 13.3834 0.0000 0.0000
# 5 0.0000 0.0000 0.0000 0.0000 8.9580 0.0000
# 6 0.0000 0.0000 0.0000 0.0000 0.0000 37.5813
#
#
#
# Elastic Compliance Matrix: (Units=1/GPa)
#
#
# Indices 1 2 3 4 5 6 
#
# 1 0.008108 -0.000784 -0.004768 0.000000 0.000000 0.000000
# 2 -0.000784 0.006658 -0.001035 0.000000 0.000000 0.000000
# 3 -0.004768 -0.001035 0.008022 0.000000 0.000000 0.000000
# 4 0.000000 0.000000 0.000000 0.074719 0.000000 0.000000
# 5 0.000000 0.000000 0.000000 0.000000 0.111632 0.000000
# 6 0.000000 0.000000 0.000000 0.000000 0.000000 0.026609
#
#
# Mechanical properties :
#
#
# Convention : Reuss Voigt Hill
#
# Bulk Modulus (GPa) = 104.02815 110.91431 107.47123
# Shear Modulus (GPa) = 19.83136 35.57185 27.70161
#
# Velocity S-wave (km/s) = 2.73310 3.66044 3.23022
# Velocity P-wave (km/s) = 7.01028 7.72289 7.37520
#
# Compressibility (1/GPa) = 0.00961278
#
# Stress axis : x y z
#
# Youngs Moduli (GPa) = 123.34073 150.20073 124.66316
#
# Poissons Ratio (x) = 0.11775 0.59440
# Poissons Ratio (y) = 0.09669 0.12904
# Poissons Ratio (z) = 0.58809 0.15548
#
# Static dielectric constant tensor:
#      x y z
#    x 2.127730 0.000000 0.000000 
#    y 0.000000 2.270500 0.000000 
#    z 0.000000 0.000000 2.122360 
# 
# From -- ./inp_files/1929.got.cif
#   From: 2010.05.17/outbox.cif.g08.bks.cpg/sg37_1_cif.got.tgz:1929.got - 2010.06.03 17:53:42.
