data_PCOD9354083
_publ_section_title
;
Structure prediction by ZEFSAII (Michael W. Deem and Ramdas Pophale) SiO2 
 PCOD9354083
Probable space group: C C C 2
;
_chemical_formula_sum "Si O2"
_cell_formula_units_Z 64
_cell_length_a 19.790628
_cell_length_b 13.012306
_cell_length_c 12.315497
_cell_angle_alpha 90.000000
_cell_angle_beta 90.000000
_cell_angle_gamma 90.000000
_cell_volume 3171.507816
_symmetry_space_group_name_H-M "C C C 2"
_symmetry_group_IT_number 37
_symmetry_cell_setting 'orthorhombic'
loop_
_space_group_symop_operation_xyz
x,y,z
-x,-y,z
-x,y,1/2+z
x,-y,1/2+z
1/2+x,1/2+y,z
1/2-x,1/2-y,z
1/2-x,1/2+y,1/2+z
1/2+x,1/2-y,1/2+z
loop_
_atom_site_type_symbol
_atom_site_label
_atom_site_fract_x
_atom_site_fract_y
_atom_site_fract_z
Si Si1 0.810971 0.437725 0.105810
Si Si2 0.682619 0.598230 0.457572
Si Si3 0.907546 0.864558 0.745448
Si Si4 0.086888 0.725878 0.032173
Si Si5 0.061530 0.233301 0.972987
Si Si6 0.928476 0.032092 0.582372
Si Si7 0.765005 0.071133 0.315151
Si Si8 0.798519 0.336486 0.527290
O O1 0.876109 0.380194 0.059776
O O2 0.796107 0.419510 0.231808
O O3 0.811106 0.560382 0.094405
O O4 0.747512 0.393870 0.036104
O O5 0.637450 0.701717 0.459867
O O6 0.632703 0.514588 0.513302
O O7 0.710030 0.544290 0.347663
O O8 0.921351 0.788104 0.645755
O O9 0.827709 0.870410 0.763265
O O10 0.926530 0.977186 0.699137
O O11 0.938123 0.828961 0.859162
O O12 0.011880 0.715509 0.984097
O O13 0.071634 0.153239 0.072554
O O14 0.129108 0.299941 0.982346
O O15 0.000000 0.000000 0.530969
O O16 0.745532 0.125472 0.425747
O O17 0.750000 0.250000 0.580663
#
# Coordination Sequence:
#
# PCOD9354083 Si02
#       8
#     8   8   8   8   8   8   8   8
#     4  11  23  42  66  93 130 171 230 269 323 394
#     4  10  20  37  61  96 130 164 211 272 326 381
#     4  11  22  37  67  97 124 180 214 269 332 410
#     4  11  24  41  63  98 133 177 218 274 327 407
#     4  12  23  43  62  95 138 174 219 271 341 396
#     4  11  20  37  58  99 135 164 214 269 334 392
#     4  11  21  38  71  98 122 173 221 271 327 398
#     4  11  24  43  69  94 127 170 225 278 329 397
#
# _framework density 20.179676000000001
#
# number of rings (size 3 to 8) (size 9 to 14) (size 15 to 20)
#    0.000    1.000    7.500    1.875    0.000    2.000 
#    0.000    5.000    0.000    4.500    0.000    0.000 
#    0.000    0.000    0.000    0.000    0.000    0.000 
#
# Total GULP energy -178525.291006 kJ/mol
# GULP energy per Si atom -5578.915344 kJ/mol
# Density = 2.013375 g / cm^3
# Si number density = 20.179676 Si / 1000 Ang^3
#
#
#
# Elastic Constant Matrix: (Units=GPa)
#
#
# Indices 1 2 3 4 5 6 
#
# 1 107.8345 37.4991 19.1147 0.0000 0.0000 0.0000
# 2 37.4991 77.2130 5.2593 0.0000 0.0000 0.0000
# 3 19.1147 5.2593 33.0290 0.0000 0.0000 0.0000
# 4 0.0000 0.0000 0.0000 10.3997 0.0000 0.0000
# 5 0.0000 0.0000 0.0000 0.0000 21.0825 0.0000
# 6 0.0000 0.0000 0.0000 0.0000 0.0000 35.5512
#
#
#
# Elastic Compliance Matrix: (Units=1/GPa)
#
#
# Indices 1 2 3 4 5 6 
#
# 1 0.012311 -0.005554 -0.006240 0.000000 0.000000 0.000000
# 2 -0.005554 0.015599 0.000730 0.000000 0.000000 0.000000
# 3 -0.006240 0.000730 0.033771 0.000000 0.000000 0.000000
# 4 0.000000 0.000000 0.000000 0.096156 0.000000 0.000000
# 5 0.000000 0.000000 0.000000 0.000000 0.047433 0.000000
# 6 0.000000 0.000000 0.000000 0.000000 0.000000 0.028128
#
#
# Mechanical properties :
#
#
# Convention : Reuss Voigt Hill
#
# Bulk Modulus (GPa) = 25.28219 37.98029 31.63124
# Shear Modulus (GPa) = 18.60736 23.82025 21.21380
#
# Velocity S-wave (km/s) = 3.03988 3.43943 3.24581
# Velocity P-wave (km/s) = 4.98767 5.88514 5.45489
#
# Compressibility (1/GPa) = 0.03955353
#
# Stress axis : x y z
#
# Youngs Moduli (GPa) = 81.22846 64.10782 29.61077
#
# Poissons Ratio (x) = 0.35605 0.18478
# Poissons Ratio (y) = 0.45113 -0.02163
# Poissons Ratio (z) = 0.50689 -0.04682
#
# Static dielectric constant tensor:
#      x y z
#    x 1.730650 0.000000 0.000000 
#    y 0.000000 1.786300 0.000000 
#    z 0.000000 0.000000 1.713550 
# 
# From -- ./inp_files/8358.got.cif
#   From: 2010.05.17/outbox.cif.g08.bks.cpg/sg37_5_cif.got.tgz:8358.got - 2010.06.03 17:53:42.
