data_PCOD9354165
_publ_section_title
;
Structure prediction by ZEFSAII (Michael W. Deem and Ramdas Pophale) SiO2 
 PCOD9354165
Probable space group: C C C 2
;
_chemical_formula_sum "Si O2"
_cell_formula_units_Z 60
_cell_length_a 7.526535
_cell_length_b 24.710098
_cell_length_c 15.669591
_cell_angle_alpha 90.000000
_cell_angle_beta 90.000000
_cell_angle_gamma 90.000000
_cell_volume 2914.252745
_symmetry_space_group_name_H-M "C C C 2"
_symmetry_group_IT_number 37
_symmetry_cell_setting 'orthorhombic'
loop_
_space_group_symop_operation_xyz
x,y,z
-x,-y,z
-x,y,1/2+z
x,-y,1/2+z
1/2+x,1/2+y,z
1/2-x,1/2-y,z
1/2-x,1/2+y,1/2+z
1/2+x,1/2-y,1/2+z
loop_
_atom_site_type_symbol
_atom_site_label
_atom_site_fract_x
_atom_site_fract_y
_atom_site_fract_z
Si Si1 0.548682 0.092890 0.760930
Si Si2 0.461525 0.059865 0.948361
Si Si3 0.558434 0.559364 0.979533
Si Si4 0.379368 0.206644 0.346183
Si Si5 0.406798 0.555342 0.684766
Si Si6 0.748231 0.640724 0.499812
Si Si7 0.691674 0.642276 0.696238
Si Si8 0.250000 0.250000 0.806633
O O1 0.525202 0.062987 0.850902
O O2 0.608033 0.153445 0.788033
O O3 0.701756 0.062672 0.709020
O O4 0.360677 0.103272 0.715413
O O5 0.253894 0.073116 0.947571
O O6 0.576847 0.102827 0.000535
O O7 0.500000 0.000000 0.982838
O O8 0.500000 0.500000 0.947990
O O9 0.409366 0.603775 0.960811
O O10 0.573706 0.555918 0.082296
O O11 0.250000 0.250000 0.304320
O O12 0.294567 0.188532 0.435663
O O13 0.574920 0.231879 0.357675
O O14 0.500000 0.500000 0.715730
O O15 0.518613 0.606806 0.717410
O O16 0.696736 0.655942 0.595631
O O17 0.703541 0.697322 0.749779
#
# Coordination Sequence:
#
# PCOD9354165 Si02
#       8
#     8   8   8   8   8   8   8   4
#     4  10  23  39  56  91 122 160 204 252 313 376
#     4  11  22  36  57  86 129 167 204 252 311 370
#     4  10  20  39  60  86 121 168 203 251 306 371
#     4  10  22  40  63  87 122 160 203 262 319 368
#     4  10  22  38  61  90 124 161 208 252 312 374
#     4  10  22  39  63  94 120 162 216 257 308 382
#     4  10  22  41  65  89 121 164 211 260 313 377
#     4  10  22  42  68  88 128 162 206 266 332 370
#
# _framework density 20.588467999999999
#
# number of rings (size 3 to 8) (size 9 to 14) (size 15 to 20)
#    0.000    1.867    1.333    1.600    2.800    5.333 
#    0.000    0.000    5.867    0.000    0.000    0.000 
#    0.000    0.000    0.000    0.000    0.000    0.000 
#
# Total GULP energy -167648.795261 kJ/mol
# GULP energy per Si atom -5588.293175 kJ/mol
# Density = 2.054161 g / cm^3
# Si number density = 20.588468 Si / 1000 Ang^3
#
#
#
# Elastic Constant Matrix: (Units=GPa)
#
#
# Indices 1 2 3 4 5 6 
#
# 1 125.5975 32.3884 7.0629 0.0000 0.0000 0.0000
# 2 32.3884 83.8963 7.5720 0.0000 0.0000 0.0000
# 3 7.0629 7.5720 31.8633 0.0000 0.0000 0.0000
# 4 0.0000 0.0000 0.0000 -1.0343 0.0000 0.0000
# 5 0.0000 0.0000 0.0000 0.0000 -24.1609 0.0000
# 6 0.0000 0.0000 0.0000 0.0000 0.0000 31.3877
#
#
#
# Elastic Compliance Matrix: (Units=1/GPa)
#
#
# Indices 1 2 3 4 5 6 
#
# 1 0.008885 -0.003324 -0.001180 0.000000 0.000000 0.000000
# 2 -0.003324 0.013424 -0.002453 0.000000 0.000000 0.000000
# 3 -0.001180 -0.002453 0.032229 0.000000 0.000000 0.000000
# 4 0.000000 0.000000 0.000000 -0.966847 0.000000 0.000000
# 5 0.000000 0.000000 0.000000 0.000000 -0.041389 0.000000
# 6 0.000000 0.000000 0.000000 0.000000 0.000000 0.031860
#
#
# Mechanical properties :
#
#
# Convention : Reuss Voigt Hill
#
# Bulk Modulus (GPa) = 24.61572 37.26706 30.94139
# Shear Modulus (GPa) = -5.59044 14.19408 4.30182
#
# Velocity S-wave (km/s) = -1.64961 2.62853 1.44705
# Velocity P-wave (km/s) = 2.89028 5.22996 4.22529
#
# Compressibility (1/GPa) = 0.04062445
#
# Stress axis : x y z
#
# Youngs Moduli (GPa) = 112.54424 74.49320 31.02833
#
# Poissons Ratio (x) = 0.24760 0.03660
# Poissons Ratio (y) = 0.37407 0.07612
# Poissons Ratio (z) = 0.13277 0.18276
#
# Static dielectric constant tensor:
#      x y z
#    x 1.731480 0.000000 0.000000 
#    y 0.000000 1.666670 0.000000 
#    z 0.000000 0.000000 1.731140 
# 
# From -- ./inp_files/14031.got.cif
#   From: 2010.05.17/outbox.cif.g08.bks.cpg/sg37_8_cif.got.tgz:14031.got - 2010.06.03 17:53:42.
