data_PCOD9354690
_publ_section_title
;
Structure prediction by ZEFSAII (Michael W. Deem and Ramdas Pophale) SiO2 
 PCOD9354690
Probable space group: C C C 2
;
_chemical_formula_sum "Si O2"
_cell_formula_units_Z 60
_cell_length_a 15.081942
_cell_length_b 21.971308
_cell_length_c 8.844000
_cell_angle_alpha 90.000000
_cell_angle_beta 90.000000
_cell_angle_gamma 90.000000
_cell_volume 2930.636217
_symmetry_space_group_name_H-M "C C C 2"
_symmetry_group_IT_number 37
_symmetry_cell_setting 'orthorhombic'
loop_
_space_group_symop_operation_xyz
x,y,z
-x,-y,z
-x,y,1/2+z
x,-y,1/2+z
1/2+x,1/2+y,z
1/2-x,1/2-y,z
1/2-x,1/2+y,1/2+z
1/2+x,1/2-y,1/2+z
loop_
_atom_site_type_symbol
_atom_site_label
_atom_site_fract_x
_atom_site_fract_y
_atom_site_fract_z
Si Si1 0.871395 0.526274 0.978560
Si Si2 0.583040 0.799119 0.329509
Si Si3 0.248558 0.623876 0.350891
Si Si4 0.290195 0.108386 0.497102
Si Si5 0.500000 0.000000 0.234222
Si Si6 0.924164 0.851292 0.001048
Si Si7 0.396352 0.793048 0.480181
Si Si8 0.608850 0.347394 0.847955
O O1 0.791840 0.571614 0.957109
O O2 0.940429 0.540245 0.843970
O O3 0.834883 0.457448 0.967543
O O4 0.929685 0.533188 0.128054
O O5 0.643199 0.840172 0.437028
O O6 0.481539 0.810054 0.379125
O O7 0.596522 0.815471 0.153409
O O8 0.609456 0.727305 0.348952
O O9 0.227497 0.613155 0.175948
O O10 0.352279 0.623463 0.384425
O O11 0.194071 0.683248 0.405847
O O12 0.197876 0.122606 0.412151
O O13 0.905282 0.779225 0.991948
O O14 0.906348 0.867865 0.174926
O O15 0.023671 0.864254 0.948842
#
# Coordination Sequence:
#
# PCOD9354690 Si02
#       8
#     8   8   8   8   4   8   8   8
#     4  11  26  42  63  92 122 162 203 244 301 358
#     4  10  22  37  60  91 125 163 202 246 304 362
#     4  12  25  39  62  91 123 161 205 251 302 361
#     4  12  25  39  62  91 123 161 205 251 302 361
#     4  10  24  46  64  82 130 162 200 246 296 356
#     4  10  22  42  64  89 122 161 203 253 304 356
#     4  10  22  37  60  91 125 163 202 246 304 362
#     4  10  22  42  64  89 122 161 203 253 304 356
#
# _framework density 20.473371
#
# number of rings (size 3 to 8) (size 9 to 14) (size 15 to 20)
#    0.000    1.333    1.333    3.200    7.467    6.400 
#    0.000    0.667    0.000    3.200    0.000    0.000 
#    0.000    0.000    0.000    0.000    0.000    0.000 
#
# Total GULP energy -167645.864120 kJ/mol
# GULP energy per Si atom -5588.195471 kJ/mol
# Density = 2.042677 g / cm^3
# Si number density = 20.473371 Si / 1000 Ang^3
#
#
#
# Elastic Constant Matrix: (Units=GPa)
#
#
# Indices 1 2 3 4 5 6 
#
# 1 93.6631 17.3165 7.5764 0.0000 0.0000 0.0000
# 2 17.3165 39.7026 12.1829 0.0000 0.0000 0.0000
# 3 7.5764 12.1829 91.1925 0.0000 0.0000 0.0000
# 4 0.0000 0.0000 0.0000 7.8573 0.0000 0.0000
# 5 0.0000 0.0000 0.0000 0.0000 36.1511 0.0000
# 6 0.0000 0.0000 0.0000 0.0000 0.0000 5.5763
#
#
#
# Elastic Compliance Matrix: (Units=1/GPa)
#
#
# Indices 1 2 3 4 5 6 
#
# 1 0.011621 -0.004976 -0.000301 0.000000 0.000000 0.000000
# 2 -0.004976 0.028395 -0.003380 0.000000 0.000000 0.000000
# 3 -0.000301 -0.003380 0.011442 0.000000 0.000000 0.000000
# 4 0.000000 0.000000 0.000000 0.127270 0.000000 0.000000
# 5 0.000000 0.000000 0.000000 0.000000 0.027662 0.000000
# 6 0.000000 0.000000 0.000000 0.000000 0.000000 0.179329
#
#
# Mechanical properties :
#
#
# Convention : Reuss Voigt Hill
#
# Bulk Modulus (GPa) = 29.28750 33.18998 31.23874
# Shear Modulus (GPa) = 12.06522 22.41578 17.24050
#
# Velocity S-wave (km/s) = 2.43021 3.31248 2.90503
# Velocity P-wave (km/s) = 4.71283 5.55666 5.15205
#
# Compressibility (1/GPa) = 0.03414426
#
# Stress axis : x y z
#
# Youngs Moduli (GPa) = 86.05193 35.21764 87.39469
#
# Poissons Ratio (x) = 0.17525 0.02628
# Poissons Ratio (y) = 0.42822 0.29539
# Poissons Ratio (z) = 0.02587 0.11904
#
# Static dielectric constant tensor:
#      x y z
#    x 1.730090 0.000000 0.000000 
#    y 0.000000 1.743270 0.000000 
#    z 0.000000 0.000000 1.728630 
# 
# From -- ./inp_files/3737.got.cif
#   From: 2010.05.17/outbox.cif.g08.bks.cpg/sg37_2_cif.got.tgz:3737.got - 2010.06.03 17:53:42.
