data_PCOD9354224
_publ_section_title
;
Structure prediction by ZEFSAII (Michael W. Deem and Ramdas Pophale) SiO2 
 PCOD9354224
Probable space group: C C C 2
;
_chemical_formula_sum "Si O2"
_cell_formula_units_Z 40
_cell_length_a 15.305167
_cell_length_b 10.680402
_cell_length_c 9.219102
_cell_angle_alpha 90.000000
_cell_angle_beta 90.000000
_cell_angle_gamma 90.000000
_cell_volume 1507.003608
_symmetry_space_group_name_H-M "C C C 2"
_symmetry_group_IT_number 37
_symmetry_cell_setting 'orthorhombic'
loop_
_space_group_symop_operation_xyz
x,y,z
-x,-y,z
-x,y,1/2+z
x,-y,1/2+z
1/2+x,1/2+y,z
1/2-x,1/2-y,z
1/2-x,1/2+y,1/2+z
1/2+x,1/2-y,1/2+z
loop_
_atom_site_type_symbol
_atom_site_label
_atom_site_fract_x
_atom_site_fract_y
_atom_site_fract_z
Si Si1 0.000000 0.000000 0.383230
Si Si2 0.698884 0.517820 0.812980
Si Si3 0.347214 0.148815 0.665339
Si Si4 0.500000 0.000000 0.566560
Si Si5 0.927751 0.746239 0.959204
Si Si6 0.750000 0.750000 0.025784
Si Si7 0.250000 0.250000 0.415424
O O1 0.905818 0.998345 0.302289
O O2 0.983980 0.128430 0.471512
O O3 0.752041 0.586952 0.687151
O O4 0.730199 0.613407 0.943480
O O5 0.736288 0.378505 0.830264
O O6 0.415622 0.037245 0.656852
O O7 0.379816 0.232137 0.801388
O O8 0.333780 0.224919 0.518469
O O9 0.516915 0.122667 0.474333
O O10 0.849597 0.735271 0.077204
#
# Coordination Sequence:
#
# PCOD9354224 Si02
#       7
#     4   8   8   4   8   4   4
#     4  10  20  40  66  90 128 168 206 278 338 380
#     4  10  22  41  66  98 134 176 231 283 335 416
#     4  11  23  42  65  96 136 179 222 281 345 403
#     4  12  24  40  68  96 130 182 230 280 344 402
#     4  10  21  41  64  93 128 172 227 280 333 412
#     4   8  17  38  61  82 130 174 201 274 345 376
#     4  12  23  42  71  98 132 186 231 280 347 406
#
# _framework density 26.542736000000001
#
# number of rings (size 3 to 8) (size 9 to 14) (size 15 to 20)
#    0.000    1.600    0.000    7.800    0.000    1.600 
#    0.000   21.000    0.000    0.000    0.000    0.000 
#    0.000    0.000    0.000    0.000    0.000    0.000 
#
# Total GULP energy -111569.620703 kJ/mol
# GULP energy per Si atom -5578.481035 kJ/mol
# Density = 2.648232 g / cm^3
# Si number density = 26.542736 Si / 1000 Ang^3
#
#
#
# Elastic Constant Matrix: (Units=GPa)
#
#
# Indices 1 2 3 4 5 6 
#
# 1 200.9503 72.1738 12.1718 0.0000 0.0000 0.0000
# 2 72.1738 221.4715 22.3614 0.0000 0.0000 0.0000
# 3 12.1718 22.3614 32.6300 0.0000 0.0000 0.0000
# 4 0.0000 0.0000 0.0000 30.8994 0.0000 0.0000
# 5 0.0000 0.0000 0.0000 0.0000 21.5130 0.0000
# 6 0.0000 0.0000 0.0000 0.0000 0.0000 69.1646
#
#
#
# Elastic Compliance Matrix: (Units=1/GPa)
#
#
# Indices 1 2 3 4 5 6 
#
# 1 0.005661 -0.001753 -0.000910 0.000000 0.000000 0.000000
# 2 -0.001753 0.005394 -0.003042 0.000000 0.000000 0.000000
# 3 -0.000910 -0.003042 0.033071 0.000000 0.000000 0.000000
# 4 0.000000 0.000000 0.000000 0.032363 0.000000 0.000000
# 5 0.000000 0.000000 0.000000 0.000000 0.046484 0.000000
# 6 0.000000 0.000000 0.000000 0.000000 0.000000 0.014458
#
#
# Mechanical properties :
#
#
# Convention : Reuss Voigt Hill
#
# Bulk Modulus (GPa) = 30.56754 74.27399 52.42076
# Shear Modulus (GPa) = 31.29944 47.53839 39.41892
#
# Velocity S-wave (km/s) = 3.43769 4.23663 3.85790
# Velocity P-wave (km/s) = 5.22478 7.20941 6.29579
#
# Compressibility (1/GPa) = 0.03271444
#
# Stress axis : x y z
#
# Youngs Moduli (GPa) = 176.64454 185.40194 30.23775
#
# Poissons Ratio (x) = 0.32500 0.02753
# Poissons Ratio (y) = 0.30964 0.09200
# Poissons Ratio (z) = 0.16083 0.56407
#
# Static dielectric constant tensor:
#      x y z
#    x 2.126160 0.000000 0.000000 
#    y 0.000000 2.045780 0.000000 
#    z 0.000000 0.000000 2.244180 
# 
# From -- ./inp_files/7090.got.cif
#   From: 2010.05.17/outbox.cif.g08.bks.cpg/sg37_4_cif.got.tgz:7090.got - 2010.06.03 17:53:42.
