data_PCOD9354256
_publ_section_title
;
Structure prediction by ZEFSAII (Michael W. Deem and Ramdas Pophale) SiO2 
 PCOD9354256
Probable space group: C C C 2
;
_chemical_formula_sum "Si O2"
_cell_formula_units_Z 40
_cell_length_a 24.260385
_cell_length_b 6.352360
_cell_length_c 12.561943
_cell_angle_alpha 90.000000
_cell_angle_beta 90.000000
_cell_angle_gamma 90.000000
_cell_volume 1935.929820
_symmetry_space_group_name_H-M "C C C 2"
_symmetry_group_IT_number 37
_symmetry_cell_setting 'orthorhombic'
loop_
_space_group_symop_operation_xyz
x,y,z
-x,-y,z
-x,y,1/2+z
x,-y,1/2+z
1/2+x,1/2+y,z
1/2-x,1/2-y,z
1/2-x,1/2+y,1/2+z
1/2+x,1/2-y,1/2+z
loop_
_atom_site_type_symbol
_atom_site_label
_atom_site_fract_x
_atom_site_fract_y
_atom_site_fract_z
Si Si1 0.897539 0.856521 0.670800
Si Si2 0.750000 0.250000 0.352966
Si Si3 0.801265 0.866547 0.216662
Si Si4 0.953236 0.350159 0.970568
Si Si5 0.353099 0.023020 0.840072
Si Si6 0.000000 0.000000 0.813774
O O1 0.923093 0.778279 0.561863
O O2 0.870461 0.666041 0.738846
O O3 0.946986 0.948158 0.742091
O O4 0.850260 0.029495 0.650578
O O5 0.726148 0.441599 0.282035
O O6 0.804437 0.354556 0.403436
O O7 0.750000 0.750000 0.160652
O O8 0.829236 0.698026 0.296505
O O9 0.906709 0.482256 0.909635
O O10 0.000000 0.500000 0.018655
O O11 0.983161 0.195625 0.887700
#
# Coordination Sequence:
#
# PCOD9354256 Si02
#       6
#     8   4   8   8   8   4
#     4  11  24  40  67  96 132 173 221 276 334 397
#     4   8  18  36  70  92 118 176 214 266 344 390
#     4   9  18  39  71  90 127 171 211 274 341 388
#     4  12  26  40  66  99 133 178 228 268 344 408
#     4  10  20  41  67  91 131 167 217 280 332 395
#     4  12  24  44  62  98 134 176 224 278 328 400
#
# _framework density 20.661906999999999
#
# number of rings (size 3 to 8) (size 9 to 14) (size 15 to 20)
#    0.000    1.600    4.000    0.600    2.800    1.600 
#    0.000    0.000   52.800    0.000    0.000    0.000 
#    0.000    0.000    0.000    0.000    0.000    0.000 
#
# Total GULP energy -111662.566878 kJ/mol
# GULP energy per Si atom -5583.128344 kJ/mol
# Density = 2.061488 g / cm^3
# Si number density = 20.661907 Si / 1000 Ang^3
#
#
#
# Elastic Constant Matrix: (Units=GPa)
#
#
# Indices 1 2 3 4 5 6 
#
# 1 173.6940 65.5849 37.3038 0.0000 0.0000 0.0000
# 2 65.5849 98.9440 15.7576 0.0000 0.0000 0.0000
# 3 37.3038 15.7576 47.7906 0.0000 0.0000 0.0000
# 4 0.0000 0.0000 0.0000 4.1928 0.0000 0.0000
# 5 0.0000 0.0000 0.0000 0.0000 -7.9499 0.0000
# 6 0.0000 0.0000 0.0000 0.0000 0.0000 69.7398
#
#
#
# Elastic Compliance Matrix: (Units=1/GPa)
#
#
# Indices 1 2 3 4 5 6 
#
# 1 0.008750 -0.004973 -0.005190 0.000000 0.000000 0.000000
# 2 -0.004973 0.013494 -0.000567 0.000000 0.000000 0.000000
# 3 -0.005190 -0.000567 0.025163 0.000000 0.000000 0.000000
# 4 0.000000 0.000000 0.000000 0.238506 0.000000 0.000000
# 5 0.000000 0.000000 0.000000 0.000000 -0.125788 0.000000
# 6 0.000000 0.000000 0.000000 0.000000 0.000000 0.014339
#
#
# Mechanical properties :
#
#
# Convention : Reuss Voigt Hill
#
# Bulk Modulus (GPa) = 38.54267 61.96902 50.25584
# Shear Modulus (GPa) = 24.44129 26.64868 25.54499
#
# Velocity S-wave (km/s) = 3.44309 3.59520 3.51997
# Velocity P-wave (km/s) = 5.87375 6.87685 6.39500
#
# Compressibility (1/GPa) = 0.02594527
#
# Stress axis : x y z
#
# Youngs Moduli (GPa) = 114.28957 74.10960 39.74128
#
# Poissons Ratio (x) = 0.36856 0.20626
# Poissons Ratio (y) = 0.56838 0.02254
# Poissons Ratio (z) = 0.59316 0.04204
#
# Static dielectric constant tensor:
#      x y z
#    x 1.753400 0.000000 0.000000 
#    y 0.000000 1.741650 0.000000 
#    z 0.000000 0.000000 1.675280 
# 
# From -- ./inp_files/5543.got.cif
#   From: 2010.05.17/outbox.cif.g08.bks.cpg/sg37_3_cif.got.tgz:5543.got - 2010.06.03 17:53:42.
