data_PCOD9354670
_publ_section_title
;
Structure prediction by ZEFSAII (Michael W. Deem and Ramdas Pophale) SiO2 
 PCOD9354670
Probable space group: C C C 2
;
_chemical_formula_sum "Si O2"
_cell_formula_units_Z 40
_cell_length_a 11.413447
_cell_length_b 20.393260
_cell_length_c 8.461837
_cell_angle_alpha 90.000000
_cell_angle_beta 90.000000
_cell_angle_gamma 90.000000
_cell_volume 1969.555113
_symmetry_space_group_name_H-M "C C C 2"
_symmetry_group_IT_number 37
_symmetry_cell_setting 'orthorhombic'
loop_
_space_group_symop_operation_xyz
x,y,z
-x,-y,z
-x,y,1/2+z
x,-y,1/2+z
1/2+x,1/2+y,z
1/2-x,1/2-y,z
1/2-x,1/2+y,1/2+z
1/2+x,1/2-y,1/2+z
loop_
_atom_site_type_symbol
_atom_site_label
_atom_site_fract_x
_atom_site_fract_y
_atom_site_fract_z
Si Si1 0.354501 0.292309 0.886750
Si Si2 0.472800 0.223880 0.179544
Si Si3 0.858414 0.069258 0.904534
Si Si4 0.322640 0.817953 0.964563
Si Si5 0.625175 0.426615 0.524627
O O1 0.250000 0.250000 0.815713
O O2 0.465578 0.284365 0.772221
O O3 0.318448 0.364718 0.935946
O O4 0.393184 0.254738 0.044883
O O5 0.395401 0.182920 0.300819
O O6 0.577608 0.183619 0.098554
O O7 0.767989 0.122576 0.970530
O O8 0.862936 0.074650 0.713966
O O9 0.987677 0.079581 0.978119
O O10 0.828475 0.995139 0.956134
O O11 0.250000 0.750000 0.964827
#
# Coordination Sequence:
#
# PCOD9354670 Si02
#       5
#     8   8   8   8   8
#     4  11  21  36  59  84 114 151 191 246 297 349
#     4  10  22  36  59  91 119 152 203 243 297 374
#     4  11  23  38  61  89 125 159 195 256 316 363
#     4  11  22  39  62  90 124 161 200 253 307 363
#     4  11  22  37  59  91 121 154 202 250 309 373
#
# _framework density 20.309153999999999
#
# number of rings (size 3 to 8) (size 9 to 14) (size 15 to 20)
#    0.000    1.200    0.000    9.600    0.000    4.800 
#    0.000    0.000    0.000   20.400    0.000    0.000 
#    0.000    0.000    0.000    0.000    0.000    0.000 
#
# Total GULP energy -111871.915780 kJ/mol
# GULP energy per Si atom -5593.595789 kJ/mol
# Density = 2.026293 g / cm^3
# Si number density = 20.309154 Si / 1000 Ang^3
#
#
#
# Elastic Constant Matrix: (Units=GPa)
#
#
# Indices 1 2 3 4 5 6 
#
# 1 84.9545 59.3075 23.4432 0.0000 0.0000 0.0000
# 2 59.3075 148.6978 15.2232 0.0000 0.0000 0.0000
# 3 23.4432 15.2232 79.3147 0.0000 0.0000 0.0000
# 4 0.0000 0.0000 0.0000 9.8561 0.0000 0.0000
# 5 0.0000 0.0000 0.0000 0.0000 4373.4671 0.0000
# 6 0.0000 0.0000 0.0000 0.0000 0.0000 38.3192
#
#
#
# Elastic Compliance Matrix: (Units=1/GPa)
#
#
# Indices 1 2 3 4 5 6 
#
# 1 0.017416 -0.006548 -0.003891 0.000000 0.000000 0.000000
# 2 -0.006548 0.009322 0.000146 0.000000 0.000000 0.000000
# 3 -0.003891 0.000146 0.013730 0.000000 0.000000 0.000000
# 4 0.000000 0.000000 0.000000 0.101460 0.000000 0.000000
# 5 0.000000 0.000000 0.000000 0.000000 0.000229 0.000000
# 6 0.000000 0.000000 0.000000 0.000000 0.000000 0.026097
#
#
# Mechanical properties :
#
#
# Convention : Reuss Voigt Hill
#
# Bulk Modulus (GPa) = 50.29574 56.54610 53.42092
# Shear Modulus (GPa) = 25.58006 898.66137 462.12072
#
# Velocity S-wave (km/s) = 3.55284 21.05829 15.10090
# Velocity P-wave (km/s) = 6.45361 24.88316 18.17719
#
# Compressibility (1/GPa) = 0.01988240
#
# Stress axis : x y z
#
# Youngs Moduli (GPa) = 57.41901 107.27681 72.83338
#
# Poissons Ratio (x) = 0.70244 0.28339
# Poissons Ratio (y) = 0.37597 -0.01065
# Poissons Ratio (z) = 0.22341 -0.01569
#
# Static dielectric constant tensor:
#      x y z
#    x -2.757870 0.000000 0.000000 
#    y 0.000000 1.725750 0.000000 
#    z 0.000000 0.000000 1.744020 
# 
# From -- ./inp_files/2700.got.cif
#   From: 2010.05.17/outbox.cif.g08.bks.cpg/sg37_2_cif.got.tgz:2700.got - 2010.06.03 17:53:42.
