data_PCOD9354210
_publ_section_title
;
Structure prediction by ZEFSAII (Michael W. Deem and Ramdas Pophale) SiO2 
 PCOD9354210
Probable space group: C C C 2
;
_chemical_formula_sum "Si O2"
_cell_formula_units_Z 40
_cell_length_a 5.551696
_cell_length_b 14.141781
_cell_length_c 24.076204
_cell_angle_alpha 90.000000
_cell_angle_beta 90.000000
_cell_angle_gamma 90.000000
_cell_volume 1890.243699
_symmetry_space_group_name_H-M "C C C 2"
_symmetry_group_IT_number 37
_symmetry_cell_setting 'orthorhombic'
loop_
_space_group_symop_operation_xyz
x,y,z
-x,-y,z
-x,y,1/2+z
x,-y,1/2+z
1/2+x,1/2+y,z
1/2-x,1/2-y,z
1/2-x,1/2+y,1/2+z
1/2+x,1/2-y,1/2+z
loop_
_atom_site_type_symbol
_atom_site_label
_atom_site_fract_x
_atom_site_fract_y
_atom_site_fract_z
Si Si1 0.124822 0.650267 0.363870
Si Si2 0.000000 0.500000 0.956044
Si Si3 0.250000 0.250000 0.289061
Si Si4 0.884722 0.900584 0.754045
Si Si5 0.000000 0.000000 0.524786
Si Si6 0.499510 0.706810 0.069327
Si Si7 0.250000 0.750000 0.178158
O O1 0.250000 0.750000 0.378960
O O2 0.051145 0.588540 0.415747
O O3 0.285378 0.595757 0.317369
O O4 0.894114 0.680361 0.328983
O O5 0.750595 0.490863 0.990219
O O6 0.419840 0.317244 0.254534
O O7 0.699919 0.846766 0.713016
O O8 0.000000 0.000000 0.737795
O O9 0.011173 0.904523 0.560008
O O10 0.750000 0.750000 0.047929
O O11 0.464062 0.729964 0.134286
O O12 0.250000 0.750000 0.043610
#
# Coordination Sequence:
#
# PCOD9354210 Si02
#       7
#     8   4   4   8   4   8   4
#     4  10  23  41  64 100 145 184 227 285 340 429
#     4  12  28  44  74 106 136 192 238 286 366 418
#     4  10  20  40  63  94 152 179 232 270 334 410
#     4  11  22  40  67 101 142 182 226 285 341 429
#     4  12  28  50  74 104 136 184 250 298 360 408
#     4  10  25  48  74 100 141 173 239 305 350 421
#     4  10  24  42  69 106 132 189 234 276 376 416
#
# _framework density 21.161292
#
# number of rings (size 3 to 8) (size 9 to 14) (size 15 to 20)
#    0.600    0.800    3.000    2.400    9.800    2.400 
#    0.000    2.000    0.000    0.000    0.000    0.000 
#    0.000    0.000    0.000    0.000    0.000    0.000 
#
# Total GULP energy -111515.506600 kJ/mol
# GULP energy per Si atom -5575.775330 kJ/mol
# Density = 2.111313 g / cm^3
# Si number density = 21.161292 Si / 1000 Ang^3
#
#
#
# Elastic Constant Matrix: (Units=GPa)
#
#
# Indices 1 2 3 4 5 6 
#
# 1 114.4433 37.0854 39.7715 0.0000 0.0000 0.0000
# 2 37.0854 144.4959 53.8659 0.0000 0.0000 0.0000
# 3 39.7715 53.8659 66.0332 0.0000 0.0000 0.0000
# 4 0.0000 0.0000 0.0000 501.1224 0.0000 0.0000
# 5 0.0000 0.0000 0.0000 0.0000 15.3773 0.0000
# 6 0.0000 0.0000 0.0000 0.0000 0.0000 22.3247
#
#
#
# Elastic Compliance Matrix: (Units=1/GPa)
#
#
# Indices 1 2 3 4 5 6 
#
# 1 0.011077 -0.000511 -0.006255 0.000000 0.000000 0.000000
# 2 -0.000511 0.009968 -0.007824 0.000000 0.000000 0.000000
# 3 -0.006255 -0.007824 0.025293 0.000000 0.000000 0.000000
# 4 0.000000 0.000000 0.000000 0.001996 0.000000 0.000000
# 5 0.000000 0.000000 0.000000 0.000000 0.065031 0.000000
# 6 0.000000 0.000000 0.000000 0.000000 0.000000 0.044793
#
#
# Mechanical properties :
#
#
# Convention : Reuss Voigt Hill
#
# Bulk Modulus (GPa) = 58.27682 65.15755 61.71719
# Shear Modulus (GPa) = 25.89902 120.71486 73.30694
#
# Velocity S-wave (km/s) = 3.50220 7.56102 5.89213
# Velocity P-wave (km/s) = 6.62971 10.34809 8.69011
#
# Compressibility (1/GPa) = 0.01715948
#
# Stress axis : x y z
#
# Youngs Moduli (GPa) = 90.27481 100.31721 39.53656
#
# Poissons Ratio (x) = 0.05130 0.24729
# Poissons Ratio (y) = 0.04617 0.30932
# Poissons Ratio (z) = 0.56464 0.78484
#
# Static dielectric constant tensor:
#      x y z
#    x 1.936290 0.000000 0.000000 
#    y 0.000000 1.608700 0.000000 
#    z 0.000000 0.000000 1.780050 
# 
# From -- ./inp_files/17911.got.cif
#   From: 2010.05.17/outbox.cif.g08.bks.cpg/sg37_9_cif.got.tgz:17911.got - 2010.06.03 17:53:42.
