data_PCOD9354803
_publ_section_title
;
Structure prediction by ZEFSAII (Michael W. Deem and Ramdas Pophale) SiO2 
 PCOD9354803
Probable space group: C C C 2
;
_chemical_formula_sum "Si O2"
_cell_formula_units_Z 60
_cell_length_a 10.037572
_cell_length_b 12.814731
_cell_length_c 19.207601
_cell_angle_alpha 90.000000
_cell_angle_beta 90.000000
_cell_angle_gamma 90.000000
_cell_volume 2470.650381
_symmetry_space_group_name_H-M "C C C 2"
_symmetry_group_IT_number 37
_symmetry_cell_setting 'orthorhombic'
loop_
_space_group_symop_operation_xyz
x,y,z
-x,-y,z
-x,y,1/2+z
x,-y,1/2+z
1/2+x,1/2+y,z
1/2-x,1/2-y,z
1/2-x,1/2+y,1/2+z
1/2+x,1/2-y,1/2+z
loop_
_atom_site_type_symbol
_atom_site_label
_atom_site_fract_x
_atom_site_fract_y
_atom_site_fract_z
Si Si1 0.864083 0.928917 0.571090
Si Si2 0.000000 0.000000 0.847165
Si Si3 0.371853 0.684773 0.934103
Si Si4 0.892361 0.695994 0.787701
Si Si5 0.212462 0.398143 0.146641
Si Si6 0.715979 0.981773 0.290972
Si Si7 0.951123 0.607883 0.418936
Si Si8 0.021237 0.236485 0.150334
O O1 0.821420 0.891169 0.494789
O O2 0.903615 0.826058 0.613807
O O3 0.752364 0.994128 0.610731
O O4 0.000000 0.000000 0.564283
O O5 0.965252 0.106701 0.889859
O O6 0.867734 0.984074 0.802614
O O7 0.250000 0.750000 0.896958
O O8 0.435179 0.789908 0.967286
O O9 0.750000 0.750000 0.796425
O O10 0.865065 0.579100 0.761014
O O11 0.956227 0.667652 0.861711
O O12 0.981574 0.756139 0.731817
O O13 0.207478 0.398953 0.230492
O O14 0.072530 0.348751 0.124526
O O15 0.345706 0.330037 0.134713
O O16 0.659016 0.942223 0.364724
O O17 0.000000 0.500000 0.452923
#
# Coordination Sequence:
#
# PCOD9354803 Si02
#       8
#     8   4   8   8   8   8   8   8
#     4  10  23  44  66  98 136 182 243 293 344 425
#     4  12  26  42  72 104 130 190 238 292 370 418
#     4  12  25  46  70  95 138 186 245 296 341 431
#     4  11  22  37  61 100 141 176 222 285 359 432
#     4  10  22  40  68 103 137 175 230 287 350 431
#     4  11  23  39  67 101 137 176 224 292 359 431
#     4  10  23  43  64 100 143 179 232 292 359 429
#     4  10  22  40  66  98 136 181 222 284 357 412
#
# _framework density 24.285102999999999
#
# number of rings (size 3 to 8) (size 9 to 14) (size 15 to 20)
#    0.000    1.333    3.333    1.600    6.533    1.600 
#    2.400    0.000    8.800    0.000    0.000    0.000 
#    0.000    0.000    0.000    0.000    0.000    0.000 
#
# Total GULP energy -167157.637510 kJ/mol
# GULP energy per Si atom -5571.921250 kJ/mol
# Density = 2.422983 g / cm^3
# Si number density = 24.285103 Si / 1000 Ang^3
#
#
#
# Elastic Constant Matrix: (Units=GPa)
#
#
# Indices 1 2 3 4 5 6 
#
# 1 76.6700 43.1501 6.4361 0.0000 0.0000 0.0000
# 2 43.1501 143.5988 33.2187 0.0000 0.0000 0.0000
# 3 6.4361 33.2187 46.6362 0.0000 0.0000 0.0000
# 4 0.0000 0.0000 0.0000 21.8506 0.0000 0.0000
# 5 0.0000 0.0000 0.0000 0.0000 9.1410 0.0000
# 6 0.0000 0.0000 0.0000 0.0000 0.0000 43.8062
#
#
#
# Elastic Compliance Matrix: (Units=1/GPa)
#
#
# Indices 1 2 3 4 5 6 
#
# 1 0.015778 -0.005073 0.001436 0.000000 0.000000 0.000000
# 2 -0.005073 0.009969 -0.006401 0.000000 0.000000 0.000000
# 3 0.001436 -0.006401 0.025804 0.000000 0.000000 0.000000
# 4 0.000000 0.000000 0.000000 0.045765 0.000000 0.000000
# 5 0.000000 0.000000 0.000000 0.000000 0.109397 0.000000
# 6 0.000000 0.000000 0.000000 0.000000 0.000000 0.022828
#
#
# Mechanical properties :
#
#
# Convention : Reuss Voigt Hill
#
# Bulk Modulus (GPa) = 31.77158 48.05721 39.91439
# Shear Modulus (GPa) = 19.22280 27.23288 23.22784
#
# Velocity S-wave (km/s) = 2.81650 3.35234 3.09603
# Velocity P-wave (km/s) = 4.86703 5.90050 5.40851
#
# Compressibility (1/GPa) = 0.03147467
#
# Stress axis : x y z
#
# Youngs Moduli (GPa) = 63.38097 100.31098 38.75433
#
# Poissons Ratio (x) = 0.50891 -0.05566
# Poissons Ratio (y) = 0.32155 0.24806
# Poissons Ratio (z) = -0.09103 0.64206
#
# Static dielectric constant tensor:
#      x y z
#    x 2.500260 0.000000 0.000000 
#    y 0.000000 2.101270 0.000000 
#    z 0.000000 0.000000 1.898310 
# 
# From -- ./inp_files/16922.got.cif
#   From: 2010.05.17/outbox.cif.g08.bks.cpg/sg37_9_cif.got.tgz:16922.got - 2010.06.03 17:53:42.
