data_PCOD9354964
_publ_section_title
;
Structure prediction by ZEFSAII (Michael W. Deem and Ramdas Pophale) SiO2 
 PCOD9354964
Probable space group: C C C 2
;
_chemical_formula_sum "Si O2"
_cell_formula_units_Z 64
_cell_length_a 14.466147
_cell_length_b 19.280235
_cell_length_c 10.817340
_cell_angle_alpha 90.000000
_cell_angle_beta 90.000000
_cell_angle_gamma 90.000000
_cell_volume 3017.072020
_symmetry_space_group_name_H-M "C C C 2"
_symmetry_group_IT_number 37
_symmetry_cell_setting 'orthorhombic'
loop_
_space_group_symop_operation_xyz
x,y,z
-x,-y,z
-x,y,1/2+z
x,-y,1/2+z
1/2+x,1/2+y,z
1/2-x,1/2-y,z
1/2-x,1/2+y,1/2+z
1/2+x,1/2-y,1/2+z
loop_
_atom_site_type_symbol
_atom_site_label
_atom_site_fract_x
_atom_site_fract_y
_atom_site_fract_z
Si Si1 0.261468 0.424237 0.713450
Si Si2 0.687623 0.811425 0.855937
Si Si3 0.733647 0.926554 0.286112
Si Si4 0.939788 0.931504 0.368029
Si Si5 0.323094 0.805023 0.642015
Si Si6 0.454866 0.618292 0.138784
Si Si7 0.464099 0.778940 0.172673
Si Si8 0.813256 0.321455 0.998321
O O1 0.246804 0.380608 0.838206
O O2 0.209732 0.496535 0.737026
O O3 0.368949 0.430668 0.678349
O O4 0.225989 0.371908 0.606582
O O5 0.750000 0.750000 0.800040
O O6 0.592854 0.815890 0.781162
O O7 0.668852 0.793640 0.996059
O O8 0.829928 0.939362 0.357972
O O9 0.724474 0.878915 0.165269
O O10 0.683605 0.872476 0.380353
O O11 0.964126 0.886299 0.490341
O O12 0.964122 0.903979 0.231115
O O13 0.000000 0.000000 0.388019
O O14 0.250000 0.750000 0.695360
O O15 0.427732 0.793390 0.686356
O O16 0.440475 0.697628 0.176825
O O17 0.415835 0.802163 0.044495
O O18 0.750000 0.250000 0.986503
#
# Coordination Sequence:
#
# PCOD9354964 Si02
#       8
#     8   8   8   8   8   8   8   8
#     4  11  22  42  70 100 134 192 241 303 370 447
#     4  10  22  44  70 103 136 188 245 297 364 444
#     4  12  26  43  70 104 150 187 242 320 377 444
#     4  12  26  41  65 106 154 195 242 298 386 464
#     4  11  27  44  69 108 146 185 243 316 370 434
#     4  12  24  41  70 108 143 199 249 307 365 461
#     4  11  23  44  75 100 138 197 251 302 368 454
#     4  11  22  45  75 102 139 195 256 299 376 467
#
# _framework density 21.212619
#
# number of rings (size 3 to 8) (size 9 to 14) (size 15 to 20)
#    0.000    0.750    5.000    2.250    5.250    1.000 
#    0.000    2.500    0.000    0.000    0.000    0.000 
#    0.000    0.000    0.000    0.000    0.000    0.000 
#
# Total GULP energy -178287.093777 kJ/mol
# GULP energy per Si atom -5571.471681 kJ/mol
# Density = 2.116434 g / cm^3
# Si number density = 21.212619 Si / 1000 Ang^3
#
#
#
# Elastic Constant Matrix: (Units=GPa)
#
#
# Indices 1 2 3 4 5 6 
#
# 1 98.3763 20.9083 25.9470 0.0000 0.0000 0.0000
# 2 20.9083 126.0778 8.0888 0.0000 0.0000 0.0000
# 3 25.9470 8.0888 75.5364 0.0000 0.0000 0.0000
# 4 0.0000 0.0000 0.0000 18.2176 0.0000 0.0000
# 5 0.0000 0.0000 0.0000 0.0000 18.2263 0.0000
# 6 0.0000 0.0000 0.0000 0.0000 0.0000 20.4898
#
#
#
# Elastic Compliance Matrix: (Units=1/GPa)
#
#
# Indices 1 2 3 4 5 6 
#
# 1 0.011516 -0.001667 -0.003777 0.000000 0.000000 0.000000
# 2 -0.001667 0.008228 -0.000308 0.000000 0.000000 0.000000
# 3 -0.003777 -0.000308 0.014569 0.000000 0.000000 0.000000
# 4 0.000000 0.000000 0.000000 0.054892 0.000000 0.000000
# 5 0.000000 0.000000 0.000000 0.000000 0.054866 0.000000
# 6 0.000000 0.000000 0.000000 0.000000 0.000000 0.048805
#
#
# Mechanical properties :
#
#
# Convention : Reuss Voigt Hill
#
# Bulk Modulus (GPa) = 43.84615 45.54208 44.69412
# Shear Modulus (GPa) = 23.58680 27.72317 25.65499
#
# Velocity S-wave (km/s) = 3.33817 3.61906 3.48145
# Velocity P-wave (km/s) = 5.96427 6.24334 6.10540
#
# Compressibility (1/GPa) = 0.02280702
#
# Stress axis : x y z
#
# Youngs Moduli (GPa) = 86.83830 121.53760 68.63829
#
# Poissons Ratio (x) = 0.20265 0.25925
# Poissons Ratio (y) = 0.14479 0.02116
# Poissons Ratio (z) = 0.32800 0.03747
#
# Static dielectric constant tensor:
#      x y z
#    x 1.796550 0.000000 0.000000 
#    y 0.000000 1.798140 0.000000 
#    z 0.000000 0.000000 1.878590 
# 
# From -- ./inp_files/7999.got.cif
#   From: 2010.05.17/outbox.cif.g08.bks.cpg/sg37_4_cif.got.tgz:7999.got - 2010.06.03 17:53:42.
