data_PCOD9354079
_publ_section_title
;
Structure prediction by ZEFSAII (Michael W. Deem and Ramdas Pophale) SiO2 
 PCOD9354079
Probable space group: C C C 2
;
_chemical_formula_sum "Si O2"
_cell_formula_units_Z 40
_cell_length_a 7.235453
_cell_length_b 8.313274
_cell_length_c 28.570664
_cell_angle_alpha 90.000000
_cell_angle_beta 90.000000
_cell_angle_gamma 90.000000
_cell_volume 1718.534105
_symmetry_space_group_name_H-M "C C C 2"
_symmetry_group_IT_number 37
_symmetry_cell_setting 'orthorhombic'
loop_
_space_group_symop_operation_xyz
x,y,z
-x,-y,z
-x,y,1/2+z
x,-y,1/2+z
1/2+x,1/2+y,z
1/2-x,1/2-y,z
1/2-x,1/2+y,1/2+z
1/2+x,1/2-y,1/2+z
loop_
_atom_site_type_symbol
_atom_site_label
_atom_site_fract_x
_atom_site_fract_y
_atom_site_fract_z
Si Si1 0.964877 0.689278 0.676330
Si Si2 0.543293 0.186949 0.979623
Si Si3 0.966050 0.807550 0.775641
Si Si4 0.034858 0.811037 0.077278
Si Si5 0.041205 0.190262 0.875774
O O1 0.750000 0.750000 0.677223
O O2 0.042861 0.744554 0.726474
O O3 0.042227 0.758684 0.627723
O O4 0.000000 0.500000 0.673872
O O5 0.750000 0.250000 0.986060
O O6 0.504038 0.253265 0.927920
O O7 0.500000 0.000000 0.976478
O O8 0.454005 0.241124 0.028846
O O9 0.750000 0.750000 0.775231
O O10 0.042408 0.747209 0.826184
O O11 0.000000 0.000000 0.775086
O O12 0.250000 0.750000 0.079261
O O13 0.000000 0.000000 0.073963
O O14 0.250000 0.250000 0.871568
O O15 0.000000 0.000000 0.875898
#
# Coordination Sequence:
#
# PCOD9354079 Si02
#       5
#     8   8   8   8   8
#     4  10  21  41  65  94 128 166 210 260 316 376
#     4  11  23  39  59  91 128 166 210 260 316 375
#     4   9  19  37  60  89 125 164 209 258 313 373
#     4  10  22  42  66  94 128 166 211 260 316 376
#     4  10  20  37  61  88 122 166 212 260 313 374
#
# _framework density 23.275652999999998
#
# number of rings (size 3 to 8) (size 9 to 14) (size 15 to 20)
#    0.000    2.000    0.000    3.000    0.000    2.400 
#    0.000   28.000    0.000    0.000    0.000    0.000 
#    0.000    0.000    0.000    0.000    0.000    0.000 
#
# Total GULP energy -111355.032755 kJ/mol
# GULP energy per Si atom -5567.751638 kJ/mol
# Density = 2.322268 g / cm^3
# Si number density = 23.275653 Si / 1000 Ang^3
#
#
#
# Elastic Constant Matrix: (Units=GPa)
#
#
# Indices 1 2 3 4 5 6 
#
# 1 136.6339 24.0220 6.6917 0.0000 0.0000 0.0000
# 2 24.0220 153.7623 57.8798 0.0000 0.0000 0.0000
# 3 6.6917 57.8798 331.0774 0.0000 0.0000 0.0000
# 4 0.0000 0.0000 0.0000 68.9631 0.0000 0.0000
# 5 0.0000 0.0000 0.0000 0.0000 -8.2666 0.0000
# 6 0.0000 0.0000 0.0000 0.0000 0.0000 38.4086
#
#
#
# Elastic Compliance Matrix: (Units=1/GPa)
#
#
# Indices 1 2 3 4 5 6 
#
# 1 0.007527 -0.001197 0.000057 0.000000 0.000000 0.000000
# 2 -0.001197 0.007152 -0.001226 0.000000 0.000000 0.000000
# 3 0.000057 -0.001226 0.003234 0.000000 0.000000 0.000000
# 4 0.000000 0.000000 0.000000 0.014501 0.000000 0.000000
# 5 0.000000 0.000000 0.000000 0.000000 -0.120969 0.000000
# 6 0.000000 0.000000 0.000000 0.000000 0.000000 0.026036
#
#
# Mechanical properties :
#
#
# Convention : Reuss Voigt Hill
#
# Bulk Modulus (GPa) = 75.87446 88.74006 82.30726
# Shear Modulus (GPa) = -93.64291 55.34637 -19.14827
#
# Velocity S-wave (km/s) = -6.34976 4.88163 -2.87134
# Velocity P-wave (km/s) = 4.59242 8.36553 4.94428
#
# Compressibility (1/GPa) = 0.01317967
#
# Stress axis : x y z
#
# Youngs Moduli (GPa) = 132.86311 139.81779 309.24848
#
# Poissons Ratio (x) = 0.16742 -0.01769
# Poissons Ratio (y) = 0.15909 0.37919
# Poissons Ratio (z) = -0.00760 0.17144
#
# Static dielectric constant tensor:
#      x y z
#    x 5.038980 0.000000 0.000000 
#    y 0.000000 1.778050 0.000000 
#    z 0.000000 0.000000 1.991180 
# 
# From -- ./inp_files/19618.got.cif
#   From: 2010.05.17/outbox.cif.g08.bks.cpg/sg37_10_cif.got.tgz:19618.got - 2010.06.03 17:53:42.
