data_PCOD9354771
_publ_section_title
;
Structure prediction by ZEFSAII (Michael W. Deem and Ramdas Pophale) SiO2 
 PCOD9354771
Probable space group: C C C 2
;
_chemical_formula_sum "Si O2"
_cell_formula_units_Z 60
_cell_length_a 10.445326
_cell_length_b 31.214595
_cell_length_c 8.960020
_cell_angle_alpha 90.000000
_cell_angle_beta 90.000000
_cell_angle_gamma 90.000000
_cell_volume 2921.384243
_symmetry_space_group_name_H-M "C C C 2"
_symmetry_group_IT_number 37
_symmetry_cell_setting 'orthorhombic'
loop_
_space_group_symop_operation_xyz
x,y,z
-x,-y,z
-x,y,1/2+z
x,-y,1/2+z
1/2+x,1/2+y,z
1/2-x,1/2-y,z
1/2-x,1/2+y,1/2+z
1/2+x,1/2-y,1/2+z
loop_
_atom_site_type_symbol
_atom_site_label
_atom_site_fract_x
_atom_site_fract_y
_atom_site_fract_z
Si Si1 0.486196 0.667607 0.184870
Si Si2 0.755114 0.040305 0.977947
Si Si3 0.146654 0.375401 0.390846
Si Si4 0.500000 0.000000 0.553251
Si Si5 0.606934 0.472608 0.274626
Si Si6 0.318626 0.704466 0.926297
Si Si7 0.624951 0.610956 0.937527
Si Si8 0.901698 0.407479 0.573050
O O1 0.593789 0.691983 0.282740
O O2 0.390690 0.645438 0.304363
O O3 0.409189 0.698017 0.071126
O O4 0.553954 0.631184 0.081134
O O5 0.613705 0.020923 0.961017
O O6 0.789759 0.041280 0.152403
O O7 0.754054 0.088240 0.918503
O O8 0.839609 0.007331 0.888337
O O9 0.207060 0.330885 0.436665
O O10 0.114184 0.378436 0.217845
O O11 0.021247 0.389405 0.481024
O O12 0.566264 0.043102 0.621855
O O13 0.500000 0.500000 0.189181
O O14 0.562409 0.431754 0.368525
O O15 0.250000 0.750000 0.915401
O O16 0.769218 0.596743 0.981166
#
# Coordination Sequence:
#
# PCOD9354771 Si02
#       8
#     8   8   8   4   8   8   8   8
#     4  10  25  47  76 103 141 190 225 297 363 428
#     4  11  25  41  61  90 137 177 243 287 348 397
#     4  11  26  43  68 101 136 183 230 294 352 426
#     4  10  22  40  60  88 132 178 226 284 332 386
#     4  12  27  38  60  96 133 191 239 293 330 409
#     4  11  25  50  76 108 143 175 236 294 366 439
#     4  11  24  45  69  97 144 188 240 284 356 418
#     4  11  24  42  68 101 139 186 237 288 345 414
#
# _framework density 20.538211
#
# number of rings (size 3 to 8) (size 9 to 14) (size 15 to 20)
#    0.000    1.067    2.667    2.000   13.067    3.733 
#    0.000    1.333    0.000    0.000    0.000    0.000 
#    0.000    0.000    0.000    0.000    0.000    0.000 
#
# Total GULP energy -167609.320958 kJ/mol
# GULP energy per Si atom -5586.977365 kJ/mol
# Density = 2.049146 g / cm^3
# Si number density = 20.538211 Si / 1000 Ang^3
#
#
#
# Elastic Constant Matrix: (Units=GPa)
#
#
# Indices 1 2 3 4 5 6 
#
# 1 96.5116 38.1341 39.0776 0.0000 0.0000 0.0000
# 2 38.1341 69.6781 6.4654 0.0000 0.0000 0.0000
# 3 39.0776 6.4654 107.6485 0.0000 0.0000 0.0000
# 4 0.0000 0.0000 0.0000 13.7528 0.0000 0.0000
# 5 0.0000 0.0000 0.0000 0.0000 2.5709 0.0000
# 6 0.0000 0.0000 0.0000 0.0000 0.0000 33.6129
#
#
#
# Elastic Compliance Matrix: (Units=1/GPa)
#
#
# Indices 1 2 3 4 5 6 
#
# 1 0.015664 -0.008090 -0.005200 0.000000 0.000000 0.000000
# 2 -0.008090 0.018610 0.001819 0.000000 0.000000 0.000000
# 3 -0.005200 0.001819 0.011068 0.000000 0.000000 0.000000
# 4 0.000000 0.000000 0.000000 0.072712 0.000000 0.000000
# 5 0.000000 0.000000 0.000000 0.000000 0.388974 0.000000
# 6 0.000000 0.000000 0.000000 0.000000 0.000000 0.029750
#
#
# Mechanical properties :
#
#
# Convention : Reuss Voigt Hill
#
# Bulk Modulus (GPa) = 44.64339 49.02137 46.83238
# Shear Modulus (GPa) = 8.81542 22.66473 15.74007
#
# Velocity S-wave (km/s) = 2.07401 3.32556 2.77136
# Velocity P-wave (km/s) = 5.24588 6.21820 5.75262
#
# Compressibility (1/GPa) = 0.02239973
#
# Stress axis : x y z
#
# Youngs Moduli (GPa) = 63.84249 53.73311 90.35088
#
# Poissons Ratio (x) = 0.43470 0.46984
# Poissons Ratio (y) = 0.51648 -0.16435
# Poissons Ratio (z) = 0.33199 -0.09774
#
# Static dielectric constant tensor:
#      x y z
#    x 1.785120 0.000000 0.000000 
#    y 0.000000 1.724470 0.000000 
#    z 0.000000 0.000000 1.732510 
# 
# From -- ./inp_files/3049.got.cif
#   From: 2010.05.17/outbox.cif.g08.bks.cpg/sg37_2_cif.got.tgz:3049.got - 2010.06.03 17:53:42.
