data_PCOD9354258
_publ_section_title
;
Structure prediction by ZEFSAII (Michael W. Deem and Ramdas Pophale) SiO2 
 PCOD9354258
Probable space group: C C C 2
;
_chemical_formula_sum "Si O2"
_cell_formula_units_Z 56
_cell_length_a 5.170888
_cell_length_b 25.810319
_cell_length_c 18.251756
_cell_angle_alpha 90.000000
_cell_angle_beta 90.000000
_cell_angle_gamma 90.000000
_cell_volume 2435.920765
_symmetry_space_group_name_H-M "C C C 2"
_symmetry_group_IT_number 37
_symmetry_cell_setting 'orthorhombic'
loop_
_space_group_symop_operation_xyz
x,y,z
-x,-y,z
-x,y,1/2+z
x,-y,1/2+z
1/2+x,1/2+y,z
1/2-x,1/2-y,z
1/2-x,1/2+y,1/2+z
1/2+x,1/2-y,1/2+z
loop_
_atom_site_type_symbol
_atom_site_label
_atom_site_fract_x
_atom_site_fract_y
_atom_site_fract_z
Si Si1 0.805059 0.306439 0.937730
Si Si2 0.662237 0.654657 0.289187
Si Si3 0.679653 0.342011 0.510272
Si Si4 0.462299 0.893370 0.114622
Si Si5 0.936492 0.057035 0.028406
Si Si6 0.316387 0.806507 0.214561
Si Si7 0.861024 0.051793 0.696360
O O1 0.750000 0.250000 0.905371
O O2 0.742322 0.346502 0.873468
O O3 0.590254 0.312220 0.001923
O O4 0.094285 0.314564 0.965495
O O5 0.395074 0.685066 0.278037
O O6 0.616196 0.598226 0.254065
O O7 0.897221 0.683641 0.246703
O O8 0.807515 0.354478 0.588766
O O9 0.600290 0.400158 0.486405
O O10 0.351143 0.920342 0.041105
O O11 0.279616 0.853187 0.156667
O O12 0.563027 0.938395 0.169131
O O13 0.010861 0.056801 0.115325
O O14 0.000000 0.000000 0.001230
O O15 0.250000 0.750000 0.183345
O O16 0.000000 0.000000 0.725575
#
# Coordination Sequence:
#
# PCOD9354258 Si02
#       7
#     8   8   8   8   8   8   8
#     4  12  25  44  66  92 129 186 233 270 321 382
#     4  11  23  43  65  94 131 170 228 270 313 402
#     4  11  24  43  65  94 131 168 228 275 318 392
#     4  10  21  41  64 102 133 166 219 270 335 413
#     4  10  20  41  69  98 129 170 209 270 343 402
#     4  11  22  39  64  96 132 168 209 273 339 384
#     4   9  20  37  66  99 132 167 205 269 341 395
#
# _framework density 22.989253999999999
#
# number of rings (size 3 to 8) (size 9 to 14) (size 15 to 20)
#    0.000    1.429    2.857    2.571    0.000    5.714 
#    2.571    0.714    0.000    0.000    0.000    0.000 
#    0.000    0.000    0.000    0.000    0.000    0.000 
#
# Total GULP energy -155996.567344 kJ/mol
# GULP energy per Si atom -5571.305977 kJ/mol
# Density = 2.293693 g / cm^3
# Si number density = 22.989254 Si / 1000 Ang^3
#
#
#
# Elastic Constant Matrix: (Units=GPa)
#
#
# Indices 1 2 3 4 5 6 
#
# 1 109.5969 43.8021 15.1919 0.0000 0.0000 0.0000
# 2 43.8021 138.5918 14.7314 0.0000 0.0000 0.0000
# 3 15.1919 14.7314 44.5343 0.0000 0.0000 0.0000
# 4 0.0000 0.0000 0.0000 26.8750 0.0000 0.0000
# 5 0.0000 0.0000 0.0000 0.0000 22.3186 0.0000
# 6 0.0000 0.0000 0.0000 0.0000 0.0000 33.1713
#
#
#
# Elastic Compliance Matrix: (Units=1/GPa)
#
#
# Indices 1 2 3 4 5 6 
#
# 1 0.010733 -0.003112 -0.002632 0.000000 0.000000 0.000000
# 2 -0.003112 0.008381 -0.001711 0.000000 0.000000 0.000000
# 3 -0.002632 -0.001711 0.023918 0.000000 0.000000 0.000000
# 4 0.000000 0.000000 0.000000 0.037209 0.000000 0.000000
# 5 0.000000 0.000000 0.000000 0.000000 0.044806 0.000000
# 6 0.000000 0.000000 0.000000 0.000000 0.000000 0.030147
#
#
# Mechanical properties :
#
#
# Convention : Reuss Voigt Hill
#
# Bulk Modulus (GPa) = 35.55858 48.90820 42.23339
# Shear Modulus (GPa) = 27.85861 31.07282 29.46572
#
# Velocity S-wave (km/s) = 3.48488 3.68043 3.58399
# Velocity P-wave (km/s) = 5.62971 6.27545 5.96133
#
# Compressibility (1/GPa) = 0.02812261
#
# Stress axis : x y z
#
# Youngs Moduli (GPa) = 93.16971 119.31817 41.80914
#
# Poissons Ratio (x) = 0.37137 0.11003
# Poissons Ratio (y) = 0.28999 0.07152
# Poissons Ratio (z) = 0.24520 0.20410
#
# Static dielectric constant tensor:
#      x y z
#    x 2.093520 0.000000 0.000000 
#    y 0.000000 1.907040 0.000000 
#    z 0.000000 0.000000 1.867580 
# 
# From -- ./inp_files/15914.got.cif
#   From: 2010.05.17/outbox.cif.g08.bks.cpg/sg37_8_cif.got.tgz:15914.got - 2010.06.03 17:53:42.
