data_PCOD9354043
_publ_section_title
;
Structure prediction by ZEFSAII (Michael W. Deem and Ramdas Pophale) SiO2 
 PCOD9354043
Probable space group: C C C 2
;
_chemical_formula_sum "Si O2"
_cell_formula_units_Z 64
_cell_length_a 9.288471
_cell_length_b 14.208387
_cell_length_c 21.726815
_cell_angle_alpha 90.000000
_cell_angle_beta 90.000000
_cell_angle_gamma 90.000000
_cell_volume 2867.378824
_symmetry_space_group_name_H-M "C C C 2"
_symmetry_group_IT_number 37
_symmetry_cell_setting 'orthorhombic'
loop_
_space_group_symop_operation_xyz
x,y,z
-x,-y,z
-x,y,1/2+z
x,-y,1/2+z
1/2+x,1/2+y,z
1/2-x,1/2-y,z
1/2-x,1/2+y,1/2+z
1/2+x,1/2-y,1/2+z
loop_
_atom_site_type_symbol
_atom_site_label
_atom_site_fract_x
_atom_site_fract_y
_atom_site_fract_z
Si Si1 0.923659 0.238520 0.889260
Si Si2 0.274324 0.358868 0.707535
Si Si3 0.907781 0.197605 0.028467
Si Si4 0.564424 0.865320 0.081947
Si Si5 0.672946 0.152961 0.712921
Si Si6 0.767277 0.538275 0.579778
Si Si7 0.949928 0.099970 0.775970
Si Si8 0.046512 0.609069 0.313474
O O1 0.750000 0.250000 0.886746
O O2 0.953766 0.166094 0.834773
O O3 0.020356 0.331923 0.875792
O O4 0.952501 0.201353 0.957458
O O5 0.250000 0.250000 0.688034
O O6 0.240146 0.430189 0.651851
O O7 0.440708 0.365677 0.724159
O O8 0.189597 0.379710 0.771837
O O9 0.750000 0.250000 0.034940
O O10 0.867695 0.092624 0.050474
O O11 0.029441 0.257245 0.065124
O O12 0.577756 0.876645 0.155565
O O13 0.419202 0.915732 0.058424
O O14 0.705375 0.927968 0.064619
O O15 0.750000 0.250000 0.696409
O O16 0.798805 0.090045 0.741152
O O17 0.567849 0.161396 0.769819
O O18 0.000000 0.000000 0.798542
O O19 0.000000 0.500000 0.319792
#
# Coordination Sequence:
#
# PCOD9354043 Si02
#       8
#     8   8   8   8   8   8   8   8
#     4  11  22  44  63  90 129 173 218 269 323 389
#     4  12  22  36  63  94 128 162 207 270 333 398
#     4   9  21  39  65  91 128 173 224 278 333 390
#     4  10  20  38  62  95 126 164 215 277 329 403
#     4  12  22  40  63  94 132 168 203 267 344 394
#     4  10  20  36  64  98 125 160 220 277 335 392
#     4  12  24  39  62  94 129 169 210 260 336 401
#     4  12  22  39  64  95 123 164 216 267 321 388
#
# _framework density 22.320036999999999
#
# number of rings (size 3 to 8) (size 9 to 14) (size 15 to 20)
#    0.000    1.000    5.000    3.375    1.750    0.000 
#    6.750    0.000    5.500    0.000    0.000    0.000 
#    0.000    0.000    0.000    0.000    0.000    0.000 
#
# Total GULP energy -178457.223934 kJ/mol
# GULP energy per Si atom -5576.788248 kJ/mol
# Density = 2.226924 g / cm^3
# Si number density = 22.320037 Si / 1000 Ang^3
#
#
#
# Elastic Constant Matrix: (Units=GPa)
#
#
# Indices 1 2 3 4 5 6 
#
# 1 67.5976 29.6241 29.0886 0.0000 0.0000 0.0000
# 2 29.6241 121.8137 52.6474 0.0000 0.0000 0.0000
# 3 29.0886 52.6474 95.7994 0.0000 0.0000 0.0000
# 4 0.0000 0.0000 0.0000 4.3977 0.0000 0.0000
# 5 0.0000 0.0000 0.0000 0.0000 10.0113 0.0000
# 6 0.0000 0.0000 0.0000 0.0000 0.0000 37.5093
#
#
#
# Elastic Compliance Matrix: (Units=1/GPa)
#
#
# Indices 1 2 3 4 5 6 
#
# 1 0.017617 -0.002587 -0.003928 0.000000 0.000000 0.000000
# 2 -0.002587 0.011146 -0.005340 0.000000 0.000000 0.000000
# 3 -0.003928 -0.005340 0.014566 0.000000 0.000000 0.000000
# 4 0.000000 0.000000 0.000000 0.227391 0.000000 0.000000
# 5 0.000000 0.000000 0.000000 0.000000 0.099887 0.000000
# 6 0.000000 0.000000 0.000000 0.000000 0.000000 0.026660
#
#
# Mechanical properties :
#
#
# Convention : Reuss Voigt Hill
#
# Bulk Modulus (GPa) = 50.96812 56.43677 53.70245
# Shear Modulus (GPa) = 11.69545 21.97371 16.83458
#
# Velocity S-wave (km/s) = 2.29156 3.14105 2.74932
# Velocity P-wave (km/s) = 5.46685 6.20444 5.84729
#
# Compressibility (1/GPa) = 0.01962011
#
# Stress axis : x y z
#
# Youngs Moduli (GPa) = 56.76260 89.71572 68.65408
#
# Poissons Ratio (x) = 0.23208 0.26965
# Poissons Ratio (y) = 0.14684 0.36662
# Poissons Ratio (z) = 0.22295 0.47909
#
# Static dielectric constant tensor:
#      x y z
#    x 1.822610 0.000000 0.000000 
#    y 0.000000 1.939370 0.000000 
#    z 0.000000 0.000000 1.808880 
# 
# From -- ./inp_files/18438.got.cif
#   From: 2010.05.17/outbox.cif.g08.bks.cpg/sg37_10_cif.got.tgz:18438.got - 2010.06.03 17:53:42.
