data_PCOD9354471
_publ_section_title
;
Structure prediction by ZEFSAII (Michael W. Deem and Ramdas Pophale) SiO2 
 PCOD9354471
Probable space group: C C C 2
;
_chemical_formula_sum "Si O2"
_cell_formula_units_Z 48
_cell_length_a 15.726493
_cell_length_b 8.836425
_cell_length_c 18.880143
_cell_angle_alpha 90.000000
_cell_angle_beta 90.000000
_cell_angle_gamma 90.000000
_cell_volume 2623.697497
_symmetry_space_group_name_H-M "C C C 2"
_symmetry_group_IT_number 37
_symmetry_cell_setting 'orthorhombic'
loop_
_space_group_symop_operation_xyz
x,y,z
-x,-y,z
-x,y,1/2+z
x,-y,1/2+z
1/2+x,1/2+y,z
1/2-x,1/2-y,z
1/2-x,1/2+y,1/2+z
1/2+x,1/2-y,1/2+z
loop_
_atom_site_type_symbol
_atom_site_label
_atom_site_fract_x
_atom_site_fract_y
_atom_site_fract_z
Si Si1 0.748238 0.431243 0.199160
Si Si2 0.094295 0.072421 0.286269
Si Si3 0.166471 0.138578 0.438421
Si Si4 0.908456 0.561924 0.452796
Si Si5 0.256730 0.929384 0.543089
Si Si6 0.092528 0.568584 0.783911
O O1 0.750000 0.250000 0.198928
O O2 0.661059 0.490435 0.234801
O O3 0.754844 0.495466 0.119955
O O4 0.829297 0.494114 0.242619
O O5 0.135574 0.068681 0.364846
O O6 0.090045 0.251656 0.269707
O O7 0.000000 0.000000 0.285000
O O8 0.250000 0.250000 0.428824
O O9 0.097909 0.258846 0.465825
O O10 0.185461 0.009164 0.494609
O O11 0.841279 0.475186 0.500557
O O12 0.892831 0.543138 0.368283
O O13 0.000000 0.500000 0.468918
O O14 0.250000 0.750000 0.548274
O O15 0.000000 0.500000 0.766231
#
# Coordination Sequence:
#
# PCOD9354471 Si02
#       6
#     8   8   8   8   8   8
#     4  12  24  40  60  83 118 158 197 241 291 346
#     4  11  22  38  61  90 119 152 195 240 287 344
#     4   9  19  38  60  82 116 153 189 235 288 344
#     4   9  19  37  60  86 115 148 187 234 286 343
#     4  11  23  38  58  83 114 153 194 237 291 347
#     4  10  21  39  63  90 120 152 191 239 291 344
#
# _framework density 18.294792000000001
#
# number of rings (size 3 to 8) (size 9 to 14) (size 15 to 20)
#    0.000    1.667    0.000    7.000    0.000    7.333 
#    0.000    5.833    0.000    0.000    0.000    0.000 
#    0.000    0.000    0.000    0.000    0.000    0.000 
#
# Total GULP energy -134003.178015 kJ/mol
# GULP energy per Si atom -5583.465751 kJ/mol
# Density = 1.825315 g / cm^3
# Si number density = 18.294792 Si / 1000 Ang^3
#
#
#
# Elastic Constant Matrix: (Units=GPa)
#
#
# Indices 1 2 3 4 5 6 
#
# 1 125.3910 85.0356 82.4392 0.0000 0.0000 0.0000
# 2 85.0356 171.8240 97.6979 0.0000 0.0000 0.0000
# 3 82.4392 97.6979 97.3376 0.0000 0.0000 0.0000
# 4 0.0000 0.0000 0.0000 68.4921 0.0000 0.0000
# 5 0.0000 0.0000 0.0000 0.0000 -3.5932 0.0000
# 6 0.0000 0.0000 0.0000 0.0000 0.0000 39.6782
#
#
#
# Elastic Compliance Matrix: (Units=1/GPa)
#
#
# Indices 1 2 3 4 5 6 
#
# 1 0.018018 -0.000560 -0.014699 0.000000 0.000000 0.000000
# 2 -0.000560 0.013574 -0.013150 0.000000 0.000000 0.000000
# 3 -0.014699 -0.013150 0.035922 0.000000 0.000000 0.000000
# 4 0.000000 0.000000 0.000000 0.014600 0.000000 0.000000
# 5 0.000000 0.000000 0.000000 0.000000 -0.278304 0.000000
# 6 0.000000 0.000000 0.000000 0.000000 0.000000 0.025203
#
#
# Mechanical properties :
#
#
# Convention : Reuss Voigt Hill
#
# Bulk Modulus (GPa) = 93.48885 102.76646 98.12766
# Shear Modulus (GPa) = -45.20642 29.54074 -7.83284
#
# Velocity S-wave (km/s) = -4.97631 4.02270 -2.07141
# Velocity P-wave (km/s) = 4.26545 8.82443 6.93054
#
# Compressibility (1/GPa) = 0.01069646
#
# Stress axis : x y z
#
# Youngs Moduli (GPa) = 55.49863 73.66992 27.83838
#
# Poissons Ratio (x) = 0.04123 0.40919
# Poissons Ratio (y) = 0.03106 0.36608
# Poissons Ratio (z) = 0.81577 0.96878
#
# Static dielectric constant tensor:
#      x y z
#    x 1.645530 0.000000 0.000000 
#    y 0.000000 1.522650 0.000000 
#    z 0.000000 0.000000 1.613840 
# 
# From -- ./inp_files/15232.got.cif
#   From: 2010.05.17/outbox.cif.g08.bks.cpg/sg37_8_cif.got.tgz:15232.got - 2010.06.03 17:53:42.
