data_PCOD9354766
_publ_section_title
;
Structure prediction by ZEFSAII (Michael W. Deem and Ramdas Pophale) SiO2 
 PCOD9354766
Probable space group: C C C 2
;
_chemical_formula_sum "Si O2"
_cell_formula_units_Z 48
_cell_length_a 4.971378
_cell_length_b 27.366502
_cell_length_c 15.082837
_cell_angle_alpha 90.000000
_cell_angle_beta 90.000000
_cell_angle_gamma 90.000000
_cell_volume 2052.008299
_symmetry_space_group_name_H-M "C C C 2"
_symmetry_group_IT_number 37
_symmetry_cell_setting 'orthorhombic'
loop_
_space_group_symop_operation_xyz
x,y,z
-x,-y,z
-x,y,1/2+z
x,-y,1/2+z
1/2+x,1/2+y,z
1/2-x,1/2-y,z
1/2-x,1/2+y,1/2+z
1/2+x,1/2-y,1/2+z
loop_
_atom_site_type_symbol
_atom_site_label
_atom_site_fract_x
_atom_site_fract_y
_atom_site_fract_z
Si Si1 0.497204 0.895624 0.799050
Si Si2 0.101887 0.119698 0.649144
Si Si3 0.627463 0.696993 0.251625
Si Si4 0.450634 0.857742 0.989481
Si Si5 0.741982 0.033310 0.668084
Si Si6 0.935070 0.796905 0.948179
O O1 0.782210 0.894708 0.747204
O O2 0.349700 0.845349 0.767539
O O3 0.364205 0.943869 0.759511
O O4 0.459044 0.892526 0.903727
O O5 0.333831 0.117817 0.576780
O O6 0.025107 0.176034 0.666609
O O7 0.869157 0.081857 0.623060
O O8 0.750000 0.750000 0.236995
O O9 0.447383 0.700400 0.340552
O O10 0.753776 0.838930 0.990840
O O11 0.244180 0.811365 0.971531
O O12 0.500000 0.000000 0.629507
O O13 0.000000 0.000000 0.679688
O O14 0.750000 0.750000 0.969937
#
# Coordination Sequence:
#
# PCOD9354766 Si02
#       6
#     8   8   8   8   8   8
#     4  10  22  45  68 100 135 191 233 287 360 419
#     4  11  24  43  70 107 143 188 241 291 366 427
#     4  10  22  39  68 101 143 194 245 294 352 424
#     4  11  25  41  68  96 145 183 237 298 352 426
#     4  11  23  43  77 101 132 180 230 291 366 436
#     4  11  22  42  61  95 136 193 243 294 348 407
#
# _framework density 23.391715000000001
#
# number of rings (size 3 to 8) (size 9 to 14) (size 15 to 20)
#    0.000    1.333    3.333    2.500    4.667    0.667 
#    3.000    0.833    3.667    0.000    0.000    0.000 
#    0.000    0.000    0.000    0.000    0.000    0.000 
#
# Total GULP energy -133892.839273 kJ/mol
# GULP energy per Si atom -5578.868303 kJ/mol
# Density = 2.333847 g / cm^3
# Si number density = 23.391715 Si / 1000 Ang^3
#
#
#
# Elastic Constant Matrix: (Units=GPa)
#
#
# Indices 1 2 3 4 5 6 
#
# 1 133.4194 44.3156 29.3846 0.0000 0.0000 0.0000
# 2 44.3156 123.9425 31.1060 0.0000 0.0000 0.0000
# 3 29.3846 31.1060 84.1393 0.0000 0.0000 0.0000
# 4 0.0000 0.0000 0.0000 17.0895 0.0000 0.0000
# 5 0.0000 0.0000 0.0000 0.0000 33.7927 0.0000
# 6 0.0000 0.0000 0.0000 0.0000 0.0000 45.4943
#
#
#
# Elastic Compliance Matrix: (Units=1/GPa)
#
#
# Indices 1 2 3 4 5 6 
#
# 1 0.008834 -0.002628 -0.002113 0.000000 0.000000 0.000000
# 2 -0.002628 0.009675 -0.002659 0.000000 0.000000 0.000000
# 3 -0.002113 -0.002659 0.013606 0.000000 0.000000 0.000000
# 4 0.000000 0.000000 0.000000 0.058515 0.000000 0.000000
# 5 0.000000 0.000000 0.000000 0.000000 0.029592 0.000000
# 6 0.000000 0.000000 0.000000 0.000000 0.000000 0.021981
#
#
# Mechanical properties :
#
#
# Convention : Reuss Voigt Hill
#
# Bulk Modulus (GPa) = 57.75713 61.23486 59.49600
# Shear Modulus (GPa) = 30.71711 35.05497 32.88604
#
# Velocity S-wave (km/s) = 3.62769 3.87538 3.75358
# Velocity P-wave (km/s) = 6.50321 6.80144 6.65400
#
# Compressibility (1/GPa) = 0.01731388
#
# Stress axis : x y z
#
# Youngs Moduli (GPa) = 113.20499 103.35638 73.49591
#
# Poissons Ratio (x) = 0.27162 0.15533
# Poissons Ratio (y) = 0.29750 0.19543
# Poissons Ratio (z) = 0.23925 0.27484
#
# Static dielectric constant tensor:
#      x y z
#    x 1.945380 0.000000 0.000000 
#    y 0.000000 1.921970 0.000000 
#    z 0.000000 0.000000 1.906300 
# 
# From -- ./inp_files/9752.got.cif
#   From: 2010.05.17/outbox.cif.g08.bks.cpg/sg37_5_cif.got.tgz:9752.got - 2010.06.03 17:53:42.
