data_PCOD9354066
_publ_section_title
;
Structure prediction by ZEFSAII (Michael W. Deem and Ramdas Pophale) SiO2 
 PCOD9354066
Probable space group: C C C 2
;
_chemical_formula_sum "Si O2"
_cell_formula_units_Z 48
_cell_length_a 15.488636
_cell_length_b 8.550984
_cell_length_c 19.368728
_cell_angle_alpha 90.000000
_cell_angle_beta 90.000000
_cell_angle_gamma 90.000000
_cell_volume 2565.253965
_symmetry_space_group_name_H-M "C C C 2"
_symmetry_group_IT_number 37
_symmetry_cell_setting 'orthorhombic'
loop_
_space_group_symop_operation_xyz
x,y,z
-x,-y,z
-x,y,1/2+z
x,-y,1/2+z
1/2+x,1/2+y,z
1/2-x,1/2-y,z
1/2-x,1/2+y,1/2+z
1/2+x,1/2-y,1/2+z
loop_
_atom_site_type_symbol
_atom_site_label
_atom_site_fract_x
_atom_site_fract_y
_atom_site_fract_z
Si Si1 0.249039 0.062533 0.236900
Si Si2 0.256035 0.063790 0.399250
Si Si3 0.598496 0.441206 0.143463
Si Si4 0.593579 0.061579 0.491696
Si Si5 0.332164 0.629863 0.512637
Si Si6 0.403250 0.933306 0.142746
O O1 0.250000 0.250000 0.227023
O O2 0.252229 0.028662 0.318351
O O3 0.160971 0.993865 0.205470
O O4 0.331636 0.992265 0.196744
O O5 0.250000 0.250000 0.408628
O O6 0.343255 0.997859 0.432759
O O7 0.185727 0.974967 0.445830
O O8 0.500000 0.500000 0.149918
O O9 0.643568 0.521639 0.076828
O O10 0.596304 0.253921 0.139743
O O11 0.621582 0.995379 0.566533
O O12 0.500000 0.000000 0.477266
O O13 0.592158 0.247838 0.498427
O O14 0.250000 0.750000 0.524073
O O15 0.500000 0.000000 0.157264
#
# Coordination Sequence:
#
# PCOD9354066 Si02
#       6
#     8   8   8   8   8   8
#     4  11  23  41  60  84 121 157 194 240 289 346
#     4  10  22  39  59  83 115 156 194 233 288 346
#     4  12  23  38  62  89 117 152 196 243 291 345
#     4  10  20  37  59  86 117 148 189 239 287 341
#     4  10  21  38  61  85 117 152 191 239 289 345
#     4  11  23  39  62  89 118 153 196 240 290 345
#
# _framework density 18.711597999999999
#
# number of rings (size 3 to 8) (size 9 to 14) (size 15 to 20)
#    0.000    1.333    0.000    8.000    0.000    4.667 
#    0.000    4.167    0.000    0.000    0.000    0.000 
#    0.000    0.000    0.000    0.000    0.000    0.000 
#
# Total GULP energy -134075.468812 kJ/mol
# GULP energy per Si atom -5586.477867 kJ/mol
# Density = 1.866901 g / cm^3
# Si number density = 18.711598 Si / 1000 Ang^3
#
#
#
# Elastic Constant Matrix: (Units=GPa)
#
#
# Indices 1 2 3 4 5 6 
#
# 1 95.6079 61.8432 74.5749 0.0000 0.0000 0.0000
# 2 61.8432 161.3798 94.8970 0.0000 0.0000 0.0000
# 3 74.5749 94.8970 162.6879 0.0000 0.0000 0.0000
# 4 0.0000 0.0000 0.0000 29.8745 0.0000 0.0000
# 5 0.0000 0.0000 0.0000 0.0000 5.8209 0.0000
# 6 0.0000 0.0000 0.0000 0.0000 0.0000 40.3328
#
#
#
# Elastic Compliance Matrix: (Units=1/GPa)
#
#
# Indices 1 2 3 4 5 6 
#
# 1 0.017167 -0.002970 -0.006137 0.000000 0.000000 0.000000
# 2 -0.002970 0.009946 -0.004440 0.000000 0.000000 0.000000
# 3 -0.006137 -0.004440 0.011550 0.000000 0.000000 0.000000
# 4 0.000000 0.000000 0.000000 0.033473 0.000000 0.000000
# 5 0.000000 0.000000 0.000000 0.000000 0.171795 0.000000
# 6 0.000000 0.000000 0.000000 0.000000 0.000000 0.024794
#
#
# Mechanical properties :
#
#
# Convention : Reuss Voigt Hill
#
# Bulk Modulus (GPa) = 86.43878 98.03397 92.23637
# Shear Modulus (GPa) = 16.68475 27.76301 22.22388
#
# Velocity S-wave (km/s) = 2.98934 3.85610 3.45005
# Velocity P-wave (km/s) = 7.62958 8.50481 8.07906
#
# Compressibility (1/GPa) = 0.01156888
#
# Stress axis : x y z
#
# Youngs Moduli (GPa) = 58.24982 100.54781 86.58268
#
# Poissons Ratio (x) = 0.29864 0.53135
# Poissons Ratio (y) = 0.17301 0.38441
# Poissons Ratio (z) = 0.35748 0.44641
#
# Static dielectric constant tensor:
#      x y z
#    x 1.627590 0.000000 0.000000 
#    y 0.000000 1.646900 0.000000 
#    z 0.000000 0.000000 1.619070 
# 
# From -- ./inp_files/14525.got.cif
#   From: 2010.05.17/outbox.cif.g08.bks.cpg/sg37_8_cif.got.tgz:14525.got - 2010.06.03 17:53:42.
