data_PCOD9354242
_publ_section_title
;
Structure prediction by ZEFSAII (Michael W. Deem and Ramdas Pophale) SiO2 
 PCOD9354242
Probable space group: C C C 2
;
_chemical_formula_sum "Si O2"
_cell_formula_units_Z 48
_cell_length_a 10.716345
_cell_length_b 22.223167
_cell_length_c 9.355978
_cell_angle_alpha 90.000000
_cell_angle_beta 90.000000
_cell_angle_gamma 90.000000
_cell_volume 2228.136682
_symmetry_space_group_name_H-M "C C C 2"
_symmetry_group_IT_number 37
_symmetry_cell_setting 'orthorhombic'
loop_
_space_group_symop_operation_xyz
x,y,z
-x,-y,z
-x,y,1/2+z
x,-y,1/2+z
1/2+x,1/2+y,z
1/2-x,1/2-y,z
1/2-x,1/2+y,1/2+z
1/2+x,1/2-y,1/2+z
loop_
_atom_site_type_symbol
_atom_site_label
_atom_site_fract_x
_atom_site_fract_y
_atom_site_fract_z
Si Si1 0.050399 0.807028 0.993290
Si Si2 0.929162 0.563732 0.514801
Si Si3 0.500000 0.500000 0.330039
Si Si4 0.147360 0.936938 0.078909
Si Si5 0.931682 0.645228 0.242855
Si Si6 0.395318 0.250618 0.783772
Si Si7 0.250000 0.750000 0.778310
O O1 0.103193 0.870203 0.040975
O O2 0.147395 0.778173 0.883326
O O3 0.923287 0.799637 0.905892
O O4 0.040259 0.769253 0.136244
O O5 0.795732 0.556101 0.593632
O O6 0.896978 0.597200 0.365674
O O7 0.000000 0.500000 0.494864
O O8 0.014566 0.608295 0.609621
O O9 0.398472 0.473591 0.439641
O O10 0.572853 0.456274 0.221010
O O11 0.819121 0.692331 0.207042
O O12 0.043034 0.685980 0.311751
O O13 0.250000 0.250000 0.756598
#
# Coordination Sequence:
#
# PCOD9354242 Si02
#       7
#     8   8   4   8   8   8   4
#     4  11  21  42  67  95 134 184 218 292 362 420
#     4  12  27  45  73 106 149 195 245 295 367 428
#     4  10  26  46  70 104 128 192 244 298 360 410
#     4  11  24  47  71  98 142 181 245 300 352 437
#     4  11  24  46  68 106 140 193 231 300 361 431
#     4  11  23  42  66 101 138 178 231 289 365 433
#     4  10  20  40  72  94 140 178 232 282 370 420
#
# _framework density 21.542665
#
# number of rings (size 3 to 8) (size 9 to 14) (size 15 to 20)
#    0.000    1.000    2.500    4.500    4.667    0.000 
#   16.500    0.000    0.000    0.000    0.000    0.000 
#    0.000    0.000    0.000    0.000    0.000    0.000 
#
# Total GULP energy -134033.186987 kJ/mol
# GULP energy per Si atom -5584.716124 kJ/mol
# Density = 2.149363 g / cm^3
# Si number density = 21.542665 Si / 1000 Ang^3
#
#
#
# Elastic Constant Matrix: (Units=GPa)
#
#
# Indices 1 2 3 4 5 6 
#
# 1 -26.0288 42.1555 83.1611 0.0000 0.0000 0.0000
# 2 42.1555 110.3279 19.0410 0.0000 0.0000 0.0000
# 3 83.1611 19.0410 69.8750 0.0000 0.0000 0.0000
# 4 0.0000 0.0000 0.0000 37.3412 0.0000 0.0000
# 5 0.0000 0.0000 0.0000 0.0000 23.6570 0.0000
# 6 0.0000 0.0000 0.0000 0.0000 0.0000 16.8228
#
#
#
# Elastic Compliance Matrix: (Units=1/GPa)
#
#
# Indices 1 2 3 4 5 6 
#
# 1 -0.007775 0.001442 0.008861 0.000000 0.000000 0.000000
# 2 0.001442 0.009244 -0.004235 0.000000 0.000000 0.000000
# 3 0.008861 -0.004235 0.004920 0.000000 0.000000 0.000000
# 4 0.000000 0.000000 0.000000 0.026780 0.000000 0.000000
# 5 0.000000 0.000000 0.000000 0.000000 0.042271 0.000000
# 6 0.000000 0.000000 0.000000 0.000000 0.000000 0.059443
#
#
# Mechanical properties :
#
#
# Convention : Reuss Voigt Hill
#
# Bulk Modulus (GPa) = 53.98476 49.20991 51.59734
# Shear Modulus (GPa) = 38.78308 16.21865 27.50086
#
# Velocity S-wave (km/s) = 4.24759 2.74681 3.57680
# Velocity P-wave (km/s) = 7.01212 5.74043 6.40790
#
# Compressibility (1/GPa) = 0.01852374
#
# Stress axis : x y z
#
# Youngs Moduli (GPa) = -128.61653 108.17935 203.25637
#
# Poissons Ratio (x) = -0.15595 -1.80097
# Poissons Ratio (y) = 0.18541 0.86072
# Poissons Ratio (z) = 1.13962 0.45810
#
# Static dielectric constant tensor:
#      x y z
#    x 1.814170 0.000000 0.000000 
#    y 0.000000 1.785090 0.000000 
#    z 0.000000 0.000000 1.762810 
# 
# From -- ./inp_files/2954.got.cif
#   From: 2010.05.17/outbox.cif.g08.bks.cpg/sg37_2_cif.got.tgz:2954.got - 2010.06.03 17:53:42.
