data_PCOD9354762
_publ_section_title
;
Structure prediction by ZEFSAII (Michael W. Deem and Ramdas Pophale) SiO2 
 PCOD9354762
Probable space group: C C C 2
;
_chemical_formula_sum "Si O2"
_cell_formula_units_Z 60
_cell_length_a 8.113693
_cell_length_b 23.380047
_cell_length_c 14.160237
_cell_angle_alpha 90.000000
_cell_angle_beta 90.000000
_cell_angle_gamma 90.000000
_cell_volume 2686.176054
_symmetry_space_group_name_H-M "C C C 2"
_symmetry_group_IT_number 37
_symmetry_cell_setting 'orthorhombic'
loop_
_space_group_symop_operation_xyz
x,y,z
-x,-y,z
-x,y,1/2+z
x,-y,1/2+z
1/2+x,1/2+y,z
1/2-x,1/2-y,z
1/2-x,1/2+y,1/2+z
1/2+x,1/2-y,1/2+z
loop_
_atom_site_type_symbol
_atom_site_label
_atom_site_fract_x
_atom_site_fract_y
_atom_site_fract_z
Si Si1 0.057796 0.402447 0.419570
Si Si2 0.500000 0.500000 0.331622
Si Si3 0.410869 0.627642 0.893991
Si Si4 0.325915 0.021298 0.246874
Si Si5 0.890227 0.669532 0.765388
Si Si6 0.403922 0.895099 0.608118
Si Si7 0.344247 0.695404 0.528836
Si Si8 0.986197 0.795263 0.730190
O O1 0.227846 0.368552 0.437308
O O2 0.115896 0.449922 0.344757
O O3 0.926151 0.364449 0.361934
O O4 0.987239 0.424241 0.517706
O O5 0.539375 0.560233 0.384189
O O6 0.664794 0.485703 0.271301
O O7 0.408017 0.660542 0.793245
O O8 0.541883 0.661753 0.956129
O O9 0.277618 0.066683 0.167577
O O10 0.500000 0.000000 0.206801
O O11 0.984437 0.730300 0.768555
O O12 0.700901 0.682141 0.741479
O O13 0.966149 0.630198 0.682715
O O14 0.302718 0.843447 0.565673
O O15 0.250000 0.750000 0.486234
O O16 0.451597 0.708929 0.622622
#
# Coordination Sequence:
#
# PCOD9354762 Si02
#       8
#     8   4   8   8   8   8   8   8
#     4  10  23  44  67  97 137 178 233 280 348 413
#     4  10  24  50  70 102 136 184 242 294 346 424
#     4  11  26  44  72  99 138 186 230 295 347 415
#     4  10  24  45  75 100 134 185 234 293 354 411
#     4  10  22  39  66  97 135 182 217 280 339 420
#     4  11  23  43  65 100 137 175 227 281 346 418
#     4  12  25  43  66 105 140 179 229 285 347 429
#     4  11  23  40  67  98 137 178 226 275 349 406
#
# _framework density 22.336584999999999
#
# number of rings (size 3 to 8) (size 9 to 14) (size 15 to 20)
#    0.000    1.333    1.333    4.000    9.333    0.533 
#    4.800    0.667    0.000    0.000    0.000    0.000 
#    0.000    0.000    0.000    0.000    0.000    0.000 
#
# Total GULP energy -167577.287885 kJ/mol
# GULP energy per Si atom -5585.909596 kJ/mol
# Density = 2.228575 g / cm^3
# Si number density = 22.336585 Si / 1000 Ang^3
#
#
#
# Elastic Constant Matrix: (Units=GPa)
#
#
# Indices 1 2 3 4 5 6 
#
# 1 82.3131 8.1167 24.4155 0.0000 0.0000 0.0000
# 2 8.1167 56.1191 27.2961 0.0000 0.0000 0.0000
# 3 24.4155 27.2961 115.9965 0.0000 0.0000 0.0000
# 4 0.0000 0.0000 0.0000 50.5303 0.0000 0.0000
# 5 0.0000 0.0000 0.0000 0.0000 -4.4767 0.0000
# 6 0.0000 0.0000 0.0000 0.0000 0.0000 39.2242
#
#
#
# Elastic Compliance Matrix: (Units=1/GPa)
#
#
# Indices 1 2 3 4 5 6 
#
# 1 0.012977 -0.000619 -0.002586 0.000000 0.000000 0.000000
# 2 -0.000619 0.020152 -0.004612 0.000000 0.000000 0.000000
# 3 -0.002586 -0.004612 0.010250 0.000000 0.000000 0.000000
# 4 0.000000 0.000000 0.000000 0.019790 0.000000 0.000000
# 5 0.000000 0.000000 0.000000 0.000000 -0.223380 0.000000
# 6 0.000000 0.000000 0.000000 0.000000 0.000000 0.025494
#
#
# Mechanical properties :
#
#
# Convention : Reuss Voigt Hill
#
# Bulk Modulus (GPa) = 36.04153 41.56503 38.80328
# Shear Modulus (GPa) = -45.52325 30.02893 -7.74716
#
# Velocity S-wave (km/s) = -4.51938 3.67056 -1.86438
# Velocity P-wave (km/s) = 3.32602 6.05086 3.57425
#
# Compressibility (1/GPa) = 0.02774577
#
# Stress axis : x y z
#
# Youngs Moduli (GPa) = 77.06089 49.62300 97.55684
#
# Poissons Ratio (x) = 0.03073 0.25225
# Poissons Ratio (y) = 0.04772 0.44991
# Poissons Ratio (z) = 0.19926 0.22885
#
# Static dielectric constant tensor:
#      x y z
#    x 1.875090 0.000000 0.000000 
#    y 0.000000 1.914210 0.000000 
#    z 0.000000 0.000000 1.808880 
# 
# From -- ./inp_files/10953.got.cif
#   From: 2010.05.17/outbox.cif.g08.bks.cpg/sg37_6_cif.got.tgz:10953.got - 2010.06.03 17:53:42.
