data_PCOD9354221
_publ_section_title
;
Structure prediction by ZEFSAII (Michael W. Deem and Ramdas Pophale) SiO2 
 PCOD9354221
Probable space group: C C C 2
;
_chemical_formula_sum "Si O2"
_cell_formula_units_Z 48
_cell_length_a 9.535917
_cell_length_b 10.870147
_cell_length_c 19.624856
_cell_angle_alpha 90.000000
_cell_angle_beta 90.000000
_cell_angle_gamma 90.000000
_cell_volume 2034.250157
_symmetry_space_group_name_H-M "C C C 2"
_symmetry_group_IT_number 37
_symmetry_cell_setting 'orthorhombic'
loop_
_space_group_symop_operation_xyz
x,y,z
-x,-y,z
-x,y,1/2+z
x,-y,1/2+z
1/2+x,1/2+y,z
1/2-x,1/2-y,z
1/2-x,1/2+y,1/2+z
1/2+x,1/2-y,1/2+z
loop_
_atom_site_type_symbol
_atom_site_label
_atom_site_fract_x
_atom_site_fract_y
_atom_site_fract_z
Si Si1 0.250000 0.750000 0.791930
Si Si2 0.976981 0.643488 0.591001
Si Si3 0.104251 0.387882 0.729288
Si Si4 0.250000 0.250000 0.852724
Si Si5 0.659003 0.547819 0.184438
Si Si6 0.750000 0.250000 0.576766
Si Si7 0.530166 0.355400 0.893687
Si Si8 0.750000 0.250000 0.998013
O O1 0.275002 0.631178 0.745111
O O2 0.388320 0.731957 0.838361
O O3 0.973433 0.693134 0.670121
O O4 0.841918 0.666565 0.546933
O O5 0.000000 0.500000 0.600408
O O6 0.106659 0.697375 0.547963
O O7 0.166992 0.336358 0.798927
O O8 0.240787 0.430369 0.687176
O O9 0.000000 0.500000 0.745398
O O10 0.371547 0.307903 0.898279
O O11 0.500000 0.500000 0.191893
O O12 0.691328 0.632636 0.119739
O O13 0.500000 0.500000 0.876172
O O14 0.640159 0.334177 0.955124
#
# Coordination Sequence:
#
# PCOD9354221 Si02
#       8
#     4   8   8   4   8   4   8   4
#     4  10  20  40  65  97 140 182 222 276 336 411
#     4  11  25  47  70 105 138 185 228 285 349 420
#     4  11  22  41  64 107 146 173 216 272 350 427
#     4  12  25  39  73 103 138 182 224 278 352 418
#     4  11  22  35  63 103 144 183 213 266 340 424
#     4  11  24  40  64  98 142 178 223 272 340 418
#     4  11  26  48  68  99 132 184 242 295 343 396
#     4  11  29  49  74  92 138 180 249 302 336 401
#
# _framework density 23.595918000000001
#
# number of rings (size 3 to 8) (size 9 to 14) (size 15 to 20)
#    0.000    1.000    3.333    4.000    7.000    4.667 
#    0.000    0.000    0.000    0.000    0.000    0.000 
#    0.000    0.000    0.000    0.000    0.000    0.000 
#
# Total GULP energy -133782.221487 kJ/mol
# GULP energy per Si atom -5574.259229 kJ/mol
# Density = 2.354221 g / cm^3
# Si number density = 23.595918 Si / 1000 Ang^3
#
#
#
# Elastic Constant Matrix: (Units=GPa)
#
#
# Indices 1 2 3 4 5 6 
#
# 1 221.4373 60.7072 39.6906 0.0000 0.0000 0.0000
# 2 60.7072 74.4378 17.9590 0.0000 0.0000 0.0000
# 3 39.6906 17.9590 64.7240 0.0000 0.0000 0.0000
# 4 0.0000 0.0000 0.0000 8.6605 0.0000 0.0000
# 5 0.0000 0.0000 0.0000 0.0000 8.5358 0.0000
# 6 0.0000 0.0000 0.0000 0.0000 0.0000 46.3270
#
#
#
# Elastic Compliance Matrix: (Units=1/GPa)
#
#
# Indices 1 2 3 4 5 6 
#
# 1 0.006190 -0.004429 -0.002567 0.000000 0.000000 0.000000
# 2 -0.004429 0.017567 -0.002158 0.000000 0.000000 0.000000
# 3 -0.002567 -0.002158 0.017623 0.000000 0.000000 0.000000
# 4 0.000000 0.000000 0.000000 0.115467 0.000000 0.000000
# 5 0.000000 0.000000 0.000000 0.000000 0.117154 0.000000
# 6 0.000000 0.000000 0.000000 0.000000 0.000000 0.021586
#
#
# Mechanical properties :
#
#
# Convention : Reuss Voigt Hill
#
# Bulk Modulus (GPa) = 43.34344 66.36806 54.85575
# Shear Modulus (GPa) = 15.54792 28.85414 22.20103
#
# Velocity S-wave (km/s) = 2.56974 3.50071 3.07071
# Velocity P-wave (km/s) = 5.21667 6.67293 5.98922
#
# Compressibility (1/GPa) = 0.02307154
#
# Stress axis : x y z
#
# Youngs Moduli (GPa) = 161.54212 56.92533 56.74302
#
# Poissons Ratio (x) = 0.25213 0.14567
# Poissons Ratio (y) = 0.71549 0.12246
# Poissons Ratio (z) = 0.41470 0.12286
#
# Static dielectric constant tensor:
#      x y z
#    x 1.968610 0.000000 0.000000 
#    y 0.000000 2.054110 0.000000 
#    z 0.000000 0.000000 1.974750 
# 
# From -- ./inp_files/18381.got.cif
#   From: 2010.05.17/outbox.cif.g08.bks.cpg/sg37_10_cif.got.tgz:18381.got - 2010.06.03 17:53:42.
