data_PCOD9354158
_publ_section_title
;
Structure prediction by ZEFSAII (Michael W. Deem and Ramdas Pophale) SiO2 
 PCOD9354158
Probable space group: C C C 2
;
_chemical_formula_sum "Si O2"
_cell_formula_units_Z 60
_cell_length_a 22.911035
_cell_length_b 8.373388
_cell_length_c 14.025290
_cell_angle_alpha 90.000000
_cell_angle_beta 90.000000
_cell_angle_gamma 90.000000
_cell_volume 2690.653507
_symmetry_space_group_name_H-M "C C C 2"
_symmetry_group_IT_number 37
_symmetry_cell_setting 'orthorhombic'
loop_
_space_group_symop_operation_xyz
x,y,z
-x,-y,z
-x,y,1/2+z
x,-y,1/2+z
1/2+x,1/2+y,z
1/2-x,1/2-y,z
1/2-x,1/2+y,1/2+z
1/2+x,1/2-y,1/2+z
loop_
_atom_site_type_symbol
_atom_site_label
_atom_site_fract_x
_atom_site_fract_y
_atom_site_fract_z
Si Si1 0.071479 0.127763 0.250000
Si Si2 0.233239 0.001480 0.890427
Si Si3 0.436672 0.944182 0.030179
Si Si4 0.625982 0.328222 0.348869
Si Si5 0.845127 0.687161 0.374998
Si Si6 0.377730 0.271629 0.074774
Si Si7 0.250000 0.750000 0.555101
Si Si8 0.536854 0.161491 0.232631
O O1 0.115162 0.266080 0.286140
O O2 0.087727 0.103720 0.139614
O O3 0.007331 0.196196 0.258535
O O4 0.089272 0.979817 0.313799
O O5 0.191064 0.847480 0.906241
O O6 0.294387 0.938782 0.850834
O O7 0.193485 0.124996 0.829975
O O8 0.250264 0.094439 0.986909
O O9 0.448857 0.830031 0.120180
O O10 0.500000 0.000000 0.988822
O O11 0.409292 0.101882 0.077960
O O12 0.390249 0.873279 0.955975
O O13 0.622891 0.311698 0.462614
O O14 0.595034 0.181326 0.295757
O O15 0.310852 0.259462 0.108750
O O16 0.500000 0.000000 0.248153
#
# Coordination Sequence:
#
# PCOD9354158 Si02
#       8
#     8   8   8   8   8   8   4   8
#     4  11  24  43  65 103 136 174 232 286 335 420
#     4   9  20  42  65 104 135 175 242 280 344 424
#     4  11  23  42  69 105 137 181 227 286 345 416
#     4  10  25  42  68  94 139 184 219 289 350 401
#     4  10  22  40  73  97 139 186 226 289 353 409
#     4  11  23  42  67  99 134 178 232 281 349 410
#     4  10  20  38  70  92 138 186 224 294 346 414
#     4  11  24  42  66 101 135 173 229 279 335 414
#
# _framework density 22.299415
#
# number of rings (size 3 to 8) (size 9 to 14) (size 15 to 20)
#    0.000    1.600    4.000    0.400    3.733    5.333 
#    0.000    1.333    0.000    0.000    0.000    0.000 
#    0.000    0.000    0.000    0.000    0.000    0.000 
#
# Total GULP energy -167544.173767 kJ/mol
# GULP energy per Si atom -5584.805792 kJ/mol
# Density = 2.224866 g / cm^3
# Si number density = 22.299415 Si / 1000 Ang^3
#
#
#
# Elastic Constant Matrix: (Units=GPa)
#
#
# Indices 1 2 3 4 5 6 
#
# 1 174.1057 41.2087 42.8429 0.0000 0.0000 0.0000
# 2 41.2087 54.7381 11.9606 0.0000 0.0000 0.0000
# 3 42.8429 11.9606 73.5660 0.0000 0.0000 0.0000
# 4 0.0000 0.0000 0.0000 -247.4410 0.0000 0.0000
# 5 0.0000 0.0000 0.0000 0.0000 52.8852 0.0000
# 6 0.0000 0.0000 0.0000 0.0000 0.0000 50.7382
#
#
#
# Elastic Compliance Matrix: (Units=1/GPa)
#
#
# Indices 1 2 3 4 5 6 
#
# 1 0.007877 -0.005110 -0.003757 0.000000 0.000000 0.000000
# 2 -0.005110 0.022256 -0.000643 0.000000 0.000000 0.000000
# 3 -0.003757 -0.000643 0.015886 0.000000 0.000000 0.000000
# 4 0.000000 0.000000 0.000000 -0.004041 0.000000 0.000000
# 5 0.000000 0.000000 0.000000 0.000000 0.018909 0.000000
# 6 0.000000 0.000000 0.000000 0.000000 0.000000 0.019709
#
#
# Mechanical properties :
#
#
# Convention : Reuss Voigt Hill
#
# Bulk Modulus (GPa) = 37.03624 54.93713 45.98668
# Shear Modulus (GPa) = 46.03451 -15.00367 15.51542
#
# Velocity S-wave (km/s) = 4.54848 -2.59671 2.64062
# Velocity P-wave (km/s) = 6.65053 3.96221 5.47397
#
# Compressibility (1/GPa) = 0.02700058
#
# Stress axis : x y z
#
# Youngs Moduli (GPa) = 126.94426 44.93190 62.94986
#
# Poissons Ratio (x) = 0.22958 0.23650
# Poissons Ratio (y) = 0.64862 0.04046
# Poissons Ratio (z) = 0.47692 0.02888
#
# Static dielectric constant tensor:
#      x y z
#    x 1.848620 0.000000 0.000000 
#    y 0.000000 2.507640 0.000000 
#    z 0.000000 0.000000 1.797430 
# 
# From -- ./inp_files/13128.got.cif
#   From: 2010.05.17/outbox.cif.g08.bks.cpg/sg37_7_cif.got.tgz:13128.got - 2010.06.03 17:53:42.
