data_PCOD9354236
_publ_section_title
;
Structure prediction by ZEFSAII (Michael W. Deem and Ramdas Pophale) SiO2 
 PCOD9354236
Probable space group: C C C 2
;
_chemical_formula_sum "Si O2"
_cell_formula_units_Z 40
_cell_length_a 12.250063
_cell_length_b 9.358678
_cell_length_c 15.453641
_cell_angle_alpha 90.000000
_cell_angle_beta 90.000000
_cell_angle_gamma 90.000000
_cell_volume 1771.673324
_symmetry_space_group_name_H-M "C C C 2"
_symmetry_group_IT_number 37
_symmetry_cell_setting 'orthorhombic'
loop_
_space_group_symop_operation_xyz
x,y,z
-x,-y,z
-x,y,1/2+z
x,-y,1/2+z
1/2+x,1/2+y,z
1/2-x,1/2-y,z
1/2-x,1/2+y,1/2+z
1/2+x,1/2-y,1/2+z
loop_
_atom_site_type_symbol
_atom_site_label
_atom_site_fract_x
_atom_site_fract_y
_atom_site_fract_z
Si Si1 0.091306 0.606982 0.552560
Si Si2 0.250000 0.750000 0.662179
Si Si3 0.678743 0.050097 0.805217
Si Si4 0.779547 0.906283 0.492214
Si Si5 0.044575 0.701832 0.356365
Si Si6 0.500000 0.500000 0.925140
O O1 0.137714 0.738733 0.607337
O O2 0.202627 0.518620 0.538945
O O3 0.049952 0.651218 0.457331
O O4 0.000000 0.500000 0.591077
O O5 0.257131 0.888394 0.724144
O O6 0.744812 0.083104 0.891686
O O7 0.567376 0.142991 0.815771
O O8 0.640888 0.884978 0.808640
O O9 0.750000 0.750000 0.525063
O O10 0.906192 0.938637 0.487011
O O11 0.045536 0.871699 0.365209
#
# Coordination Sequence:
#
# PCOD9354236 Si02
#       6
#     8   4   8   8   8   4
#     4  11  22  40  63  98 139 186 245 297 353 429
#     4  12  24  36  68 108 140 184 238 300 380 420
#     4  10  20  41  64  94 141 182 233 291 360 431
#     4  11  20  39  67  95 136 184 243 285 347 435
#     4  10  20  40  68  98 131 190 245 286 343 444
#     4  12  20  32  68 106 122 174 242 306 334 404
#
# _framework density 22.577527
#
# number of rings (size 3 to 8) (size 9 to 14) (size 15 to 20)
#    0.000    1.200    7.000    1.200    2.800    2.400 
#    0.000    0.000    8.800   10.800    0.000    0.000 
#    0.000    0.000    0.000    0.000    0.000    0.000 
#
# Total GULP energy -111742.656998 kJ/mol
# GULP energy per Si atom -5587.132850 kJ/mol
# Density = 2.252614 g / cm^3
# Si number density = 22.577527 Si / 1000 Ang^3
#
#
#
# Elastic Constant Matrix: (Units=GPa)
#
#
# Indices 1 2 3 4 5 6 
#
# 1 113.8553 44.3296 19.9280 0.0000 0.0000 0.0000
# 2 44.3296 161.9261 19.4472 0.0000 0.0000 0.0000
# 3 19.9280 19.4472 74.9224 0.0000 0.0000 0.0000
# 4 0.0000 0.0000 0.0000 5.6136 0.0000 0.0000
# 5 0.0000 0.0000 0.0000 0.0000 10.9651 0.0000
# 6 0.0000 0.0000 0.0000 0.0000 0.0000 34.0160
#
#
#
# Elastic Compliance Matrix: (Units=1/GPa)
#
#
# Indices 1 2 3 4 5 6 
#
# 1 0.010123 -0.002527 -0.002037 0.000000 0.000000 0.000000
# 2 -0.002527 0.007005 -0.001146 0.000000 0.000000 0.000000
# 3 -0.002037 -0.001146 0.014186 0.000000 0.000000 0.000000
# 4 0.000000 0.000000 0.000000 0.178139 0.000000 0.000000
# 5 0.000000 0.000000 0.000000 0.000000 0.091198 0.000000
# 6 0.000000 0.000000 0.000000 0.000000 0.000000 0.029398
#
#
# Mechanical properties :
#
#
# Convention : Reuss Voigt Hill
#
# Bulk Modulus (GPa) = 50.26304 57.56814 53.91559
# Shear Modulus (GPa) = 14.36364 27.91888 21.14126
#
# Velocity S-wave (km/s) = 2.52502 3.52032 3.06336
# Velocity P-wave (km/s) = 5.55083 6.48667 6.03691
#
# Compressibility (1/GPa) = 0.01989533
#
# Stress axis : x y z
#
# Youngs Moduli (GPa) = 98.78119 142.75395 70.49011
#
# Poissons Ratio (x) = 0.36071 0.14357
# Poissons Ratio (y) = 0.24960 0.08079
# Poissons Ratio (z) = 0.20119 0.16362
#
# Static dielectric constant tensor:
#      x y z
#    x 1.845080 0.000000 0.000000 
#    y 0.000000 1.723780 0.000000 
#    z 0.000000 0.000000 1.848230 
# 
# From -- ./inp_files/14890.got.cif
#   From: 2010.05.17/outbox.cif.g08.bks.cpg/sg37_8_cif.got.tgz:14890.got - 2010.06.03 17:53:42.
