data_PCOD9354616
_publ_section_title
;
Structure prediction by ZEFSAII (Michael W. Deem and Ramdas Pophale) SiO2 
 PCOD9354616
Probable space group: C C C 2
;
_chemical_formula_sum "Si O2"
_cell_formula_units_Z 64
_cell_length_a 16.086924
_cell_length_b 16.829829
_cell_length_c 10.731189
_cell_angle_alpha 90.000000
_cell_angle_beta 90.000000
_cell_angle_gamma 90.000000
_cell_volume 2905.364042
_symmetry_space_group_name_H-M "C C C 2"
_symmetry_group_IT_number 37
_symmetry_cell_setting 'orthorhombic'
loop_
_space_group_symop_operation_xyz
x,y,z
-x,-y,z
-x,y,1/2+z
x,-y,1/2+z
1/2+x,1/2+y,z
1/2-x,1/2-y,z
1/2-x,1/2+y,1/2+z
1/2+x,1/2-y,1/2+z
loop_
_atom_site_type_symbol
_atom_site_label
_atom_site_fract_x
_atom_site_fract_y
_atom_site_fract_z
Si Si1 0.317139 0.425774 0.880660
Si Si2 0.951141 0.418392 0.625758
Si Si3 0.787188 0.947912 0.598138
Si Si4 0.617873 0.134293 0.135006
Si Si5 0.363248 0.135983 0.908132
Si Si6 0.126525 0.211509 0.507536
Si Si7 0.652921 0.766463 0.228292
Si Si8 0.429934 0.696971 0.506709
O O1 0.318775 0.462151 0.740692
O O2 0.234361 0.371359 0.882867
O O3 0.305168 0.486267 0.994949
O O4 0.394831 0.372420 0.919853
O O5 0.891878 0.430009 0.506647
O O6 0.893428 0.353875 0.704698
O O7 0.000000 0.500000 0.668130
O O8 0.030619 0.373052 0.565773
O O9 0.689428 0.928024 0.608013
O O10 0.828811 0.868743 0.544577
O O11 0.591864 0.125214 0.277772
O O12 0.649464 0.222086 0.108980
O O13 0.388421 0.221743 0.957575
O O14 0.150132 0.247222 0.373811
O O15 0.028328 0.196868 0.505620
O O16 0.750000 0.750000 0.189031
O O17 0.601034 0.701034 0.150006
#
# Coordination Sequence:
#
# PCOD9354616 Si02
#       8
#     8   8   8   8   8   8   8   8
#     4  11  25  47  71 104 141 186 244 305 384 449
#     4  11  23  40  66 107 147 188 243 303 378 442
#     4  11  27  46  72 101 143 191 238 315 380 445
#     4  11  22  43  66 100 141 188 236 296 365 452
#     4  10  21  43  68 100 138 187 238 291 370 454
#     4  12  25  45  70 106 139 190 254 304 371 454
#     4  11  24  43  70 107 151 199 251 315 375 464
#     4  11  23  41  75 100 136 184 251 298 367 457
#
# _framework density 22.028220000000001
#
# number of rings (size 3 to 8) (size 9 to 14) (size 15 to 20)
#    0.000    1.000    2.500    5.250    3.500    3.000 
#   11.250    1.250    0.000    0.000    0.000    0.000 
#    0.000    0.000    0.000    0.000    0.000    0.000 
#
# Total GULP energy -178438.631533 kJ/mol
# GULP energy per Si atom -5576.207235 kJ/mol
# Density = 2.197808 g / cm^3
# Si number density = 22.028220 Si / 1000 Ang^3
#
#
#
# Elastic Constant Matrix: (Units=GPa)
#
#
# Indices 1 2 3 4 5 6 
#
# 1 85.2225 20.6215 30.4130 0.0000 0.0000 0.0000
# 2 20.6215 84.8348 49.5596 0.0000 0.0000 0.0000
# 3 30.4130 49.5596 130.7233 0.0000 0.0000 0.0000
# 4 0.0000 0.0000 0.0000 20.8278 0.0000 0.0000
# 5 0.0000 0.0000 0.0000 0.0000 -4.4003 0.0000
# 6 0.0000 0.0000 0.0000 0.0000 0.0000 34.4136
#
#
#
# Elastic Compliance Matrix: (Units=1/GPa)
#
#
# Indices 1 2 3 4 5 6 
#
# 1 0.013005 -0.001790 -0.002347 0.000000 0.000000 0.000000
# 2 -0.001790 0.015387 -0.005417 0.000000 0.000000 0.000000
# 3 -0.002347 -0.005417 0.010249 0.000000 0.000000 0.000000
# 4 0.000000 0.000000 0.000000 0.048013 0.000000 0.000000
# 5 0.000000 0.000000 0.000000 0.000000 -0.227255 0.000000
# 6 0.000000 0.000000 0.000000 0.000000 0.000000 0.029058
#
#
# Mechanical properties :
#
#
# Convention : Reuss Voigt Hill
#
# Bulk Modulus (GPa) = 51.19487 55.77432 53.48460
# Shear Modulus (GPa) = -58.19177 23.51397 -17.33890
#
# Velocity S-wave (km/s) = -5.14532 3.27073 -2.80861
# Velocity P-wave (km/s) = 3.46525 6.29587 3.71685
#
# Compressibility (1/GPa) = 0.01953321
#
# Stress axis : x y z
#
# Youngs Moduli (GPa) = 76.89542 64.98818 97.56575
#
# Poissons Ratio (x) = 0.11634 0.22898
# Poissons Ratio (y) = 0.13765 0.52853
# Poissons Ratio (z) = 0.18047 0.35205
#
# Static dielectric constant tensor:
#      x y z
#    x 2.194690 0.000000 0.000000 
#    y 0.000000 1.855920 0.000000 
#    z 0.000000 0.000000 1.887380 
# 
# From -- ./inp_files/7989.got.cif
#   From: 2010.05.17/outbox.cif.g08.bks.cpg/sg37_4_cif.got.tgz:7989.got - 2010.06.03 17:53:42.
