data_PCOD9354560
_publ_section_title
;
Structure prediction by ZEFSAII (Michael W. Deem and Ramdas Pophale) SiO2 
 PCOD9354560
Probable space group: C C C 2
;
_chemical_formula_sum "Si O2"
_cell_formula_units_Z 64
_cell_length_a 15.236572
_cell_length_b 7.502427
_cell_length_c 24.855150
_cell_angle_alpha 90.000000
_cell_angle_beta 90.000000
_cell_angle_gamma 90.000000
_cell_volume 2841.223742
_symmetry_space_group_name_H-M "C C C 2"
_symmetry_group_IT_number 37
_symmetry_cell_setting 'orthorhombic'
loop_
_space_group_symop_operation_xyz
x,y,z
-x,-y,z
-x,y,1/2+z
x,-y,1/2+z
1/2+x,1/2+y,z
1/2-x,1/2-y,z
1/2-x,1/2+y,1/2+z
1/2+x,1/2-y,1/2+z
loop_
_atom_site_type_symbol
_atom_site_label
_atom_site_fract_x
_atom_site_fract_y
_atom_site_fract_z
Si Si1 0.897630 0.452771 0.280850
Si Si2 0.902277 0.492043 0.662301
Si Si3 0.215197 0.955634 0.278215
Si Si4 0.600146 0.563546 0.378943
Si Si5 0.761968 0.965772 0.090431
Si Si6 0.762485 0.037506 0.467865
Si Si7 0.403062 0.027857 0.395050
Si Si8 0.099591 0.932296 0.677594
O O1 0.897764 0.391943 0.217373
O O2 0.806515 0.563428 0.278303
O O3 0.888797 0.393764 0.344450
O O4 0.000000 0.500000 0.283401
O O5 0.822638 0.537304 0.622811
O O6 0.895358 0.282984 0.678195
O O7 0.000000 0.500000 0.637909
O O8 0.250000 0.750000 0.276516
O O9 0.157898 0.987352 0.330526
O O10 0.155846 0.000944 0.227866
O O11 0.500000 0.500000 0.379231
O O12 0.652179 0.515290 0.433471
O O13 0.596934 0.774978 0.370815
O O14 0.750000 0.750000 0.089415
O O15 0.849976 0.998700 0.124295
O O16 0.766935 0.027679 0.029107
O O17 0.750000 0.250000 0.468788
O O18 0.675734 0.974328 0.436769
O O19 0.500000 0.000000 0.419077
O O20 0.000000 0.000000 0.680102
#
# Coordination Sequence:
#
# PCOD9354560 Si02
#       8
#     8   8   8   8   8   8   8   8
#     4  10  22  37  66  92 129 161 211 249 324 378
#     4  10  21  41  66  92 128 171 213 260 323 386
#     4  12  26  41  65  98 137 170 212 264 333 388
#     4  12  26  42  65  95 132 172 219 267 326 391
#     4   9  21  42  65  93 125 170 214 264 325 386
#     4  11  23  43  68  94 131 167 216 275 331 387
#     4  11  24  42  67  96 129 170 220 267 329 391
#     4  11  24  40  64  95 130 166 217 264 317 384
#
# _framework density 22.525504000000002
#
# number of rings (size 3 to 8) (size 9 to 14) (size 15 to 20)
#    0.000    1.250    2.500    2.625    7.000    2.000 
#    0.000    6.250    0.000    0.000    0.000    0.000 
#    0.000    0.000    0.000    0.000    0.000    0.000 
#
# Total GULP energy -178560.747929 kJ/mol
# GULP energy per Si atom -5580.023373 kJ/mol
# Density = 2.247423 g / cm^3
# Si number density = 22.525504 Si / 1000 Ang^3
#
#
#
# Elastic Constant Matrix: (Units=GPa)
#
#
# Indices 1 2 3 4 5 6 
#
# 1 244.6916 25.9494 102.8725 0.0000 0.0000 0.0000
# 2 25.9494 97.4625 11.2773 0.0000 0.0000 0.0000
# 3 102.8725 11.2773 176.6517 0.0000 0.0000 0.0000
# 4 0.0000 0.0000 0.0000 15.1768 0.0000 0.0000
# 5 0.0000 0.0000 0.0000 0.0000 -823.4870 0.0000
# 6 0.0000 0.0000 0.0000 0.0000 0.0000 33.9260
#
#
#
# Elastic Compliance Matrix: (Units=1/GPa)
#
#
# Indices 1 2 3 4 5 6 
#
# 1 0.005528 -0.001107 -0.003148 0.000000 0.000000 0.000000
# 2 -0.001107 0.010559 -0.000029 0.000000 0.000000 0.000000
# 3 -0.003148 -0.000029 0.007496 0.000000 0.000000 0.000000
# 4 0.000000 0.000000 0.000000 0.065890 0.000000 0.000000
# 5 0.000000 0.000000 0.000000 0.000000 -0.001214 0.000000
# 6 0.000000 0.000000 0.000000 0.000000 0.000000 0.029476
#
#
# Mechanical properties :
#
#
# Convention : Reuss Voigt Hill
#
# Bulk Modulus (GPa) = 66.61076 88.77826 77.69451
# Shear Modulus (GPa) = 38.07830 -129.62972 -45.77571
#
# Velocity S-wave (km/s) = 4.11597 -7.59427 -4.51285
# Velocity P-wave (km/s) = 7.22660 6.11550 2.72254
#
# Compressibility (1/GPa) = 0.01501259
#
# Stress axis : x y z
#
# Youngs Moduli (GPa) = 180.90110 94.70954 133.40101
#
# Poissons Ratio (x) = 0.10489 0.42000
# Poissons Ratio (y) = 0.20035 0.00388
# Poissons Ratio (z) = 0.56956 0.00276
#
# Static dielectric constant tensor:
#      x y z
#    x 6.638530 0.000000 0.000000 
#    y 0.000000 1.826890 0.000000 
#    z 0.000000 0.000000 1.817480 
# 
# From -- ./inp_files/18893.got.cif
#   From: 2010.05.17/outbox.cif.g08.bks.cpg/sg37_10_cif.got.tgz:18893.got - 2010.06.03 17:53:42.
