data_PCOD9354977
_publ_section_title
;
Structure prediction by ZEFSAII (Michael W. Deem and Ramdas Pophale) SiO2 
 PCOD9354977
Probable space group: C C C 2
;
_chemical_formula_sum "Si O2"
_cell_formula_units_Z 64
_cell_length_a 14.257530
_cell_length_b 18.349948
_cell_length_c 9.069738
_cell_angle_alpha 90.000000
_cell_angle_beta 90.000000
_cell_angle_gamma 90.000000
_cell_volume 2372.869607
_symmetry_space_group_name_H-M "C C C 2"
_symmetry_group_IT_number 37
_symmetry_cell_setting 'orthorhombic'
loop_
_space_group_symop_operation_xyz
x,y,z
-x,-y,z
-x,y,1/2+z
x,-y,1/2+z
1/2+x,1/2+y,z
1/2-x,1/2-y,z
1/2-x,1/2+y,1/2+z
1/2+x,1/2-y,1/2+z
loop_
_atom_site_type_symbol
_atom_site_label
_atom_site_fract_x
_atom_site_fract_y
_atom_site_fract_z
Si Si1 0.899416 0.159069 0.402830
Si Si2 0.936338 0.646350 0.389213
Si Si3 0.427799 0.771080 0.606623
Si Si4 0.609619 0.524922 0.100178
Si Si5 0.197155 0.132941 0.616537
Si Si6 0.605794 0.643544 0.336890
Si Si7 0.112651 0.506546 0.049112
Si Si8 0.858472 0.407543 0.312813
O O1 0.870481 0.237720 0.468473
O O2 0.861802 0.085236 0.477972
O O3 0.881317 0.160268 0.229944
O O4 0.010054 0.146830 0.429090
O O5 0.978138 0.698061 0.522991
O O6 0.036079 0.620012 0.323085
O O7 0.892319 0.675075 0.235770
O O8 0.874883 0.583811 0.465170
O O9 0.419720 0.698670 0.706748
O O10 0.500000 0.500000 0.086597
O O11 0.672798 0.452797 0.094029
O O12 0.619941 0.566218 0.257308
O O13 0.186014 0.165521 0.453563
O O14 0.287509 0.141671 0.721852
O O15 0.159398 0.436779 0.976180
O O16 0.000000 0.500000 0.040827
O O17 0.138153 0.518734 0.216663
#
# Coordination Sequence:
#
# PCOD9354977 Si02
#       8
#     8   8   8   8   8   8   8   8
#     4  11  22  38  60  94 130 173 227 274 317 387
#     4  11  22  44  75 100 124 177 235 279 351 411
#     4  11  23  39  71  94 124 172 236 283 317 395
#     4  11  21  35  58  90 127 175 226 267 320 397
#     4  12  25  40  65  98 141 177 217 281 359 403
#     4  11  22  38  61  95 129 179 229 276 316 394
#     4  10  22  44  72 105 132 169 222 281 343 427
#     4  11  26  42  69 106 142 169 211 293 357 424
#
# _framework density 26.971563
#
# number of rings (size 3 to 8) (size 9 to 14) (size 15 to 20)
#    0.000    1.000    5.000    2.625    5.250    0.000 
#    0.000    0.625    2.750    0.000    0.000    0.000 
#    0.000    0.000    0.000    0.000    0.000    0.000 
#
# Total GULP energy -178536.511197 kJ/mol
# GULP energy per Si atom -5579.265975 kJ/mol
# Density = 2.691017 g / cm^3
# Si number density = 26.971563 Si / 1000 Ang^3
#
#
#
# Elastic Constant Matrix: (Units=GPa)
#
#
# Indices 1 2 3 4 5 6 
#
# 1 72.2152 -13.7742 -5.6365 0.0000 0.0000 0.0000
# 2 -13.7742 45.2986 28.6128 0.0000 0.0000 0.0000
# 3 -5.6365 28.6128 148.0814 0.0000 0.0000 0.0000
# 4 0.0000 0.0000 0.0000 55.3201 0.0000 0.0000
# 5 0.0000 0.0000 0.0000 0.0000 23.7419 0.0000
# 6 0.0000 0.0000 0.0000 0.0000 0.0000 13.3457
#
#
#
# Elastic Compliance Matrix: (Units=1/GPa)
#
#
# Indices 1 2 3 4 5 6 
#
# 1 0.014716 0.004694 -0.000347 0.000000 0.000000 0.000000
# 2 0.004694 0.026642 -0.004969 0.000000 0.000000 0.000000
# 3 -0.000347 -0.004969 0.007700 0.000000 0.000000 0.000000
# 4 0.000000 0.000000 0.000000 0.018077 0.000000 0.000000
# 5 0.000000 0.000000 0.000000 0.000000 0.042120 0.000000
# 6 0.000000 0.000000 0.000000 0.000000 0.000000 0.074931
#
#
# Mechanical properties :
#
#
# Convention : Reuss Voigt Hill
#
# Bulk Modulus (GPa) = 20.91481 31.55549 26.23515
# Shear Modulus (GPa) = 24.83036 35.57441 30.20239
#
# Velocity S-wave (km/s) = 3.03745 3.63569 3.34995
# Velocity P-wave (km/s) = 4.48026 5.41749 4.97101
#
# Compressibility (1/GPa) = 0.04781301
#
# Stress axis : x y z
#
# Youngs Moduli (GPa) = 67.95457 37.53510 129.87019
#
# Poissons Ratio (x) = -0.17618 0.04504
# Poissons Ratio (y) = -0.31896 0.64534
# Poissons Ratio (z) = 0.02357 0.18652
#
# Static dielectric constant tensor:
#      x y z
#    x 2.138110 0.000000 0.000000 
#    y 0.000000 2.203800 0.000000 
#    z 0.000000 0.000000 2.167840 
# 
# From -- ./inp_files/4152.got.cif
#   From: 2010.05.17/outbox.cif.g08.bks.cpg/sg37_3_cif.got.tgz:4152.got - 2010.06.03 17:53:42.
