data_PCOD9354656
_publ_section_title
;
Structure prediction by ZEFSAII (Michael W. Deem and Ramdas Pophale) SiO2 
 PCOD9354656
Probable space group: C C C 2
;
_chemical_formula_sum "Si O2"
_cell_formula_units_Z 40
_cell_length_a 12.957445
_cell_length_b 6.693182
_cell_length_c 16.056129
_cell_angle_alpha 90.000000
_cell_angle_beta 90.000000
_cell_angle_gamma 90.000000
_cell_volume 1392.492476
_symmetry_space_group_name_H-M "C C C 2"
_symmetry_group_IT_number 37
_symmetry_cell_setting 'orthorhombic'
loop_
_space_group_symop_operation_xyz
x,y,z
-x,-y,z
-x,y,1/2+z
x,-y,1/2+z
1/2+x,1/2+y,z
1/2-x,1/2-y,z
1/2-x,1/2+y,1/2+z
1/2+x,1/2-y,1/2+z
loop_
_atom_site_type_symbol
_atom_site_label
_atom_site_fract_x
_atom_site_fract_y
_atom_site_fract_z
Si Si1 0.358849 0.823937 0.176310
Si Si2 0.402614 0.059144 0.852148
Si Si3 0.360568 0.653481 0.474770
Si Si4 0.590544 0.291443 0.656380
Si Si5 0.847243 0.826799 0.338664
O O1 0.250000 0.750000 0.141794
O O2 0.358931 0.813237 0.276850
O O3 0.466478 0.719093 0.153187
O O4 0.372728 0.059294 0.156095
O O5 0.418931 0.150094 0.942825
O O6 0.542550 0.155115 0.831022
O O7 0.291248 0.896222 0.854669
O O8 0.250000 0.750000 0.459215
O O9 0.127250 0.887765 0.570798
O O10 0.117000 0.031175 0.413719
O O11 0.640279 0.382067 0.740785
#
# Coordination Sequence:
#
# PCOD9354656 Si02
#       5
#     8   8   8   8   8
#     4  10  21  47  86 114 159 222 266 333 420 482
#     4  11  23  47  79 112 162 211 261 333 401 481
#     4  12  26  47  80 119 161 211 273 330 402 490
#     4  10  24  49  78 120 168 209 274 343 400 494
#     4  11  23  49  81 113 162 215 262 329 409 477
#
# _framework density 28.725470000000001
#
# number of rings (size 3 to 8) (size 9 to 14) (size 15 to 20)
#    0.000    1.200    6.000    1.200    5.600    0.800 
#    3.600    5.000    0.000    0.000    0.000    0.000 
#    0.000    0.000    0.000    0.000    0.000    0.000 
#
# Total GULP energy -111637.619112 kJ/mol
# GULP energy per Si atom -5581.880956 kJ/mol
# Density = 2.866009 g / cm^3
# Si number density = 28.725470 Si / 1000 Ang^3
#
#
#
# Elastic Constant Matrix: (Units=GPa)
#
#
# Indices 1 2 3 4 5 6 
#
# 1 201.7414 70.6724 24.0652 0.0000 0.0000 0.0000
# 2 70.6724 192.0767 116.3318 0.0000 0.0000 0.0000
# 3 24.0652 116.3318 208.3452 0.0000 0.0000 0.0000
# 4 0.0000 0.0000 0.0000 41.9247 0.0000 0.0000
# 5 0.0000 0.0000 0.0000 0.0000 35.2226 0.0000
# 6 0.0000 0.0000 0.0000 0.0000 0.0000 54.8982
#
#
#
# Elastic Compliance Matrix: (Units=1/GPa)
#
#
# Indices 1 2 3 4 5 6 
#
# 1 0.005774 -0.002600 0.000785 0.000000 0.000000 0.000000
# 2 -0.002600 0.009037 -0.004746 0.000000 0.000000 0.000000
# 3 0.000785 -0.004746 0.007359 0.000000 0.000000 0.000000
# 4 0.000000 0.000000 0.000000 0.023852 0.000000 0.000000
# 5 0.000000 0.000000 0.000000 0.000000 0.028391 0.000000
# 6 0.000000 0.000000 0.000000 0.000000 0.000000 0.018216
#
#
# Mechanical properties :
#
#
# Convention : Reuss Voigt Hill
#
# Bulk Modulus (GPa) = 110.51600 113.81135 112.16367
# Shear Modulus (GPa) = 45.97029 52.48203 49.22616
#
# Velocity S-wave (km/s) = 4.00476 4.27900 4.14415
# Velocity P-wave (km/s) = 7.74214 8.00747 7.87592
#
# Compressibility (1/GPa) = 0.00904846
#
# Stress axis : x y z
#
# Youngs Moduli (GPa) = 173.19204 110.65666 135.89064
#
# Poissons Ratio (x) = 0.28767 -0.10662
# Poissons Ratio (y) = 0.45024 0.64488
# Poissons Ratio (z) = -0.13589 0.52513
#
# Static dielectric constant tensor:
#      x y z
#    x 19.186640 0.000000 0.000000 
#    y 0.000000 4.804430 0.000000 
#    z 0.000000 0.000000 2.027040 
# 
# From -- ./inp_files/14869.got.cif
#   From: 2010.05.17/outbox.cif.g08.bks.cpg/sg37_8_cif.got.tgz:14869.got - 2010.06.03 17:53:42.
