data_PCOD9354429
_publ_section_title
;
Structure prediction by ZEFSAII (Michael W. Deem and Ramdas Pophale) SiO2 
 PCOD9354429
Probable space group: C C C 2
;
_chemical_formula_sum "Si O2"
_cell_formula_units_Z 52
_cell_length_a 17.136775
_cell_length_b 8.268440
_cell_length_c 18.755290
_cell_angle_alpha 90.000000
_cell_angle_beta 90.000000
_cell_angle_gamma 90.000000
_cell_volume 2657.519486
_symmetry_space_group_name_H-M "C C C 2"
_symmetry_group_IT_number 37
_symmetry_cell_setting 'orthorhombic'
loop_
_space_group_symop_operation_xyz
x,y,z
-x,-y,z
-x,y,1/2+z
x,-y,1/2+z
1/2+x,1/2+y,z
1/2-x,1/2-y,z
1/2-x,1/2+y,1/2+z
1/2+x,1/2-y,1/2+z
loop_
_atom_site_type_symbol
_atom_site_label
_atom_site_fract_x
_atom_site_fract_y
_atom_site_fract_z
Si Si1 0.627004 0.092608 0.308060
Si Si2 0.000000 0.000000 0.913211
Si Si3 0.250000 0.750000 0.046949
Si Si4 0.544449 0.246321 0.800800
Si Si5 0.250000 0.250000 0.918038
Si Si6 0.357009 0.479557 0.008786
Si Si7 0.133550 0.156927 0.165833
Si Si8 0.708773 0.996184 0.669349
O O1 0.543997 0.181491 0.302714
O O2 0.684361 0.165136 0.367849
O O3 0.603644 0.902521 0.315773
O O4 0.668482 0.103999 0.231573
O O5 0.045599 0.876606 0.862792
O O6 0.933240 0.934637 0.964234
O O7 0.322488 0.662925 0.007456
O O8 0.218503 0.609751 0.099101
O O9 0.566825 0.326990 0.725104
O O10 0.289288 0.377772 0.971041
O O11 0.377417 0.428932 0.089902
O O12 0.207579 0.059666 0.197351
O O13 0.160756 0.341426 0.152146
#
# Coordination Sequence:
#
# PCOD9354429 Si02
#       8
#     8   4   4   8   4   8   8   8
#     4  10  22  40  66  93 121 171 209 263 317 386
#     4  12  26  42  56  96 132 164 214 260 330 380
#     4  10  21  38  62  91 130 160 220 262 312 387
#     4  10  23  43  63  90 128 166 217 260 318 384
#     4  12  23  42  64  89 138 168 214 260 326 389
#     4  11  25  41  62  94 127 173 207 263 325 383
#     4   9  20  41  65  88 126 164 207 265 315 376
#     4   9  18  36  64  97 119 155 218 258 312 371
#
# _framework density 19.567118000000001
#
# number of rings (size 3 to 8) (size 9 to 14) (size 15 to 20)
#    0.000    1.846    1.538    2.308    4.308    4.308 
#    0.000    0.000    0.000    0.000    0.000    0.000 
#    0.000    0.000    0.000    0.000    0.000    0.000 
#
# Total GULP energy -144996.832933 kJ/mol
# GULP energy per Si atom -5576.801267 kJ/mol
# Density = 1.952258 g / cm^3
# Si number density = 19.567118 Si / 1000 Ang^3
#
#
#
# Elastic Constant Matrix: (Units=GPa)
#
#
# Indices 1 2 3 4 5 6 
#
# 1 73.1470 19.9266 40.6690 0.0000 0.0000 0.0000
# 2 19.9266 49.6072 21.6365 0.0000 0.0000 0.0000
# 3 40.6690 21.6365 90.5871 0.0000 0.0000 0.0000
# 4 0.0000 0.0000 0.0000 28.5779 0.0000 0.0000
# 5 0.0000 0.0000 0.0000 0.0000 41.6826 0.0000
# 6 0.0000 0.0000 0.0000 0.0000 0.0000 20.1585
#
#
#
# Elastic Compliance Matrix: (Units=1/GPa)
#
#
# Indices 1 2 3 4 5 6 
#
# 1 0.019033 -0.004374 -0.007500 0.000000 0.000000 0.000000
# 2 -0.004374 0.023508 -0.003651 0.000000 0.000000 0.000000
# 3 -0.007500 -0.003651 0.015278 0.000000 0.000000 0.000000
# 4 0.000000 0.000000 0.000000 0.034992 0.000000 0.000000
# 5 0.000000 0.000000 0.000000 0.000000 0.023991 0.000000
# 6 0.000000 0.000000 0.000000 0.000000 0.000000 0.049607
#
#
# Mechanical properties :
#
#
# Convention : Reuss Voigt Hill
#
# Bulk Modulus (GPa) = 37.35723 41.97839 39.66781
# Shear Modulus (GPa) = 24.22701 26.82440 25.52571
#
# Velocity S-wave (km/s) = 3.52255 3.70657 3.61573
# Velocity P-wave (km/s) = 5.97309 6.31018 6.14395
#
# Compressibility (1/GPa) = 0.02676858
#
# Stress axis : x y z
#
# Youngs Moduli (GPa) = 52.54153 42.53906 65.45254
#
# Poissons Ratio (x) = 0.18607 0.49089
# Poissons Ratio (y) = 0.22982 0.23897
# Poissons Ratio (z) = 0.39406 0.15531
#
# Static dielectric constant tensor:
#      x y z
#    x 1.707190 0.000000 0.000000 
#    y 0.000000 1.710670 0.000000 
#    z 0.000000 0.000000 1.668050 
# 
# From -- ./inp_files/17161.got.cif
#   From: 2010.05.17/outbox.cif.g08.bks.cpg/sg37_9_cif.got.tgz:17161.got - 2010.06.03 17:53:42.
