data_PCOD9354149
_publ_section_title
;
Structure prediction by ZEFSAII (Michael W. Deem and Ramdas Pophale) SiO2 
 PCOD9354149
Probable space group: C C C 2
;
_chemical_formula_sum "Si O2"
_cell_formula_units_Z 56
_cell_length_a 7.732503
_cell_length_b 15.397584
_cell_length_c 21.067568
_cell_angle_alpha 90.000000
_cell_angle_beta 90.000000
_cell_angle_gamma 90.000000
_cell_volume 2508.343926
_symmetry_space_group_name_H-M "C C C 2"
_symmetry_group_IT_number 37
_symmetry_cell_setting 'orthorhombic'
loop_
_space_group_symop_operation_xyz
x,y,z
-x,-y,z
-x,y,1/2+z
x,-y,1/2+z
1/2+x,1/2+y,z
1/2-x,1/2-y,z
1/2-x,1/2+y,1/2+z
1/2+x,1/2-y,1/2+z
loop_
_atom_site_type_symbol
_atom_site_label
_atom_site_fract_x
_atom_site_fract_y
_atom_site_fract_z
Si Si1 0.410334 0.686399 0.630380
Si Si2 0.968878 0.095546 0.018601
Si Si3 0.564716 0.908382 0.708658
Si Si4 0.952680 0.097246 0.249915
Si Si5 0.455600 0.765488 0.810517
Si Si6 0.458543 0.766436 0.949846
Si Si7 0.906068 0.346721 0.074971
O O1 0.250000 0.750000 0.628411
O O2 0.406967 0.611431 0.578467
O O3 0.421012 0.638753 0.697344
O O4 0.569881 0.750235 0.608991
O O5 0.775339 0.112817 0.048376
O O6 0.019341 0.170123 0.968523
O O7 0.000000 0.000000 0.993141
O O8 0.770514 0.905962 0.714572
O O9 0.499413 0.829558 0.752679
O O10 0.522880 0.901470 0.633956
O O11 0.500000 0.000000 0.734447
O O12 0.952727 0.172116 0.302406
O O13 0.000000 0.000000 0.270089
O O14 0.250000 0.750000 0.810534
O O15 0.505626 0.799288 0.880399
O O16 0.250000 0.750000 0.951258
O O17 0.504377 0.828971 0.008535
#
# Coordination Sequence:
#
# PCOD9354149 Si02
#       7
#     8   8   8   8   8   8   8
#     4  11  22  36  61  94 131 170 212 264 331 393
#     4  10  20  38  65  98 134 171 220 271 328 395
#     4  12  26  41  67 100 133 174 223 278 337 396
#     4  12  25  40  63  98 134 170 223 278 335 395
#     4  11  23  44  68  96 135 178 224 271 335 398
#     4   8  19  39  67  94 125 179 221 266 329 394
#     4  10  21  40  66  93 132 171 214 268 333 382
#
# _framework density 22.325489000000001
#
# number of rings (size 3 to 8) (size 9 to 14) (size 15 to 20)
#    0.000    1.429    2.857    3.429    2.000    0.571 
#    0.000    7.857    0.000    0.000    0.000    0.000 
#    0.000    0.000    0.000    0.000    0.000    0.000 
#
# Total GULP energy -156127.051805 kJ/mol
# GULP energy per Si atom -5575.966136 kJ/mol
# Density = 2.227468 g / cm^3
# Si number density = 22.325489 Si / 1000 Ang^3
#
#
#
# Elastic Constant Matrix: (Units=GPa)
#
#
# Indices 1 2 3 4 5 6 
#
# 1 51.7908 23.1162 13.4865 0.0000 0.0000 0.0000
# 2 23.1162 125.7117 37.2209 0.0000 0.0000 0.0000
# 3 13.4865 37.2209 146.6352 0.0000 0.0000 0.0000
# 4 0.0000 0.0000 0.0000 6.8783 0.0000 0.0000
# 5 0.0000 0.0000 0.0000 0.0000 10.9887 0.0000
# 6 0.0000 0.0000 0.0000 0.0000 0.0000 22.7699
#
#
#
# Elastic Compliance Matrix: (Units=1/GPa)
#
#
# Indices 1 2 3 4 5 6 
#
# 1 0.021180 -0.003587 -0.001037 0.000000 0.000000 0.000000
# 2 -0.003587 0.009209 -0.002008 0.000000 0.000000 0.000000
# 3 -0.001037 -0.002008 0.007425 0.000000 0.000000 0.000000
# 4 0.000000 0.000000 0.000000 0.145386 0.000000 0.000000
# 5 0.000000 0.000000 0.000000 0.000000 0.091002 0.000000
# 6 0.000000 0.000000 0.000000 0.000000 0.000000 0.043918
#
#
# Mechanical properties :
#
#
# Convention : Reuss Voigt Hill
#
# Bulk Modulus (GPa) = 40.73569 52.42056 46.57812
# Shear Modulus (GPa) = 14.72465 24.81497 19.76981
#
# Velocity S-wave (km/s) = 2.57095 3.33755 2.97901
# Velocity P-wave (km/s) = 5.20566 6.19543 5.72199
#
# Compressibility (1/GPa) = 0.02454850
#
# Stress axis : x y z
#
# Youngs Moduli (GPa) = 47.21477 108.59200 134.68676
#
# Poissons Ratio (x) = 0.38957 0.13972
# Poissons Ratio (y) = 0.16938 0.27039
# Poissons Ratio (z) = 0.04898 0.21800
#
# Static dielectric constant tensor:
#      x y z
#    x 1.941300 0.000000 0.000000 
#    y 0.000000 1.847400 0.000000 
#    z 0.000000 0.000000 1.825490 
# 
# From -- ./inp_files/16435.got.cif
#   From: 2010.05.17/outbox.cif.g08.bks.cpg/sg37_9_cif.got.tgz:16435.got - 2010.06.03 17:53:42.
