data_PCOD9354198
_publ_section_title
;
Structure prediction by ZEFSAII (Michael W. Deem and Ramdas Pophale) SiO2 
 PCOD9354198
Probable space group: C C C 2
;
_chemical_formula_sum "Si O2"
_cell_formula_units_Z 36
_cell_length_a 10.135282
_cell_length_b 10.134723
_cell_length_c 21.419743
_cell_angle_alpha 90.000000
_cell_angle_beta 90.000000
_cell_angle_gamma 90.000000
_cell_volume 2200.199065
_symmetry_space_group_name_H-M "C C C 2"
_symmetry_group_IT_number 37
_symmetry_cell_setting 'orthorhombic'
loop_
_space_group_symop_operation_xyz
x,y,z
-x,-y,z
-x,y,1/2+z
x,-y,1/2+z
1/2+x,1/2+y,z
1/2-x,1/2-y,z
1/2-x,1/2+y,1/2+z
1/2+x,1/2-y,1/2+z
loop_
_atom_site_type_symbol
_atom_site_label
_atom_site_fract_x
_atom_site_fract_y
_atom_site_fract_z
Si Si1 0.354188 0.854171 0.814910
Si Si2 0.140846 0.359143 0.867468
Si Si3 0.750000 0.750000 0.192538
Si Si4 0.887887 0.112099 0.579639
Si Si5 0.609154 0.109145 0.516091
O O1 0.250000 0.750000 0.842210
O O2 0.500474 0.822054 0.837666
O O3 0.337025 0.837006 0.740410
O O4 0.322095 0.000475 0.837661
O O5 0.250000 0.250000 0.855478
O O6 0.122990 0.377012 0.941658
O O7 0.840461 0.840483 0.148248
O O8 0.751901 0.071192 0.544708
O O9 0.928780 0.248099 0.544711
O O10 0.000000 0.000000 0.579365
O O11 0.500000 0.000000 0.530731
#
# Coordination Sequence:
#
# PCOD9354198 Si02
#       5
#     8   8   4   8   8
#     4   9  21  38  58  81 114 161 192 239 297 347
#     4  11  20  37  58  87 122 153 190 241 296 353
#     4   8  20  44  58  82 124 150 202 254 282 346
#     4  10  22  40  64  84 116 160 197 249 294 343
#     4  10  20  40  57  86 125 147 191 246 298 349
#
# _framework density 16.362155999999999
#
# number of rings (size 3 to 8) (size 9 to 14) (size 15 to 20)
#    0.667    1.778    4.444    0.000    0.000    5.333 
#   16.000    0.000    0.000    0.000    0.000    0.000 
#    0.000    0.000    0.000    0.000    0.000    0.000 
#
# Total GULP energy -100217.052817 kJ/mol
# GULP energy per Si atom -5567.614045 kJ/mol
# Density = 1.632491 g / cm^3
# Si number density = 16.362156 Si / 1000 Ang^3
#
#
#
# Elastic Constant Matrix: (Units=GPa)
#
#
# Indices 1 2 3 4 5 6 
#
# 1 138.8427 127.4155 61.1940 0.0000 0.0000 0.0000
# 2 127.4155 138.6904 61.1540 0.0000 0.0000 0.0000
# 3 61.1940 61.1540 142.0897 0.0000 0.0000 0.0000
# 4 0.0000 0.0000 0.0000 20.0734 0.0000 0.0000
# 5 0.0000 0.0000 0.0000 0.0000 20.0792 0.0000
# 6 0.0000 0.0000 0.0000 0.0000 0.0000 52.5732
#
#
#
# Elastic Compliance Matrix: (Units=1/GPa)
#
#
# Indices 1 2 3 4 5 6 
#
# 1 0.046367 -0.041707 -0.002018 0.000000 0.000000 0.000000
# 2 -0.041707 0.046415 -0.002015 0.000000 0.000000 0.000000
# 3 -0.002018 -0.002015 0.008774 0.000000 0.000000 0.000000
# 4 0.000000 0.000000 0.000000 0.049817 0.000000 0.000000
# 5 0.000000 0.000000 0.000000 0.000000 0.049803 0.000000
# 6 0.000000 0.000000 0.000000 0.000000 0.000000 0.019021
#
#
# Mechanical properties :
#
#
# Convention : Reuss Voigt Hill
#
# Bulk Modulus (GPa) = 99.24955 102.12774 100.68864
# Shear Modulus (GPa) = 15.87122 29.86911 22.87017
#
# Velocity S-wave (km/s) = 3.11785 4.27722 3.74270
# Velocity P-wave (km/s) = 8.58784 9.32445 8.96372
#
# Compressibility (1/GPa) = 0.01007561
#
# Stress axis : x y z
#
# Youngs Moduli (GPa) = 21.56728 21.54469 113.97171
#
# Poissons Ratio (x) = 0.89857 0.23004
# Poissons Ratio (y) = 0.89951 0.22960
# Poissons Ratio (z) = 0.04353 0.04340
#
# Static dielectric constant tensor:
#      x y z
#    x 1.535310 0.000000 0.000000 
#    y 0.000000 1.535300 0.000000 
#    z 0.000000 0.000000 1.552560 
# 
# From -- ./inp_files/16753.got.cif
#   From: 2010.05.17/outbox.cif.g08.bks.cpg/sg37_9_cif.got.tgz:16753.got - 2010.06.03 17:53:42.
