data_PCOD9354870
_publ_section_title
;
Structure prediction by ZEFSAII (Michael W. Deem and Ramdas Pophale) SiO2 
 PCOD9354870
Probable space group: C C C 2
;
_chemical_formula_sum "Si O2"
_cell_formula_units_Z 48
_cell_length_a 12.300219
_cell_length_b 9.165294
_cell_length_c 17.686105
_cell_angle_alpha 90.000000
_cell_angle_beta 90.000000
_cell_angle_gamma 90.000000
_cell_volume 1993.845230
_symmetry_space_group_name_H-M "C C C 2"
_symmetry_group_IT_number 37
_symmetry_cell_setting 'orthorhombic'
loop_
_space_group_symop_operation_xyz
x,y,z
-x,-y,z
-x,y,1/2+z
x,-y,1/2+z
1/2+x,1/2+y,z
1/2-x,1/2-y,z
1/2-x,1/2+y,1/2+z
1/2+x,1/2-y,1/2+z
loop_
_atom_site_type_symbol
_atom_site_label
_atom_site_fract_x
_atom_site_fract_y
_atom_site_fract_z
Si Si1 0.510480 0.737883 0.127210
Si Si2 0.675170 0.534250 0.606939
Si Si3 0.659841 0.626800 0.434044
Si Si4 0.963158 0.337618 0.458880
Si Si5 0.331241 0.110452 0.223198
Si Si6 0.276387 0.896435 0.348493
O O1 0.389289 0.677287 0.134778
O O2 0.591142 0.599475 0.117579
O O3 0.553757 0.827899 0.197311
O O4 0.530449 0.823210 0.049283
O O5 0.687623 0.564583 0.517746
O O6 0.778823 0.484395 0.654598
O O7 0.750000 0.750000 0.418125
O O8 0.544732 0.709152 0.432438
O O9 0.675112 0.492340 0.377738
O O10 0.847121 0.335543 0.418608
O O11 0.000000 0.500000 0.439519
O O12 0.250000 0.250000 0.234900
O O13 0.338368 0.010270 0.295939
O O14 0.250000 0.750000 0.303478
#
# Coordination Sequence:
#
# PCOD9354870 Si02
#       6
#     8   8   8   8   8   8
#     4   9  19  40  67  96 131 168 228 286 334 401
#     4   9  19  38  68  99 125 175 227 276 344 403
#     4  11  22  41  70  97 138 174 226 292 339 409
#     4  11  23  42  69 105 128 176 231 284 348 405
#     4  10  22  42  66  93 139 185 224 281 348 414
#     4  12  26  45  65  99 140 184 233 281 351 421
#
# _framework density 24.074086000000001
#
# number of rings (size 3 to 8) (size 9 to 14) (size 15 to 20)
#    0.000    1.667    1.667    2.500    0.000    4.000 
#    6.000    3.333    0.000    0.000    0.000    0.000 
#    0.000    0.000    0.000    0.000    0.000    0.000 
#
# Total GULP energy -134263.623010 kJ/mol
# GULP energy per Si atom -5594.317625 kJ/mol
# Density = 2.401929 g / cm^3
# Si number density = 24.074086 Si / 1000 Ang^3
#
#
#
# Elastic Constant Matrix: (Units=GPa)
#
#
# Indices 1 2 3 4 5 6 
#
# 1 56.9251 31.9406 26.7850 0.0000 0.0000 0.0000
# 2 31.9406 145.3269 65.3838 0.0000 0.0000 0.0000
# 3 26.7850 65.3838 67.8424 0.0000 0.0000 0.0000
# 4 0.0000 0.0000 0.0000 29.6117 0.0000 0.0000
# 5 0.0000 0.0000 0.0000 0.0000 34.0029 0.0000
# 6 0.0000 0.0000 0.0000 0.0000 0.0000 27.1050
#
#
#
# Elastic Compliance Matrix: (Units=1/GPa)
#
#
# Indices 1 2 3 4 5 6 
#
# 1 0.021789 -0.001622 -0.007040 0.000000 0.000000 0.000000
# 2 -0.001622 0.012270 -0.011185 0.000000 0.000000 0.000000
# 3 -0.007040 -0.011185 0.028299 0.000000 0.000000 0.000000
# 4 0.000000 0.000000 0.000000 0.033770 0.000000 0.000000
# 5 0.000000 0.000000 0.000000 0.000000 0.029409 0.000000
# 6 0.000000 0.000000 0.000000 0.000000 0.000000 0.036893
#
#
# Mechanical properties :
#
#
# Convention : Reuss Voigt Hill
#
# Bulk Modulus (GPa) = 44.12012 57.59037 50.85524
# Shear Modulus (GPa) = 23.84610 27.87626 25.86118
#
# Velocity S-wave (km/s) = 3.15068 3.40654 3.28111
# Velocity P-wave (km/s) = 5.62160 6.28066 5.96025
#
# Compressibility (1/GPa) = 0.02266540
#
# Stress axis : x y z
#
# Youngs Moduli (GPa) = 45.89413 81.50280 35.33733
#
# Poissons Ratio (x) = 0.13217 0.24877
# Poissons Ratio (y) = 0.07443 0.39523
# Poissons Ratio (z) = 0.32308 0.91158
#
# Static dielectric constant tensor:
#      x y z
#    x 1.925250 0.000000 0.000000 
#    y 0.000000 1.992020 0.000000 
#    z 0.000000 0.000000 1.912200 
# 
# From -- ./inp_files/17075.got.cif
#   From: 2010.05.17/outbox.cif.g08.bks.cpg/sg37_9_cif.got.tgz:17075.got - 2010.06.03 17:53:42.
