data_PCOD9354676
_publ_section_title
;
Structure prediction by ZEFSAII (Michael W. Deem and Ramdas Pophale) SiO2 
 PCOD9354676
Probable space group: C C C 2
;
_chemical_formula_sum "Si O2"
_cell_formula_units_Z 36
_cell_length_a 15.241831
_cell_length_b 15.403468
_cell_length_c 5.640654
_cell_angle_alpha 90.000000
_cell_angle_beta 90.000000
_cell_angle_gamma 90.000000
_cell_volume 1324.296140
_symmetry_space_group_name_H-M "C C C 2"
_symmetry_group_IT_number 37
_symmetry_cell_setting 'orthorhombic'
loop_
_space_group_symop_operation_xyz
x,y,z
-x,-y,z
-x,y,1/2+z
x,-y,1/2+z
1/2+x,1/2+y,z
1/2-x,1/2-y,z
1/2-x,1/2+y,1/2+z
1/2+x,1/2-y,1/2+z
loop_
_atom_site_type_symbol
_atom_site_label
_atom_site_fract_x
_atom_site_fract_y
_atom_site_fract_z
Si Si1 0.391180 0.537635 0.198610
Si Si2 0.247797 0.592394 0.709316
Si Si3 0.451915 0.875545 0.799644
Si Si4 0.750000 0.250000 0.343413
Si Si5 0.890373 0.793952 0.496458
O O1 0.416582 0.517065 0.466867
O O2 0.288613 0.503836 0.196106
O O3 0.433333 0.631362 0.151310
O O4 0.146895 0.588102 0.785319
O O5 0.254536 0.660948 0.490932
O O6 0.315039 0.645934 0.877556
O O7 0.500625 0.897259 0.550883
O O8 0.438129 0.770444 0.819399
O O9 0.835905 0.262556 0.183632
#
# Coordination Sequence:
#
# PCOD9354676 Si02
#       5
#     8   8   8   4   8
#     4  10  22  36  64  96 126 162 222 300 340 384
#     4  11  22  39  66 100 125 176 241 291 340 413
#     4  12  26  40  65 101 146 180 216 284 366 442
#     4  12  16  36  68 100 124 160 242 306 322 402
#     4  11  22  39  66 100 125 176 241 291 340 413
#
# _framework density 27.184253999999999
#
# number of rings (size 3 to 8) (size 9 to 14) (size 15 to 20)
#    0.000    0.889    6.667    1.333    0.000    0.000 
#    0.000    0.000    0.000   32.000    0.000    0.000 
#    0.000    0.000    0.000    0.000    0.000    0.000 
#
# Total GULP energy -100422.442896 kJ/mol
# GULP energy per Si atom -5579.024605 kJ/mol
# Density = 2.712238 g / cm^3
# Si number density = 27.184254 Si / 1000 Ang^3
#
#
#
# Elastic Constant Matrix: (Units=GPa)
#
#
# Indices 1 2 3 4 5 6 
#
# 1 128.7641 35.4344 31.3588 0.0000 0.0000 0.0000
# 2 35.4344 136.0984 11.5704 0.0000 0.0000 0.0000
# 3 31.3588 11.5704 137.8271 0.0000 0.0000 0.0000
# 4 0.0000 0.0000 0.0000 27.6386 0.0000 0.0000
# 5 0.0000 0.0000 0.0000 0.0000 51.5714 0.0000
# 6 0.0000 0.0000 0.0000 0.0000 0.0000 47.3435
#
#
#
# Elastic Compliance Matrix: (Units=1/GPa)
#
#
# Indices 1 2 3 4 5 6 
#
# 1 0.008798 -0.002136 -0.001822 0.000000 0.000000 0.000000
# 2 -0.002136 0.007919 -0.000179 0.000000 0.000000 0.000000
# 3 -0.001822 -0.000179 0.007685 0.000000 0.000000 0.000000
# 4 0.000000 0.000000 0.000000 0.036181 0.000000 0.000000
# 5 0.000000 0.000000 0.000000 0.000000 0.019391 0.000000
# 6 0.000000 0.000000 0.000000 0.000000 0.000000 0.021122
#
#
# Mechanical properties :
#
#
# Convention : Reuss Voigt Hill
#
# Bulk Modulus (GPa) = 62.00445 62.15744 62.08094
# Shear Modulus (GPa) = 43.57473 46.93244 45.25359
#
# Velocity S-wave (km/s) = 4.00802 4.15957 4.08450
# Velocity P-wave (km/s) = 6.65413 6.78117 6.71795
#
# Compressibility (1/GPa) = 0.01612787
#
# Stress axis : x y z
#
# Youngs Moduli (GPa) = 113.66660 126.28077 130.12162
#
# Poissons Ratio (x) = 0.26969 0.23713
# Poissons Ratio (y) = 0.24275 0.02328
# Poissons Ratio (z) = 0.20714 0.02259
#
# Static dielectric constant tensor:
#      x y z
#    x 2.087090 0.000000 0.000000 
#    y 0.000000 2.269290 0.000000 
#    z 0.000000 0.000000 2.225500 
# 
# From -- ./inp_files/469.got.cif
#   From: 2010.05.17/outbox.cif.g08.bks.cpg/sg37_1_cif.got.tgz:469.got - 2010.06.03 17:53:42.
