data_PCOD9354496
_publ_section_title
;
Structure prediction by ZEFSAII (Michael W. Deem and Ramdas Pophale) SiO2 
 PCOD9354496
Probable space group: C C C 2
;
_chemical_formula_sum "Si O2"
_cell_formula_units_Z 48
_cell_length_a 27.618502
_cell_length_b 5.137644
_cell_length_c 15.982976
_cell_angle_alpha 90.000000
_cell_angle_beta 90.000000
_cell_angle_gamma 90.000000
_cell_volume 2267.888893
_symmetry_space_group_name_H-M "C C C 2"
_symmetry_group_IT_number 37
_symmetry_cell_setting 'orthorhombic'
loop_
_space_group_symop_operation_xyz
x,y,z
-x,-y,z
-x,y,1/2+z
x,-y,1/2+z
1/2+x,1/2+y,z
1/2-x,1/2-y,z
1/2-x,1/2+y,1/2+z
1/2+x,1/2-y,1/2+z
loop_
_atom_site_type_symbol
_atom_site_label
_atom_site_fract_x
_atom_site_fract_y
_atom_site_fract_z
Si Si1 0.282691 0.503806 0.071180
Si Si2 0.863356 0.327468 0.630498
Si Si3 0.448733 0.371666 0.766290
Si Si4 0.054853 0.968618 0.075835
Si Si5 0.392509 0.892268 0.805932
Si Si6 0.857524 0.284725 0.981256
O O1 0.250000 0.750000 0.097161
O O2 0.326590 0.416646 0.132384
O O3 0.313170 0.584599 0.988844
O O4 0.250000 0.250000 0.060507
O O5 0.917032 0.230091 0.604374
O O6 0.864289 0.459046 0.720590
O O7 0.847662 0.510273 0.554876
O O8 0.500000 0.500000 0.786827
O O9 0.448291 0.322760 0.665655
O O10 0.410608 0.596570 0.791172
O O11 0.435803 0.101462 0.809996
O O12 0.091044 0.842417 0.008704
O O13 0.000000 0.000000 0.045310
O O14 0.362708 0.904414 0.890580
#
# Coordination Sequence:
#
# PCOD9354496 Si02
#       6
#     8   8   8   8   8   8
#     4  11  23  43  73  94 123 168 211 273 339 398
#     4  10  22  43  65  94 131 170 218 267 331 384
#     4  10  21  40  60  89 131 179 223 269 314 365
#     4   9  20  38  63  93 132 179 222 264 316 381
#     4  11  24  39  64  93 132 172 217 271 321 387
#     4  11  23  41  66  96 132 173 217 267 333 386
#
# _framework density 21.165056
#
# number of rings (size 3 to 8) (size 9 to 14) (size 15 to 20)
#    0.000    1.667    3.333    0.500    4.667    1.333 
#    3.000    1.667    0.000    0.000    0.000    0.000 
#    0.000    0.000    0.000    0.000    0.000    0.000 
#
# Total GULP energy -133902.726340 kJ/mol
# GULP energy per Si atom -5579.280264 kJ/mol
# Density = 2.111688 g / cm^3
# Si number density = 21.165056 Si / 1000 Ang^3
#
#
#
# Elastic Constant Matrix: (Units=GPa)
#
#
# Indices 1 2 3 4 5 6 
#
# 1 103.0552 38.4370 13.7116 0.0000 0.0000 0.0000
# 2 38.4370 97.1347 28.1112 0.0000 0.0000 0.0000
# 3 13.7116 28.1112 101.7420 0.0000 0.0000 0.0000
# 4 0.0000 0.0000 0.0000 22.0754 0.0000 0.0000
# 5 0.0000 0.0000 0.0000 0.0000 -2.9373 0.0000
# 6 0.0000 0.0000 0.0000 0.0000 0.0000 31.2006
#
#
#
# Elastic Compliance Matrix: (Units=1/GPa)
#
#
# Indices 1 2 3 4 5 6 
#
# 1 0.011393 -0.004417 -0.000315 0.000000 0.000000 0.000000
# 2 -0.004417 0.012902 -0.002970 0.000000 0.000000 0.000000
# 3 -0.000315 -0.002970 0.010692 0.000000 0.000000 0.000000
# 4 0.000000 0.000000 0.000000 0.045299 0.000000 0.000000
# 5 0.000000 0.000000 0.000000 0.000000 -0.340448 0.000000
# 6 0.000000 0.000000 0.000000 0.000000 0.000000 0.032051
#
#
# Mechanical properties :
#
#
# Convention : Reuss Voigt Hill
#
# Bulk Modulus (GPa) = 51.06322 51.38352 51.22337
# Shear Modulus (GPa) = -24.25066 24.84588 0.29761
#
# Velocity S-wave (km/s) = -3.38862 3.42995 0.37539
# Velocity P-wave (km/s) = 2.97796 6.32585 4.94391
#
# Compressibility (1/GPa) = 0.01958357
#
# Stress axis : x y z
#
# Youngs Moduli (GPa) = 87.77386 77.50561 93.53024
#
# Poissons Ratio (x) = 0.34235 0.02946
# Poissons Ratio (y) = 0.38771 0.27775
# Poissons Ratio (z) = 0.02765 0.23016
#
# Static dielectric constant tensor:
#      x y z
#    x 1.802870 0.000000 0.000000 
#    y 0.000000 1.851110 0.000000 
#    z 0.000000 0.000000 1.764300 
# 
# From -- ./inp_files/9746.got.cif
#   From: 2010.05.17/outbox.cif.g08.bks.cpg/sg37_5_cif.got.tgz:9746.got - 2010.06.03 17:53:42.
