data_PCOD9354854
_publ_section_title
;
Structure prediction by ZEFSAII (Michael W. Deem and Ramdas Pophale) SiO2 
 PCOD9354854
Probable space group: C C C 2
;
_chemical_formula_sum "Si O2"
_cell_formula_units_Z 60
_cell_length_a 14.953582
_cell_length_b 16.616282
_cell_length_c 10.019347
_cell_angle_alpha 90.000000
_cell_angle_beta 90.000000
_cell_angle_gamma 90.000000
_cell_volume 2489.536560
_symmetry_space_group_name_H-M "C C C 2"
_symmetry_group_IT_number 37
_symmetry_cell_setting 'orthorhombic'
loop_
_space_group_symop_operation_xyz
x,y,z
-x,-y,z
-x,y,1/2+z
x,-y,1/2+z
1/2+x,1/2+y,z
1/2-x,1/2-y,z
1/2-x,1/2+y,1/2+z
1/2+x,1/2-y,1/2+z
loop_
_atom_site_type_symbol
_atom_site_label
_atom_site_fract_x
_atom_site_fract_y
_atom_site_fract_z
Si Si1 0.687925 0.445379 0.889510
Si Si2 0.108092 0.590061 0.559466
Si Si3 0.434251 0.334365 0.735996
Si Si4 0.747630 0.841253 0.635872
Si Si5 0.293133 0.665524 0.641230
Si Si6 0.140855 0.462556 0.779296
Si Si7 0.035944 0.762492 0.506382
Si Si8 0.000000 0.000000 0.346126
O O1 0.673953 0.381160 0.771182
O O2 0.761365 0.504007 0.824105
O O3 0.591793 0.482813 0.924871
O O4 0.729552 0.403210 0.018368
O O5 0.212803 0.617470 0.569829
O O6 0.098276 0.527959 0.680483
O O7 0.091239 0.549375 0.417727
O O8 0.051958 0.672120 0.556696
O O9 0.327684 0.339851 0.743155
O O10 0.456822 0.302160 0.589545
O O11 0.475787 0.421777 0.760027
O O12 0.473258 0.274947 0.848758
O O13 0.750000 0.750000 0.584001
O O14 0.659634 0.877402 0.706056
O O15 0.250000 0.750000 0.684464
O O16 0.375815 0.686705 0.547124
#
# Coordination Sequence:
#
# PCOD9354854 Si02
#       8
#     8   8   8   8   8   8   8   4
#     4  11  22  39  61 100 143 178 221 275 342 413
#     4  10  22  41  70  96 133 173 227 289 340 400
#     4  12  26  43  68  99 141 183 225 277 349 425
#     4  12  25  42  69 102 139 181 234 287 333 411
#     4   9  19  37  63  92 130 180 225 270 328 395
#     4  11  21  42  68 104 129 175 230 289 343 400
#     4  11  24  45  64  95 135 182 228 277 337 412
#     4  12  24  40  64  98 150 184 214 270 352 430
#
# _framework density 24.100871000000001
#
# number of rings (size 3 to 8) (size 9 to 14) (size 15 to 20)
#    0.000    1.067    4.000    2.800    0.000    3.200 
#    0.000    0.000    0.000    6.400    0.000    0.000 
#    0.000    0.000    0.000    0.000    0.000    0.000 
#
# Total GULP energy -167971.369065 kJ/mol
# GULP energy per Si atom -5599.045636 kJ/mol
# Density = 2.404602 g / cm^3
# Si number density = 24.100871 Si / 1000 Ang^3
#
#
#
# Elastic Constant Matrix: (Units=GPa)
#
#
# Indices 1 2 3 4 5 6 
#
# 1 63.6012 19.7720 2.2921 0.0000 0.0000 0.0000
# 2 19.7720 108.3705 42.3811 0.0000 0.0000 0.0000
# 3 2.2921 42.3811 114.7073 0.0000 0.0000 0.0000
# 4 0.0000 0.0000 0.0000 33.3233 0.0000 0.0000
# 5 0.0000 0.0000 0.0000 0.0000 10.9033 0.0000
# 6 0.0000 0.0000 0.0000 0.0000 0.0000 27.8872
#
#
#
# Elastic Compliance Matrix: (Units=1/GPa)
#
#
# Indices 1 2 3 4 5 6 
#
# 1 0.016753 -0.003420 0.000929 0.000000 0.000000 0.000000
# 2 -0.003420 0.011484 -0.004175 0.000000 0.000000 0.000000
# 3 0.000929 -0.004175 0.010242 0.000000 0.000000 0.000000
# 4 0.000000 0.000000 0.000000 0.030009 0.000000 0.000000
# 5 0.000000 0.000000 0.000000 0.000000 0.091716 0.000000
# 6 0.000000 0.000000 0.000000 0.000000 0.000000 0.035859
#
#
# Mechanical properties :
#
#
# Convention : Reuss Voigt Hill
#
# Bulk Modulus (GPa) = 39.76603 46.17439 42.97021
# Shear Modulus (GPa) = 22.95941 29.23834 26.09888
#
# Velocity S-wave (km/s) = 3.08983 3.48683 3.29432
# Velocity P-wave (km/s) = 5.40972 5.95072 5.68666
#
# Compressibility (1/GPa) = 0.02514709
#
# Stress axis : x y z
#
# Youngs Moduli (GPa) = 59.69222 87.07647 97.63978
#
# Poissons Ratio (x) = 0.29777 -0.09068
# Poissons Ratio (y) = 0.20413 0.40762
# Poissons Ratio (z) = -0.05544 0.36352
#
# Static dielectric constant tensor:
#      x y z
#    x 1.922780 0.000000 0.000000 
#    y 0.000000 1.950630 0.000000 
#    z 0.000000 0.000000 1.873630 
# 
# From -- ./inp_files/4099.got.cif
#   From: 2010.05.17/outbox.cif.g08.bks.cpg/sg37_3_cif.got.tgz:4099.got - 2010.06.03 17:53:42.
