data_PCOD9354403
_publ_section_title
;
Structure prediction by ZEFSAII (Michael W. Deem and Ramdas Pophale) SiO2 
 PCOD9354403
Probable space group: C C C 2
;
_chemical_formula_sum "Si O2"
_cell_formula_units_Z 48
_cell_length_a 15.945156
_cell_length_b 13.935448
_cell_length_c 8.652125
_cell_angle_alpha 90.000000
_cell_angle_beta 90.000000
_cell_angle_gamma 90.000000
_cell_volume 1922.527199
_symmetry_space_group_name_H-M "C C C 2"
_symmetry_group_IT_number 37
_symmetry_cell_setting 'orthorhombic'
loop_
_space_group_symop_operation_xyz
x,y,z
-x,-y,z
-x,y,1/2+z
x,-y,1/2+z
1/2+x,1/2+y,z
1/2-x,1/2-y,z
1/2-x,1/2+y,1/2+z
1/2+x,1/2-y,1/2+z
loop_
_atom_site_type_symbol
_atom_site_label
_atom_site_fract_x
_atom_site_fract_y
_atom_site_fract_z
Si Si1 0.397337 0.387816 0.564680
Si Si2 0.216340 0.927190 0.593502
Si Si3 0.825343 0.536714 0.384394
Si Si4 0.987024 0.636268 0.356141
Si Si5 0.115023 0.674856 0.133264
Si Si6 0.427727 0.336237 0.219682
O O1 0.343461 0.478997 0.611564
O O2 0.358754 0.284387 0.612945
O O3 0.406874 0.391462 0.379279
O O4 0.489073 0.379948 0.642443
O O5 0.274367 0.944792 0.445054
O O6 0.274542 0.919252 0.743356
O O7 0.148874 0.842335 0.599998
O O8 0.923156 0.546672 0.333348
O O9 0.825181 0.603356 0.540104
O O10 0.972751 0.655235 0.537961
O O11 0.942178 0.729566 0.282465
O O12 0.082297 0.646812 0.301241
#
# Coordination Sequence:
#
# PCOD9354403 Si02
#       6
#     8   8   8   8   8   8
#     4  10  21  37  65  92 120 163 204 244 299 363
#     4  12  23  38  55  92 136 160 192 242 313 374
#     4  10  24  41  62  89 125 163 201 250 311 357
#     4   8  18  41  66  88 111 157 216 251 291 354
#     4   8  18  41  66  88 111 157 216 251 291 354
#     4  10  21  37  65  92 120 163 204 244 299 363
#
# _framework density 24.967137000000001
#
# number of rings (size 3 to 8) (size 9 to 14) (size 15 to 20)
#    1.000    1.333    1.667    0.500    2.333    4.000 
#    3.000    2.500    0.000    2.000    0.000    0.000 
#    0.000    0.000    0.000    0.000    0.000    0.000 
#
# Total GULP energy -133839.941614 kJ/mol
# GULP energy per Si atom -5576.664234 kJ/mol
# Density = 2.491031 g / cm^3
# Si number density = 24.967137 Si / 1000 Ang^3
#
#
#
# Elastic Constant Matrix: (Units=GPa)
#
#
# Indices 1 2 3 4 5 6 
#
# 1 120.1219 14.3605 26.2493 0.0000 0.0000 0.0000
# 2 14.3605 51.9553 6.3359 0.0000 0.0000 0.0000
# 3 26.2493 6.3359 19.9451 0.0000 0.0000 0.0000
# 4 0.0000 0.0000 0.0000 25.7194 0.0000 0.0000
# 5 0.0000 0.0000 0.0000 0.0000 50.1132 0.0000
# 6 0.0000 0.0000 0.0000 0.0000 0.0000 30.5881
#
#
#
# Elastic Compliance Matrix: (Units=1/GPa)
#
#
# Indices 1 2 3 4 5 6 
#
# 1 0.011786 -0.001421 -0.015059 0.000000 0.000000 0.000000
# 2 -0.001421 0.020194 -0.004545 0.000000 0.000000 0.000000
# 3 -0.015059 -0.004545 0.071400 0.000000 0.000000 0.000000
# 4 0.000000 0.000000 0.000000 0.038881 0.000000 0.000000
# 5 0.000000 0.000000 0.000000 0.000000 0.019955 0.000000
# 6 0.000000 0.000000 0.000000 0.000000 0.000000 0.032692
#
#
# Mechanical properties :
#
#
# Convention : Reuss Voigt Hill
#
# Bulk Modulus (GPa) = 16.30522 31.76817 24.03669
# Shear Modulus (GPa) = 19.42485 30.95591 25.19038
#
# Velocity S-wave (km/s) = 2.79232 3.52499 3.17983
# Velocity P-wave (km/s) = 4.11594 5.41471 4.80936
#
# Compressibility (1/GPa) = 0.06133004
#
# Stress axis : x y z
#
# Youngs Moduli (GPa) = 84.84974 49.51880 14.00554
#
# Poissons Ratio (x) = 0.07037 0.21091
# Poissons Ratio (y) = 0.12058 0.06365
# Poissons Ratio (z) = 1.27777 0.22505
#
# Static dielectric constant tensor:
#      x y z
#    x 2.073930 0.000000 0.000000 
#    y 0.000000 2.034730 0.000000 
#    z 0.000000 0.000000 1.961070 
# 
# From -- ./inp_files/3472.got.cif
#   From: 2010.05.17/outbox.cif.g08.bks.cpg/sg37_2_cif.got.tgz:3472.got - 2010.06.03 17:53:42.
