data_PCOD9354577
_publ_section_title
;
Structure prediction by ZEFSAII (Michael W. Deem and Ramdas Pophale) SiO2 
 PCOD9354577
Probable space group: C C C 2
;
_chemical_formula_sum "Si O2"
_cell_formula_units_Z 40
_cell_length_a 4.809557
_cell_length_b 26.466336
_cell_length_c 13.295311
_cell_angle_alpha 90.000000
_cell_angle_beta 90.000000
_cell_angle_gamma 90.000000
_cell_volume 1692.378107
_symmetry_space_group_name_H-M "C C C 2"
_symmetry_group_IT_number 37
_symmetry_cell_setting 'orthorhombic'
loop_
_space_group_symop_operation_xyz
x,y,z
-x,-y,z
-x,y,1/2+z
x,-y,1/2+z
1/2+x,1/2+y,z
1/2-x,1/2-y,z
1/2-x,1/2+y,1/2+z
1/2+x,1/2-y,1/2+z
loop_
_atom_site_type_symbol
_atom_site_label
_atom_site_fract_x
_atom_site_fract_y
_atom_site_fract_z
Si Si1 0.736750 0.033641 0.819390
Si Si2 0.843008 0.696839 0.234847
Si Si3 0.653673 0.303239 0.381501
Si Si4 0.986659 0.099815 0.995518
Si Si5 0.556778 0.905219 0.129443
O O1 0.572113 0.060886 0.728923
O O2 0.500000 0.000000 0.870649
O O3 0.860445 0.073543 0.897614
O O4 0.000000 0.000000 0.784885
O O5 0.750000 0.750000 0.185633
O O6 0.651742 0.696292 0.334113
O O7 0.813615 0.648348 0.165567
O O8 0.149834 0.692869 0.282769
O O9 0.750000 0.250000 0.428187
O O10 0.644366 0.349831 0.456435
O O11 0.736982 0.104878 0.076115
O O12 0.231032 0.069722 0.050774
#
# Coordination Sequence:
#
# PCOD9354577 Si02
#       5
#     8   8   8   8   8
#     4  12  28  48  74 101 144 194 246 315 373 428
#     4  10  21  41  70 101 140 190 229 283 352 433
#     4  10  21  41  70 101 142 188 233 282 356 431
#     4  12  26  44  74 109 143 189 242 300 368 441
#     4  12  26  44  74 106 144 187 243 298 366 440
#
# _framework density 23.635380999999999
#
# number of rings (size 3 to 8) (size 9 to 14) (size 15 to 20)
#    0.000    0.800    2.000    4.800    2.800    5.600 
#    0.000    2.000    0.000    0.000    0.000    0.000 
#    0.000    0.000    0.000    0.000    0.000    0.000 
#
# Total GULP energy -111774.622681 kJ/mol
# GULP energy per Si atom -5588.731134 kJ/mol
# Density = 2.358159 g / cm^3
# Si number density = 23.635381 Si / 1000 Ang^3
#
#
#
# Elastic Constant Matrix: (Units=GPa)
#
#
# Indices 1 2 3 4 5 6 
#
# 1 91.5045 26.1814 17.9659 0.0000 0.0000 0.0000
# 2 26.1814 108.2261 49.7549 0.0000 0.0000 0.0000
# 3 17.9659 49.7549 101.6012 0.0000 0.0000 0.0000
# 4 0.0000 0.0000 0.0000 -24.3855 0.0000 0.0000
# 5 0.0000 0.0000 0.0000 0.0000 29.3231 0.0000
# 6 0.0000 0.0000 0.0000 0.0000 0.0000 36.5133
#
#
#
# Elastic Compliance Matrix: (Units=1/GPa)
#
#
# Indices 1 2 3 4 5 6 
#
# 1 0.011803 -0.002447 -0.000889 0.000000 0.000000 0.000000
# 2 -0.002447 0.012432 -0.005655 0.000000 0.000000 0.000000
# 3 -0.000889 -0.005655 0.012769 0.000000 0.000000 0.000000
# 4 0.000000 0.000000 0.000000 -0.041008 0.000000 0.000000
# 5 0.000000 0.000000 0.000000 0.000000 0.034103 0.000000
# 6 0.000000 0.000000 0.000000 0.000000 0.000000 0.027387
#
#
# Mechanical properties :
#
#
# Convention : Reuss Voigt Hill
#
# Bulk Modulus (GPa) = 52.57069 54.34845 53.45957
# Shear Modulus (GPa) = 61.11852 22.11881 41.61867
#
# Velocity S-wave (km/s) = 5.09068 3.06246 4.20082
# Velocity P-wave (km/s) = 7.53950 5.96233 6.79681
#
# Compressibility (1/GPa) = 0.01902201
#
# Stress axis : x y z
#
# Youngs Moduli (GPa) = 84.72423 80.43955 78.31447
#
# Poissons Ratio (x) = 0.19681 0.06962
# Poissons Ratio (y) = 0.20729 0.44289
# Poissons Ratio (z) = 0.07532 0.45491
#
# Static dielectric constant tensor:
#      x y z
#    x 1.883110 0.000000 0.000000 
#    y 0.000000 1.996250 0.000000 
#    z 0.000000 0.000000 1.926550 
# 
# From -- ./inp_files/5528.got.cif
#   From: 2010.05.17/outbox.cif.g08.bks.cpg/sg37_3_cif.got.tgz:5528.got - 2010.06.03 17:53:42.
