data_PCOD9354340
_publ_section_title
;
Structure prediction by ZEFSAII (Michael W. Deem and Ramdas Pophale) SiO2 
 PCOD9354340
Probable space group: C C C 2
;
_chemical_formula_sum "Si O2"
_cell_formula_units_Z 28
_cell_length_a 16.135202
_cell_length_b 12.112041
_cell_length_c 5.528181
_cell_angle_alpha 90.000000
_cell_angle_beta 90.000000
_cell_angle_gamma 90.000000
_cell_volume 1080.373674
_symmetry_space_group_name_H-M "C C C 2"
_symmetry_group_IT_number 37
_symmetry_cell_setting 'orthorhombic'
loop_
_space_group_symop_operation_xyz
x,y,z
-x,-y,z
-x,y,1/2+z
x,-y,1/2+z
1/2+x,1/2+y,z
1/2-x,1/2-y,z
1/2-x,1/2+y,1/2+z
1/2+x,1/2-y,1/2+z
loop_
_atom_site_type_symbol
_atom_site_label
_atom_site_fract_x
_atom_site_fract_y
_atom_site_fract_z
Si Si1 0.031685 0.626053 0.911030
Si Si2 0.142304 0.034184 0.681017
Si Si3 0.750000 0.750000 0.731576
Si Si4 0.790944 0.360637 0.698384
O O1 0.128968 0.617100 0.855553
O O2 0.000000 0.500000 0.930886
O O3 0.992713 0.678509 0.667690
O O4 0.224077 0.955630 0.696510
O O5 0.099076 0.993922 0.435195
O O6 0.179418 0.156800 0.667423
O O7 0.805990 0.674260 0.922294
O O8 0.750000 0.250000 0.813426
#
# Coordination Sequence:
#
# PCOD9354340 Si02
#       4
#     8   8   4   8
#     4  10  23  37  58  88 129 167 201 262 333 382
#     4  10  21  34  54  85 123 156 206 264 312 365
#     4   8  20  34  60  84 126 160 216 262 314 356
#     4   9  21  40  60  94 128 169 215 263 317 387
#
# _framework density 25.916958999999999
#
# number of rings (size 3 to 8) (size 9 to 14) (size 15 to 20)
#    0.857    1.714    0.000    0.000   18.000    0.000 
#    0.000    0.000    0.000    0.000    0.000    6.000 
#    0.000    0.000    0.000    0.000    0.000    0.000 
#
# Total GULP energy -78092.724559 kJ/mol
# GULP energy per Si atom -5578.051754 kJ/mol
# Density = 2.585797 g / cm^3
# Si number density = 25.916959 Si / 1000 Ang^3
#
#
#
# Elastic Constant Matrix: (Units=GPa)
#
#
# Indices 1 2 3 4 5 6 
#
# 1 100.4364 12.3527 0.7474 0.0000 0.0000 0.0000
# 2 12.3527 104.5890 1.2066 0.0000 0.0000 0.0000
# 3 0.7474 1.2066 137.2709 0.0000 0.0000 0.0000
# 4 0.0000 0.0000 0.0000 34.7323 0.0000 0.0000
# 5 0.0000 0.0000 0.0000 0.0000 -26.2279 0.0000
# 6 0.0000 0.0000 0.0000 0.0000 0.0000 18.1241
#
#
#
# Elastic Compliance Matrix: (Units=1/GPa)
#
#
# Indices 1 2 3 4 5 6 
#
# 1 0.010104 -0.001193 -0.000045 0.000000 0.000000 0.000000
# 2 -0.001193 0.009703 -0.000079 0.000000 0.000000 0.000000
# 3 -0.000045 -0.000079 0.007286 0.000000 0.000000 0.000000
# 4 0.000000 0.000000 0.000000 0.028792 0.000000 0.000000
# 5 0.000000 0.000000 0.000000 0.000000 -0.038127 0.000000
# 6 0.000000 0.000000 0.000000 0.000000 0.000000 0.055175
#
#
# Mechanical properties :
#
#
# Convention : Reuss Voigt Hill
#
# Bulk Modulus (GPa) = 40.88281 41.21222 41.04752
# Shear Modulus (GPa) = 59.72483 27.19169 43.45826
#
# Velocity S-wave (km/s) = 4.80570 3.24263 4.09935
# Velocity P-wave (km/s) = 6.82655 5.47318 6.18698
#
# Compressibility (1/GPa) = 0.02446016
#
# Stress axis : x y z
#
# Youngs Moduli (GPa) = 98.97483 103.06073 137.25330
#
# Poissons Ratio (x) = 0.12293 0.00611
# Poissons Ratio (y) = 0.11806 0.01081
# Poissons Ratio (z) = 0.00441 0.00812
#
# Static dielectric constant tensor:
#      x y z
#    x 1.995450 0.000000 0.000000 
#    y 0.000000 1.955990 0.000000 
#    z 0.000000 0.000000 2.681240 
# 
# From -- ./inp_files/250.got.cif
#   From: 2010.05.17/outbox.cif.g08.bks.cpg/sg37_1_cif.got.tgz:250.got - 2010.06.03 17:53:42.
