data_PCOD9354765
_publ_section_title
;
Structure prediction by ZEFSAII (Michael W. Deem and Ramdas Pophale) SiO2 
 PCOD9354765
Probable space group: C C C 2
;
_chemical_formula_sum "Si O2"
_cell_formula_units_Z 40
_cell_length_a 15.523404
_cell_length_b 11.581091
_cell_length_c 9.269962
_cell_angle_alpha 90.000000
_cell_angle_beta 90.000000
_cell_angle_gamma 90.000000
_cell_volume 1666.534805
_symmetry_space_group_name_H-M "C C C 2"
_symmetry_group_IT_number 37
_symmetry_cell_setting 'orthorhombic'
loop_
_space_group_symop_operation_xyz
x,y,z
-x,-y,z
-x,y,1/2+z
x,-y,1/2+z
1/2+x,1/2+y,z
1/2-x,1/2-y,z
1/2-x,1/2+y,1/2+z
1/2+x,1/2-y,1/2+z
loop_
_atom_site_type_symbol
_atom_site_label
_atom_site_fract_x
_atom_site_fract_y
_atom_site_fract_z
Si Si1 0.112418 0.168549 0.594200
Si Si2 0.255752 0.520650 0.255173
Si Si3 0.432883 0.907552 0.201978
Si Si4 0.015695 0.192305 0.871888
Si Si5 0.186701 0.854900 0.530124
O O1 0.202227 0.119870 0.651272
O O2 0.103443 0.307487 0.597833
O O3 0.069352 0.139741 0.442202
O O4 0.049559 0.130562 0.727141
O O5 0.152742 0.528190 0.255313
O O6 0.287713 0.548220 0.414246
O O7 0.291898 0.403808 0.186347
O O8 0.480913 0.827087 0.321974
O O9 0.500000 0.000000 0.142770
O O10 0.089818 0.180849 0.994038
O O11 0.250000 0.750000 0.496771
#
# Coordination Sequence:
#
# PCOD9354765 Si02
#       5
#     8   8   8   8   8
#     4   9  21  41  65  96 138 181 238 300 369 453
#     4  11  23  44  70  98 141 202 231 311 388 443
#     4  10  22  39  68 100 140 181 240 307 379 430
#     4   9  21  40  65  93 143 174 237 307 359 447
#     4  11  23  44  68  99 147 186 248 315 377 451
#
# _framework density 24.001899000000002
#
# number of rings (size 3 to 8) (size 9 to 14) (size 15 to 20)
#    1.200    0.800    2.000    0.600    2.800    4.800 
#    0.000    7.000    0.000    0.000    0.000    0.000 
#    0.000    0.000    0.000    0.000    0.000    0.000 
#
# Total GULP energy -111553.882210 kJ/mol
# GULP energy per Si atom -5577.694110 kJ/mol
# Density = 2.394727 g / cm^3
# Si number density = 24.001899 Si / 1000 Ang^3
#
#
#
# Elastic Constant Matrix: (Units=GPa)
#
#
# Indices 1 2 3 4 5 6 
#
# 1 99.4378 18.8513 21.5248 0.0000 0.0000 0.0000
# 2 18.8513 57.7344 14.7431 0.0000 0.0000 0.0000
# 3 21.5248 14.7431 71.4558 0.0000 0.0000 0.0000
# 4 0.0000 0.0000 0.0000 38.7312 0.0000 0.0000
# 5 0.0000 0.0000 0.0000 0.0000 -1.1717 0.0000
# 6 0.0000 0.0000 0.0000 0.0000 0.0000 38.1783
#
#
#
# Elastic Compliance Matrix: (Units=1/GPa)
#
#
# Indices 1 2 3 4 5 6 
#
# 1 0.011216 -0.002955 -0.002769 0.000000 0.000000 0.000000
# 2 -0.002955 0.019063 -0.003043 0.000000 0.000000 0.000000
# 3 -0.002769 -0.003043 0.015457 0.000000 0.000000 0.000000
# 4 0.000000 0.000000 0.000000 0.025819 0.000000 0.000000
# 5 0.000000 0.000000 0.000000 0.000000 -0.853481 0.000000
# 6 0.000000 0.000000 0.000000 0.000000 0.000000 0.026193
#
#
# Mechanical properties :
#
#
# Convention : Reuss Voigt Hill
#
# Bulk Modulus (GPa) = 35.45932 37.65183 36.55558
# Shear Modulus (GPa) = -6.86060 26.71481 9.92711
#
# Velocity S-wave (km/s) = -1.69250 3.33983 2.03591
# Velocity P-wave (km/s) = 3.31454 5.53116 4.55960
#
# Compressibility (1/GPa) = 0.02820133
#
# Stress axis : x y z
#
# Youngs Moduli (GPa) = 89.15712 52.45853 64.69734
#
# Poissons Ratio (x) = 0.15503 0.17914
# Poissons Ratio (y) = 0.26348 0.19687
# Poissons Ratio (z) = 0.24687 0.15963
#
# Static dielectric constant tensor:
#      x y z
#    x 1.936240 0.000000 0.000000 
#    y 0.000000 2.000240 0.000000 
#    z 0.000000 0.000000 1.922810 
# 
# From -- ./inp_files/7646.got.cif
#   From: 2010.05.17/outbox.cif.g08.bks.cpg/sg37_4_cif.got.tgz:7646.got - 2010.06.03 17:53:42.
