data_PCOD9354687
_publ_section_title
;
Structure prediction by ZEFSAII (Michael W. Deem and Ramdas Pophale) SiO2 
 PCOD9354687
Probable space group: C C C 2
;
_chemical_formula_sum "Si O2"
_cell_formula_units_Z 60
_cell_length_a 22.281442
_cell_length_b 22.387677
_cell_length_c 5.624329
_cell_angle_alpha 90.000000
_cell_angle_beta 90.000000
_cell_angle_gamma 90.000000
_cell_volume 2805.582497
_symmetry_space_group_name_H-M "C C C 2"
_symmetry_group_IT_number 37
_symmetry_cell_setting 'orthorhombic'
loop_
_space_group_symop_operation_xyz
x,y,z
-x,-y,z
-x,y,1/2+z
x,-y,1/2+z
1/2+x,1/2+y,z
1/2-x,1/2-y,z
1/2-x,1/2+y,1/2+z
1/2+x,1/2-y,1/2+z
loop_
_atom_site_type_symbol
_atom_site_label
_atom_site_fract_x
_atom_site_fract_y
_atom_site_fract_z
Si Si1 0.854048 0.756847 0.250000
Si Si2 0.481961 0.727305 0.658612
Si Si3 0.638015 0.982138 0.272188
Si Si4 0.285799 0.342478 0.597633
Si Si5 0.355024 0.142174 0.508996
Si Si6 0.250000 0.750000 0.459263
Si Si7 0.526239 0.864735 0.725885
Si Si8 0.722756 0.473630 0.252740
O O1 0.911333 0.773012 0.096930
O O2 0.821989 0.812582 0.380781
O O3 0.878653 0.706443 0.425935
O O4 0.800741 0.720977 0.119863
O O5 0.512892 0.699548 0.424787
O O6 0.507118 0.794414 0.708398
O O7 0.644334 0.911322 0.318192
O O8 0.609176 0.005058 0.517744
O O9 0.704075 0.015497 0.258490
O O10 0.213965 0.347143 0.567155
O O11 0.289305 0.294811 0.807240
O O12 0.300543 0.408524 0.679634
O O13 0.401919 0.126648 0.717232
O O14 0.501590 0.888742 0.471531
O O15 0.703604 0.487170 0.523289
#
# Coordination Sequence:
#
# PCOD9354687 Si02
#       8
#     8   8   8   8   8   4   8   8
#     4  12  25  38  57  95 131 165 205 261 335 393
#     4  10  22  41  60  82 118 167 213 248 301 385
#     4  10  22  37  58  85 107 162 215 258 301 371
#     4  12  25  38  57  95 131 165 205 261 335 393
#     4  12  21  40  60  83 126 162 214 254 323 388
#     4  12  26  32  60  90 136 166 192 268 326 400
#     4  10  22  37  58  85 107 162 215 258 301 371
#     4  10  22  41  60  82 118 167 213 248 301 385
#
# _framework density 21.385935
#
# number of rings (size 3 to 8) (size 9 to 14) (size 15 to 20)
#    0.000    1.067    8.000    0.000   11.200    1.067 
#    0.000    0.000    0.000    2.400    0.000    0.000 
#    0.000    3.200    0.000    0.000    0.000    0.000 
#
# Total GULP energy -167146.840043 kJ/mol
# GULP energy per Si atom -5571.561335 kJ/mol
# Density = 2.133726 g / cm^3
# Si number density = 21.385935 Si / 1000 Ang^3
#
#
#
# Elastic Constant Matrix: (Units=GPa)
#
#
# Indices 1 2 3 4 5 6 
#
# 1 59.3360 10.0085 8.2763 0.0000 0.0000 0.0000
# 2 10.0085 66.8729 1.5210 0.0000 0.0000 0.0000
# 3 8.2763 1.5210 118.0021 0.0000 0.0000 0.0000
# 4 0.0000 0.0000 0.0000 176.4239 0.0000 0.0000
# 5 0.0000 0.0000 0.0000 0.0000 25.9971 0.0000
# 6 0.0000 0.0000 0.0000 0.0000 0.0000 11.1898
#
#
#
# Elastic Compliance Matrix: (Units=1/GPa)
#
#
# Indices 1 2 3 4 5 6 
#
# 1 0.017455 -0.002585 -0.001191 0.000000 0.000000 0.000000
# 2 -0.002585 0.015341 -0.000016 0.000000 0.000000 0.000000
# 3 -0.001191 -0.000016 0.008558 0.000000 0.000000 0.000000
# 4 0.000000 0.000000 0.000000 0.005668 0.000000 0.000000
# 5 0.000000 0.000000 0.000000 0.000000 0.038466 0.000000
# 6 0.000000 0.000000 0.000000 0.000000 0.000000 0.089367
#
#
# Mechanical properties :
#
#
# Convention : Reuss Voigt Hill
#
# Bulk Modulus (GPa) = 29.61282 31.53585 30.57434
# Shear Modulus (GPa) = 25.81341 57.68248 41.74795
#
# Velocity S-wave (km/s) = 3.47800 5.19911 4.42308
# Velocity P-wave (km/s) = 5.47773 7.12875 6.35707
#
# Compressibility (1/GPa) = 0.03376915
#
# Stress axis : x y z
#
# Youngs Moduli (GPa) = 57.28890 65.18456 116.84745
#
# Poissons Ratio (x) = 0.16853 0.13916
# Poissons Ratio (y) = 0.14811 0.00192
# Poissons Ratio (z) = 0.06823 0.00107
#
# Static dielectric constant tensor:
#      x y z
#    x 1.748580 0.000000 0.000000 
#    y 0.000000 1.404510 0.000000 
#    z 0.000000 0.000000 1.939770 
# 
# From -- ./inp_files/1233.got.cif
#   From: 2010.05.17/outbox.cif.g08.bks.cpg/sg37_1_cif.got.tgz:1233.got - 2010.06.03 17:53:42.
