data_PCOD9354489
_publ_section_title
;
Structure prediction by ZEFSAII (Michael W. Deem and Ramdas Pophale) SiO2 
 PCOD9354489
Probable space group: C C C 2
;
_chemical_formula_sum "Si O2"
_cell_formula_units_Z 40
_cell_length_a 14.484788
_cell_length_b 13.943875
_cell_length_c 8.914094
_cell_angle_alpha 90.000000
_cell_angle_beta 90.000000
_cell_angle_gamma 90.000000
_cell_volume 1800.415875
_symmetry_space_group_name_H-M "C C C 2"
_symmetry_group_IT_number 37
_symmetry_cell_setting 'orthorhombic'
loop_
_space_group_symop_operation_xyz
x,y,z
-x,-y,z
-x,y,1/2+z
x,-y,1/2+z
1/2+x,1/2+y,z
1/2-x,1/2-y,z
1/2-x,1/2+y,1/2+z
1/2+x,1/2-y,1/2+z
loop_
_atom_site_type_symbol
_atom_site_label
_atom_site_fract_x
_atom_site_fract_y
_atom_site_fract_z
Si Si1 0.475772 0.109189 0.356540
Si Si2 0.835660 0.119897 0.161372
Si Si3 0.785094 0.361476 0.707361
Si Si4 0.198304 0.977502 0.438883
Si Si5 0.620491 0.168433 0.152740
O O1 0.392458 0.141614 0.249291
O O2 0.568059 0.164444 0.310329
O O3 0.439503 0.118514 0.525023
O O4 0.500000 0.000000 0.325690
O O5 0.856839 0.092993 0.330799
O O6 0.722765 0.124699 0.160669
O O7 0.869265 0.221540 0.107914
O O8 0.865097 0.035884 0.052612
O O9 0.750000 0.250000 0.715032
O O10 0.763459 0.412451 0.547224
O O11 0.743526 0.437692 0.832999
#
# Coordination Sequence:
#
# PCOD9354489 Si02
#       5
#     8   8   8   8   8
#     4  12  25  39  65 103 140 170 221 291 356 408
#     4  10  22  43  64  94 129 182 223 283 337 429
#     4  11  24  41  67  99 141 185 227 285 357 426
#     4  10  21  39  68  95 128 173 241 273 328 420
#     4  11  25  39  64  93 139 172 223 275 363 412
#
# _framework density 22.217089999999999
#
# number of rings (size 3 to 8) (size 9 to 14) (size 15 to 20)
#    0.000    1.200    2.000    4.200    8.400    0.000 
#    0.000    0.000    0.000   20.400    0.000    0.000 
#    0.000    0.000    0.000    0.000    0.000    0.000 
#
# Total GULP energy -111662.531974 kJ/mol
# GULP energy per Si atom -5583.126599 kJ/mol
# Density = 2.216652 g / cm^3
# Si number density = 22.217090 Si / 1000 Ang^3
#
#
#
# Elastic Constant Matrix: (Units=GPa)
#
#
# Indices 1 2 3 4 5 6 
#
# 1 36.2782 31.4492 1.9284 0.0000 0.0000 0.0000
# 2 31.4492 136.2497 32.4011 0.0000 0.0000 0.0000
# 3 1.9284 32.4011 100.1999 0.0000 0.0000 0.0000
# 4 0.0000 0.0000 0.0000 4.7597 0.0000 0.0000
# 5 0.0000 0.0000 0.0000 0.0000 -41.8237 0.0000
# 6 0.0000 0.0000 0.0000 0.0000 0.0000 23.7957
#
#
#
# Elastic Compliance Matrix: (Units=1/GPa)
#
#
# Indices 1 2 3 4 5 6 
#
# 1 0.034860 -0.008544 0.002092 0.000000 0.000000 0.000000
# 2 -0.008544 0.010045 -0.003084 0.000000 0.000000 0.000000
# 3 0.002092 -0.003084 0.010937 0.000000 0.000000 0.000000
# 4 0.000000 0.000000 0.000000 0.210097 0.000000 0.000000
# 5 0.000000 0.000000 0.000000 0.000000 -0.023910 0.000000
# 6 0.000000 0.000000 0.000000 0.000000 0.000000 0.042024
#
#
# Mechanical properties :
#
#
# Convention : Reuss Voigt Hill
#
# Bulk Modulus (GPa) = 27.19566 44.92059 36.05812
# Shear Modulus (GPa) = 15.85377 11.14294 13.49835
#
# Velocity S-wave (km/s) = 2.67420 2.24196 2.46756
# Velocity P-wave (km/s) = 4.66932 5.19275 4.93798
#
# Compressibility (1/GPa) = 0.03677058
#
# Stress axis : x y z
#
# Youngs Moduli (GPa) = 28.68600 99.55292 91.43307
#
# Poissons Ratio (x) = 0.85057 -0.19127
# Poissons Ratio (y) = 0.24509 0.28196
# Poissons Ratio (z) = -0.06001 0.30700
#
# Static dielectric constant tensor:
#      x y z
#    x 1.844520 0.000000 0.000000 
#    y 0.000000 1.899920 0.000000 
#    z 0.000000 0.000000 1.876770 
# 
# From -- ./inp_files/3328.got.cif
#   From: 2010.05.17/outbox.cif.g08.bks.cpg/sg37_2_cif.got.tgz:3328.got - 2010.06.03 17:53:42.
