data_PCOD9354362
_publ_section_title
;
Structure prediction by ZEFSAII (Michael W. Deem and Ramdas Pophale) SiO2 
 PCOD9354362
Probable space group: C C C 2
;
_chemical_formula_sum "Si O2"
_cell_formula_units_Z 64
_cell_length_a 10.677870
_cell_length_b 9.464247
_cell_length_c 31.626146
_cell_angle_alpha 90.000000
_cell_angle_beta 90.000000
_cell_angle_gamma 90.000000
_cell_volume 3196.075034
_symmetry_space_group_name_H-M "C C C 2"
_symmetry_group_IT_number 37
_symmetry_cell_setting 'orthorhombic'
loop_
_space_group_symop_operation_xyz
x,y,z
-x,-y,z
-x,y,1/2+z
x,-y,1/2+z
1/2+x,1/2+y,z
1/2-x,1/2-y,z
1/2-x,1/2+y,1/2+z
1/2+x,1/2-y,1/2+z
loop_
_atom_site_type_symbol
_atom_site_label
_atom_site_fract_x
_atom_site_fract_y
_atom_site_fract_z
Si Si1 0.379201 0.428169 0.641970
Si Si2 0.624441 0.421703 0.395385
Si Si3 0.103728 0.387335 0.024932
Si Si4 0.379201 0.428169 0.049997
Si Si5 0.893139 0.391548 0.266146
Si Si6 0.896272 0.387336 0.167035
Si Si7 0.624441 0.578297 0.796582
Si Si8 0.106861 0.391548 0.925821
O O1 0.500000 0.500000 0.663386
O O2 0.370248 0.499999 0.595983
O O3 0.243943 0.447752 0.662775
O O4 0.401887 0.259648 0.641697
O O5 0.500000 0.500000 0.410986
O O6 0.642008 0.457010 0.345983
O O7 0.753715 0.453567 0.419502
O O8 0.603095 0.254204 0.400402
O O9 0.243942 0.447751 0.029192
O O10 0.098112 0.240352 0.050269
O O11 0.000000 0.500000 0.038550
O O12 0.085503 0.356026 0.975209
O O13 0.500000 0.500000 0.028581
O O14 0.914496 0.356027 0.216758
O O15 0.753715 0.453567 0.272464
O O16 0.896905 0.245796 0.291565
O O17 0.000000 0.500000 0.279642
O O18 0.000000 0.500000 0.153417
O O19 0.500000 0.500000 0.780981
O O20 0.000000 0.500000 0.912325
#
# Coordination Sequence:
#
# PCOD9354362 Si02
#       8
#     8   8   8   8   8   8   8   8
#     4  10  22  38  58  84 110 143 184 229 283 338
#     4  10  21  36  57  86 118 151 187 230 278 328
#     4  10  23  40  59  84 113 147 189 233 280 335
#     4  10  22  38  58  84 110 143 184 229 283 338
#     4  10  21  38  59  83 113 151 190 231 278 330
#     4  10  23  40  59  84 113 147 189 233 280 335
#     4  10  21  36  57  86 118 151 187 230 278 328
#     4  10  21  38  59  83 113 151 190 231 278 330
#
# _framework density 20.024562
#
# number of rings (size 3 to 8) (size 9 to 14) (size 15 to 20)
#    0.000    2.000    0.000    4.500    0.000   16.500 
#    0.000    7.500    0.000    0.000    0.000    0.000 
#    0.000    0.000    0.000    0.000    0.000    0.000 
#
# Total GULP energy -178625.001101 kJ/mol
# GULP energy per Si atom -5582.031284 kJ/mol
# Density = 1.997899 g / cm^3
# Si number density = 20.024562 Si / 1000 Ang^3
#
#
#
# Elastic Constant Matrix: (Units=GPa)
#
#
# Indices 1 2 3 4 5 6 
#
# 1 181.0413 88.7665 1.0452 0.0000 0.0000 0.0000
# 2 88.7665 78.3846 18.9603 0.0000 0.0000 0.0000
# 3 1.0452 18.9603 44.2832 0.0000 0.0000 0.0000
# 4 0.0000 0.0000 0.0000 -19.6758 0.0000 0.0000
# 5 0.0000 0.0000 0.0000 0.0000 33.2163 0.0000
# 6 0.0000 0.0000 0.0000 0.0000 0.0000 46.0604
#
#
#
# Elastic Compliance Matrix: (Units=1/GPa)
#
#
# Indices 1 2 3 4 5 6 
#
# 1 0.014284 -0.017954 0.007350 0.000000 0.000000 0.000000
# 2 -0.017954 0.036798 -0.015332 0.000000 0.000000 0.000000
# 3 0.007350 -0.015332 0.028973 0.000000 0.000000 0.000000
# 4 0.000000 0.000000 0.000000 -0.050824 0.000000 0.000000
# 5 0.000000 0.000000 0.000000 0.000000 0.030106 0.000000
# 6 0.000000 0.000000 0.000000 0.000000 0.000000 0.021711
#
#
# Mechanical properties :
#
#
# Convention : Reuss Voigt Hill
#
# Bulk Modulus (GPa) = 35.48135 57.91701 46.69918
# Shear Modulus (GPa) = 35.13358 24.91597 30.02478
#
# Velocity S-wave (km/s) = 4.19325 3.53125 3.87641
# Velocity P-wave (km/s) = 6.41886 6.75367 6.58839
#
# Compressibility (1/GPa) = 0.02818382
#
# Stress axis : x y z
#
# Youngs Moduli (GPa) = 70.00726 27.17523 34.51505
#
# Poissons Ratio (x) = 0.48791 -0.25369
# Poissons Ratio (y) = 1.25691 0.52918
# Poissons Ratio (z) = -0.51456 0.41664
#
# Static dielectric constant tensor:
#      x y z
#    x 1.728840 0.000000 0.000000 
#    y 0.000000 1.678880 0.000000 
#    z 0.000000 0.000000 1.720590 
# 
# From -- ./inp_files/20474.got.cif
#   From: 2010.05.17/outbox.cif.g08.bks.cpg/sg37_11_cif.got.tgz:20474.got - 2010.06.03 17:53:42.
