data_PCOD9354699
_publ_section_title
;
Structure prediction by ZEFSAII (Michael W. Deem and Ramdas Pophale) SiO2 
 PCOD9354699
Probable space group: C C C 2
;
_chemical_formula_sum "Si O2"
_cell_formula_units_Z 64
_cell_length_a 17.683637
_cell_length_b 8.012026
_cell_length_c 21.245887
_cell_angle_alpha 90.000000
_cell_angle_beta 90.000000
_cell_angle_gamma 90.000000
_cell_volume 3010.154651
_symmetry_space_group_name_H-M "C C C 2"
_symmetry_group_IT_number 37
_symmetry_cell_setting 'orthorhombic'
loop_
_space_group_symop_operation_xyz
x,y,z
-x,-y,z
-x,y,1/2+z
x,-y,1/2+z
1/2+x,1/2+y,z
1/2-x,1/2-y,z
1/2-x,1/2+y,1/2+z
1/2+x,1/2-y,1/2+z
loop_
_atom_site_type_symbol
_atom_site_label
_atom_site_fract_x
_atom_site_fract_y
_atom_site_fract_z
Si Si1 0.664991 0.057759 0.071880
Si Si2 0.162715 0.213141 0.202381
Si Si3 0.822477 0.931917 0.526039
Si Si4 0.174262 0.143493 0.911438
Si Si5 0.089326 0.537154 0.209102
Si Si6 0.948508 0.138381 0.592598
Si Si7 0.945996 0.644393 0.984433
Si Si8 0.170691 0.845462 0.262740
O O1 0.752477 0.004131 0.068490
O O2 0.667426 0.240288 0.041387
O O3 0.628191 0.065406 0.140560
O O4 0.619832 0.940706 0.025042
O O5 0.250000 0.250000 0.188019
O O6 0.131386 0.375975 0.240324
O O7 0.105277 0.220126 0.143633
O O8 0.160301 0.024864 0.229374
O O9 0.814258 0.977261 0.452965
O O10 0.894350 0.033050 0.548054
O O11 0.250000 0.250000 0.925218
O O12 0.171006 0.119446 0.837099
O O13 0.098127 0.239769 0.934809
O O14 0.106858 0.709264 0.245351
O O15 0.000000 0.500000 0.203402
O O16 0.988860 0.259354 0.542182
O O17 0.000000 0.000000 0.625262
O O18 0.000000 0.500000 0.957711
O O19 0.250000 0.750000 0.245819
#
# Coordination Sequence:
#
# PCOD9354699 Si02
#       8
#     8   8   8   8   8   8   8   8
#     4  11  21  38  63 104 137 168 224 280 346 435
#     4  12  25  44  70 103 137 190 234 288 353 429
#     4  10  22  37  65  97 133 177 218 273 350 420
#     4  10  22  46  66  95 133 184 238 296 341 415
#     4  12  27  44  71 108 144 187 235 296 365 430
#     4  11  24  38  64  96 143 172 215 277 358 422
#     4  11  22  38  68  96 134 174 221 280 358 415
#     4  11  26  48  72  97 139 190 255 298 347 417
#
# _framework density 21.261364
#
# number of rings (size 3 to 8) (size 9 to 14) (size 15 to 20)
#    0.000    1.000    3.750    2.625    5.250    0.500 
#    4.500    0.000   13.750    0.000    0.000    0.000 
#    0.000    0.000    0.000    0.000    0.000    0.000 
#
# Total GULP energy -178623.941129 kJ/mol
# GULP energy per Si atom -5581.998160 kJ/mol
# Density = 2.121297 g / cm^3
# Si number density = 21.261364 Si / 1000 Ang^3
#
#
#
# Elastic Constant Matrix: (Units=GPa)
#
#
# Indices 1 2 3 4 5 6 
#
# 1 104.1722 33.0591 22.1763 0.0000 0.0000 0.0000
# 2 33.0591 135.2899 41.6096 0.0000 0.0000 0.0000
# 3 22.1763 41.6096 72.6360 0.0000 0.0000 0.0000
# 4 0.0000 0.0000 0.0000 23.2877 0.0000 0.0000
# 5 0.0000 0.0000 0.0000 0.0000 11.2182 0.0000
# 6 0.0000 0.0000 0.0000 0.0000 0.0000 38.6077
#
#
#
# Elastic Compliance Matrix: (Units=1/GPa)
#
#
# Indices 1 2 3 4 5 6 
#
# 1 0.010674 -0.001949 -0.002142 0.000000 0.000000 0.000000
# 2 -0.001949 0.009328 -0.004749 0.000000 0.000000 0.000000
# 3 -0.002142 -0.004749 0.017142 0.000000 0.000000 0.000000
# 4 0.000000 0.000000 0.000000 0.042941 0.000000 0.000000
# 5 0.000000 0.000000 0.000000 0.000000 0.089141 0.000000
# 6 0.000000 0.000000 0.000000 0.000000 0.000000 0.025902
#
#
# Mechanical properties :
#
#
# Convention : Reuss Voigt Hill
#
# Bulk Modulus (GPa) = 51.37777 56.19867 53.78822
# Shear Modulus (GPa) = 22.80026 28.97293 25.88660
#
# Velocity S-wave (km/s) = 3.27827 3.69549 3.49311
# Velocity P-wave (km/s) = 6.20860 6.68569 6.45156
#
# Compressibility (1/GPa) = 0.01946367
#
# Stress axis : x y z
#
# Youngs Moduli (GPa) = 93.68405 107.19978 58.33791
#
# Poissons Ratio (x) = 0.20898 0.12497
# Poissons Ratio (y) = 0.18264 0.27702
# Poissons Ratio (z) = 0.20068 0.50905
#
# Static dielectric constant tensor:
#      x y z
#    x 1.805440 0.000000 0.000000 
#    y 0.000000 1.918240 0.000000 
#    z 0.000000 0.000000 1.746690 
# 
# From -- ./inp_files/17359.got.cif
#   From: 2010.05.17/outbox.cif.g08.bks.cpg/sg37_9_cif.got.tgz:17359.got - 2010.06.03 17:53:42.
