data_PCOD9354483
_publ_section_title
;
Structure prediction by ZEFSAII (Michael W. Deem and Ramdas Pophale) SiO2 
 PCOD9354483
Probable space group: C C C 2
;
_chemical_formula_sum "Si O2"
_cell_formula_units_Z 60
_cell_length_a 27.255695
_cell_length_b 10.880727
_cell_length_c 8.969515
_cell_angle_alpha 90.000000
_cell_angle_beta 90.000000
_cell_angle_gamma 90.000000
_cell_volume 2660.015303
_symmetry_space_group_name_H-M "C C C 2"
_symmetry_group_IT_number 37
_symmetry_cell_setting 'orthorhombic'
loop_
_space_group_symop_operation_xyz
x,y,z
-x,-y,z
-x,y,1/2+z
x,-y,1/2+z
1/2+x,1/2+y,z
1/2-x,1/2-y,z
1/2-x,1/2+y,1/2+z
1/2+x,1/2-y,1/2+z
loop_
_atom_site_type_symbol
_atom_site_label
_atom_site_fract_x
_atom_site_fract_y
_atom_site_fract_z
Si Si1 0.610271 0.213251 0.565750
Si Si2 0.110169 0.367816 0.597389
Si Si3 0.633062 0.372758 0.282984
Si Si4 0.443660 0.987392 0.376322
Si Si5 0.065652 0.892850 0.759995
Si Si6 0.254792 0.608864 0.216668
Si Si7 0.696326 0.037501 0.504547
Si Si8 0.000000 0.000000 0.512898
O O1 0.617969 0.319867 0.443613
O O2 0.569724 0.122354 0.493185
O O3 0.593876 0.268670 0.721990
O O4 0.662430 0.143921 0.573235
O O5 0.119227 0.233189 0.662906
O O6 0.069585 0.392142 0.472177
O O7 0.092224 0.451161 0.739245
O O8 0.159448 0.421817 0.521414
O O9 0.603472 0.495081 0.250845
O O10 0.690605 0.399591 0.278539
O O11 0.500000 0.000000 0.328852
O O12 0.034949 0.918101 0.908409
O O13 0.028530 0.909401 0.622375
O O14 0.250000 0.750000 0.163384
O O15 0.213782 0.582450 0.343272
O O16 0.243999 0.506862 0.092828
#
# Coordination Sequence:
#
# PCOD9354483 Si02
#       8
#     8   8   8   8   8   8   8   4
#     4  10  22  43  67  96 141 181 219 298 347 406
#     4  10  21  42  64  97 137 177 223 289 347 404
#     4  11  23  43  69  94 138 187 225 285 353 408
#     4  10  21  39  66 101 135 175 231 279 351 418
#     4  11  23  46  65  99 139 184 236 281 353 408
#     4  12  24  44  74  99 143 183 234 290 355 434
#     4  11  23  45  72 101 139 182 231 293 360 416
#     4  10  24  42  68  94 136 184 238 288 322 428
#
# _framework density 22.556259000000001
#
# number of rings (size 3 to 8) (size 9 to 14) (size 15 to 20)
#    0.000    1.333    4.000    2.000    1.867    2.133 
#   12.000    2.000    0.000    0.000    0.000    0.000 
#    0.000    0.000    0.000    0.000    0.000    0.000 
#
# Total GULP energy -167693.984512 kJ/mol
# GULP energy per Si atom -5589.799484 kJ/mol
# Density = 2.250492 g / cm^3
# Si number density = 22.556259 Si / 1000 Ang^3
#
#
#
# Elastic Constant Matrix: (Units=GPa)
#
#
# Indices 1 2 3 4 5 6 
#
# 1 86.2784 8.8880 6.6565 0.0000 0.0000 0.0000
# 2 8.8880 68.6399 38.0941 0.0000 0.0000 0.0000
# 3 6.6565 38.0941 60.8256 0.0000 0.0000 0.0000
# 4 0.0000 0.0000 0.0000 28.8638 0.0000 0.0000
# 5 0.0000 0.0000 0.0000 0.0000 36.3569 0.0000
# 6 0.0000 0.0000 0.0000 0.0000 0.0000 20.4791
#
#
#
# Elastic Compliance Matrix: (Units=1/GPa)
#
#
# Indices 1 2 3 4 5 6 
#
# 1 0.011757 -0.001239 -0.000511 0.000000 0.000000 0.000000
# 2 -0.001239 0.022461 -0.013931 0.000000 0.000000 0.000000
# 3 -0.000511 -0.013931 0.025221 0.000000 0.000000 0.000000
# 4 0.000000 0.000000 0.000000 0.034646 0.000000 0.000000
# 5 0.000000 0.000000 0.000000 0.000000 0.027505 0.000000
# 6 0.000000 0.000000 0.000000 0.000000 0.000000 0.048830
#
#
# Mechanical properties :
#
#
# Convention : Reuss Voigt Hill
#
# Bulk Modulus (GPa) = 35.61565 35.89126 35.75345
# Shear Modulus (GPa) = 23.68077 27.94697 25.81387
#
# Velocity S-wave (km/s) = 3.24366 3.52375 3.38660
# Velocity P-wave (km/s) = 5.46374 5.70107 5.58366
#
# Compressibility (1/GPa) = 0.02807754
#
# Stress axis : x y z
#
# Youngs Moduli (GPa) = 85.05268 44.52174 39.64895
#
# Poissons Ratio (x) = 0.05516 0.02025
# Poissons Ratio (y) = 0.10538 0.55236
# Poissons Ratio (z) = 0.04344 0.62025
#
# Static dielectric constant tensor:
#      x y z
#    x 1.745670 0.000000 0.000000 
#    y 0.000000 1.857560 0.000000 
#    z 0.000000 0.000000 1.873270 
# 
# From -- ./inp_files/4790.got.cif
#   From: 2010.05.17/outbox.cif.g08.bks.cpg/sg37_3_cif.got.tgz:4790.got - 2010.06.03 17:53:42.
