data_PCOD9354273
_publ_section_title
;
Structure prediction by ZEFSAII (Michael W. Deem and Ramdas Pophale) SiO2 
 PCOD9354273
Probable space group: C C C 2
;
_chemical_formula_sum "Si O2"
_cell_formula_units_Z 56
_cell_length_a 14.521607
_cell_length_b 13.663561
_cell_length_c 13.124237
_cell_angle_alpha 90.000000
_cell_angle_beta 90.000000
_cell_angle_gamma 90.000000
_cell_volume 2604.069936
_symmetry_space_group_name_H-M "C C C 2"
_symmetry_group_IT_number 37
_symmetry_cell_setting 'orthorhombic'
loop_
_space_group_symop_operation_xyz
x,y,z
-x,-y,z
-x,y,1/2+z
x,-y,1/2+z
1/2+x,1/2+y,z
1/2-x,1/2-y,z
1/2-x,1/2+y,1/2+z
1/2+x,1/2-y,1/2+z
loop_
_atom_site_type_symbol
_atom_site_label
_atom_site_fract_x
_atom_site_fract_y
_atom_site_fract_z
Si Si1 0.880039 0.788028 0.579050
Si Si2 0.279248 0.119660 0.678951
Si Si3 0.248723 0.898725 0.707604
Si Si4 0.866480 0.337113 0.529160
Si Si5 0.102323 0.684755 0.860393
Si Si6 0.551861 0.317134 0.685143
Si Si7 0.250000 0.750000 0.356707
Si Si8 0.500000 0.000000 0.449137
O O1 0.789232 0.855285 0.586126
O O2 0.864478 0.689857 0.649454
O O3 0.889543 0.745335 0.465575
O O4 0.958011 0.853375 0.634413
O O5 0.229788 0.162410 0.779300
O O6 0.289645 0.007394 0.702329
O O7 0.277028 0.858372 0.596956
O O8 0.304342 0.841004 0.796335
O O9 0.138401 0.887195 0.711448
O O10 0.920638 0.259691 0.596630
O O11 0.833281 0.287952 0.425352
O O12 0.926622 0.434587 0.511827
O O13 0.041364 0.751469 0.785712
O O14 0.054850 0.581289 0.885132
#
# Coordination Sequence:
#
# PCOD9354273 Si02
#       8
#     8   8   8   8   8   8   4   4
#     4  10  23  44  65  95 136 181 225 291 350 404
#     4  10  25  39  69  93 136 180 237 282 346 419
#     4  11  24  43  64 100 133 184 228 283 343 434
#     4  11  21  40  62  98 130 170 211 286 350 408
#     4  11  24  39  67  97 134 170 224 291 357 418
#     4  11  24  41  66  93 137 175 220 281 352 418
#     4  10  20  42  64  90 134 178 216 276 362 396
#     4  12  24  34  70 100 126 168 232 292 354 426
#
# _framework density 21.504798999999998
#
# number of rings (size 3 to 8) (size 9 to 14) (size 15 to 20)
#    0.000    1.429    2.857    3.000   10.000    1.714 
#    0.000    0.000    0.000    1.714    0.000    0.000 
#    0.000    0.000    0.000    0.000    0.000    0.000 
#
# Total GULP energy -156086.881965 kJ/mol
# GULP energy per Si atom -5574.531499 kJ/mol
# Density = 2.145585 g / cm^3
# Si number density = 21.504799 Si / 1000 Ang^3
#
#
#
# Elastic Constant Matrix: (Units=GPa)
#
#
# Indices 1 2 3 4 5 6 
#
# 1 80.9462 -7.9471 30.2228 0.0000 0.0000 0.0000
# 2 -7.9471 40.3103 18.9854 0.0000 0.0000 0.0000
# 3 30.2228 18.9854 130.1685 0.0000 0.0000 0.0000
# 4 0.0000 0.0000 0.0000 -1.4654 0.0000 0.0000
# 5 0.0000 0.0000 0.0000 0.0000 -12.9121 0.0000
# 6 0.0000 0.0000 0.0000 0.0000 0.0000 35.4763
#
#
#
# Elastic Compliance Matrix: (Units=1/GPa)
#
#
# Indices 1 2 3 4 5 6 
#
# 1 0.014314 0.004711 -0.004010 0.000000 0.000000 0.000000
# 2 0.004711 0.028188 -0.005205 0.000000 0.000000 0.000000
# 3 -0.004010 -0.005205 0.009373 0.000000 0.000000 0.000000
# 4 0.000000 0.000000 0.000000 -0.682425 0.000000 0.000000
# 5 0.000000 0.000000 0.000000 0.000000 -0.077447 0.000000
# 6 0.000000 0.000000 0.000000 0.000000 0.000000 0.028188
#
#
# Mechanical properties :
#
#
# Convention : Reuss Voigt Hill
#
# Bulk Modulus (GPa) = 23.32917 37.10525 30.21721
# Shear Modulus (GPa) = -7.61601 18.23071 5.30735
#
# Velocity S-wave (km/s) = -1.88394 2.91477 1.57269
# Velocity P-wave (km/s) = 2.47782 5.34974 4.16889
#
# Compressibility (1/GPa) = 0.04286478
#
# Stress axis : x y z
#
# Youngs Moduli (GPa) = 69.86281 35.47645 106.69313
#
# Poissons Ratio (x) = -0.16712 0.42789
# Poissons Ratio (y) = -0.32911 0.55534
# Poissons Ratio (z) = 0.28018 0.18466
#
# Static dielectric constant tensor:
#      x y z
#    x 1.980640 0.000000 0.000000 
#    y 0.000000 1.874380 0.000000 
#    z 0.000000 0.000000 1.781160 
# 
# From -- ./inp_files/7879.got.cif
#   From: 2010.05.17/outbox.cif.g08.bks.cpg/sg37_4_cif.got.tgz:7879.got - 2010.06.03 17:53:42.
