data_PCOD9354846
_publ_section_title
;
Structure prediction by ZEFSAII (Michael W. Deem and Ramdas Pophale) SiO2 
 PCOD9354846
Probable space group: C C C 2
;
_chemical_formula_sum "Si O2"
_cell_formula_units_Z 48
_cell_length_a 10.967418
_cell_length_b 21.625516
_cell_length_c 8.832349
_cell_angle_alpha 90.000000
_cell_angle_beta 90.000000
_cell_angle_gamma 90.000000
_cell_volume 2094.821855
_symmetry_space_group_name_H-M "C C C 2"
_symmetry_group_IT_number 37
_symmetry_cell_setting 'orthorhombic'
loop_
_space_group_symop_operation_xyz
x,y,z
-x,-y,z
-x,y,1/2+z
x,-y,1/2+z
1/2+x,1/2+y,z
1/2-x,1/2-y,z
1/2-x,1/2+y,1/2+z
1/2+x,1/2-y,1/2+z
loop_
_atom_site_type_symbol
_atom_site_label
_atom_site_fract_x
_atom_site_fract_y
_atom_site_fract_z
Si Si1 0.529551 0.896671 0.018570
Si Si2 0.692260 0.472593 0.952507
Si Si3 0.585380 0.681712 0.253089
Si Si4 0.058070 0.897233 0.451303
Si Si5 0.348361 0.966415 0.239791
Si Si6 0.862801 0.675950 0.290351
O O1 0.455577 0.944880 0.123633
O O2 0.614182 0.861391 0.136364
O O3 0.607774 0.928564 0.887016
O O4 0.438219 0.850812 0.931466
O O5 0.573952 0.430634 0.932686
O O6 0.647257 0.544187 0.939621
O O7 0.738427 0.458116 0.120862
O O8 0.800893 0.470988 0.827215
O O9 0.461243 0.657375 0.330901
O O10 0.586113 0.640209 0.102708
O O11 0.719375 0.673147 0.329317
O O12 0.586982 0.755863 0.247036
#
# Coordination Sequence:
#
# PCOD9354846 Si02
#       6
#     8   8   8   8   8   8
#     4  10  23  43  65  92 127 171 215 266 320 384
#     4  11  24  41  62  92 128 171 216 265 314 378
#     4  11  22  39  65  96 128 168 211 268 324 380
#     4  11  23  40  63  92 129 168 213 261 320 378
#     4  11  24  41  63  89 126 167 215 262 314 371
#     4  10  22  41  66  95 128 164 214 265 324 385
#
# _framework density 22.913641999999999
#
# number of rings (size 3 to 8) (size 9 to 14) (size 15 to 20)
#    0.000    1.333    0.000    5.000    0.000    7.333 
#    0.000    0.000    0.000   14.000    0.000    0.000 
#    0.000    0.000    0.000    0.000    0.000    0.000 
#
# Total GULP energy -133677.487645 kJ/mol
# GULP energy per Si atom -5569.895319 kJ/mol
# Density = 2.286149 g / cm^3
# Si number density = 22.913642 Si / 1000 Ang^3
#
#
#
# Elastic Constant Matrix: (Units=GPa)
#
#
# Indices 1 2 3 4 5 6 
#
# 1 74.1626 50.4477 31.9592 0.0000 0.0000 0.0000
# 2 50.4477 127.3420 38.5793 0.0000 0.0000 0.0000
# 3 31.9592 38.5793 99.8063 0.0000 0.0000 0.0000
# 4 0.0000 0.0000 0.0000 14.6490 0.0000 0.0000
# 5 0.0000 0.0000 0.0000 0.0000 24.9730 0.0000
# 6 0.0000 0.0000 0.0000 0.0000 0.0000 39.6886
#
#
#
# Elastic Compliance Matrix: (Units=1/GPa)
#
#
# Indices 1 2 3 4 5 6 
#
# 1 0.019600 -0.006641 -0.003709 0.000000 0.000000 0.000000
# 2 -0.006641 0.011145 -0.002181 0.000000 0.000000 0.000000
# 3 -0.003709 -0.002181 0.012050 0.000000 0.000000 0.000000
# 4 0.000000 0.000000 0.000000 0.068264 0.000000 0.000000
# 5 0.000000 0.000000 0.000000 0.000000 0.040043 0.000000
# 6 0.000000 0.000000 0.000000 0.000000 0.000000 0.025196
#
#
# Mechanical properties :
#
#
# Convention : Reuss Voigt Hill
#
# Bulk Modulus (GPa) = 56.39562 60.36480 58.38021
# Shear Modulus (GPa) = 24.12298 27.88375 26.00337
#
# Velocity S-wave (km/s) = 3.24817 3.49220 3.37240
# Velocity P-wave (km/s) = 6.22360 6.53164 6.37948
#
# Compressibility (1/GPa) = 0.01773187
#
# Stress axis : x y z
#
# Youngs Moduli (GPa) = 51.02152 89.72987 82.98564
#
# Poissons Ratio (x) = 0.59588 0.30780
# Poissons Ratio (y) = 0.33883 0.18102
# Poissons Ratio (z) = 0.18924 0.19573
#
# Static dielectric constant tensor:
#      x y z
#    x 2.283850 0.000000 0.000000 
#    y 0.000000 2.000370 0.000000 
#    z 0.000000 0.000000 1.886300 
# 
# From -- ./inp_files/2924.got.cif
#   From: 2010.05.17/outbox.cif.g08.bks.cpg/sg37_2_cif.got.tgz:2924.got - 2010.06.03 17:53:42.
