data_PCOD9354171
_publ_section_title
;
Structure prediction by ZEFSAII (Michael W. Deem and Ramdas Pophale) SiO2 
 PCOD9354171
Probable space group: C C C 2
;
_chemical_formula_sum "Si O2"
_cell_formula_units_Z 48
_cell_length_a 7.210912
_cell_length_b 20.606362
_cell_length_c 13.867771
_cell_angle_alpha 90.000000
_cell_angle_beta 90.000000
_cell_angle_gamma 90.000000
_cell_volume 2060.621288
_symmetry_space_group_name_H-M "C C C 2"
_symmetry_group_IT_number 37
_symmetry_cell_setting 'orthorhombic'
loop_
_space_group_symop_operation_xyz
x,y,z
-x,-y,z
-x,y,1/2+z
x,-y,1/2+z
1/2+x,1/2+y,z
1/2-x,1/2-y,z
1/2-x,1/2+y,1/2+z
1/2+x,1/2-y,1/2+z
loop_
_atom_site_type_symbol
_atom_site_label
_atom_site_fract_x
_atom_site_fract_y
_atom_site_fract_z
Si Si1 0.750000 0.250000 0.203300
Si Si2 0.000000 0.000000 0.959137
Si Si3 0.278830 0.898426 0.530798
Si Si4 0.428031 0.335793 0.187120
Si Si5 0.965487 0.655157 0.849267
Si Si6 0.500000 0.000000 0.144192
Si Si7 0.750000 0.750000 0.354051
Si Si8 0.232375 0.050561 0.284962
O O1 0.605710 0.296996 0.149510
O O2 0.860282 0.301759 0.270339
O O3 0.156792 0.972904 0.886589
O O4 0.900215 0.944941 0.020971
O O5 0.224826 0.841219 0.603650
O O6 0.326238 0.874876 0.424957
O O7 0.448264 0.939496 0.576149
O O8 0.362260 0.296078 0.280728
O O9 0.428511 0.408950 0.230319
O O10 0.104581 0.704112 0.906068
O O11 0.096032 0.600107 0.802865
O O12 0.678810 0.003047 0.214545
#
# Coordination Sequence:
#
# PCOD9354171 Si02
#       8
#     4   4   8   8   8   4   4   8
#     4  10  20  39  66  85 116 166 200 232 298 370
#     4  12  24  38  60  92 124 160 202 246 298 358
#     4  11  23  37  58  92 126 152 198 258 298 336
#     4   9  20  37  59  88 119 153 199 247 294 354
#     4  10  20  39  64  88 116 155 201 248 295 354
#     4  10  22  40  64  88 122 164 200 244 302 358
#     4   8  18  39  64  85 112 156 202 238 296 370
#     4  10  21  39  62  85 118 162 202 237 294 373
#
# _framework density 23.293945999999998
#
# number of rings (size 3 to 8) (size 9 to 14) (size 15 to 20)
#    0.000    2.000    0.000    3.000    0.000    4.667 
#    0.000    5.000    0.000   13.000    0.000    0.000 
#    0.000    0.000    0.000    0.000    0.000    0.000 
#
# Total GULP energy -133954.907514 kJ/mol
# GULP energy per Si atom -5581.454480 kJ/mol
# Density = 2.324093 g / cm^3
# Si number density = 23.293946 Si / 1000 Ang^3
#
#
#
# Elastic Constant Matrix: (Units=GPa)
#
#
# Indices 1 2 3 4 5 6 
#
# 1 72.1033 49.8315 8.0238 0.0000 0.0000 0.0000
# 2 49.8315 73.4013 20.1519 0.0000 0.0000 0.0000
# 3 8.0238 20.1519 56.8959 0.0000 0.0000 0.0000
# 4 0.0000 0.0000 0.0000 55.4315 0.0000 0.0000
# 5 0.0000 0.0000 0.0000 0.0000 29.8730 0.0000
# 6 0.0000 0.0000 0.0000 0.0000 0.0000 75.4398
#
#
#
# Elastic Compliance Matrix: (Units=1/GPa)
#
#
# Indices 1 2 3 4 5 6 
#
# 1 0.026560 -0.018835 0.002925 0.000000 0.000000 0.000000
# 2 -0.018835 0.028447 -0.007420 0.000000 0.000000 0.000000
# 3 0.002925 -0.007420 0.019791 0.000000 0.000000 0.000000
# 4 0.000000 0.000000 0.000000 0.018040 0.000000 0.000000
# 5 0.000000 0.000000 0.000000 0.000000 0.033475 0.000000
# 6 0.000000 0.000000 0.000000 0.000000 0.000000 0.013256
#
#
# Mechanical properties :
#
#
# Convention : Reuss Voigt Hill
#
# Bulk Modulus (GPa) = 35.53504 39.82388 37.67946
# Shear Modulus (GPa) = 25.56126 40.44177 33.00151
#
# Velocity S-wave (km/s) = 3.31620 4.17123 3.76805
# Velocity P-wave (km/s) = 5.47276 6.35077 5.92804
#
# Compressibility (1/GPa) = 0.02814124
#
# Stress axis : x y z
#
# Youngs Moduli (GPa) = 37.65004 35.15248 50.52715
#
# Poissons Ratio (x) = 0.66209 -0.14781
# Poissons Ratio (y) = 0.70913 0.37489
# Poissons Ratio (z) = -0.11014 0.26082
#
# Static dielectric constant tensor:
#      x y z
#    x 1.918350 0.000000 0.000000 
#    y 0.000000 1.893940 0.000000 
#    z 0.000000 0.000000 1.849730 
# 
# From -- ./inp_files/10735.got.cif
#   From: 2010.05.17/outbox.cif.g08.bks.cpg/sg37_6_cif.got.tgz:10735.got - 2010.06.03 17:53:42.
