data_PCOD9354787
_publ_section_title
;
Structure prediction by ZEFSAII (Michael W. Deem and Ramdas Pophale) SiO2 
 PCOD9354787
Probable space group: C C C 2
;
_chemical_formula_sum "Si O2"
_cell_formula_units_Z 60
_cell_length_a 19.347902
_cell_length_b 12.482484
_cell_length_c 12.847395
_cell_angle_alpha 90.000000
_cell_angle_beta 90.000000
_cell_angle_gamma 90.000000
_cell_volume 3102.772788
_symmetry_space_group_name_H-M "C C C 2"
_symmetry_group_IT_number 37
_symmetry_cell_setting 'orthorhombic'
loop_
_space_group_symop_operation_xyz
x,y,z
-x,-y,z
-x,y,1/2+z
x,-y,1/2+z
1/2+x,1/2+y,z
1/2-x,1/2-y,z
1/2-x,1/2+y,1/2+z
1/2+x,1/2-y,1/2+z
loop_
_atom_site_type_symbol
_atom_site_label
_atom_site_fract_x
_atom_site_fract_y
_atom_site_fract_z
Si Si1 0.094451 0.142586 0.467390
Si Si2 0.951054 0.801145 0.241873
Si Si3 0.792349 0.141397 0.269671
Si Si4 0.689958 0.951330 0.606747
Si Si5 0.689563 0.179918 0.689516
Si Si6 0.742783 0.429513 0.892372
Si Si7 0.589043 0.225984 0.173305
Si Si8 0.500000 0.500000 0.100528
O O1 0.053113 0.167392 0.362397
O O2 0.173437 0.126824 0.433358
O O3 0.087395 0.233753 0.554294
O O4 0.061405 0.041301 0.526422
O O5 0.877727 0.750704 0.210299
O O6 0.971024 0.904578 0.172611
O O7 0.013010 0.718745 0.219433
O O8 0.750000 0.250000 0.294630
O O9 0.759825 0.087725 0.165605
O O10 0.868317 0.184581 0.239807
O O11 0.781358 0.048260 0.354447
O O12 0.702553 0.930602 0.485799
O O13 0.632058 0.882571 0.665892
O O14 0.674743 0.075410 0.622443
O O15 0.750000 0.250000 0.638834
O O16 0.723114 0.132627 0.795893
#
# Coordination Sequence:
#
# PCOD9354787 Si02
#       8
#     8   8   8   8   8   8   8   4
#     4  11  22  37  64  94 123 170 211 255 317 383
#     4  11  24  41  62  90 131 165 208 268 317 374
#     4   9  20  38  58  91 126 159 206 255 310 365
#     4  10  22  40  64  91 121 164 215 257 317 381
#     4  11  24  40  61  94 126 159 210 266 322 370
#     4  11  22  36  68  94 122 166 210 261 312 383
#     4  10  22  41  64  89 126 172 213 257 312 385
#     4  10  26  38  58  96 130 166 208 256 326 384
#
# _framework density 19.337541999999999
#
# number of rings (size 3 to 8) (size 9 to 14) (size 15 to 20)
#    0.000    1.600    2.667    1.200    7.467    1.067 
#    0.000    4.000    0.000    8.000    0.000    0.000 
#    0.000    0.000    0.000    0.000    0.000    0.000 
#
# Total GULP energy -167488.345669 kJ/mol
# GULP energy per Si atom -5582.944856 kJ/mol
# Density = 1.929353 g / cm^3
# Si number density = 19.337542 Si / 1000 Ang^3
#
#
#
# Elastic Constant Matrix: (Units=GPa)
#
#
# Indices 1 2 3 4 5 6 
#
# 1 110.0193 25.6813 24.2439 0.0000 0.0000 0.0000
# 2 25.6813 79.3177 6.0538 0.0000 0.0000 0.0000
# 3 24.2439 6.0538 48.2579 0.0000 0.0000 0.0000
# 4 0.0000 0.0000 0.0000 8.1667 0.0000 0.0000
# 5 0.0000 0.0000 0.0000 0.0000 29.3920 0.0000
# 6 0.0000 0.0000 0.0000 0.0000 0.0000 24.6669
#
#
#
# Elastic Compliance Matrix: (Units=1/GPa)
#
#
# Indices 1 2 3 4 5 6 
#
# 1 0.010951 -0.003156 -0.005106 0.000000 0.000000 0.000000
# 2 -0.003156 0.013639 -0.000125 0.000000 0.000000 0.000000
# 3 -0.005106 -0.000125 0.023303 0.000000 0.000000 0.000000
# 4 0.000000 0.000000 0.000000 0.122448 0.000000 0.000000
# 5 0.000000 0.000000 0.000000 0.000000 0.034023 0.000000
# 6 0.000000 0.000000 0.000000 0.000000 0.000000 0.040540
#
#
# Mechanical properties :
#
#
# Convention : Reuss Voigt Hill
#
# Bulk Modulus (GPa) = 32.13528 38.83920 35.48724
# Shear Modulus (GPa) = 18.37891 24.55286 21.46589
#
# Velocity S-wave (km/s) = 3.08624 3.56715 3.33537
# Velocity P-wave (km/s) = 5.41794 6.09053 5.76405
#
# Compressibility (1/GPa) = 0.03111844
#
# Stress axis : x y z
#
# Youngs Moduli (GPa) = 91.31494 73.31941 42.91341
#
# Poissons Ratio (x) = 0.23140 0.21910
# Poissons Ratio (y) = 0.28819 0.00538
# Poissons Ratio (z) = 0.46623 0.00920
#
# Static dielectric constant tensor:
#      x y z
#    x 1.693300 0.000000 0.000000 
#    y 0.000000 1.701630 0.000000 
#    z 0.000000 0.000000 1.660050 
# 
# From -- ./inp_files/8646.got.cif
#   From: 2010.05.17/outbox.cif.g08.bks.cpg/sg37_5_cif.got.tgz:8646.got - 2010.06.03 17:53:42.
