data_PCOD9354280
_publ_section_title
;
Structure prediction by ZEFSAII (Michael W. Deem and Ramdas Pophale) SiO2 
 PCOD9354280
Probable space group: C C C 2
;
_chemical_formula_sum "Si O2"
_cell_formula_units_Z 64
_cell_length_a 17.213628
_cell_length_b 11.913920
_cell_length_c 14.377851
_cell_angle_alpha 90.000000
_cell_angle_beta 90.000000
_cell_angle_gamma 90.000000
_cell_volume 2948.635375
_symmetry_space_group_name_H-M "C C C 2"
_symmetry_group_IT_number 37
_symmetry_cell_setting 'orthorhombic'
loop_
_space_group_symop_operation_xyz
x,y,z
-x,-y,z
-x,y,1/2+z
x,-y,1/2+z
1/2+x,1/2+y,z
1/2-x,1/2-y,z
1/2-x,1/2+y,1/2+z
1/2+x,1/2-y,1/2+z
loop_
_atom_site_type_symbol
_atom_site_label
_atom_site_fract_x
_atom_site_fract_y
_atom_site_fract_z
Si Si1 0.955064 0.284598 0.031200
Si Si2 0.391157 0.936526 0.332333
Si Si3 0.042536 0.685464 0.814326
Si Si4 0.604802 0.737988 0.133120
Si Si5 0.827758 0.173487 0.158876
Si Si6 0.705629 0.453241 0.550694
Si Si7 0.219556 0.130692 0.855501
Si Si8 0.387507 0.971999 0.544786
O O1 0.889384 0.236551 0.096927
O O2 0.941511 0.418614 0.052420
O O3 0.032291 0.220049 0.064318
O O4 0.948144 0.272781 0.920176
O O5 0.453624 0.850811 0.289209
O O6 0.299935 0.920556 0.313722
O O7 0.403748 0.920130 0.443062
O O8 0.414645 0.064243 0.313198
O O9 0.078565 0.770712 0.739919
O O10 0.677085 0.662189 0.100906
O O11 0.610537 0.872657 0.119034
O O12 0.750000 0.250000 0.151534
O O13 0.836446 0.154552 0.269537
O O14 0.828680 0.051509 0.112220
O O15 0.685272 0.437563 0.441582
O O16 0.795433 0.493486 0.544141
O O17 0.250000 0.250000 0.895768
#
# Coordination Sequence:
#
# PCOD9354280 Si02
#       8
#     8   8   8   8   8   8   8   8
#     4  11  24  43  65  96 137 180 232 281 338 415
#     4   9  19  39  60  96 136 172 221 282 337 404
#     4  10  23  36  62 101 138 168 218 284 355 405
#     4  12  25  36  67 102 135 175 216 292 355 404
#     4  11  25  44  70  93 129 192 238 273 341 423
#     4  11  24  44  65  98 138 171 233 286 342 403
#     4  10  23  40  69  97 129 183 231 273 329 420
#     4  10  20  42  66  94 134 178 221 284 343 405
#
# _framework density 21.704955999999999
#
# number of rings (size 3 to 8) (size 9 to 14) (size 15 to 20)
#    0.000    1.500    2.500    2.250    8.750    1.500 
#    0.000    1.250    0.000    3.000    0.000    0.000 
#    0.000    0.000    0.000    0.000    0.000    0.000 
#
# Total GULP energy -178342.585804 kJ/mol
# GULP energy per Si atom -5573.205806 kJ/mol
# Density = 2.165555 g / cm^3
# Si number density = 21.704956 Si / 1000 Ang^3
#
#
#
# Elastic Constant Matrix: (Units=GPa)
#
#
# Indices 1 2 3 4 5 6 
#
# 1 33.6008 10.2606 14.0411 0.0000 0.0000 0.0000
# 2 10.2606 58.7802 44.8254 0.0000 0.0000 0.0000
# 3 14.0411 44.8254 145.0752 0.0000 0.0000 0.0000
# 4 0.0000 0.0000 0.0000 19.7152 0.0000 0.0000
# 5 0.0000 0.0000 0.0000 0.0000 22.8642 0.0000
# 6 0.0000 0.0000 0.0000 0.0000 0.0000 30.0929
#
#
#
# Elastic Compliance Matrix: (Units=1/GPa)
#
#
# Indices 1 2 3 4 5 6 
#
# 1 0.031785 -0.004190 -0.001782 0.000000 0.000000 0.000000
# 2 -0.004190 0.022809 -0.006642 0.000000 0.000000 0.000000
# 3 -0.001782 -0.006642 0.009118 0.000000 0.000000 0.000000
# 4 0.000000 0.000000 0.000000 0.050722 0.000000 0.000000
# 5 0.000000 0.000000 0.000000 0.000000 0.043736 0.000000
# 6 0.000000 0.000000 0.000000 0.000000 0.000000 0.033230
#
#
# Mechanical properties :
#
#
# Convention : Reuss Voigt Hill
#
# Bulk Modulus (GPa) = 25.98418 41.74561 33.86489
# Shear Modulus (GPa) = 21.79065 25.75642 23.77354
#
# Velocity S-wave (km/s) = 3.17195 3.44853 3.31313
# Velocity P-wave (km/s) = 5.04109 5.92718 5.50200
#
# Compressibility (1/GPa) = 0.03848495
#
# Stress axis : x y z
#
# Youngs Moduli (GPa) = 31.46125 43.84224 109.67684
#
# Poissons Ratio (x) = 0.18368 0.19542
# Poissons Ratio (y) = 0.13181 0.72848
# Poissons Ratio (z) = 0.05606 0.29120
#
# Static dielectric constant tensor:
#      x y z
#    x 1.881560 0.000000 0.000000 
#    y 0.000000 1.853000 0.000000 
#    z 0.000000 0.000000 1.804670 
# 
# From -- ./inp_files/11771.got.cif
#   From: 2010.05.17/outbox.cif.g08.bks.cpg/sg37_6_cif.got.tgz:11771.got - 2010.06.03 17:53:42.
