data_PCOD9354802
_publ_section_title
;
Structure prediction by ZEFSAII (Michael W. Deem and Ramdas Pophale) SiO2 
 PCOD9354802
Probable space group: C C C 2
;
_chemical_formula_sum "Si O2"
_cell_formula_units_Z 60
_cell_length_a 18.080895
_cell_length_b 12.561672
_cell_length_c 13.011787
_cell_angle_alpha 90.000000
_cell_angle_beta 90.000000
_cell_angle_gamma 90.000000
_cell_volume 2955.318679
_symmetry_space_group_name_H-M "C C C 2"
_symmetry_group_IT_number 37
_symmetry_cell_setting 'orthorhombic'
loop_
_space_group_symop_operation_xyz
x,y,z
-x,-y,z
-x,y,1/2+z
x,-y,1/2+z
1/2+x,1/2+y,z
1/2-x,1/2-y,z
1/2-x,1/2+y,1/2+z
1/2+x,1/2-y,1/2+z
loop_
_atom_site_type_symbol
_atom_site_label
_atom_site_fract_x
_atom_site_fract_y
_atom_site_fract_z
Si Si1 0.500000 0.500000 0.287350
Si Si2 0.148999 0.076327 0.193890
Si Si3 0.526379 0.124608 0.205703
Si Si4 0.187818 0.658756 0.116209
Si Si5 0.222420 0.908545 0.311430
Si Si6 0.078390 0.791407 0.367565
Si Si7 0.617708 0.212168 0.596979
Si Si8 0.766896 0.541918 0.031178
O O1 0.566005 0.538476 0.213559
O O2 0.527624 0.397825 0.353831
O O3 0.150864 0.200052 0.173054
O O4 0.190138 0.030049 0.093256
O O5 0.191405 0.026628 0.290556
O O6 0.599864 0.156263 0.138849
O O7 0.541265 0.189896 0.311730
O O8 0.458490 0.174710 0.144683
O O9 0.500000 0.000000 0.219687
O O10 0.250000 0.750000 0.096287
O O11 0.218919 0.611736 0.223619
O O12 0.199000 0.574284 0.025143
O O13 0.153676 0.826804 0.307468
O O14 0.255028 0.902741 0.423384
O O15 0.100973 0.763122 0.484355
O O16 0.675611 0.116511 0.590123
#
# Coordination Sequence:
#
# PCOD9354802 Si02
#       8
#     4   8   8   8   8   8   8   8
#     4  10  22  44  62 104 138 168 228 282 356 406
#     4  10  22  40  66  98 130 169 218 289 342 404
#     4  12  25  46  66  99 143 186 229 285 352 423
#     4  11  23  44  68  95 135 179 229 286 345 411
#     4  10  22  42  71  97 125 170 233 281 344 411
#     4  11  23  43  71  99 135 183 226 287 349 425
#     4  12  24  42  69  97 138 182 226 279 352 424
#     4  11  23  42  69  98 128 178 230 286 340 420
#
# _framework density 20.302378000000001
#
# number of rings (size 3 to 8) (size 9 to 14) (size 15 to 20)
#    0.000    1.067    5.333    1.200    0.000    1.067 
#    7.200    2.667    0.000    0.000    0.000    0.000 
#    0.000    0.000    0.000    0.000    0.000    0.000 
#
# Total GULP energy -167172.484032 kJ/mol
# GULP energy per Si atom -5572.416134 kJ/mol
# Density = 2.025617 g / cm^3
# Si number density = 20.302378 Si / 1000 Ang^3
#
#
#
# Elastic Constant Matrix: (Units=GPa)
#
#
# Indices 1 2 3 4 5 6 
#
# 1 81.7699 23.5843 10.1163 0.0000 0.0000 0.0000
# 2 23.5843 117.5708 11.1831 0.0000 0.0000 0.0000
# 3 10.1163 11.1831 26.4074 0.0000 0.0000 0.0000
# 4 0.0000 0.0000 0.0000 -81.1736 0.0000 0.0000
# 5 0.0000 0.0000 0.0000 0.0000 23.9476 0.0000
# 6 0.0000 0.0000 0.0000 0.0000 0.0000 30.4763
#
#
#
# Elastic Compliance Matrix: (Units=1/GPa)
#
#
# Indices 1 2 3 4 5 6 
#
# 1 0.013406 -0.002293 -0.004165 0.000000 0.000000 0.000000
# 2 -0.002293 0.009255 -0.003041 0.000000 0.000000 0.000000
# 3 -0.004165 -0.003041 0.040751 0.000000 0.000000 0.000000
# 4 0.000000 0.000000 0.000000 -0.012319 0.000000 0.000000
# 5 0.000000 0.000000 0.000000 0.000000 0.041758 0.000000
# 6 0.000000 0.000000 0.000000 0.000000 0.000000 0.032812
#
#
# Mechanical properties :
#
#
# Convention : Reuss Voigt Hill
#
# Bulk Modulus (GPa) = 22.51481 35.05726 28.78603
# Shear Modulus (GPa) = 31.35484 6.70768 19.03126
#
# Velocity S-wave (km/s) = 3.93414 1.81963 3.06501
# Velocity P-wave (km/s) = 5.63475 4.66045 5.17060
#
# Compressibility (1/GPa) = 0.04441522
#
# Stress axis : x y z
#
# Youngs Moduli (GPa) = 74.59322 108.05285 24.53909
#
# Poissons Ratio (x) = 0.24777 0.10219
# Poissons Ratio (y) = 0.17105 0.07462
# Poissons Ratio (z) = 0.31065 0.32856
#
# Static dielectric constant tensor:
#      x y z
#    x 1.757180 0.000000 0.000000 
#    y 0.000000 2.394040 0.000000 
#    z 0.000000 0.000000 1.689370 
# 
# From -- ./inp_files/12677.got.cif
#   From: 2010.05.17/outbox.cif.g08.bks.cpg/sg37_7_cif.got.tgz:12677.got - 2010.06.03 17:53:42.
