data_PCOD9354810
_publ_section_title
;
Structure prediction by ZEFSAII (Michael W. Deem and Ramdas Pophale) SiO2 
 PCOD9354810
Probable space group: C C C 2
;
_chemical_formula_sum "Si O2"
_cell_formula_units_Z 52
_cell_length_a 16.797169
_cell_length_b 7.235870
_cell_length_c 20.329916
_cell_angle_alpha 90.000000
_cell_angle_beta 90.000000
_cell_angle_gamma 90.000000
_cell_volume 2470.941319
_symmetry_space_group_name_H-M "C C C 2"
_symmetry_group_IT_number 37
_symmetry_cell_setting 'orthorhombic'
loop_
_space_group_symop_operation_xyz
x,y,z
-x,-y,z
-x,y,1/2+z
x,-y,1/2+z
1/2+x,1/2+y,z
1/2-x,1/2-y,z
1/2-x,1/2+y,1/2+z
1/2+x,1/2-y,1/2+z
loop_
_atom_site_type_symbol
_atom_site_label
_atom_site_fract_x
_atom_site_fract_y
_atom_site_fract_z
Si Si1 0.165473 0.037315 0.566170
Si Si2 0.844053 0.256550 0.316772
Si Si3 0.906691 0.552136 0.405601
Si Si4 0.841530 0.481713 0.044134
Si Si5 0.432997 0.366777 0.689790
Si Si6 0.500000 0.000000 0.122726
Si Si7 0.593161 0.515647 0.428274
O O1 0.161445 0.258946 0.553258
O O2 0.255706 0.965452 0.573183
O O3 0.110379 0.022271 0.630353
O O4 0.133540 0.961090 0.497202
O O5 0.750000 0.250000 0.321529
O O6 0.877739 0.455406 0.339087
O O7 0.871314 0.196541 0.244745
O O8 0.880238 0.116232 0.369977
O O9 0.854110 0.479133 0.467038
O O10 0.893392 0.771515 0.407579
O O11 0.000000 0.500000 0.416134
O O12 0.921598 0.548493 0.079838
O O13 0.500000 0.500000 0.719231
O O14 0.474384 0.180712 0.662950
O O15 0.500000 0.500000 0.440050
#
# Coordination Sequence:
#
# PCOD9354810 Si02
#       7
#     8   8   8   8   8   4   8
#     4   9  20  38  67  95 136 168 214 276 332 376
#     4  12  28  43  66  97 134 176 222 275 338 394
#     4  11  22  40  69  98 130 170 220 274 326 391
#     4   9  18  37  66 100 126 166 218 275 326 384
#     4  11  26  44  65  93 132 177 221 268 328 400
#     4  10  22  40  68  90 128 176 222 262 326 394
#     4  11  22  42  70 100 131 172 225 274 326 395
#
# _framework density 21.044612000000001
#
# number of rings (size 3 to 8) (size 9 to 14) (size 15 to 20)
#    0.000    1.538    2.308    1.846    5.385    3.077 
#    0.000    2.308    0.000    0.000    0.000    0.000 
#    0.000    0.000    0.000    0.000    0.000    0.000 
#
# Total GULP energy -145284.249136 kJ/mol
# GULP energy per Si atom -5587.855736 kJ/mol
# Density = 2.099671 g / cm^3
# Si number density = 21.044612 Si / 1000 Ang^3
#
#
#
# Elastic Constant Matrix: (Units=GPa)
#
#
# Indices 1 2 3 4 5 6 
#
# 1 123.6665 -7.3438 12.1448 0.0000 0.0000 0.0000
# 2 -7.3438 50.4028 -1.9139 0.0000 0.0000 0.0000
# 3 12.1448 -1.9139 53.1326 0.0000 0.0000 0.0000
# 4 0.0000 0.0000 0.0000 25.7035 0.0000 0.0000
# 5 0.0000 0.0000 0.0000 0.0000 50.4367 0.0000
# 6 0.0000 0.0000 0.0000 0.0000 0.0000 -1.2418
#
#
#
# Elastic Compliance Matrix: (Units=1/GPa)
#
#
# Indices 1 2 3 4 5 6 
#
# 1 0.008337 0.001144 -0.001864 0.000000 0.000000 0.000000
# 2 0.001144 0.020024 0.000460 0.000000 0.000000 0.000000
# 3 -0.001864 0.000460 0.019264 0.000000 0.000000 0.000000
# 4 0.000000 0.000000 0.000000 0.038905 0.000000 0.000000
# 5 0.000000 0.000000 0.000000 0.000000 0.019827 0.000000
# 6 0.000000 0.000000 0.000000 0.000000 0.000000 -0.805267
#
#
# Mechanical properties :
#
#
# Convention : Reuss Voigt Hill
#
# Bulk Modulus (GPa) = 21.22971 25.88623 23.55797
# Shear Modulus (GPa) = -7.32400 29.93400 11.30500
#
# Velocity S-wave (km/s) = -1.86756 3.77557 2.32026
# Velocity P-wave (km/s) = 2.33655 5.59767 4.28914
#
# Compressibility (1/GPa) = 0.04710379
#
# Stress axis : x y z
#
# Youngs Moduli (GPa) = 119.94293 49.93930 51.91143
#
# Poissons Ratio (x) = -0.05713 0.09679
# Poissons Ratio (y) = -0.13721 -0.02387
# Poissons Ratio (z) = 0.22363 -0.02296
#
# Static dielectric constant tensor:
#      x y z
#    x 1.739000 0.000000 0.000000 
#    y 0.000000 1.787850 0.000000 
#    z 0.000000 0.000000 1.729580 
# 
# From -- ./inp_files/17128.got.cif
#   From: 2010.05.17/outbox.cif.g08.bks.cpg/sg37_9_cif.got.tgz:17128.got - 2010.06.03 17:53:42.
