data_PCOD9354952
_publ_section_title
;
Structure prediction by ZEFSAII (Michael W. Deem and Ramdas Pophale) SiO2 
 PCOD9354952
Probable space group: C C C 2
;
_chemical_formula_sum "Si O2"
_cell_formula_units_Z 48
_cell_length_a 14.108668
_cell_length_b 6.594845
_cell_length_c 24.955672
_cell_angle_alpha 90.000000
_cell_angle_beta 90.000000
_cell_angle_gamma 90.000000
_cell_volume 2321.987490
_symmetry_space_group_name_H-M "C C C 2"
_symmetry_group_IT_number 37
_symmetry_cell_setting 'orthorhombic'
loop_
_space_group_symop_operation_xyz
x,y,z
-x,-y,z
-x,y,1/2+z
x,-y,1/2+z
1/2+x,1/2+y,z
1/2-x,1/2-y,z
1/2-x,1/2+y,1/2+z
1/2+x,1/2-y,1/2+z
loop_
_atom_site_type_symbol
_atom_site_label
_atom_site_fract_x
_atom_site_fract_y
_atom_site_fract_z
Si Si1 0.000000 0.000000 0.911870
Si Si2 0.809487 0.550103 0.764326
Si Si3 0.849511 0.327634 0.872795
Si Si4 0.750000 0.250000 0.669654
Si Si5 0.500000 0.000000 0.538858
Si Si6 0.000000 0.500000 0.721583
Si Si7 0.445785 0.296875 0.129560
Si Si8 0.141048 0.325333 0.956663
O O1 0.071743 0.133658 0.947720
O O2 0.932039 0.158933 0.879441
O O3 0.750000 0.750000 0.778283
O O4 0.824129 0.391894 0.812435
O O5 0.767892 0.437842 0.711341
O O6 0.917948 0.610533 0.753394
O O7 0.750000 0.250000 0.897314
O O8 0.870313 0.535759 0.903851
O O9 0.666726 0.315602 0.629000
O O10 0.494808 0.810969 0.579255
O O11 0.406914 0.966182 0.502476
O O12 0.044511 0.662323 0.682363
O O13 0.500000 0.500000 0.139025
O O14 0.250000 0.250000 0.963970
#
# Coordination Sequence:
#
# PCOD9354952 Si02
#       8
#     4   8   8   4   4   4   8   8
#     4  12  26  46  70  94 146 186 228 288 338 408
#     4  11  23  39  65  97 135 177 231 277 340 415
#     4  12  25  43  66 102 137 187 232 282 348 414
#     4  10  22  44  66 100 130 182 230 278 354 416
#     4  11  26  43  70 108 124 175 240 279 360 428
#     4   9  22  39  62  94 130 177 220 277 342 404
#     4  10  22  44  66  93 136 171 223 288 346 414
#     4  12  26  47  70  98 138 179 234 289 347 416
#
# _framework density 20.671945000000001
#
# number of rings (size 3 to 8) (size 9 to 14) (size 15 to 20)
#    0.000    1.000    4.167    1.500    4.667    0.000 
#    6.000    1.667    0.000    0.000    0.000    0.000 
#    0.000    0.000    0.000    0.000    0.000    0.000 
#
# Total GULP energy -133761.740188 kJ/mol
# GULP energy per Si atom -5573.405841 kJ/mol
# Density = 2.062489 g / cm^3
# Si number density = 20.671945 Si / 1000 Ang^3
#
#
#
# Elastic Constant Matrix: (Units=GPa)
#
#
# Indices 1 2 3 4 5 6 
#
# 1 169.2832 59.8429 36.7491 0.0000 0.0000 0.0000
# 2 59.8429 58.6741 20.5343 0.0000 0.0000 0.0000
# 3 36.7491 20.5343 60.5148 0.0000 0.0000 0.0000
# 4 0.0000 0.0000 0.0000 94.1123 0.0000 0.0000
# 5 0.0000 0.0000 0.0000 0.0000 22.0727 0.0000
# 6 0.0000 0.0000 0.0000 0.0000 0.0000 51.8708
#
#
#
# Elastic Compliance Matrix: (Units=1/GPa)
#
#
# Indices 1 2 3 4 5 6 
#
# 1 0.009656 -0.008847 -0.002862 0.000000 0.000000 0.000000
# 2 -0.008847 0.027445 -0.003941 0.000000 0.000000 0.000000
# 3 -0.002862 -0.003941 0.019600 0.000000 0.000000 0.000000
# 4 0.000000 0.000000 0.000000 0.010626 0.000000 0.000000
# 5 0.000000 0.000000 0.000000 0.000000 0.045305 0.000000
# 6 0.000000 0.000000 0.000000 0.000000 0.000000 0.019279
#
#
# Mechanical properties :
#
#
# Convention : Reuss Voigt Hill
#
# Bulk Modulus (GPa) = 39.36556 58.08052 48.72304
# Shear Modulus (GPa) = 29.12462 45.03422 37.07942
#
# Velocity S-wave (km/s) = 3.75760 4.67252 4.23981
# Velocity P-wave (km/s) = 6.15714 7.56751 6.89847
#
# Compressibility (1/GPa) = 0.02540292
#
# Stress axis : x y z
#
# Youngs Moduli (GPa) = 103.56371 36.43617 51.02044
#
# Poissons Ratio (x) = 0.32234 0.14601
# Poissons Ratio (y) = 0.91619 0.20105
# Poissons Ratio (z) = 0.29639 0.14358
#
# Static dielectric constant tensor:
#      x y z
#    x 1.978810 0.000000 0.000000 
#    y 0.000000 1.674830 0.000000 
#    z 0.000000 0.000000 1.776830 
# 
# From -- ./inp_files/19918.got.cif
#   From: 2010.05.17/outbox.cif.g08.bks.cpg/sg37_10_cif.got.tgz:19918.got - 2010.06.03 17:53:42.
