data_PCOD9354278
_publ_section_title
;
Structure prediction by ZEFSAII (Michael W. Deem and Ramdas Pophale) SiO2 
 PCOD9354278
Probable space group: C C C 2
;
_chemical_formula_sum "Si O2"
_cell_formula_units_Z 40
_cell_length_a 12.104788
_cell_length_b 12.387065
_cell_length_c 13.085045
_cell_angle_alpha 90.000000
_cell_angle_beta 90.000000
_cell_angle_gamma 90.000000
_cell_volume 1962.008230
_symmetry_space_group_name_H-M "C C C 2"
_symmetry_group_IT_number 37
_symmetry_cell_setting 'orthorhombic'
loop_
_space_group_symop_operation_xyz
x,y,z
-x,-y,z
-x,y,1/2+z
x,-y,1/2+z
1/2+x,1/2+y,z
1/2-x,1/2-y,z
1/2-x,1/2+y,1/2+z
1/2+x,1/2-y,1/2+z
loop_
_atom_site_type_symbol
_atom_site_label
_atom_site_fract_x
_atom_site_fract_y
_atom_site_fract_z
Si Si1 0.580163 0.336561 0.646010
Si Si2 0.619483 0.446676 0.434784
Si Si3 0.756525 0.872344 0.337104
Si Si4 0.369416 0.714324 0.247613
Si Si5 0.457364 0.112543 0.208332
O O1 0.618360 0.396972 0.546614
O O2 0.652710 0.367282 0.745081
O O3 0.450067 0.353406 0.671948
O O4 0.588201 0.206028 0.632944
O O5 0.500000 0.500000 0.415033
O O6 0.706022 0.542213 0.419708
O O7 0.641684 0.355092 0.350045
O O8 0.750000 0.750000 0.376873
O O9 0.640937 0.906143 0.287575
O O10 0.250000 0.750000 0.208349
O O11 0.442480 0.822517 0.262449
O O12 0.500000 0.000000 0.164788
#
# Coordination Sequence:
#
# PCOD9354278 Si02
#       5
#     8   8   8   8   8
#     4   9  23  38  63 100 132 170 230 272 346 397
#     4  12  22  39  68  96 129 176 232 281 336 416
#     4  10  20  42  66  91 133 173 221 286 348 401
#     4  10  22  41  66  97 138 170 230 279 347 405
#     4   9  19  41  65  90 135 176 211 279 350 398
#
# _framework density 20.387276
#
# number of rings (size 3 to 8) (size 9 to 14) (size 15 to 20)
#    1.200    0.800    2.000    1.200    2.800    2.400 
#    0.000    8.000    0.000    0.000    0.000    0.000 
#    0.000    0.000    0.000    0.000    0.000    0.000 
#
# Total GULP energy -111526.721033 kJ/mol
# GULP energy per Si atom -5576.336052 kJ/mol
# Density = 2.034087 g / cm^3
# Si number density = 20.387276 Si / 1000 Ang^3
#
#
#
# Elastic Constant Matrix: (Units=GPa)
#
#
# Indices 1 2 3 4 5 6 
#
# 1 119.9834 36.2609 21.4677 0.0000 0.0000 0.0000
# 2 36.2609 129.6846 73.0498 0.0000 0.0000 0.0000
# 3 21.4677 73.0498 80.8143 0.0000 0.0000 0.0000
# 4 0.0000 0.0000 0.0000 18.8156 0.0000 0.0000
# 5 0.0000 0.0000 0.0000 0.0000 12.4817 0.0000
# 6 0.0000 0.0000 0.0000 0.0000 0.0000 9.8506
#
#
#
# Elastic Compliance Matrix: (Units=1/GPa)
#
#
# Indices 1 2 3 4 5 6 
#
# 1 0.009106 -0.002411 -0.000239 0.000000 0.000000 0.000000
# 2 -0.002411 0.016349 -0.014137 0.000000 0.000000 0.000000
# 3 -0.000239 -0.014137 0.025217 0.000000 0.000000 0.000000
# 4 0.000000 0.000000 0.000000 0.053147 0.000000 0.000000
# 5 0.000000 0.000000 0.000000 0.000000 0.080117 0.000000
# 6 0.000000 0.000000 0.000000 0.000000 0.000000 0.101517
#
#
# Mechanical properties :
#
#
# Convention : Reuss Voigt Hill
#
# Bulk Modulus (GPa) = 58.49521 65.78212 62.13866
# Shear Modulus (GPa) = 15.39752 21.54316 18.47034
#
# Velocity S-wave (km/s) = 2.75117 3.25421 3.01321
# Velocity P-wave (km/s) = 6.23267 6.81588 6.53079
#
# Compressibility (1/GPa) = 0.01709542
#
# Stress axis : x y z
#
# Youngs Moduli (GPa) = 109.81717 61.16715 39.65631
#
# Poissons Ratio (x) = 0.14749 0.00949
# Poissons Ratio (y) = 0.26481 0.56063
# Poissons Ratio (z) = 0.02628 0.86474
#
# Static dielectric constant tensor:
#      x y z
#    x 1.771390 0.000000 0.000000 
#    y 0.000000 1.766090 0.000000 
#    z 0.000000 0.000000 1.688910 
# 
# From -- ./inp_files/7668.got.cif
#   From: 2010.05.17/outbox.cif.g08.bks.cpg/sg37_4_cif.got.tgz:7668.got - 2010.06.03 17:53:42.
