data_PCOD9354688
_publ_section_title
;
Structure prediction by ZEFSAII (Michael W. Deem and Ramdas Pophale) SiO2 
 PCOD9354688
Probable space group: C C C 2
;
_chemical_formula_sum "Si O2"
_cell_formula_units_Z 60
_cell_length_a 24.175387
_cell_length_b 8.954749
_cell_length_c 14.481603
_cell_angle_alpha 90.000000
_cell_angle_beta 90.000000
_cell_angle_gamma 90.000000
_cell_volume 3135.042911
_symmetry_space_group_name_H-M "C C C 2"
_symmetry_group_IT_number 37
_symmetry_cell_setting 'orthorhombic'
loop_
_space_group_symop_operation_xyz
x,y,z
-x,-y,z
-x,y,1/2+z
x,-y,1/2+z
1/2+x,1/2+y,z
1/2-x,1/2-y,z
1/2-x,1/2+y,1/2+z
1/2+x,1/2-y,1/2+z
loop_
_atom_site_type_symbol
_atom_site_label
_atom_site_fract_x
_atom_site_fract_y
_atom_site_fract_z
Si Si1 0.869171 0.952626 0.565820
Si Si2 0.557026 0.703611 0.157097
Si Si3 0.062498 0.537685 0.410709
Si Si4 0.609090 0.633678 0.890282
Si Si5 0.549788 0.180767 0.078030
Si Si6 0.500000 0.500000 0.804352
Si Si7 0.686431 0.731555 0.718636
Si Si8 0.890557 0.499027 0.221469
O O1 0.910249 0.814327 0.550551
O O2 0.821970 0.877858 0.630103
O O3 0.905151 0.067908 0.625478
O O4 0.859083 0.042107 0.470616
O O5 0.511956 0.757599 0.082489
O O6 0.519510 0.638315 0.240363
O O7 0.597285 0.840553 0.179279
O O8 0.083979 0.706638 0.421394
O O9 0.062837 0.448332 0.505698
O O10 0.102449 0.479140 0.330293
O O11 0.000000 0.500000 0.376119
O O12 0.554273 0.542713 0.861519
O O13 0.648332 0.666408 0.801856
O O14 0.562610 0.111212 0.178587
O O15 0.750000 0.750000 0.744498
O O16 0.662875 0.898914 0.698822
#
# Coordination Sequence:
#
# PCOD9354688 Si02
#       8
#     8   8   8   8   8   4   8   8
#     4  11  23  38  62  94 125 165 223 267 331 394
#     4  12  20  36  58  92 135 174 212 252 321 409
#     4  11  21  33  54  87 131 170 200 243 312 390
#     4  11  24  39  62  99 128 171 220 270 335 405
#     4  11  21  35  54  89 134 170 198 249 316 393
#     4  12  22  36  64  92 142 176 198 266 340 414
#     4  10  23  50  69  84 126 177 227 291 343 378
#     4  10  22  37  58  87 118 163 218 259 312 390
#
# _framework density 19.138494000000001
#
# number of rings (size 3 to 8) (size 9 to 14) (size 15 to 20)
#    0.000    1.067    2.667    6.000    5.600    0.000 
#    0.000    7.333    0.000    0.000    0.000    0.000 
#    0.000    0.000    0.000    0.000    0.000    0.000 
#
# Total GULP energy -167315.292240 kJ/mol
# GULP energy per Si atom -5577.176408 kJ/mol
# Density = 1.909493 g / cm^3
# Si number density = 19.138494 Si / 1000 Ang^3
#
#
#
# Elastic Constant Matrix: (Units=GPa)
#
#
# Indices 1 2 3 4 5 6 
#
# 1 81.5415 24.0646 19.4915 0.0000 0.0000 0.0000
# 2 24.0646 101.4674 25.4707 0.0000 0.0000 0.0000
# 3 19.4915 25.4707 73.9195 0.0000 0.0000 0.0000
# 4 0.0000 0.0000 0.0000 31.2904 0.0000 0.0000
# 5 0.0000 0.0000 0.0000 0.0000 6.8997 0.0000
# 6 0.0000 0.0000 0.0000 0.0000 0.0000 12.2294
#
#
#
# Elastic Compliance Matrix: (Units=1/GPa)
#
#
# Indices 1 2 3 4 5 6 
#
# 1 0.013670 -0.002558 -0.002723 0.000000 0.000000 0.000000
# 2 -0.002558 0.011267 -0.003208 0.000000 0.000000 0.000000
# 3 -0.002723 -0.003208 0.015352 0.000000 0.000000 0.000000
# 4 0.000000 0.000000 0.000000 0.031959 0.000000 0.000000
# 5 0.000000 0.000000 0.000000 0.000000 0.144934 0.000000
# 6 0.000000 0.000000 0.000000 0.000000 0.000000 0.081770
#
#
# Mechanical properties :
#
#
# Convention : Reuss Voigt Hill
#
# Bulk Modulus (GPa) = 42.89966 43.88689 43.39328
# Shear Modulus (GPa) = 15.44643 22.61069 19.02856
#
# Velocity S-wave (km/s) = 2.84401 3.44091 3.15660
# Velocity P-wave (km/s) = 5.76616 6.22636 6.00067
#
# Compressibility (1/GPa) = 0.02331021
#
# Stress axis : x y z
#
# Youngs Moduli (GPa) = 73.15495 88.75168 65.14002
#
# Poissons Ratio (x) = 0.22707 0.17737
# Poissons Ratio (y) = 0.18716 0.20896
# Poissons Ratio (z) = 0.19919 0.28470
#
# Static dielectric constant tensor:
#      x y z
#    x 1.645330 0.000000 0.000000 
#    y 0.000000 1.697520 0.000000 
#    z 0.000000 0.000000 1.744370 
# 
# From -- ./inp_files/10930.got.cif
#   From: 2010.05.17/outbox.cif.g08.bks.cpg/sg37_6_cif.got.tgz:10930.got - 2010.06.03 17:53:42.
