data_PCOD9354454
_publ_section_title
;
Structure prediction by ZEFSAII (Michael W. Deem and Ramdas Pophale) SiO2 
 PCOD9354454
Probable space group: C C C 2
;
_chemical_formula_sum "Si O2"
_cell_formula_units_Z 32
_cell_length_a 13.864233
_cell_length_b 16.170595
_cell_length_c 5.199188
_cell_angle_alpha 90.000000
_cell_angle_beta 90.000000
_cell_angle_gamma 90.000000
_cell_volume 1165.621019
_symmetry_space_group_name_H-M "C C C 2"
_symmetry_group_IT_number 37
_symmetry_cell_setting 'orthorhombic'
loop_
_space_group_symop_operation_xyz
x,y,z
-x,-y,z
-x,y,1/2+z
x,-y,1/2+z
1/2+x,1/2+y,z
1/2-x,1/2-y,z
1/2-x,1/2+y,1/2+z
1/2+x,1/2-y,1/2+z
loop_
_atom_site_type_symbol
_atom_site_label
_atom_site_fract_x
_atom_site_fract_y
_atom_site_fract_z
Si Si1 0.892533 0.223255 0.197860
Si Si2 0.366120 0.539944 0.116165
Si Si3 0.609945 0.209234 0.704076
Si Si4 0.636290 0.960812 0.510943
O O1 0.889886 0.126624 0.252835
O O2 0.847353 0.279976 0.420356
O O3 0.000329 0.259226 0.159563
O O4 0.847445 0.228724 0.914808
O O5 0.400859 0.471971 0.323347
O O6 0.250621 0.533507 0.068920
O O7 0.616929 0.122021 0.848115
O O8 0.599336 0.970055 0.804919
#
# Coordination Sequence:
#
# PCOD9354454 Si02
#       4
#     8   8   8   8
#     4  10  21  39  59  88 125 161 207 260 319 386
#     4  10  21  39  62  88 120 160 206 257 313 374
#     4  10  21  39  59  88 125 161 207 260 319 386
#     4  10  21  39  62  88 120 160 206 257 313 374
#
# _framework density 27.453178000000001
#
# number of rings (size 3 to 8) (size 9 to 14) (size 15 to 20)
#    0.000    2.000    0.000    3.000    0.000    1.000 
#    0.000   32.500    0.000    0.000    0.000    0.000 
#    0.000    0.000    0.000    0.000    0.000    0.000 
#
# Total GULP energy -89330.820104 kJ/mol
# GULP energy per Si atom -5583.176256 kJ/mol
# Density = 2.739069 g / cm^3
# Si number density = 27.453178 Si / 1000 Ang^3
#
#
#
# Elastic Constant Matrix: (Units=GPa)
#
#
# Indices 1 2 3 4 5 6 
#
# 1 139.3849 -19.7934 -9.6394 0.0000 0.0000 0.0000
# 2 -19.7934 121.8710 47.8000 0.0000 0.0000 0.0000
# 3 -9.6394 47.8000 200.0001 0.0000 0.0000 0.0000
# 4 0.0000 0.0000 0.0000 55.9622 0.0000 0.0000
# 5 0.0000 0.0000 0.0000 0.0000 -61.4485 0.0000
# 6 0.0000 0.0000 0.0000 0.0000 0.0000 26.8552
#
#
#
# Elastic Compliance Matrix: (Units=1/GPa)
#
#
# Indices 1 2 3 4 5 6 
#
# 1 0.007345 0.001163 0.000076 0.000000 0.000000 0.000000
# 2 0.001163 0.009238 -0.002152 0.000000 0.000000 0.000000
# 3 0.000076 -0.002152 0.005518 0.000000 0.000000 0.000000
# 4 0.000000 0.000000 0.000000 0.017869 0.000000 0.000000
# 5 0.000000 0.000000 0.000000 0.000000 -0.016274 0.000000
# 6 0.000000 0.000000 0.000000 0.000000 0.000000 0.037237
#
#
# Mechanical properties :
#
#
# Convention : Reuss Voigt Hill
#
# Bulk Modulus (GPa) = 49.32072 55.33228 52.32650
# Shear Modulus (GPa) = 71.92451 33.79970 52.86210
#
# Velocity S-wave (km/s) = 5.12405 3.51262 4.39285
# Velocity P-wave (km/s) = 7.28095 6.05394 6.69561
#
# Compressibility (1/GPa) = 0.02027546
#
# Stress axis : x y z
#
# Youngs Moduli (GPa) = 136.15080 108.24495 181.22622
#
# Poissons Ratio (x) = -0.12590 -0.01378
# Poissons Ratio (y) = -0.15835 0.38998
# Poissons Ratio (z) = -0.01035 0.23293
#
# Static dielectric constant tensor:
#      x y z
#    x 26.123650 0.000000 0.000000 
#    y 0.000000 2.273350 0.000000 
#    z 0.000000 0.000000 2.214210 
# 
# From -- ./inp_files/430.got.cif
#   From: 2010.05.17/outbox.cif.g08.bks.cpg/sg37_1_cif.got.tgz:430.got - 2010.06.03 17:53:42.
