data_PCOD9354225
_publ_section_title
;
Structure prediction by ZEFSAII (Michael W. Deem and Ramdas Pophale) SiO2 
 PCOD9354225
Probable space group: C C C 2
;
_chemical_formula_sum "Si O2"
_cell_formula_units_Z 60
_cell_length_a 11.593972
_cell_length_b 17.363073
_cell_length_c 14.621187
_cell_angle_alpha 90.000000
_cell_angle_beta 90.000000
_cell_angle_gamma 90.000000
_cell_volume 2943.347031
_symmetry_space_group_name_H-M "C C C 2"
_symmetry_group_IT_number 37
_symmetry_cell_setting 'orthorhombic'
loop_
_space_group_symop_operation_xyz
x,y,z
-x,-y,z
-x,y,1/2+z
x,-y,1/2+z
1/2+x,1/2+y,z
1/2-x,1/2-y,z
1/2-x,1/2+y,1/2+z
1/2+x,1/2-y,1/2+z
loop_
_atom_site_type_symbol
_atom_site_label
_atom_site_fract_x
_atom_site_fract_y
_atom_site_fract_z
Si Si1 0.250000 0.750000 0.326650
Si Si2 0.369846 0.514851 0.069211
Si Si3 0.101683 0.687441 0.646602
Si Si4 0.066850 0.420345 0.299221
Si Si5 0.140288 0.856731 0.673867
Si Si6 0.597788 0.390157 0.252720
Si Si7 0.231495 0.998921 0.883129
Si Si8 0.596773 0.134605 0.441580
O O1 0.326273 0.686624 0.271740
O O2 0.339941 0.794727 0.391682
O O3 0.500000 0.500000 0.039833
O O4 0.338635 0.430335 0.108794
O O5 0.368340 0.573440 0.154170
O O6 0.306748 0.540236 0.977301
O O7 0.030285 0.641000 0.722178
O O8 0.081813 0.778313 0.634088
O O9 0.229955 0.673050 0.687252
O O10 0.089750 0.648994 0.548437
O O11 0.199884 0.444578 0.313130
O O12 0.000000 0.500000 0.279713
O O13 0.024240 0.384390 0.394474
O O14 0.041639 0.879402 0.747961
O O15 0.634993 0.452093 0.329653
O O16 0.324236 0.061683 0.917593
#
# Coordination Sequence:
#
# PCOD9354225 Si02
#       8
#     4   8   8   8   8   8   8   8
#     4  10  20  40  66  96 124 168 212 264 318 386
#     4  10  21  38  60  89 119 165 213 256 312 379
#     4  11  21  38  67  87 131 165 204 281 312 381
#     4  10  23  40  58  97 124 162 217 257 333 382
#     4  10  21  38  60  94 118 165 221 248 325 373
#     4  10  22  39  65  90 129 161 217 263 314 395
#     4  10  21  38  61  89 126 163 207 264 310 387
#     4  10  21  38  62  93 121 166 216 255 314 391
#
# _framework density 20.384955999999999
#
# number of rings (size 3 to 8) (size 9 to 14) (size 15 to 20)
#    0.000    1.867    1.333    2.400    1.867    4.267 
#    7.200    0.000    2.933    0.000    0.000    0.000 
#    0.000    0.000    0.000    0.000    0.000    0.000 
#
# Total GULP energy -167116.486486 kJ/mol
# GULP energy per Si atom -5570.549550 kJ/mol
# Density = 2.033856 g / cm^3
# Si number density = 20.384956 Si / 1000 Ang^3
#
#
#
# Elastic Constant Matrix: (Units=GPa)
#
#
# Indices 1 2 3 4 5 6 
#
# 1 47.8450 -1.5814 10.3810 0.0000 0.0000 0.0000
# 2 -1.5814 71.4061 27.4402 0.0000 0.0000 0.0000
# 3 10.3810 27.4402 108.5419 0.0000 0.0000 0.0000
# 4 0.0000 0.0000 0.0000 27.7022 0.0000 0.0000
# 5 0.0000 0.0000 0.0000 0.0000 72.3971 0.0000
# 6 0.0000 0.0000 0.0000 0.0000 0.0000 22.1403
#
#
#
# Elastic Compliance Matrix: (Units=1/GPa)
#
#
# Indices 1 2 3 4 5 6 
#
# 1 0.021469 0.001401 -0.002407 0.000000 0.000000 0.000000
# 2 0.001401 0.015603 -0.004078 0.000000 0.000000 0.000000
# 3 -0.002407 -0.004078 0.010474 0.000000 0.000000 0.000000
# 4 0.000000 0.000000 0.000000 0.036098 0.000000 0.000000
# 5 0.000000 0.000000 0.000000 0.000000 0.013813 0.000000
# 6 0.000000 0.000000 0.000000 0.000000 0.000000 0.045166
#
#
# Mechanical properties :
#
#
# Convention : Reuss Voigt Hill
#
# Bulk Modulus (GPa) = 26.75514 33.36362 30.05938
# Shear Modulus (GPa) = 30.25660 37.21811 33.73736
#
# Velocity S-wave (km/s) = 3.85679 4.27753 4.07260
# Velocity P-wave (km/s) = 5.74339 6.38738 6.07393
#
# Compressibility (1/GPa) = 0.03737599
#
# Stress axis : x y z
#
# Youngs Moduli (GPa) = 46.57776 64.09143 95.47138
#
# Poissons Ratio (x) = -0.08977 0.22984
# Poissons Ratio (y) = -0.06524 0.38937
# Poissons Ratio (z) = 0.11213 0.26139
#
# Static dielectric constant tensor:
#      x y z
#    x 1.785230 0.000000 0.000000 
#    y 0.000000 1.585650 0.000000 
#    z 0.000000 0.000000 1.704880 
# 
# From -- ./inp_files/11745.got.cif
#   From: 2010.05.17/outbox.cif.g08.bks.cpg/sg37_6_cif.got.tgz:11745.got - 2010.06.03 17:53:42.
