data_PCOD9354401
_publ_section_title
;
Structure prediction by ZEFSAII (Michael W. Deem and Ramdas Pophale) SiO2 
 PCOD9354401
Probable space group: C C C 2
;
_chemical_formula_sum "Si O2"
_cell_formula_units_Z 60
_cell_length_a 5.336792
_cell_length_b 16.482458
_cell_length_c 31.778764
_cell_angle_alpha 90.000000
_cell_angle_beta 90.000000
_cell_angle_gamma 90.000000
_cell_volume 2795.369718
_symmetry_space_group_name_H-M "C C C 2"
_symmetry_group_IT_number 37
_symmetry_cell_setting 'orthorhombic'
loop_
_space_group_symop_operation_xyz
x,y,z
-x,-y,z
-x,y,1/2+z
x,-y,1/2+z
1/2+x,1/2+y,z
1/2-x,1/2-y,z
1/2-x,1/2+y,1/2+z
1/2+x,1/2-y,1/2+z
loop_
_atom_site_type_symbol
_atom_site_label
_atom_site_fract_x
_atom_site_fract_y
_atom_site_fract_z
Si Si1 0.253043 0.051799 0.116510
Si Si2 0.499801 0.401393 0.278735
Si Si3 0.483339 0.098835 0.924885
Si Si4 0.596321 0.681980 0.054526
Si Si5 0.021835 0.097893 0.474313
Si Si6 0.750000 0.250000 0.126540
Si Si7 0.584423 0.667558 0.186537
Si Si8 0.001412 0.401256 0.828554
O O1 0.258085 0.113955 0.077767
O O2 0.233734 0.100940 0.159917
O O3 0.500000 0.000000 0.115787
O O4 0.000000 0.000000 0.112215
O O5 0.500000 0.500000 0.274351
O O6 0.469890 0.361286 0.233256
O O7 0.760255 0.377005 0.300577
O O8 0.261919 0.377795 0.307497
O O9 0.240459 0.121930 0.952216
O O10 0.467617 0.126583 0.876579
O O11 0.744791 0.123212 0.945754
O O12 0.500000 0.000000 0.924055
O O13 0.750000 0.750000 0.030438
O O14 0.466729 0.731356 0.092594
O O15 0.433606 0.635972 0.020232
O O16 0.000000 0.000000 0.478430
O O17 0.674370 0.319532 0.160162
O O18 0.750000 0.750000 0.185521
O O19 0.000000 0.500000 0.829461
#
# Coordination Sequence:
#
# PCOD9354401 Si02
#       8
#     8   8   8   8   8   4   8   8
#     4  11  26  43  68  94 127 167 220 284 333 376
#     4  10  21  37  63  98 128 165 216 274 321 375
#     4   9  18  35  61  95 132 165 206 264 331 389
#     4  11  26  43  66  93 132 177 224 267 328 405
#     4  10  21  37  63  98 128 165 216 274 321 375
#     4  10  24  44  64  84 122 176 224 250 320 392
#     4  11  26  43  66  93 132 177 224 267 328 405
#     4   9  18  35  61  95 132 165 206 264 331 389
#
# _framework density 21.464065999999999
#
# number of rings (size 3 to 8) (size 9 to 14) (size 15 to 20)
#    0.000    1.867    0.000    3.200   11.200    6.400 
#    0.000    0.000    0.000    3.200    0.000    0.000 
#    0.000    0.000    0.000    0.000    0.000    0.000 
#
# Total GULP energy -167446.490663 kJ/mol
# GULP energy per Si atom -5581.549689 kJ/mol
# Density = 2.141521 g / cm^3
# Si number density = 21.464066 Si / 1000 Ang^3
#
#
#
# Elastic Constant Matrix: (Units=GPa)
#
#
# Indices 1 2 3 4 5 6 
#
# 1 152.9272 48.3147 56.5150 0.0000 0.0000 0.0000
# 2 48.3147 62.1274 37.0537 0.0000 0.0000 0.0000
# 3 56.5150 37.0537 149.3898 0.0000 0.0000 0.0000
# 4 0.0000 0.0000 0.0000 18.9703 0.0000 0.0000
# 5 0.0000 0.0000 0.0000 0.0000 -15.7197 0.0000
# 6 0.0000 0.0000 0.0000 0.0000 0.0000 12.9507
#
#
#
# Elastic Compliance Matrix: (Units=1/GPa)
#
#
# Indices 1 2 3 4 5 6 
#
# 1 0.009147 -0.005926 -0.001990 0.000000 0.000000 0.000000
# 2 -0.005926 0.022730 -0.003396 0.000000 0.000000 0.000000
# 3 -0.001990 -0.003396 0.008289 0.000000 0.000000 0.000000
# 4 0.000000 0.000000 0.000000 0.052714 0.000000 0.000000
# 5 0.000000 0.000000 0.000000 0.000000 -0.063614 0.000000
# 6 0.000000 0.000000 0.000000 0.000000 0.000000 0.077216
#
#
# Mechanical properties :
#
#
# Convention : Reuss Voigt Hill
#
# Bulk Modulus (GPa) = 57.00915 72.02346 64.51631
# Shear Modulus (GPa) = 37.04980 18.07766 27.56373
#
# Velocity S-wave (km/s) = 4.15918 2.90527 3.58743
# Velocity P-wave (km/s) = 7.04862 6.69943 6.87624
#
# Compressibility (1/GPa) = 0.01754104
#
# Stress axis : x y z
#
# Youngs Moduli (GPa) = 109.32672 43.99488 120.63908
#
# Poissons Ratio (x) = 0.26072 0.24012
# Poissons Ratio (y) = 0.64789 0.40968
# Poissons Ratio (z) = 0.21761 0.14940
#
# Static dielectric constant tensor:
#      x y z
#    x 1.803200 0.000000 0.000000 
#    y 0.000000 1.758780 0.000000 
#    z 0.000000 0.000000 1.739950 
# 
# From -- ./inp_files/19519.got.cif
#   From: 2010.05.17/outbox.cif.g08.bks.cpg/sg37_10_cif.got.tgz:19519.got - 2010.06.03 17:53:42.
