data_PCOD9354875
_publ_section_title
;
Structure prediction by ZEFSAII (Michael W. Deem and Ramdas Pophale) SiO2 
 PCOD9354875
Probable space group: C C C 2
;
_chemical_formula_sum "Si O2"
_cell_formula_units_Z 56
_cell_length_a 13.207505
_cell_length_b 13.049839
_cell_length_c 13.853456
_cell_angle_alpha 90.000000
_cell_angle_beta 90.000000
_cell_angle_gamma 90.000000
_cell_volume 2387.723683
_symmetry_space_group_name_H-M "C C C 2"
_symmetry_group_IT_number 37
_symmetry_cell_setting 'orthorhombic'
loop_
_space_group_symop_operation_xyz
x,y,z
-x,-y,z
-x,y,1/2+z
x,-y,1/2+z
1/2+x,1/2+y,z
1/2-x,1/2-y,z
1/2-x,1/2+y,1/2+z
1/2+x,1/2-y,1/2+z
loop_
_atom_site_type_symbol
_atom_site_label
_atom_site_fract_x
_atom_site_fract_y
_atom_site_fract_z
Si Si1 0.756281 0.633465 0.300050
Si Si2 0.206746 0.982494 0.125581
Si Si3 0.588507 0.061637 0.561011
Si Si4 0.451338 0.606917 0.242606
Si Si5 0.671963 0.842993 0.884599
Si Si6 0.847174 0.990129 0.917053
Si Si7 0.026374 0.669443 0.758119
O O1 0.750000 0.750000 0.268145
O O2 0.720181 0.565525 0.209913
O O3 0.674524 0.606249 0.383302
O O4 0.877222 0.629930 0.320051
O O5 0.321266 0.981495 0.085192
O O6 0.151142 0.887682 0.177990
O O7 0.143432 0.016310 0.031089
O O8 0.629580 0.152719 0.493570
O O9 0.542669 0.110052 0.657959
O O10 0.500000 0.000000 0.508904
O O11 0.500000 0.500000 0.206948
O O12 0.423815 0.577831 0.353971
O O13 0.517950 0.708052 0.237872
O O14 0.750000 0.750000 0.869660
O O15 0.739963 0.943897 0.881882
O O16 0.580369 0.849241 0.810535
#
# Coordination Sequence:
#
# PCOD9354875 Si02
#       7
#     8   8   8   8   8   8   8
#     4  10  22  43  67  95 136 175 222 274 343 407
#     4   9  22  42  66  92 132 178 218 275 333 397
#     4  10  25  42  69 103 131 176 232 280 338 402
#     4  11  23  43  64  99 136 176 220 269 339 409
#     4  11  24  43  68  96 137 175 226 276 343 406
#     4  10  22  42  67  94 128 181 221 275 331 399
#     4  11  24  40  68 101 131 173 220 284 332 401
#
# _framework density 23.453299999999999
#
# number of rings (size 3 to 8) (size 9 to 14) (size 15 to 20)
#    0.000    1.714    1.429    1.714   10.000    8.000 
#    5.143    0.000    0.000    0.000    0.000    0.000 
#    0.000    0.000    0.000    0.000    0.000    0.000 
#
# Total GULP energy -156166.666378 kJ/mol
# GULP energy per Si atom -5577.380942 kJ/mol
# Density = 2.339992 g / cm^3
# Si number density = 23.453300 Si / 1000 Ang^3
#
#
#
# Elastic Constant Matrix: (Units=GPa)
#
#
# Indices 1 2 3 4 5 6 
#
# 1 108.8383 25.7099 39.9834 0.0000 0.0000 0.0000
# 2 25.7099 77.1201 11.1489 0.0000 0.0000 0.0000
# 3 39.9834 11.1489 113.2997 0.0000 0.0000 0.0000
# 4 0.0000 0.0000 0.0000 7.0653 0.0000 0.0000
# 5 0.0000 0.0000 0.0000 0.0000 28.2670 0.0000
# 6 0.0000 0.0000 0.0000 0.0000 0.0000 46.3900
#
#
#
# Elastic Compliance Matrix: (Units=1/GPa)
#
#
# Indices 1 2 3 4 5 6 
#
# 1 0.011301 -0.003237 -0.003669 0.000000 0.000000 0.000000
# 2 -0.003237 0.014081 -0.000243 0.000000 0.000000 0.000000
# 3 -0.003669 -0.000243 0.010145 0.000000 0.000000 0.000000
# 4 0.000000 0.000000 0.000000 0.141537 0.000000 0.000000
# 5 0.000000 0.000000 0.000000 0.000000 0.035377 0.000000
# 6 0.000000 0.000000 0.000000 0.000000 0.000000 0.021556
#
#
# Mechanical properties :
#
#
# Convention : Reuss Voigt Hill
#
# Bulk Modulus (GPa) = 47.10890 50.32695 48.71792
# Shear Modulus (GPa) = 19.57928 31.17220 25.37574
#
# Velocity S-wave (km/s) = 2.89246 3.64966 3.29290
# Velocity P-wave (km/s) = 5.59330 6.26618 5.93927
#
# Compressibility (1/GPa) = 0.02122741
#
# Stress axis : x y z
#
# Youngs Moduli (GPa) = 88.49103 71.01747 98.57036
#
# Poissons Ratio (x) = 0.22987 0.36170
# Poissons Ratio (y) = 0.28643 0.02398
# Poissons Ratio (z) = 0.32471 0.01728
#
# Static dielectric constant tensor:
#      x y z
#    x 2.045210 0.000000 0.000000 
#    y 0.000000 1.994790 0.000000 
#    z 0.000000 0.000000 1.915420 
# 
# From -- ./inp_files/11619.got.cif
#   From: 2010.05.17/outbox.cif.g08.bks.cpg/sg37_6_cif.got.tgz:11619.got - 2010.06.03 17:53:42.
