data_PCOD9354285
_publ_section_title
;
Structure prediction by ZEFSAII (Michael W. Deem and Ramdas Pophale) SiO2 
 PCOD9354285
Probable space group: C C C 2
;
_chemical_formula_sum "Si O2"
_cell_formula_units_Z 32
_cell_length_a 4.952824
_cell_length_b 24.265129
_cell_length_c 13.363267
_cell_angle_alpha 90.000000
_cell_angle_beta 90.000000
_cell_angle_gamma 90.000000
_cell_volume 1606.009632
_symmetry_space_group_name_H-M "C C C 2"
_symmetry_group_IT_number 37
_symmetry_cell_setting 'orthorhombic'
loop_
_space_group_symop_operation_xyz
x,y,z
-x,-y,z
-x,y,1/2+z
x,-y,1/2+z
1/2+x,1/2+y,z
1/2-x,1/2-y,z
1/2-x,1/2+y,1/2+z
1/2+x,1/2-y,1/2+z
loop_
_atom_site_type_symbol
_atom_site_label
_atom_site_fract_x
_atom_site_fract_y
_atom_site_fract_z
Si Si1 0.953131 0.439375 0.377030
Si Si2 0.973946 0.090629 0.754706
Si Si3 0.750122 0.372695 0.563834
Si Si4 0.715900 0.314375 0.146295
O O1 0.726974 0.444873 0.290428
O O2 0.834170 0.399214 0.460478
O O3 0.000000 0.500000 0.420209
O O4 0.228776 0.416161 0.330750
O O5 0.861713 0.081580 0.642518
O O6 0.091981 0.152861 0.741496
O O7 0.505493 0.328895 0.560883
O O8 0.005156 0.343202 0.615494
O O9 0.750000 0.250000 0.161595
#
# Coordination Sequence:
#
# PCOD9354285 Si02
#       4
#     8   8   8   8
#     4  12  24  42  64  96 131 169 213 264 316 378
#     4  10  22  42  64  93 130 163 217 263 310 386
#     4  10  22  41  66  91 133 163 213 263 313 389
#     4  10  20  42  68  89 127 172 205 264 327 367
#
# _framework density 19.925160999999999
#
# number of rings (size 3 to 8) (size 9 to 14) (size 15 to 20)
#    1.500    0.000    2.500    3.000    0.000    1.000 
#    4.500    5.000    0.000    0.000    0.000    0.000 
#    0.000    0.000    0.000    0.000    0.000    0.000 
#
# Total GULP energy -89150.608672 kJ/mol
# GULP energy per Si atom -5571.913042 kJ/mol
# Density = 1.987981 g / cm^3
# Si number density = 19.925161 Si / 1000 Ang^3
#
#
#
# Elastic Constant Matrix: (Units=GPa)
#
#
# Indices 1 2 3 4 5 6 
#
# 1 125.8921 19.2994 0.6290 0.0000 0.0000 0.0000
# 2 19.2994 67.9346 13.8001 0.0000 0.0000 0.0000
# 3 0.6290 13.8001 22.2950 0.0000 0.0000 0.0000
# 4 0.0000 0.0000 0.0000 22.3043 0.0000 0.0000
# 5 0.0000 0.0000 0.0000 0.0000 21.5964 0.0000
# 6 0.0000 0.0000 0.0000 0.0000 0.0000 18.8718
#
#
#
# Elastic Compliance Matrix: (Units=1/GPa)
#
#
# Indices 1 2 3 4 5 6 
#
# 1 0.008344 -0.002657 0.001409 0.000000 0.000000 0.000000
# 2 -0.002657 0.017683 -0.010870 0.000000 0.000000 0.000000
# 3 0.001409 -0.010870 0.051542 0.000000 0.000000 0.000000
# 4 0.000000 0.000000 0.000000 0.044834 0.000000 0.000000
# 5 0.000000 0.000000 0.000000 0.000000 0.046304 0.000000
# 6 0.000000 0.000000 0.000000 0.000000 0.000000 0.052989
#
#
# Mechanical properties :
#
#
# Convention : Reuss Voigt Hill
#
# Bulk Modulus (GPa) = 18.75029 31.50872 25.12950
# Shear Modulus (GPa) = 18.96027 24.71405 21.83716
#
# Velocity S-wave (km/s) = 3.08811 3.52567 3.31412
# Velocity P-wave (km/s) = 4.70595 5.69400 5.22339
#
# Compressibility (1/GPa) = 0.05333250
#
# Stress axis : x y z
#
# Youngs Moduli (GPa) = 119.85353 56.55177 19.40166
#
# Poissons Ratio (x) = 0.15023 -0.02734
# Poissons Ratio (y) = 0.31839 0.21090
# Poissons Ratio (z) = -0.16887 0.61474
#
# Static dielectric constant tensor:
#      x y z
#    x 1.730060 0.000000 0.000000 
#    y 0.000000 1.703830 0.000000 
#    z 0.000000 0.000000 1.720420 
# 
# From -- ./inp_files/9504.got.cif
#   From: 2010.05.17/outbox.cif.g08.bks.cpg/sg37_5_cif.got.tgz:9504.got - 2010.06.03 17:53:42.
