data_PCOD9354313
_publ_section_title
;
Structure prediction by ZEFSAII (Michael W. Deem and Ramdas Pophale) SiO2 
 PCOD9354313
Probable space group: C C C 2
;
_chemical_formula_sum "Si O2"
_cell_formula_units_Z 56
_cell_length_a 9.886383
_cell_length_b 17.026739
_cell_length_c 14.615147
_cell_angle_alpha 90.000000
_cell_angle_beta 90.000000
_cell_angle_gamma 90.000000
_cell_volume 2460.209538
_symmetry_space_group_name_H-M "C C C 2"
_symmetry_group_IT_number 37
_symmetry_cell_setting 'orthorhombic'
loop_
_space_group_symop_operation_xyz
x,y,z
-x,-y,z
-x,y,1/2+z
x,-y,1/2+z
1/2+x,1/2+y,z
1/2-x,1/2-y,z
1/2-x,1/2+y,1/2+z
1/2+x,1/2-y,1/2+z
loop_
_atom_site_type_symbol
_atom_site_label
_atom_site_fract_x
_atom_site_fract_y
_atom_site_fract_z
Si Si1 0.500000 0.500000 0.471790
Si Si2 0.813261 0.166664 0.292519
Si Si3 0.674774 0.871707 0.282526
Si Si4 0.750000 0.250000 0.025789
Si Si5 0.205308 0.472017 0.893120
Si Si6 0.068999 0.777056 0.862154
Si Si7 0.359040 0.401790 0.612423
Si Si8 0.356226 0.961422 0.602849
O O1 0.635716 0.490956 0.413471
O O2 0.472422 0.426422 0.539988
O O3 0.750000 0.250000 0.265620
O O4 0.706826 0.102652 0.326557
O O5 0.901523 0.127920 0.211358
O O6 0.923112 0.185586 0.369414
O O7 0.817176 0.835828 0.320635
O O8 0.571188 0.800712 0.300120
O O9 0.671833 0.892786 0.175497
O O10 0.647706 0.950269 0.343090
O O11 0.734988 0.331086 0.077729
O O12 0.878583 0.251759 0.959676
O O13 0.145811 0.449779 0.992706
O O14 0.264201 0.477153 0.620959
O O15 0.500000 0.000000 0.626231
#
# Coordination Sequence:
#
# PCOD9354313 Si02
#       8
#     4   8   8   4   8   8   8   8
#     4  10  22  40  70 102 122 170 224 276 322 394
#     4  12  26  41  62 100 134 171 218 275 334 388
#     4  10  22  44  68  93 135 170 222 266 332 396
#     4  10  20  44  66  90 130 170 216 268 332 394
#     4  11  23  44  68  97 131 169 223 276 328 393
#     4  10  23  41  67  96 127 178 214 271 327 392
#     4  11  23  40  66  97 131 169 223 268 331 390
#     4  11  25  41  66  96 126 178 220 267 327 396
#
# _framework density 22.762291000000001
#
# number of rings (size 3 to 8) (size 9 to 14) (size 15 to 20)
#    0.000    1.429    2.143    5.143    6.000    3.429 
#    2.571    0.000    0.000    0.000    0.000    0.000 
#    0.000    0.000    0.000    0.000    0.000    0.000 
#
# Total GULP energy -156433.469197 kJ/mol
# GULP energy per Si atom -5586.909614 kJ/mol
# Density = 2.271048 g / cm^3
# Si number density = 22.762291 Si / 1000 Ang^3
#
#
#
# Elastic Constant Matrix: (Units=GPa)
#
#
# Indices 1 2 3 4 5 6 
#
# 1 41.8795 -4.3106 -16.9757 0.0000 0.0000 0.0000
# 2 -4.3106 139.3458 39.8293 0.0000 0.0000 0.0000
# 3 -16.9757 39.8293 81.3230 0.0000 0.0000 0.0000
# 4 0.0000 0.0000 0.0000 35.5936 0.0000 0.0000
# 5 0.0000 0.0000 0.0000 0.0000 131.6487 0.0000
# 6 0.0000 0.0000 0.0000 0.0000 0.0000 21.4438
#
#
#
# Elastic Compliance Matrix: (Units=1/GPa)
#
#
# Indices 1 2 3 4 5 6 
#
# 1 0.026177 -0.000874 0.005893 0.000000 0.000000 0.000000
# 2 -0.000874 0.008374 -0.004284 0.000000 0.000000 0.000000
# 3 0.005893 -0.004284 0.015625 0.000000 0.000000 0.000000
# 4 0.000000 0.000000 0.000000 0.028095 0.000000 0.000000
# 5 0.000000 0.000000 0.000000 0.000000 0.007596 0.000000
# 6 0.000000 0.000000 0.000000 0.000000 0.000000 0.046633
#
#
# Mechanical properties :
#
#
# Convention : Reuss Voigt Hill
#
# Bulk Modulus (GPa) = 19.36349 33.29268 26.32809
# Shear Modulus (GPa) = 33.72787 54.00424 43.86606
#
# Velocity S-wave (km/s) = 3.85352 4.87615 4.39468
# Velocity P-wave (km/s) = 5.32210 6.80885 6.11086
#
# Compressibility (1/GPa) = 0.05164358
#
# Stress axis : x y z
#
# Youngs Moduli (GPa) = 38.20212 119.42060 64.00121
#
# Poissons Ratio (x) = 0.10443 -0.37713
# Poissons Ratio (y) = 0.03341 0.27416
# Poissons Ratio (z) = -0.22511 0.51157
#
# Static dielectric constant tensor:
#      x y z
#    x 1.783440 0.000000 0.000000 
#    y 0.000000 1.810030 0.000000 
#    z 0.000000 0.000000 1.880000 
# 
# From -- ./inp_files/11643.got.cif
#   From: 2010.05.17/outbox.cif.g08.bks.cpg/sg37_6_cif.got.tgz:11643.got - 2010.06.03 17:53:42.
