data_PCOD9354534
_publ_section_title
;
Structure prediction by ZEFSAII (Michael W. Deem and Ramdas Pophale) SiO2 
 PCOD9354534
Probable space group: C C C 2
;
_chemical_formula_sum "Si O2"
_cell_formula_units_Z 48
_cell_length_a 8.613057
_cell_length_b 14.537126
_cell_length_c 18.954631
_cell_angle_alpha 90.000000
_cell_angle_beta 90.000000
_cell_angle_gamma 90.000000
_cell_volume 2373.292191
_symmetry_space_group_name_H-M "C C C 2"
_symmetry_group_IT_number 37
_symmetry_cell_setting 'orthorhombic'
loop_
_space_group_symop_operation_xyz
x,y,z
-x,-y,z
-x,y,1/2+z
x,-y,1/2+z
1/2+x,1/2+y,z
1/2-x,1/2-y,z
1/2-x,1/2+y,1/2+z
1/2+x,1/2-y,1/2+z
loop_
_atom_site_type_symbol
_atom_site_label
_atom_site_fract_x
_atom_site_fract_y
_atom_site_fract_z
Si Si1 0.639308 0.340440 0.844450
Si Si2 0.379327 0.326392 0.100444
Si Si3 0.564513 0.741487 0.731926
Si Si4 0.348652 0.341670 0.502673
Si Si5 0.679584 0.993360 0.597027
Si Si6 0.381885 0.935459 0.749917
O O1 0.750000 0.250000 0.846589
O O2 0.483526 0.306399 0.805660
O O3 0.731006 0.409171 0.793420
O O4 0.627670 0.378522 0.923460
O O5 0.250000 0.250000 0.110973
O O6 0.488757 0.319735 0.169482
O O7 0.488790 0.310522 0.034585
O O8 0.289262 0.419696 0.084491
O O9 0.750000 0.750000 0.723483
O O10 0.472955 0.840500 0.729237
O O11 0.250000 0.250000 0.497707
O O12 0.262976 0.409460 0.557695
O O13 0.664461 0.002269 0.682228
O O14 0.500000 0.000000 0.572027
O O15 0.500000 0.000000 0.792680
#
# Coordination Sequence:
#
# PCOD9354534 Si02
#       6
#     8   8   8   8   8   8
#     4   9  20  45  66  92 131 173 211 267 334 388
#     4  12  22  41  66  94 132 172 216 274 320 383
#     4  11  22  40  69  98 126 167 224 272 327 389
#     4  11  25  41  67  98 135 174 216 264 331 395
#     4  11  23  41  65  96 132 170 221 271 321 384
#     4  10  21  40  67  95 129 168 215 269 323 384
#
# _framework density 20.225069000000001
#
# number of rings (size 3 to 8) (size 9 to 14) (size 15 to 20)
#    0.000    1.333    3.333    2.500    7.000    1.333 
#    0.000    7.500    0.000    0.000    0.000    0.000 
#    0.000    0.000    0.000    0.000    0.000    0.000 
#
# Total GULP energy -133856.947142 kJ/mol
# GULP energy per Si atom -5577.372798 kJ/mol
# Density = 2.017904 g / cm^3
# Si number density = 20.225069 Si / 1000 Ang^3
#
#
#
# Elastic Constant Matrix: (Units=GPa)
#
#
# Indices 1 2 3 4 5 6 
#
# 1 137.9997 22.6362 60.1509 0.0000 0.0000 0.0000
# 2 22.6362 71.7827 37.6961 0.0000 0.0000 0.0000
# 3 60.1509 37.6961 122.2106 0.0000 0.0000 0.0000
# 4 0.0000 0.0000 0.0000 24.5643 0.0000 0.0000
# 5 0.0000 0.0000 0.0000 0.0000 28.8903 0.0000
# 6 0.0000 0.0000 0.0000 0.0000 0.0000 36.6367
#
#
#
# Elastic Compliance Matrix: (Units=1/GPa)
#
#
# Indices 1 2 3 4 5 6 
#
# 1 0.009249 -0.000628 -0.004359 0.000000 0.000000 0.000000
# 2 -0.000628 0.016666 -0.004832 0.000000 0.000000 0.000000
# 3 -0.004359 -0.004832 0.011818 0.000000 0.000000 0.000000
# 4 0.000000 0.000000 0.000000 0.040710 0.000000 0.000000
# 5 0.000000 0.000000 0.000000 0.000000 0.034614 0.000000
# 6 0.000000 0.000000 0.000000 0.000000 0.000000 0.027295
#
#
# Mechanical properties :
#
#
# Convention : Reuss Voigt Hill
#
# Bulk Modulus (GPa) = 55.25696 63.66216 59.45956
# Shear Modulus (GPa) = 30.11667 32.11892 31.11780
#
# Velocity S-wave (km/s) = 3.86304 3.98939 3.92672
# Velocity P-wave (km/s) = 6.87588 7.26399 7.07260
#
# Compressibility (1/GPa) = 0.01809727
#
# Stress axis : x y z
#
# Youngs Moduli (GPa) = 108.11696 60.00153 84.61443
#
# Poissons Ratio (x) = 0.03766 0.36881
# Poissons Ratio (y) = 0.06787 0.40884
# Poissons Ratio (z) = 0.47126 0.28991
#
# Static dielectric constant tensor:
#      x y z
#    x 1.751180 0.000000 0.000000 
#    y 0.000000 1.802770 0.000000 
#    z 0.000000 0.000000 1.738160 
# 
# From -- ./inp_files/14532.got.cif
#   From: 2010.05.17/outbox.cif.g08.bks.cpg/sg37_8_cif.got.tgz:14532.got - 2010.06.03 17:53:42.
