data_PCOD9354972
_publ_section_title
;
Structure prediction by ZEFSAII (Michael W. Deem and Ramdas Pophale) SiO2 
 PCOD9354972
Probable space group: C C C 2
;
_chemical_formula_sum "Si O2"
_cell_formula_units_Z 48
_cell_length_a 5.415474
_cell_length_b 13.886242
_cell_length_c 28.641885
_cell_angle_alpha 90.000000
_cell_angle_beta 90.000000
_cell_angle_gamma 90.000000
_cell_volume 2153.886436
_symmetry_space_group_name_H-M "C C C 2"
_symmetry_group_IT_number 37
_symmetry_cell_setting 'orthorhombic'
loop_
_space_group_symop_operation_xyz
x,y,z
-x,-y,z
-x,y,1/2+z
x,-y,1/2+z
1/2+x,1/2+y,z
1/2-x,1/2-y,z
1/2-x,1/2+y,1/2+z
1/2+x,1/2-y,1/2+z
loop_
_atom_site_type_symbol
_atom_site_label
_atom_site_fract_x
_atom_site_fract_y
_atom_site_fract_z
Si Si1 0.364905 0.143102 0.119130
Si Si2 0.750000 0.250000 0.949131
Si Si3 0.503833 0.810854 0.716590
Si Si4 0.622642 0.105024 0.024042
Si Si5 0.005242 0.116681 0.874702
Si Si6 0.000000 0.000000 0.071981
Si Si7 0.505523 0.114111 0.820627
O O1 0.250000 0.250000 0.121975
O O2 0.477703 0.124864 0.170106
O O3 0.535935 0.145937 0.073680
O O4 0.187064 0.055295 0.105484
O O5 0.926966 0.181403 0.918603
O O6 0.595650 0.178421 0.982310
O O7 0.250000 0.750000 0.719881
O O8 0.534870 0.856908 0.767301
O O9 0.750000 0.750000 0.707881
O O10 0.904309 0.080906 0.036250
O O11 0.500000 0.000000 0.015528
O O12 0.780014 0.139589 0.838712
O O13 0.272225 0.142783 0.853062
O O14 0.000000 0.000000 0.884093
O O15 0.500000 0.000000 0.822626
#
# Coordination Sequence:
#
# PCOD9354972 Si02
#       7
#     8   4   8   8   8   4   8
#     4  10  23  43  68 103 144 189 237 290 359 431
#     4  12  26  44  78  96 140 202 236 308 390 418
#     4  11  25  41  72 105 143 184 238 287 351 445
#     4  10  24  45  69 105 145 182 247 297 358 440
#     4  10  25  47  71 106 141 181 246 301 356 437
#     4  10  22  44  70  96 152 182 234 308 346 432
#     4  10  23  48  70 100 142 181 230 302 358 428
#
# _framework density 22.285297
#
# number of rings (size 3 to 8) (size 9 to 14) (size 15 to 20)
#    0.000    1.667    0.000    2.000   10.500    4.000 
#   16.500    0.000    0.000    0.000    0.000    0.000 
#    0.000    0.000    0.000    0.000    0.000    0.000 
#
# Total GULP energy -133994.027271 kJ/mol
# GULP energy per Si atom -5583.084470 kJ/mol
# Density = 2.223457 g / cm^3
# Si number density = 22.285297 Si / 1000 Ang^3
#
#
#
# Elastic Constant Matrix: (Units=GPa)
#
#
# Indices 1 2 3 4 5 6 
#
# 1 92.2069 14.7266 32.7917 0.0000 0.0000 0.0000
# 2 14.7266 108.3654 57.6099 0.0000 0.0000 0.0000
# 3 32.7917 57.6099 163.2316 0.0000 0.0000 0.0000
# 4 0.0000 0.0000 0.0000 119.0863 0.0000 0.0000
# 5 0.0000 0.0000 0.0000 0.0000 -120.8137 0.0000
# 6 0.0000 0.0000 0.0000 0.0000 0.0000 15.0609
#
#
#
# Elastic Compliance Matrix: (Units=1/GPa)
#
#
# Indices 1 2 3 4 5 6 
#
# 1 0.011695 -0.000419 -0.002202 0.000000 0.000000 0.000000
# 2 -0.000419 0.011374 -0.003930 0.000000 0.000000 0.000000
# 3 -0.002202 -0.003930 0.007956 0.000000 0.000000 0.000000
# 4 0.000000 0.000000 0.000000 0.008397 0.000000 0.000000
# 5 0.000000 0.000000 0.000000 0.000000 -0.008277 0.000000
# 6 0.000000 0.000000 0.000000 0.000000 0.000000 0.066397
#
#
# Mechanical properties :
#
#
# Convention : Reuss Voigt Hill
#
# Bulk Modulus (GPa) = 55.79234 63.78449 59.78842
# Shear Modulus (GPa) = 42.87487 19.91174 31.39331
#
# Velocity S-wave (km/s) = 4.39100 2.99238 3.75734
# Velocity P-wave (km/s) = 7.12725 6.37362 6.76094
#
# Compressibility (1/GPa) = 0.01792361
#
# Stress axis : x y z
#
# Youngs Moduli (GPa) = 85.50643 87.91678 125.69674
#
# Poissons Ratio (x) = 0.03683 0.27673
# Poissons Ratio (y) = 0.03582 0.49402
# Poissons Ratio (z) = 0.18825 0.34553
#
# Static dielectric constant tensor:
#      x y z
#    x 1.886730 0.000000 0.000000 
#    y 0.000000 1.569210 0.000000 
#    z 0.000000 0.000000 1.813150 
# 
# From -- ./inp_files/19342.got.cif
#   From: 2010.05.17/outbox.cif.g08.bks.cpg/sg37_10_cif.got.tgz:19342.got - 2010.06.03 17:53:42.
