data_PCOD9354588
_publ_section_title
;
Structure prediction by ZEFSAII (Michael W. Deem and Ramdas Pophale) SiO2 
 PCOD9354588
Probable space group: C C C 2
;
_chemical_formula_sum "Si O2"
_cell_formula_units_Z 24
_cell_length_a 12.443180
_cell_length_b 7.749615
_cell_length_c 9.652584
_cell_angle_alpha 90.000000
_cell_angle_beta 90.000000
_cell_angle_gamma 90.000000
_cell_volume 930.797269
_symmetry_space_group_name_H-M "C C C 2"
_symmetry_group_IT_number 37
_symmetry_cell_setting 'orthorhombic'
loop_
_space_group_symop_operation_xyz
x,y,z
-x,-y,z
-x,y,1/2+z
x,-y,1/2+z
1/2+x,1/2+y,z
1/2-x,1/2-y,z
1/2-x,1/2+y,1/2+z
1/2+x,1/2-y,1/2+z
loop_
_atom_site_type_symbol
_atom_site_label
_atom_site_fract_x
_atom_site_fract_y
_atom_site_fract_z
Si Si1 0.142708 0.929698 0.399070
Si Si2 0.106824 0.556069 0.450837
Si Si3 0.876549 0.221334 0.108262
O O1 0.116826 0.757987 0.490216
O O2 0.272603 0.964156 0.385871
O O3 0.095228 0.873503 0.250996
O O4 0.101975 0.097542 0.477802
O O5 0.092754 0.414906 0.570821
O O6 0.000000 0.500000 0.364220
O O7 0.750000 0.250000 0.121355
#
# Coordination Sequence:
#
# PCOD9354588 Si02
#       3
#     8   8   8
#     4  10  22  44  67  96 134 176 220 280 347 397
#     4  10  22  41  66  98 132 177 231 278 338 413
#     4  10  21  42  64  93 130 176 216 274 345 400
#
# _framework density 25.784345999999999
#
# number of rings (size 3 to 8) (size 9 to 14) (size 15 to 20)
#    0.000    2.000    3.333    0.000    0.000    5.333 
#   18.000    3.333    0.000    0.000    0.000    0.000 
#    0.000    0.000    0.000    0.000    0.000    0.000 
#
# Total GULP energy -66848.133377 kJ/mol
# GULP energy per Si atom -5570.677781 kJ/mol
# Density = 2.572566 g / cm^3
# Si number density = 25.784346 Si / 1000 Ang^3
#
#
#
# Elastic Constant Matrix: (Units=GPa)
#
#
# Indices 1 2 3 4 5 6 
#
# 1 153.2315 77.1584 24.6054 0.0000 0.0000 0.0000
# 2 77.1584 179.3996 94.6020 0.0000 0.0000 0.0000
# 3 24.6054 94.6020 155.1368 0.0000 0.0000 0.0000
# 4 0.0000 0.0000 0.0000 25.6809 0.0000 0.0000
# 5 0.0000 0.0000 0.0000 0.0000 4.7210 0.0000
# 6 0.0000 0.0000 0.0000 0.0000 0.0000 60.9646
#
#
#
# Elastic Compliance Matrix: (Units=1/GPa)
#
#
# Indices 1 2 3 4 5 6 
#
# 1 0.008504 -0.004343 0.001299 0.000000 0.000000 0.000000
# 2 -0.004343 0.010434 -0.005674 0.000000 0.000000 0.000000
# 3 0.001299 -0.005674 0.009700 0.000000 0.000000 0.000000
# 4 0.000000 0.000000 0.000000 0.038939 0.000000 0.000000
# 5 0.000000 0.000000 0.000000 0.000000 0.211818 0.000000
# 6 0.000000 0.000000 0.000000 0.000000 0.000000 0.016403
#
#
# Mechanical properties :
#
#
# Convention : Reuss Voigt Hill
#
# Bulk Modulus (GPa) = 89.25810 97.83328 93.54569
# Shear Modulus (GPa) = 15.77453 37.70012 26.73732
#
# Velocity S-wave (km/s) = 2.47612 3.82793 3.22368
# Velocity P-wave (km/s) = 6.54730 7.58701 7.08625
#
# Compressibility (1/GPa) = 0.01120346
#
# Stress axis : x y z
#
# Youngs Moduli (GPa) = 117.58889 95.84164 103.09625
#
# Poissons Ratio (x) = 0.41622 -0.13397
# Poissons Ratio (y) = 0.51067 0.58494
# Poissons Ratio (z) = -0.15280 0.54378
#
# Static dielectric constant tensor:
#      x y z
#    x 2.398590 0.000000 0.000000 
#    y 0.000000 2.021880 0.000000 
#    z 0.000000 0.000000 2.070110 
# 
# From -- ./inp_files/1933.got.cif
#   From: 2010.05.17/outbox.cif.g08.bks.cpg/sg37_1_cif.got.tgz:1933.got - 2010.06.03 17:53:42.
