data_PCOD9354128
_publ_section_title
;
Structure prediction by ZEFSAII (Michael W. Deem and Ramdas Pophale) SiO2 
 PCOD9354128
Probable space group: C C C 2
;
_chemical_formula_sum "Si O2"
_cell_formula_units_Z 64
_cell_length_a 11.716668
_cell_length_b 11.110382
_cell_length_c 23.657560
_cell_angle_alpha 90.000000
_cell_angle_beta 90.000000
_cell_angle_gamma 90.000000
_cell_volume 3079.662079
_symmetry_space_group_name_H-M "C C C 2"
_symmetry_group_IT_number 37
_symmetry_cell_setting 'orthorhombic'
loop_
_space_group_symop_operation_xyz
x,y,z
-x,-y,z
-x,y,1/2+z
x,-y,1/2+z
1/2+x,1/2+y,z
1/2-x,1/2-y,z
1/2-x,1/2+y,1/2+z
1/2+x,1/2-y,1/2+z
loop_
_atom_site_type_symbol
_atom_site_label
_atom_site_fract_x
_atom_site_fract_y
_atom_site_fract_z
Si Si1 0.366506 0.826936 0.161850
Si Si2 0.461300 0.366255 0.453441
Si Si3 0.926029 0.783433 0.231672
Si Si4 0.232818 0.452664 0.229383
Si Si5 0.472953 0.221627 0.350783
Si Si6 0.295591 0.069972 0.424089
Si Si7 0.297431 0.116194 0.834700
Si Si8 0.873213 0.682914 0.533733
O O1 0.250000 0.750000 0.162325
O O2 0.462096 0.753310 0.196717
O O3 0.403909 0.850445 0.097225
O O4 0.331649 0.952525 0.190018
O O5 0.500000 0.500000 0.465803
O O6 0.524059 0.301652 0.401572
O O7 0.329890 0.375908 0.432334
O O8 0.459970 0.279542 0.507182
O O9 0.848355 0.663177 0.234752
O O10 0.852593 0.895629 0.208600
O O11 0.946283 0.806850 0.298174
O O12 0.249798 0.524141 0.288157
O O13 0.370320 0.146416 0.379094
O O14 0.566658 0.129605 0.327615
O O15 0.356971 0.081770 0.485073
O O16 0.281554 0.939636 0.396724
O O17 0.250000 0.250000 0.826463
O O18 0.750000 0.750000 0.537037
#
# Coordination Sequence:
#
# PCOD9354128 Si02
#       8
#     8   8   8   8   8   8   8   8
#     4  11  23  45  65  97 132 171 224 280 334 396
#     4  10  20  38  62  96 126 163 219 271 321 391
#     4  11  24  41  65  92 125 178 222 268 327 404
#     4  11  24  41  63  92 128 176 223 267 332 399
#     4  11  21  35  59  90 126 169 211 256 330 396
#     4  10  20  38  63  89 123 171 213 255 322 404
#     4  12  23  37  60  95 134 165 205 277 332 394
#     4   8  19  40  66  88 124 172 216 265 332 395
#
# _framework density 20.781502
#
# number of rings (size 3 to 8) (size 9 to 14) (size 15 to 20)
#    0.000    1.500    2.500    3.750    1.750    0.500 
#    6.750    5.000    2.750    0.000    0.000    0.000 
#    0.000    0.000    0.000    0.000    0.000    0.000 
#
# Total GULP energy -178645.920548 kJ/mol
# GULP energy per Si atom -5582.685017 kJ/mol
# Density = 2.073420 g / cm^3
# Si number density = 20.781502 Si / 1000 Ang^3
#
#
#
# Elastic Constant Matrix: (Units=GPa)
#
#
# Indices 1 2 3 4 5 6 
#
# 1 87.8928 33.4964 32.2433 0.0000 0.0000 0.0000
# 2 33.4964 112.0459 48.1401 0.0000 0.0000 0.0000
# 3 32.2433 48.1401 145.6280 0.0000 0.0000 0.0000
# 4 0.0000 0.0000 0.0000 5.9639 0.0000 0.0000
# 5 0.0000 0.0000 0.0000 0.0000 7.7003 0.0000
# 6 0.0000 0.0000 0.0000 0.0000 0.0000 36.7159
#
#
#
# Elastic Compliance Matrix: (Units=1/GPa)
#
#
# Indices 1 2 3 4 5 6 
#
# 1 0.013275 -0.003154 -0.001897 0.000000 0.000000 0.000000
# 2 -0.003154 0.011152 -0.002988 0.000000 0.000000 0.000000
# 3 -0.001897 -0.002988 0.008275 0.000000 0.000000 0.000000
# 4 0.000000 0.000000 0.000000 0.167676 0.000000 0.000000
# 5 0.000000 0.000000 0.000000 0.000000 0.129864 0.000000
# 6 0.000000 0.000000 0.000000 0.000000 0.000000 0.027236
#
#
# Mechanical properties :
#
#
# Convention : Reuss Voigt Hill
#
# Bulk Modulus (GPa) = 60.15327 63.70290 61.92809
# Shear Modulus (GPa) = 13.18927 25.52183 19.35555
#
# Velocity S-wave (km/s) = 2.52199 3.50823 3.05517
# Velocity P-wave (km/s) = 6.12282 6.86516 6.50459
#
# Compressibility (1/GPa) = 0.01662420
#
# Stress axis : x y z
#
# Youngs Moduli (GPa) = 75.32840 89.67361 120.85275
#
# Poissons Ratio (x) = 0.28281 0.22922
# Poissons Ratio (y) = 0.23757 0.36112
# Poissons Ratio (z) = 0.14288 0.26795
#
# Static dielectric constant tensor:
#      x y z
#    x 1.809660 0.000000 0.000000 
#    y 0.000000 1.785990 0.000000 
#    z 0.000000 0.000000 1.757480 
# 
# From -- ./inp_files/18762.got.cif
#   From: 2010.05.17/outbox.cif.g08.bks.cpg/sg37_10_cif.got.tgz:18762.got - 2010.06.03 17:53:42.
