data_PCOD9354740
_publ_section_title
;
Structure prediction by ZEFSAII (Michael W. Deem and Ramdas Pophale) SiO2 
 PCOD9354740
Probable space group: C C C 2
;
_chemical_formula_sum "Si O2"
_cell_formula_units_Z 48
_cell_length_a 24.998435
_cell_length_b 8.811510
_cell_length_c 9.510028
_cell_angle_alpha 90.000000
_cell_angle_beta 90.000000
_cell_angle_gamma 90.000000
_cell_volume 2094.811527
_symmetry_space_group_name_H-M "C C C 2"
_symmetry_group_IT_number 37
_symmetry_cell_setting 'orthorhombic'
loop_
_space_group_symop_operation_xyz
x,y,z
-x,-y,z
-x,y,1/2+z
x,-y,1/2+z
1/2+x,1/2+y,z
1/2-x,1/2-y,z
1/2-x,1/2+y,1/2+z
1/2+x,1/2-y,1/2+z
loop_
_atom_site_type_symbol
_atom_site_label
_atom_site_fract_x
_atom_site_fract_y
_atom_site_fract_z
Si Si1 0.579465 0.245611 0.750000
Si Si2 0.927067 0.750760 0.552599
Si Si3 0.500000 0.500000 0.168523
Si Si4 0.314607 0.597483 0.673026
Si Si5 0.176903 0.732839 0.179967
Si Si6 0.750000 0.250000 0.925368
Si Si7 0.750000 0.750000 0.930014
Si Si8 0.000000 0.500000 0.635291
O O1 0.532287 0.371641 0.750988
O O2 0.629731 0.306853 0.660198
O O3 0.548171 0.090747 0.713119
O O4 0.602645 0.246828 0.906089
O O5 0.885536 0.698345 0.670745
O O6 0.974069 0.630476 0.543020
O O7 0.954605 0.910699 0.583027
O O8 0.323097 0.417256 0.678154
O O9 0.283031 0.646206 0.815005
O O10 0.279857 0.637362 0.535992
O O11 0.206920 0.680434 0.320400
O O12 0.208800 0.678460 0.040774
#
# Coordination Sequence:
#
# PCOD9354740 Si02
#       8
#     8   8   4   8   8   4   4   4
#     4  11  22  44  70 101 133 181 221 282 336 414
#     4  11  22  44  70 101 133 181 221 282 336 414
#     4  10  22  38  72 106 128 164 228 286 334 390
#     4  11  22  44  70  98 131 178 229 279 338 407
#     4  11  22  44  70  98 131 178 229 279 338 407
#     4  10  22  42  64  98 132 170 224 288 342 392
#     4  10  26  42  60 106 132 166 220 292 334 392
#     4  10  26  46  60 102 148 172 224 278 354 398
#
# _framework density 22.913757
#
# number of rings (size 3 to 8) (size 9 to 14) (size 15 to 20)
#    0.000    1.333    3.333    2.000    0.000    0.000 
#   33.000    0.000    0.000    0.000    0.000    0.000 
#    0.000    0.000    0.000    0.000    0.000    0.000 
#
# Total GULP energy -133889.103958 kJ/mol
# GULP energy per Si atom -5578.712665 kJ/mol
# Density = 2.286160 g / cm^3
# Si number density = 22.913757 Si / 1000 Ang^3
#
#
#
# Elastic Constant Matrix: (Units=GPa)
#
#
# Indices 1 2 3 4 5 6 
#
# 1 115.8212 39.4893 34.2213 0.0000 0.0000 0.0000
# 2 39.4893 88.4742 17.2741 0.0000 0.0000 0.0000
# 3 34.2213 17.2741 118.7625 0.0000 0.0000 0.0000
# 4 0.0000 0.0000 0.0000 5.7101 0.0000 0.0000
# 5 0.0000 0.0000 0.0000 0.0000 23.9031 0.0000
# 6 0.0000 0.0000 0.0000 0.0000 0.0000 29.7143
#
#
#
# Elastic Compliance Matrix: (Units=1/GPa)
#
#
# Indices 1 2 3 4 5 6 
#
# 1 0.010857 -0.004359 -0.002494 0.000000 0.000000 0.000000
# 2 -0.004359 0.013383 -0.000691 0.000000 0.000000 0.000000
# 3 -0.002494 -0.000691 0.009239 0.000000 0.000000 0.000000
# 4 0.000000 0.000000 0.000000 0.175129 0.000000 0.000000
# 5 0.000000 0.000000 0.000000 0.000000 0.041836 0.000000
# 6 0.000000 0.000000 0.000000 0.000000 0.000000 0.033654
#
#
# Mechanical properties :
#
#
# Convention : Reuss Voigt Hill
#
# Bulk Modulus (GPa) = 54.37220 56.11414 55.24317
# Shear Modulus (GPa) = 16.37643 27.33704 21.85673
#
# Velocity S-wave (km/s) = 2.67629 3.45779 3.09183
# Velocity P-wave (km/s) = 5.77326 6.36272 6.07514
#
# Compressibility (1/GPa) = 0.01839175
#
# Stress axis : x y z
#
# Youngs Moduli (GPa) = 92.10454 74.72098 108.23223
#
# Poissons Ratio (x) = 0.32571 0.26998
# Poissons Ratio (y) = 0.40148 0.07474
# Poissons Ratio (z) = 0.22975 0.05160
#
# Static dielectric constant tensor:
#      x y z
#    x 1.857610 0.000000 0.000000 
#    y 0.000000 1.836810 0.000000 
#    z 0.000000 0.000000 1.868650 
# 
# From -- ./inp_files/4970.got.cif
#   From: 2010.05.17/outbox.cif.g08.bks.cpg/sg37_3_cif.got.tgz:4970.got - 2010.06.03 17:53:42.
