data_PCOD9354091
_publ_section_title
;
Structure prediction by ZEFSAII (Michael W. Deem and Ramdas Pophale) SiO2 
 PCOD9354091
Probable space group: C C C 2
;
_chemical_formula_sum "Si O2"
_cell_formula_units_Z 64
_cell_length_a 9.003057
_cell_length_b 15.774860
_cell_length_c 22.345407
_cell_angle_alpha 90.000000
_cell_angle_beta 90.000000
_cell_angle_gamma 90.000000
_cell_volume 3173.538583
_symmetry_space_group_name_H-M "C C C 2"
_symmetry_group_IT_number 37
_symmetry_cell_setting 'orthorhombic'
loop_
_space_group_symop_operation_xyz
x,y,z
-x,-y,z
-x,y,1/2+z
x,-y,1/2+z
1/2+x,1/2+y,z
1/2-x,1/2-y,z
1/2-x,1/2+y,1/2+z
1/2+x,1/2-y,1/2+z
loop_
_atom_site_type_symbol
_atom_site_label
_atom_site_fract_x
_atom_site_fract_y
_atom_site_fract_z
Si Si1 0.758644 0.927762 0.437410
Si Si2 0.335796 0.827661 0.147593
Si Si3 0.080085 0.323872 0.519593
Si Si4 0.324675 0.508778 0.630839
Si Si5 0.391729 0.187679 0.345450
Si Si6 0.019250 0.190813 0.929250
Si Si7 0.742340 0.904206 0.002957
Si Si8 0.589656 0.913592 0.222530
O O1 0.708904 0.887831 0.500608
O O2 0.640528 0.889471 0.391073
O O3 0.920534 0.893445 0.418718
O O4 0.745596 0.025672 0.450607
O O5 0.250000 0.750000 0.178544
O O6 0.394314 0.790465 0.085226
O O7 0.479561 0.859857 0.181524
O O8 0.242040 0.913129 0.134276
O O9 0.079576 0.249289 0.472271
O O10 0.923320 0.372131 0.515290
O O11 0.500000 0.500000 0.642011
O O12 0.301091 0.555753 0.566025
O O13 0.233654 0.560125 0.682723
O O14 0.250000 0.250000 0.348532
O O15 0.525556 0.248420 0.370338
O O16 0.391328 0.143688 0.281175
O O17 0.157304 0.167661 0.971466
O O18 0.500000 0.000000 0.238066
#
# Coordination Sequence:
#
# PCOD9354091 Si02
#       8
#     8   8   8   8   8   8   8   8
#     4  10  20  37  64  86 120 169 205 253 324 383
#     4  11  23  41  63  91 127 176 216 267 327 400
#     4  11  21  36  56  88 129 162 204 252 321 389
#     4  11  24  41  62  96 135 164 214 276 336 397
#     4   9  21  43  65  89 125 170 221 271 322 387
#     4  10  22  39  58  91 125 163 207 262 318 389
#     4  12  22  36  59  97 131 162 206 267 329 393
#     4  10  23  45  68  92 126 174 229 272 329 400
#
# _framework density 20.166763
#
# number of rings (size 3 to 8) (size 9 to 14) (size 15 to 20)
#    0.000    1.500    2.500    3.750    1.750    3.000 
#    0.000    7.500    0.000    1.500    0.000    0.000 
#    0.000    0.000    0.000    0.000    0.000    0.000 
#
# Total GULP energy -178335.131424 kJ/mol
# GULP energy per Si atom -5572.972857 kJ/mol
# Density = 2.012086 g / cm^3
# Si number density = 20.166763 Si / 1000 Ang^3
#
#
#
# Elastic Constant Matrix: (Units=GPa)
#
#
# Indices 1 2 3 4 5 6 
#
# 1 97.0904 45.8496 45.7089 0.0000 0.0000 0.0000
# 2 45.8496 91.0690 43.9620 0.0000 0.0000 0.0000
# 3 45.7089 43.9620 104.4340 0.0000 0.0000 0.0000
# 4 0.0000 0.0000 0.0000 48.5839 0.0000 0.0000
# 5 0.0000 0.0000 0.0000 0.0000 12.6944 0.0000
# 6 0.0000 0.0000 0.0000 0.0000 0.0000 26.4473
#
#
#
# Elastic Compliance Matrix: (Units=1/GPa)
#
#
# Indices 1 2 3 4 5 6 
#
# 1 0.014853 -0.005446 -0.004208 0.000000 0.000000 0.000000
# 2 -0.005446 0.015778 -0.004258 0.000000 0.000000 0.000000
# 3 -0.004208 -0.004258 0.013210 0.000000 0.000000 0.000000
# 4 0.000000 0.000000 0.000000 0.020583 0.000000 0.000000
# 5 0.000000 0.000000 0.000000 0.000000 0.078775 0.000000
# 6 0.000000 0.000000 0.000000 0.000000 0.000000 0.037811
#
#
# Mechanical properties :
#
#
# Convention : Reuss Voigt Hill
#
# Bulk Modulus (GPa) = 62.43960 62.62605 62.53282
# Shear Modulus (GPa) = 23.34556 28.01664 25.68110
#
# Velocity S-wave (km/s) = 3.40608 3.73131 3.57240
# Velocity P-wave (km/s) = 6.81890 7.04876 6.93478
#
# Compressibility (1/GPa) = 0.01601548
#
# Stress axis : x y z
#
# Youngs Moduli (GPa) = 67.32744 63.37824 75.70181
#
# Poissons Ratio (x) = 0.34518 0.31856
# Poissons Ratio (y) = 0.36669 0.32235
# Poissons Ratio (z) = 0.28332 0.26987
#
# Static dielectric constant tensor:
#      x y z
#    x 1.747720 0.000000 0.000000 
#    y 0.000000 1.759580 0.000000 
#    z 0.000000 0.000000 1.729750 
# 
# From -- ./inp_files/18485.got.cif
#   From: 2010.05.17/outbox.cif.g08.bks.cpg/sg37_10_cif.got.tgz:18485.got - 2010.06.03 17:53:42.
