data_PCOD9354989
_publ_section_title
;
Structure prediction by ZEFSAII (Michael W. Deem and Ramdas Pophale) SiO2 
 PCOD9354989
Probable space group: C C C 2
;
_chemical_formula_sum "Si O2"
_cell_formula_units_Z 56
_cell_length_a 9.168873
_cell_length_b 19.350402
_cell_length_c 13.873528
_cell_angle_alpha 90.000000
_cell_angle_beta 90.000000
_cell_angle_gamma 90.000000
_cell_volume 2461.460462
_symmetry_space_group_name_H-M "C C C 2"
_symmetry_group_IT_number 37
_symmetry_cell_setting 'orthorhombic'
loop_
_space_group_symop_operation_xyz
x,y,z
-x,-y,z
-x,y,1/2+z
x,-y,1/2+z
1/2+x,1/2+y,z
1/2-x,1/2-y,z
1/2-x,1/2+y,1/2+z
1/2+x,1/2-y,1/2+z
loop_
_atom_site_type_symbol
_atom_site_label
_atom_site_fract_x
_atom_site_fract_y
_atom_site_fract_z
Si Si1 0.846721 0.385006 0.173960
Si Si2 0.762662 0.379227 0.394677
Si Si3 0.750000 0.750000 0.241222
Si Si4 0.338758 0.521008 0.661895
Si Si5 0.250000 0.250000 0.559842
Si Si6 0.160692 0.972318 0.891183
Si Si7 0.926490 0.825678 0.407315
Si Si8 0.647381 0.860809 0.094276
O O1 0.832700 0.372590 0.289020
O O2 0.754464 0.452408 0.148184
O O3 0.790950 0.315547 0.123760
O O4 0.006252 0.399875 0.132631
O O5 0.762307 0.462587 0.414629
O O6 0.595589 0.349155 0.394757
O O7 0.850365 0.343634 0.481351
O O8 0.860190 0.792420 0.309962
O O9 0.662551 0.798657 0.168596
O O10 0.500000 0.500000 0.634465
O O11 0.333439 0.536760 0.775775
O O12 0.284996 0.588804 0.608617
O O13 0.114378 0.227531 0.491812
O O14 0.168175 0.895106 0.930816
O O15 0.000000 0.000000 0.914391
#
# Coordination Sequence:
#
# PCOD9354989 Si02
#       8
#     8   8   4   8   4   8   8   8
#     4  11  28  49  68 109 155 191 237 306 375 431
#     4  10  25  43  79 102 140 193 249 304 363 443
#     4  11  26  43  72 106 160 191 232 307 362 442
#     4  10  22  44  79 104 143 191 245 305 366 435
#     4  11  28  43  72 106 154 197 234 299 370 444
#     4   8  16  39  69 107 135 173 236 302 351 408
#     4  10  22  45  72 113 143 189 248 302 362 435
#     4  12  27  45  73 112 147 193 244 300 373 437
#
# _framework density 22.750722
#
# number of rings (size 3 to 8) (size 9 to 14) (size 15 to 20)
#    0.000    1.714    1.429    1.286    8.000    3.429 
#    0.000    1.429    0.000    0.000    0.000    0.000 
#    0.000    0.000    0.000    0.000    0.000    0.000 
#
# Total GULP energy -156550.957820 kJ/mol
# GULP energy per Si atom -5591.105636 kJ/mol
# Density = 2.269894 g / cm^3
# Si number density = 22.750722 Si / 1000 Ang^3
#
#
#
# Elastic Constant Matrix: (Units=GPa)
#
#
# Indices 1 2 3 4 5 6 
#
# 1 80.9709 10.1611 7.7160 0.0000 0.0000 0.0000
# 2 10.1611 101.0583 27.9887 0.0000 0.0000 0.0000
# 3 7.7160 27.9887 125.8913 0.0000 0.0000 0.0000
# 4 0.0000 0.0000 0.0000 -33.0757 0.0000 0.0000
# 5 0.0000 0.0000 0.0000 0.0000 15.3845 0.0000
# 6 0.0000 0.0000 0.0000 0.0000 0.0000 40.1015
#
#
#
# Elastic Compliance Matrix: (Units=1/GPa)
#
#
# Indices 1 2 3 4 5 6 
#
# 1 0.012540 -0.001117 -0.000520 0.000000 0.000000 0.000000
# 2 -0.001117 0.010644 -0.002298 0.000000 0.000000 0.000000
# 3 -0.000520 -0.002298 0.008486 0.000000 0.000000 0.000000
# 4 0.000000 0.000000 0.000000 -0.030234 0.000000 0.000000
# 5 0.000000 0.000000 0.000000 0.000000 0.065000 0.000000
# 6 0.000000 0.000000 0.000000 0.000000 0.000000 0.024937
#
#
# Mechanical properties :
#
#
# Convention : Reuss Voigt Hill
#
# Bulk Modulus (GPa) = 42.01687 44.40577 43.21132
# Shear Modulus (GPa) = 46.65193 21.95238 34.30215
#
# Velocity S-wave (km/s) = 4.53323 3.10967 3.88717
# Velocity P-wave (km/s) = 6.77560 5.69685 6.25951
#
# Compressibility (1/GPa) = 0.02379996
#
# Stress axis : x y z
#
# Youngs Moduli (GPa) = 79.74587 93.94960 117.83909
#
# Poissons Ratio (x) = 0.10492 0.06131
# Poissons Ratio (y) = 0.08906 0.27079
# Poissons Ratio (z) = 0.04149 0.21589
#
# Static dielectric constant tensor:
#      x y z
#    x 1.806340 0.000000 0.000000 
#    y 0.000000 1.897350 0.000000 
#    z 0.000000 0.000000 1.877720 
# 
# From -- ./inp_files/10856.got.cif
#   From: 2010.05.17/outbox.cif.g08.bks.cpg/sg37_6_cif.got.tgz:10856.got - 2010.06.03 17:53:42.
