data_PCOD9354916
_publ_section_title
;
Structure prediction by ZEFSAII (Michael W. Deem and Ramdas Pophale) SiO2 
 PCOD9354916
Probable space group: C C C 2
;
_chemical_formula_sum "Si O2"
_cell_formula_units_Z 44
_cell_length_a 11.318984
_cell_length_b 28.607867
_cell_length_c 5.296869
_cell_angle_alpha 90.000000
_cell_angle_beta 90.000000
_cell_angle_gamma 90.000000
_cell_volume 1715.189686
_symmetry_space_group_name_H-M "C C C 2"
_symmetry_group_IT_number 37
_symmetry_cell_setting 'orthorhombic'
loop_
_space_group_symop_operation_xyz
x,y,z
-x,-y,z
-x,y,1/2+z
x,-y,1/2+z
1/2+x,1/2+y,z
1/2-x,1/2-y,z
1/2-x,1/2+y,1/2+z
1/2+x,1/2-y,1/2+z
loop_
_atom_site_type_symbol
_atom_site_label
_atom_site_fract_x
_atom_site_fract_y
_atom_site_fract_z
Si Si1 0.571646 0.570337 0.338250
Si Si2 0.750000 0.750000 0.087289
Si Si3 0.638409 0.166418 0.308948
Si Si4 0.378225 0.871190 0.805537
Si Si5 0.069127 0.817364 0.864993
Si Si6 0.832620 0.528880 0.418303
O O1 0.482773 0.557898 0.566349
O O2 0.586334 0.626694 0.339785
O O3 0.697028 0.546295 0.390391
O O4 0.671901 0.783390 0.910571
O O5 0.830618 0.782947 0.260363
O O6 0.689076 0.152029 0.039699
O O7 0.498713 0.158078 0.272648
O O8 0.680447 0.131446 0.531127
O O9 0.406288 0.923726 0.881895
O O10 0.965091 0.807928 0.655859
O O11 0.854601 0.506144 0.688267
#
# Coordination Sequence:
#
# PCOD9354916 Si02
#       6
#     8   4   8   8   8   8
#     4  10  22  43  64  94 142 183 224 294 371 417
#     4  12  26  42  76 106 140 186 258 304 344 436
#     4  10  24  42  70  96 133 191 227 281 357 420
#     4  10  23  47  66  96 146 181 220 297 369 414
#     4  10  25  43  66 100 143 187 236 296 364 434
#     4  12  25  41  71 105 133 181 245 290 352 446
#
# _framework density 25.653141000000002
#
# number of rings (size 3 to 8) (size 9 to 14) (size 15 to 20)
#    0.000    1.455    0.000    3.273    5.091    9.455 
#    0.000   10.909    0.000    0.000    0.000    0.000 
#    0.000    0.000    0.000    0.000    0.000    0.000 
#
# Total GULP energy -123319.286659 kJ/mol
# GULP energy per Si atom -5605.422121 kJ/mol
# Density = 2.559475 g / cm^3
# Si number density = 25.653141 Si / 1000 Ang^3
#
#
#
# Elastic Constant Matrix: (Units=GPa)
#
#
# Indices 1 2 3 4 5 6 
#
# 1 81.2433 25.3561 2.7051 0.0000 0.0000 0.0000
# 2 25.3561 111.5766 -3.4061 0.0000 0.0000 0.0000
# 3 2.7051 -3.4061 124.1058 0.0000 0.0000 0.0000
# 4 0.0000 0.0000 0.0000 41.7092 0.0000 0.0000
# 5 0.0000 0.0000 0.0000 0.0000 23.9355 0.0000
# 6 0.0000 0.0000 0.0000 0.0000 0.0000 42.7603
#
#
#
# Elastic Compliance Matrix: (Units=1/GPa)
#
#
# Indices 1 2 3 4 5 6 
#
# 1 0.013266 -0.003026 -0.000372 0.000000 0.000000 0.000000
# 2 -0.003026 0.009660 0.000331 0.000000 0.000000 0.000000
# 3 -0.000372 0.000331 0.008075 0.000000 0.000000 0.000000
# 4 0.000000 0.000000 0.000000 0.023975 0.000000 0.000000
# 5 0.000000 0.000000 0.000000 0.000000 0.041779 0.000000
# 6 0.000000 0.000000 0.000000 0.000000 0.000000 0.023386
#
#
# Mechanical properties :
#
#
# Convention : Reuss Voigt Hill
#
# Bulk Modulus (GPa) = 40.21492 40.69287 40.45390
# Shear Modulus (GPa) = 37.15699 41.16573 39.16136
#
# Velocity S-wave (km/s) = 3.80996 4.01022 3.91138
# Velocity P-wave (km/s) = 5.92156 6.11062 6.01683
#
# Compressibility (1/GPa) = 0.02486639
#
# Stress axis : x y z
#
# Youngs Moduli (GPa) = 75.38344 103.51733 123.84150
#
# Poissons Ratio (x) = 0.31324 0.04609
# Poissons Ratio (y) = 0.22811 -0.04100
# Poissons Ratio (z) = 0.02806 -0.03427
#
# Static dielectric constant tensor:
#      x y z
#    x 2.164910 0.000000 0.000000 
#    y 0.000000 1.966160 0.000000 
#    z 0.000000 0.000000 2.023660 
# 
# From -- ./inp_files/559.got.cif
#   From: 2010.05.17/outbox.cif.g08.bks.cpg/sg37_1_cif.got.tgz:559.got - 2010.06.03 17:53:42.
