data_PCOD9354297
_publ_section_title
;
Structure prediction by ZEFSAII (Michael W. Deem and Ramdas Pophale) SiO2 
 PCOD9354297
Probable space group: C C C 2
;
_chemical_formula_sum "Si O2"
_cell_formula_units_Z 32
_cell_length_a 25.188201
_cell_length_b 5.371539
_cell_length_c 8.755534
_cell_angle_alpha 90.000000
_cell_angle_beta 90.000000
_cell_angle_gamma 90.000000
_cell_volume 1184.618532
_symmetry_space_group_name_H-M "C C C 2"
_symmetry_group_IT_number 37
_symmetry_cell_setting 'orthorhombic'
loop_
_space_group_symop_operation_xyz
x,y,z
-x,-y,z
-x,y,1/2+z
x,-y,1/2+z
1/2+x,1/2+y,z
1/2-x,1/2-y,z
1/2-x,1/2+y,1/2+z
1/2+x,1/2-y,1/2+z
loop_
_atom_site_type_symbol
_atom_site_label
_atom_site_fract_x
_atom_site_fract_y
_atom_site_fract_z
Si Si1 0.750000 0.750000 0.174860
Si Si2 0.069628 0.217276 0.211419
Si Si3 0.166907 0.873615 0.131680
Si Si4 0.844012 0.500844 0.860166
Si Si5 0.500000 0.500000 0.474365
O O1 0.720790 0.521432 0.090717
O O2 0.797512 0.647016 0.275325
O O3 0.098546 0.456239 0.282024
O O4 0.116640 0.057292 0.132919
O O5 0.023072 0.213950 0.086258
O O6 0.045706 0.087146 0.360596
O O7 0.170034 0.779850 0.308739
O O8 0.156492 0.633225 0.024059
#
# Coordination Sequence:
#
# PCOD9354297 Si02
#       5
#     4   8   8   8   4
#     4  10  26  46  74 100 142 198 250 308 390 462
#     4  10  22  44  69 102 145 201 251 315 383 452
#     4  11  25  47  72 107 148 196 253 318 386 460
#     4  11  25  44  71 107 146 193 249 323 379 460
#     4  10  20  42  74  98 148 204 256 312 384 456
#
# _framework density 27.012913999999999
#
# number of rings (size 3 to 8) (size 9 to 14) (size 15 to 20)
#    0.000    1.500    2.500    0.750    7.000    2.000 
#    0.000    7.500    0.000    1.500    0.000    0.000 
#    0.000    0.000    0.000    0.000    0.000    0.000 
#
# Total GULP energy -89461.978416 kJ/mol
# GULP energy per Si atom -5591.373651 kJ/mol
# Density = 2.695143 g / cm^3
# Si number density = 27.012914 Si / 1000 Ang^3
#
#
#
# Elastic Constant Matrix: (Units=GPa)
#
#
# Indices 1 2 3 4 5 6 
#
# 1 110.0802 26.5375 52.3615 0.0000 0.0000 0.0000
# 2 26.5375 77.3862 30.0706 0.0000 0.0000 0.0000
# 3 52.3615 30.0706 150.1713 0.0000 0.0000 0.0000
# 4 0.0000 0.0000 0.0000 28.7089 0.0000 0.0000
# 5 0.0000 0.0000 0.0000 0.0000 40.5811 0.0000
# 6 0.0000 0.0000 0.0000 0.0000 0.0000 29.2161
#
#
#
# Elastic Compliance Matrix: (Units=1/GPa)
#
#
# Indices 1 2 3 4 5 6 
#
# 1 0.011336 -0.002550 -0.003442 0.000000 0.000000 0.000000
# 2 -0.002550 0.014586 -0.002032 0.000000 0.000000 0.000000
# 3 -0.003442 -0.002032 0.008266 0.000000 0.000000 0.000000
# 4 0.000000 0.000000 0.000000 0.034832 0.000000 0.000000
# 5 0.000000 0.000000 0.000000 0.000000 0.024642 0.000000
# 6 0.000000 0.000000 0.000000 0.000000 0.000000 0.034228
#
#
# Mechanical properties :
#
#
# Convention : Reuss Voigt Hill
#
# Bulk Modulus (GPa) = 55.12355 61.73078 58.42717
# Shear Modulus (GPa) = 33.33668 34.94578 34.14123
#
# Velocity S-wave (km/s) = 3.51679 3.60066 3.55897
# Velocity P-wave (km/s) = 6.07792 6.33942 6.21005
#
# Compressibility (1/GPa) = 0.01814107
#
# Stress axis : x y z
#
# Youngs Moduli (GPa) = 88.21208 68.55845 120.97638
#
# Poissons Ratio (x) = 0.17482 0.41642
# Poissons Ratio (y) = 0.22494 0.24578
# Poissons Ratio (z) = 0.30364 0.13929
#
# Static dielectric constant tensor:
#      x y z
#    x 2.073860 0.000000 0.000000 
#    y 0.000000 2.230520 0.000000 
#    z 0.000000 0.000000 2.130740 
# 
# From -- ./inp_files/1729.got.cif
#   From: 2010.05.17/outbox.cif.g08.bks.cpg/sg37_1_cif.got.tgz:1729.got - 2010.06.03 17:53:42.
