data_PCOD9354146
_publ_section_title
;
Structure prediction by ZEFSAII (Michael W. Deem and Ramdas Pophale) SiO2 
 PCOD9354146
Probable space group: C C C 2
;
_chemical_formula_sum "Si O2"
_cell_formula_units_Z 60
_cell_length_a 15.530434
_cell_length_b 5.299282
_cell_length_c 30.750600
_cell_angle_alpha 90.000000
_cell_angle_beta 90.000000
_cell_angle_gamma 90.000000
_cell_volume 2530.778973
_symmetry_space_group_name_H-M "C C C 2"
_symmetry_group_IT_number 37
_symmetry_cell_setting 'orthorhombic'
loop_
_space_group_symop_operation_xyz
x,y,z
-x,-y,z
-x,y,1/2+z
x,-y,1/2+z
1/2+x,1/2+y,z
1/2-x,1/2-y,z
1/2-x,1/2+y,1/2+z
1/2+x,1/2-y,1/2+z
loop_
_atom_site_type_symbol
_atom_site_label
_atom_site_fract_x
_atom_site_fract_y
_atom_site_fract_z
Si Si1 0.914165 0.126896 0.949190
Si Si2 0.089979 0.867148 0.310457
Si Si3 0.104180 0.035097 0.714591
Si Si4 0.848783 0.450971 0.572591
Si Si5 0.000000 0.500000 0.378388
Si Si6 0.799848 0.999162 0.380697
Si Si7 0.346791 0.556964 0.039014
Si Si8 0.395070 0.031545 0.169059
O O1 0.945224 0.326442 0.912308
O O2 0.861641 0.928916 0.920299
O O3 0.000000 0.000000 0.966688
O O4 0.855401 0.175521 0.990854
O O5 0.064389 0.645630 0.344721
O O6 0.148546 0.059817 0.337231
O O7 0.125152 0.843347 0.261888
O O8 0.000000 0.000000 0.303409
O O9 0.132417 0.749797 0.703360
O O10 0.135070 0.249785 0.681290
O O11 0.000000 0.000000 0.711269
O O12 0.750661 0.503780 0.556181
O O13 0.885405 0.223252 0.543575
O O14 0.858713 0.381483 0.622690
O O15 0.890687 0.727164 0.567835
O O16 0.750000 0.250000 0.369364
O O17 0.750000 0.750000 0.394782
O O18 0.500000 0.000000 0.167649
#
# Coordination Sequence:
#
# PCOD9354146 Si02
#       8
#     8   8   8   8   4   8   8   8
#     4  12  27  45  70 106 139 189 251 300 352 417
#     4  11  23  43  71 105 143 193 242 290 357 423
#     4   9  21  35  68 104 135 175 230 292 341 418
#     4  10  22  44  66  94 135 182 226 286 364 429
#     4  12  22  44  74 104 144 188 246 302 352 418
#     4  12  27  43  69  98 147 191 230 296 357 433
#     4  10  25  41  68  96 131 178 236 288 351 430
#     4  10  20  38  65 103 135 173 229 289 352 419
#
# _framework density 23.708116
#
# number of rings (size 3 to 8) (size 9 to 14) (size 15 to 20)
#    0.000    1.333    2.667    1.600   10.267    1.067 
#    0.000    0.000   17.600    0.000    0.000    0.000 
#    0.000    0.000    0.000    0.000    0.000    0.000 
#
# Total GULP energy -167125.982219 kJ/mol
# GULP energy per Si atom -5570.866074 kJ/mol
# Density = 2.365415 g / cm^3
# Si number density = 23.708116 Si / 1000 Ang^3
#
#
#
# Elastic Constant Matrix: (Units=GPa)
#
#
# Indices 1 2 3 4 5 6 
#
# 1 51.2343 3.4531 16.0368 0.0000 0.0000 0.0000
# 2 3.4531 140.9167 34.4756 0.0000 0.0000 0.0000
# 3 16.0368 34.4756 136.2643 0.0000 0.0000 0.0000
# 4 0.0000 0.0000 0.0000 32.5215 0.0000 0.0000
# 5 0.0000 0.0000 0.0000 0.0000 15.5093 0.0000
# 6 0.0000 0.0000 0.0000 0.0000 0.0000 6.9667
#
#
#
# Elastic Compliance Matrix: (Units=1/GPa)
#
#
# Indices 1 2 3 4 5 6 
#
# 1 0.020266 0.000093 -0.002409 0.000000 0.000000 0.000000
# 2 0.000093 0.007565 -0.001925 0.000000 0.000000 0.000000
# 3 -0.002409 -0.001925 0.008109 0.000000 0.000000 0.000000
# 4 0.000000 0.000000 0.000000 0.030749 0.000000 0.000000
# 5 0.000000 0.000000 0.000000 0.000000 0.064477 0.000000
# 6 0.000000 0.000000 0.000000 0.000000 0.000000 0.143541
#
#
# Mechanical properties :
#
#
# Convention : Reuss Voigt Hill
#
# Bulk Modulus (GPa) = 36.41861 48.48293 42.45077
# Shear Modulus (GPa) = 17.10330 29.29614 23.19972
#
# Velocity S-wave (km/s) = 2.68882 3.51907 3.13158
# Velocity P-wave (km/s) = 5.00343 6.08326 5.56958
#
# Compressibility (1/GPa) = 0.02745849
#
# Stress axis : x y z
#
# Youngs Moduli (GPa) = 49.34419 132.18674 123.31757
#
# Poissons Ratio (x) = -0.01225 0.29701
# Poissons Ratio (y) = -0.00457 0.23737
# Poissons Ratio (z) = 0.11885 0.25445
#
# Static dielectric constant tensor:
#      x y z
#    x 2.069030 0.000000 0.000000 
#    y 0.000000 2.097660 0.000000 
#    z 0.000000 0.000000 1.927410 
# 
# From -- ./inp_files/19997.got.cif
#   From: 2010.05.17/outbox.cif.g08.bks.cpg/sg37_10_cif.got.tgz:19997.got - 2010.06.03 17:53:42.
