data_PCOD9354264
_publ_section_title
;
Structure prediction by ZEFSAII (Michael W. Deem and Ramdas Pophale) SiO2 
 PCOD9354264
Probable space group: C C C 2
;
_chemical_formula_sum "Si O2"
_cell_formula_units_Z 40
_cell_length_a 8.367087
_cell_length_b 17.111844
_cell_length_c 12.722776
_cell_angle_alpha 90.000000
_cell_angle_beta 90.000000
_cell_angle_gamma 90.000000
_cell_volume 1821.599834
_symmetry_space_group_name_H-M "C C C 2"
_symmetry_group_IT_number 37
_symmetry_cell_setting 'orthorhombic'
loop_
_space_group_symop_operation_xyz
x,y,z
-x,-y,z
-x,y,1/2+z
x,-y,1/2+z
1/2+x,1/2+y,z
1/2-x,1/2-y,z
1/2-x,1/2+y,1/2+z
1/2+x,1/2-y,1/2+z
loop_
_atom_site_type_symbol
_atom_site_label
_atom_site_fract_x
_atom_site_fract_y
_atom_site_fract_z
Si Si1 0.397703 0.797014 0.612760
Si Si2 0.213151 0.872014 0.808953
Si Si3 0.890021 0.194763 0.251158
Si Si4 0.914152 0.428999 0.994598
Si Si5 0.671264 0.523342 0.668975
O O1 0.250000 0.750000 0.562750
O O2 0.324043 0.831160 0.721395
O O3 0.538539 0.738996 0.648611
O O4 0.464800 0.866993 0.544135
O O5 0.298515 0.882056 0.918567
O O6 0.047302 0.824897 0.819239
O O7 0.185548 0.957722 0.758603
O O8 0.750000 0.250000 0.294218
O O9 0.828600 0.109750 0.217819
O O10 0.000000 0.500000 0.933959
O O11 0.812395 0.472834 0.084814
O O12 0.500000 0.500000 0.617375
#
# Coordination Sequence:
#
# PCOD9354264 Si02
#       5
#     8   8   8   8   8
#     4  10  22  45  68  98 141 176 224 296 359 407
#     4  10  24  43  66 101 135 182 239 281 344 426
#     4  10  20  41  72  94 136 183 213 291 363 405
#     4  12  24  40  73 102 138 187 241 285 342 427
#     4  10  22  42  67  96 141 181 229 287 343 410
#
# _framework density 21.958718999999999
#
# number of rings (size 3 to 8) (size 9 to 14) (size 15 to 20)
#    0.000    1.600    4.000    0.000    2.800    2.400 
#   10.800    3.000    0.000    0.000    0.000    0.000 
#    0.000    0.000    0.000    0.000    0.000    0.000 
#
# Total GULP energy -111751.137413 kJ/mol
# GULP energy per Si atom -5587.556871 kJ/mol
# Density = 2.190874 g / cm^3
# Si number density = 21.958719 Si / 1000 Ang^3
#
#
#
# Elastic Constant Matrix: (Units=GPa)
#
#
# Indices 1 2 3 4 5 6 
#
# 1 124.8900 67.0796 49.1555 0.0000 0.0000 0.0000
# 2 67.0796 166.9329 31.4153 0.0000 0.0000 0.0000
# 3 49.1555 31.4153 44.8342 0.0000 0.0000 0.0000
# 4 0.0000 0.0000 0.0000 -3.6827 0.0000 0.0000
# 5 0.0000 0.0000 0.0000 0.0000 44.0792 0.0000
# 6 0.0000 0.0000 0.0000 0.0000 0.0000 52.4588
#
#
#
# Elastic Compliance Matrix: (Units=1/GPa)
#
#
# Indices 1 2 3 4 5 6 
#
# 1 0.015712 -0.003538 -0.014747 0.000000 0.000000 0.000000
# 2 -0.003538 0.007697 -0.001514 0.000000 0.000000 0.000000
# 3 -0.014747 -0.001514 0.039533 0.000000 0.000000 0.000000
# 4 0.000000 0.000000 0.000000 -0.271543 0.000000 0.000000
# 5 0.000000 0.000000 0.000000 0.000000 0.022686 0.000000
# 6 0.000000 0.000000 0.000000 0.000000 0.000000 0.019063
#
#
# Mechanical properties :
#
#
# Convention : Reuss Voigt Hill
#
# Bulk Modulus (GPa) = 42.83749 70.21754 56.52751
# Shear Modulus (GPa) = -41.85097 31.17150 -5.33974
#
# Velocity S-wave (km/s) = -4.37039 3.77178 -1.56109
# Velocity P-wave (km/s) = 2.43239 7.14247 4.74860
#
# Compressibility (1/GPa) = 0.02334404
#
# Stress axis : x y z
#
# Youngs Moduli (GPa) = 63.64679 129.91767 25.29503
#
# Poissons Ratio (x) = 0.45969 0.37302
# Poissons Ratio (y) = 0.22520 0.03830
# Poissons Ratio (z) = 0.93859 0.19670
#
# Static dielectric constant tensor:
#      x y z
#    x 1.811730 0.000000 0.000000 
#    y 0.000000 1.829630 0.000000 
#    z 0.000000 0.000000 1.749970 
# 
# From -- ./inp_files/6131.got.cif
#   From: 2010.05.17/outbox.cif.g08.bks.cpg/sg37_4_cif.got.tgz:6131.got - 2010.06.03 17:53:42.
