data_PCOD9354405
_publ_section_title
;
Structure prediction by ZEFSAII (Michael W. Deem and Ramdas Pophale) SiO2 
 PCOD9354405
Probable space group: C C C 2
;
_chemical_formula_sum "Si O2"
_cell_formula_units_Z 48
_cell_length_a 8.772762
_cell_length_b 12.423608
_cell_length_c 21.018747
_cell_angle_alpha 90.000000
_cell_angle_beta 90.000000
_cell_angle_gamma 90.000000
_cell_volume 2290.819703
_symmetry_space_group_name_H-M "C C C 2"
_symmetry_group_IT_number 37
_symmetry_cell_setting 'orthorhombic'
loop_
_space_group_symop_operation_xyz
x,y,z
-x,-y,z
-x,y,1/2+z
x,-y,1/2+z
1/2+x,1/2+y,z
1/2-x,1/2-y,z
1/2-x,1/2+y,1/2+z
1/2+x,1/2-y,1/2+z
loop_
_atom_site_type_symbol
_atom_site_label
_atom_site_fract_x
_atom_site_fract_y
_atom_site_fract_z
Si Si1 0.750000 0.250000 0.942150
Si Si2 0.658565 0.985410 0.227152
Si Si3 0.981122 0.121107 0.496037
Si Si4 0.571513 0.381315 0.252714
Si Si5 0.525541 0.178394 0.835144
Si Si6 0.129903 0.847136 0.638473
Si Si7 0.750000 0.250000 0.407665
O O1 0.642835 0.183994 0.893622
O O2 0.641679 0.320898 0.985944
O O3 0.601145 0.904833 0.284245
O O4 0.775904 0.935950 0.177398
O O5 0.500000 0.000000 0.191269
O O6 0.747806 0.092174 0.250597
O O7 0.923814 0.123688 0.568460
O O8 0.861121 0.181493 0.451736
O O9 0.000000 0.000000 0.473948
O O10 0.500000 0.500000 0.266631
O O11 0.500229 0.295180 0.301482
O O12 0.515900 0.334896 0.184661
O O13 0.358747 0.168847 0.867833
O O14 0.250000 0.750000 0.635845
#
# Coordination Sequence:
#
# PCOD9354405 Si02
#       7
#     4   8   8   8   8   8   4
#     4  10  24  40  66  98 122 176 228 256 322 394
#     4  11  23  38  64 104 130 168 212 264 335 397
#     4  11  24  47  67  91 130 173 221 273 323 381
#     4  10  21  37  66  96 128 170 210 262 335 394
#     4  11  21  40  62  96 137 166 212 270 320 386
#     4  11  21  45  68  88 129 171 211 276 333 385
#     4  10  24  40  64  96 130 178 220 260 322 392
#
# _framework density 20.953199000000001
#
# number of rings (size 3 to 8) (size 9 to 14) (size 15 to 20)
#    0.000    1.333    2.500    4.500    0.000    6.667 
#    6.000    2.500    0.000    0.000    0.000    0.000 
#    0.000    0.000    0.000    0.000    0.000    0.000 
#
# Total GULP energy -133831.273877 kJ/mol
# GULP energy per Si atom -5576.303078 kJ/mol
# Density = 2.090551 g / cm^3
# Si number density = 20.953199 Si / 1000 Ang^3
#
#
#
# Elastic Constant Matrix: (Units=GPa)
#
#
# Indices 1 2 3 4 5 6 
#
# 1 157.9507 43.0496 56.8580 0.0000 0.0000 0.0000
# 2 43.0496 91.8224 31.1171 0.0000 0.0000 0.0000
# 3 56.8580 31.1171 111.2805 0.0000 0.0000 0.0000
# 4 0.0000 0.0000 0.0000 1427.9548 0.0000 0.0000
# 5 0.0000 0.0000 0.0000 0.0000 70.5274 0.0000
# 6 0.0000 0.0000 0.0000 0.0000 0.0000 30.0753
#
#
#
# Elastic Compliance Matrix: (Units=1/GPa)
#
#
# Indices 1 2 3 4 5 6 
#
# 1 0.008331 -0.002721 -0.003496 0.000000 0.000000 0.000000
# 2 -0.002721 0.012920 -0.002222 0.000000 0.000000 0.000000
# 3 -0.003496 -0.002222 0.011394 0.000000 0.000000 0.000000
# 4 0.000000 0.000000 0.000000 0.000700 0.000000 0.000000
# 5 0.000000 0.000000 0.000000 0.000000 0.014179 0.000000
# 6 0.000000 0.000000 0.000000 0.000000 0.000000 0.033250
#
#
# Mechanical properties :
#
#
# Convention : Reuss Voigt Hill
#
# Bulk Modulus (GPa) = 63.42805 69.23367 66.33086
# Shear Modulus (GPa) = 48.58730 321.04677 184.81703
#
# Velocity S-wave (km/s) = 4.82067 12.39167 9.40192
# Velocity P-wave (km/s) = 7.83084 15.42244 12.23057
#
# Compressibility (1/GPa) = 0.01576589
#
# Stress axis : x y z
#
# Youngs Moduli (GPa) = 120.03101 77.40235 87.76659
#
# Poissons Ratio (x) = 0.21063 0.30682
# Poissons Ratio (y) = 0.32664 0.19504
# Poissons Ratio (z) = 0.41961 0.17201
#
# Static dielectric constant tensor:
#      x y z
#    x 1.699170 0.000000 0.000000 
#    y 0.000000 1.258940 0.000000 
#    z 0.000000 0.000000 1.761110 
# 
# From -- ./inp_files/16310.got.cif
#   From: 2010.05.17/outbox.cif.g08.bks.cpg/sg37_9_cif.got.tgz:16310.got - 2010.06.03 17:53:42.
