data_PCOD9354070
_publ_section_title
;
Structure prediction by ZEFSAII (Michael W. Deem and Ramdas Pophale) SiO2 
 PCOD9354070
Probable space group: C C C 2
;
_chemical_formula_sum "Si O2"
_cell_formula_units_Z 64
_cell_length_a 12.198420
_cell_length_b 21.238655
_cell_length_c 11.411078
_cell_angle_alpha 90.000000
_cell_angle_beta 90.000000
_cell_angle_gamma 90.000000
_cell_volume 2956.359653
_symmetry_space_group_name_H-M "C C C 2"
_symmetry_group_IT_number 37
_symmetry_cell_setting 'orthorhombic'
loop_
_space_group_symop_operation_xyz
x,y,z
-x,-y,z
-x,y,1/2+z
x,-y,1/2+z
1/2+x,1/2+y,z
1/2-x,1/2-y,z
1/2-x,1/2+y,1/2+z
1/2+x,1/2-y,1/2+z
loop_
_atom_site_type_symbol
_atom_site_label
_atom_site_fract_x
_atom_site_fract_y
_atom_site_fract_z
Si Si1 0.552440 0.183864 0.463010
Si Si2 0.229913 0.658853 0.659970
Si Si3 0.630481 0.998879 0.356226
Si Si4 0.319451 0.143966 0.408210
Si Si5 0.080137 0.175963 0.014381
Si Si6 0.736949 0.985681 0.108940
Si Si7 0.141529 0.886854 0.084992
Si Si8 0.748388 0.673339 0.814946
O O1 0.628663 0.167131 0.572428
O O2 0.431421 0.157839 0.474449
O O3 0.537786 0.259134 0.458840
O O4 0.625512 0.158759 0.352583
O O5 0.192210 0.679541 0.787185
O O6 0.338234 0.694767 0.619066
O O7 0.267215 0.584965 0.648875
O O8 0.668181 0.927563 0.369288
O O9 0.672278 0.015441 0.223299
O O10 0.500000 0.000000 0.356101
O O11 0.674147 0.024522 0.483284
O O12 0.211447 0.147210 0.484026
O O13 0.166293 0.150570 0.918092
O O14 0.983933 0.131384 0.059811
O O15 0.830880 0.038349 0.085524
O O16 0.194690 0.856459 0.201041
O O17 0.750000 0.750000 0.810658
#
# Coordination Sequence:
#
# PCOD9354070 Si02
#       8
#     8   8   8   8   8   8   8   8
#     4  10  22  42  66  96 123 170 214 271 337 391
#     4  10  22  44  66  90 131 171 212 275 324 403
#     4  10  20  37  59  93 127 172 212 272 328 400
#     4  10  24  37  60  96 130 158 213 267 332 382
#     4  10  24  43  65  91 126 173 223 264 330 378
#     4  10  23  38  63  94 130 171 221 265 337 392
#     4  11  25  40  63  97 130 167 219 268 314 404
#     4   9  22  42  63  90 125 168 218 268 325 392
#
# _framework density 21.648244999999999
#
# number of rings (size 3 to 8) (size 9 to 14) (size 15 to 20)
#    0.000    2.000    0.000    2.250   10.500    3.500 
#    2.250    0.000    0.000    0.000    0.000    0.000 
#    0.000    0.000    0.000    0.000    0.000    0.000 
#
# Total GULP energy -178280.005838 kJ/mol
# GULP energy per Si atom -5571.250182 kJ/mol
# Density = 2.159897 g / cm^3
# Si number density = 21.648245 Si / 1000 Ang^3
#
#
#
# Elastic Constant Matrix: (Units=GPa)
#
#
# Indices 1 2 3 4 5 6 
#
# 1 104.4313 17.0148 23.7512 0.0000 0.0000 0.0000
# 2 17.0148 52.2174 13.9439 0.0000 0.0000 0.0000
# 3 23.7512 13.9439 84.8787 0.0000 0.0000 0.0000
# 4 0.0000 0.0000 0.0000 25.6096 0.0000 0.0000
# 5 0.0000 0.0000 0.0000 0.0000 20.5945 0.0000
# 6 0.0000 0.0000 0.0000 0.0000 0.0000 22.0896
#
#
#
# Elastic Compliance Matrix: (Units=1/GPa)
#
#
# Indices 1 2 3 4 5 6 
#
# 1 0.010600 -0.002784 -0.002509 0.000000 0.000000 0.000000
# 2 -0.002784 0.020761 -0.002632 0.000000 0.000000 0.000000
# 3 -0.002509 -0.002632 0.012916 0.000000 0.000000 0.000000
# 4 0.000000 0.000000 0.000000 0.039048 0.000000 0.000000
# 5 0.000000 0.000000 0.000000 0.000000 0.048557 0.000000
# 6 0.000000 0.000000 0.000000 0.000000 0.000000 0.045270
#
#
# Mechanical properties :
#
#
# Convention : Reuss Voigt Hill
#
# Bulk Modulus (GPa) = 35.17694 38.99414 37.08554
# Shear Modulus (GPa) = 24.69436 26.11324 25.40380
#
# Velocity S-wave (km/s) = 3.38110 3.47688 3.42933
# Velocity P-wave (km/s) = 5.61490 5.84551 5.73136
#
# Compressibility (1/GPa) = 0.02842772
#
# Stress axis : x y z
#
# Youngs Moduli (GPa) = 94.34107 48.16830 77.42434
#
# Poissons Ratio (x) = 0.13410 0.19424
# Poissons Ratio (y) = 0.26264 0.20374
# Poissons Ratio (z) = 0.23668 0.12676
#
# Static dielectric constant tensor:
#      x y z
#    x 1.722020 0.000000 0.000000 
#    y 0.000000 1.876970 0.000000 
#    z 0.000000 0.000000 1.891960 
# 
# From -- ./inp_files/7411.got.cif
#   From: 2010.05.17/outbox.cif.g08.bks.cpg/sg37_4_cif.got.tgz:7411.got - 2010.06.03 17:53:42.
