data_PCOD9354796
_publ_section_title
;
Structure prediction by ZEFSAII (Michael W. Deem and Ramdas Pophale) SiO2 
 PCOD9354796
Probable space group: C C C 2
;
_chemical_formula_sum "Si O2"
_cell_formula_units_Z 56
_cell_length_a 30.237900
_cell_length_b 6.029499
_cell_length_c 13.792255
_cell_angle_alpha 90.000000
_cell_angle_beta 90.000000
_cell_angle_gamma 90.000000
_cell_volume 2514.595488
_symmetry_space_group_name_H-M "C C C 2"
_symmetry_group_IT_number 37
_symmetry_cell_setting 'orthorhombic'
loop_
_space_group_symop_operation_xyz
x,y,z
-x,-y,z
-x,y,1/2+z
x,-y,1/2+z
1/2+x,1/2+y,z
1/2-x,1/2-y,z
1/2-x,1/2+y,1/2+z
1/2+x,1/2-y,1/2+z
loop_
_atom_site_type_symbol
_atom_site_label
_atom_site_fract_x
_atom_site_fract_y
_atom_site_fract_z
Si Si1 0.250000 0.750000 0.035260
Si Si2 0.440521 0.705470 0.191846
Si Si3 0.000000 0.000000 0.334147
Si Si4 0.860183 0.897509 0.235237
Si Si5 0.930694 0.024488 0.491183
Si Si6 0.897390 0.581986 0.075196
Si Si7 0.845556 0.762218 0.446400
Si Si8 0.761427 0.992155 0.721078
O O1 0.242629 0.548815 0.112323
O O2 0.205782 0.792340 0.973465
O O3 0.481556 0.689680 0.263431
O O4 0.399567 0.576261 0.242821
O O5 0.448184 0.572257 0.092090
O O6 0.424691 0.938912 0.152482
O O7 0.039664 0.066240 0.404967
O O8 0.870807 0.749329 0.142824
O O9 0.853162 0.749863 0.331296
O O10 0.814196 0.018725 0.217399
O O11 0.879519 0.956966 0.476778
O O12 0.930376 0.287694 0.503842
O O13 0.864896 0.438552 0.009329
O O14 0.750000 0.250000 0.751387
O O15 0.750000 0.750000 0.772319
#
# Coordination Sequence:
#
# PCOD9354796 Si02
#       8
#     4   8   4   8   8   8   8   8
#     4  10  22  40  66 100 146 190 242 306 378 450
#     4  10  23  44  68  98 139 191 229 304 373 444
#     4  12  22  44  74 100 144 184 238 300 380 456
#     4  11  23  42  70 101 142 193 244 303 369 452
#     4  10  23  45  68 100 143 185 234 312 365 445
#     4  10  23  44  73  99 143 190 244 302 380 438
#     4  11  23  43  67 105 140 193 246 304 369 450
#     4  10  23  42  70 101 145 197 238 307 377 448
#
# _framework density 22.269984000000001
#
# number of rings (size 3 to 8) (size 9 to 14) (size 15 to 20)
#    0.429    1.143    1.429    3.857    5.000    0.000 
#    0.000   17.857    0.000    0.000    0.000    0.000 
#    0.000    0.000    0.000    0.000    0.000    0.000 
#
# Total GULP energy -156127.603466 kJ/mol
# GULP energy per Si atom -5575.985838 kJ/mol
# Density = 2.221930 g / cm^3
# Si number density = 22.269984 Si / 1000 Ang^3
#
#
#
# Elastic Constant Matrix: (Units=GPa)
#
#
# Indices 1 2 3 4 5 6 
#
# 1 124.6923 39.9820 50.2726 0.0000 0.0000 0.0000
# 2 39.9820 95.7996 17.2694 0.0000 0.0000 0.0000
# 3 50.2726 17.2694 106.5273 0.0000 0.0000 0.0000
# 4 0.0000 0.0000 0.0000 48.5339 0.0000 0.0000
# 5 0.0000 0.0000 0.0000 0.0000 186.3098 0.0000
# 6 0.0000 0.0000 0.0000 0.0000 0.0000 -1.6465
#
#
#
# Elastic Compliance Matrix: (Units=1/GPa)
#
#
# Indices 1 2 3 4 5 6 
#
# 1 0.011102 -0.003800 -0.004623 0.000000 0.000000 0.000000
# 2 -0.003800 0.012053 -0.000161 0.000000 0.000000 0.000000
# 3 -0.004623 -0.000161 0.011595 0.000000 0.000000 0.000000
# 4 0.000000 0.000000 0.000000 0.020604 0.000000 0.000000
# 5 0.000000 0.000000 0.000000 0.000000 0.005367 0.000000
# 6 0.000000 0.000000 0.000000 0.000000 0.000000 -0.607365
#
#
# Mechanical properties :
#
#
# Convention : Reuss Voigt Hill
#
# Bulk Modulus (GPa) = 56.87440 60.22968 58.55204
# Shear Modulus (GPa) = -9.54903 61.27247 25.86172
#
# Velocity S-wave (km/s) = -2.07296 5.25102 3.41145
# Velocity P-wave (km/s) = 4.45696 7.99176 6.47042
#
# Compressibility (1/GPa) = 0.01758260
#
# Stress axis : x y z
#
# Youngs Moduli (GPa) = 90.07201 82.96421 86.24277
#
# Poissons Ratio (x) = 0.31527 0.39873
# Poissons Ratio (y) = 0.34228 0.01386
# Poissons Ratio (z) = 0.41643 0.01333
#
# Static dielectric constant tensor:
#      x y z
#    x 1.812280 0.000000 0.000000 
#    y 0.000000 1.857000 0.000000 
#    z 0.000000 0.000000 1.830400 
# 
# From -- ./inp_files/13404.got.cif
#   From: 2010.05.17/outbox.cif.g08.bks.cpg/sg37_7_cif.got.tgz:13404.got - 2010.06.03 17:53:42.
