data_PCOD9354513
_publ_section_title
;
Structure prediction by ZEFSAII (Michael W. Deem and Ramdas Pophale) SiO2 
 PCOD9354513
Probable space group: C C C 2
;
_chemical_formula_sum "Si O2"
_cell_formula_units_Z 64
_cell_length_a 13.962609
_cell_length_b 8.578005
_cell_length_c 28.280403
_cell_angle_alpha 90.000000
_cell_angle_beta 90.000000
_cell_angle_gamma 90.000000
_cell_volume 3387.181475
_symmetry_space_group_name_H-M "C C C 2"
_symmetry_group_IT_number 37
_symmetry_cell_setting 'orthorhombic'
loop_
_space_group_symop_operation_xyz
x,y,z
-x,-y,z
-x,y,1/2+z
x,-y,1/2+z
1/2+x,1/2+y,z
1/2-x,1/2-y,z
1/2-x,1/2+y,1/2+z
1/2+x,1/2-y,1/2+z
loop_
_atom_site_type_symbol
_atom_site_label
_atom_site_fract_x
_atom_site_fract_y
_atom_site_fract_z
Si Si1 0.096728 0.401205 0.230720
Si Si2 0.926018 0.876606 0.157664
Si Si3 0.406451 0.893417 0.989847
Si Si4 0.580853 0.627102 0.412776
Si Si5 0.062680 0.344754 0.595648
Si Si6 0.263906 0.075559 0.666393
Si Si7 0.224556 0.433855 0.917223
Si Si8 0.649892 0.847102 0.338105
O O1 0.091824 0.247823 0.198500
O O2 0.189380 0.484236 0.209367
O O3 0.111567 0.379529 0.286186
O O4 0.000000 0.500000 0.221800
O O5 0.989537 0.788663 0.116243
O O6 0.827643 0.975069 0.147211
O O7 0.000000 0.000000 0.177873
O O8 0.420531 0.747624 0.955635
O O9 0.500000 0.000000 0.990278
O O10 0.327012 0.004479 0.965177
O O11 0.396431 0.825364 0.042696
O O12 0.500000 0.500000 0.415106
O O13 0.679080 0.532962 0.414275
O O14 0.578521 0.733140 0.366161
O O15 0.154093 0.388776 0.627564
O O16 0.000000 0.500000 0.595544
O O17 0.250000 0.250000 0.684888
O O18 0.250000 0.250000 0.916683
O O19 0.165176 0.500418 0.871733
O O20 0.750000 0.750000 0.334779
#
# Coordination Sequence:
#
# PCOD9354513 Si02
#       8
#     8   8   8   8   8   8   8   8
#     4  12  23  41  64  93 129 165 216 260 323 389
#     4  12  23  42  64  88 126 168 210 271 323 378
#     4  10  22  40  63  89 124 161 205 263 310 382
#     4  10  21  40  64  90 130 164 207 258 314 375
#     4  11  23  44  62  92 127 162 221 262 323 391
#     4  12  23  41  65  88 125 166 210 269 320 380
#     4  10  21  41  64  92 130 165 209 258 318 379
#     4   9  21  39  61  90 123 167 207 259 312 375
#
# _framework density 18.894763999999999
#
# number of rings (size 3 to 8) (size 9 to 14) (size 15 to 20)
#    0.000    1.250    3.750    3.000    0.000    5.500 
#    6.750    2.500    0.000    0.000    0.000    0.000 
#    0.000    0.000    0.000    0.000    0.000    0.000 
#
# Total GULP energy -178301.132359 kJ/mol
# GULP energy per Si atom -5571.910386 kJ/mol
# Density = 1.885176 g / cm^3
# Si number density = 18.894764 Si / 1000 Ang^3
#
#
#
# Elastic Constant Matrix: (Units=GPa)
#
#
# Indices 1 2 3 4 5 6 
#
# 1 78.1722 47.2465 30.6689 0.0000 0.0000 0.0000
# 2 47.2465 145.1051 66.3376 0.0000 0.0000 0.0000
# 3 30.6689 66.3376 129.1706 0.0000 0.0000 0.0000
# 4 0.0000 0.0000 0.0000 67.9280 0.0000 0.0000
# 5 0.0000 0.0000 0.0000 0.0000 25.9737 0.0000
# 6 0.0000 0.0000 0.0000 0.0000 0.0000 41.2641
#
#
#
# Elastic Compliance Matrix: (Units=1/GPa)
#
#
# Indices 1 2 3 4 5 6 
#
# 1 0.016140 -0.004578 -0.001481 0.000000 0.000000 0.000000
# 2 -0.004578 0.010305 -0.004205 0.000000 0.000000 0.000000
# 3 -0.001481 -0.004205 0.010253 0.000000 0.000000 0.000000
# 4 0.000000 0.000000 0.000000 0.014721 0.000000 0.000000
# 5 0.000000 0.000000 0.000000 0.000000 0.038500 0.000000
# 6 0.000000 0.000000 0.000000 0.000000 0.000000 0.024234
#
#
# Mechanical properties :
#
#
# Convention : Reuss Voigt Hill
#
# Bulk Modulus (GPa) = 61.84568 71.21710 66.53139
# Shear Modulus (GPa) = 35.69577 40.91280 38.30429
#
# Velocity S-wave (km/s) = 4.35120 4.65832 4.50738
# Velocity P-wave (km/s) = 7.61883 8.16741 7.89788
#
# Compressibility (1/GPa) = 0.01616928
#
# Stress axis : x y z
#
# Youngs Moduli (GPa) = 61.95653 97.04296 97.53310
#
# Poissons Ratio (x) = 0.44429 0.14444
# Poissons Ratio (y) = 0.28365 0.41014
# Poissons Ratio (z) = 0.09175 0.40808
#
# Static dielectric constant tensor:
#      x y z
#    x 1.783710 0.000000 0.000000 
#    y 0.000000 1.730750 0.000000 
#    z 0.000000 0.000000 1.677430 
# 
# From -- ./inp_files/20409.got.cif
#   From: 2010.05.17/outbox.cif.g08.bks.cpg/sg37_11_cif.got.tgz:20409.got - 2010.06.03 17:53:42.
