data_PCOD9354381
_publ_section_title
;
Structure prediction by ZEFSAII (Michael W. Deem and Ramdas Pophale) SiO2 
 PCOD9354381
Probable space group: C C C 2
;
_chemical_formula_sum "Si O2"
_cell_formula_units_Z 64
_cell_length_a 10.353634
_cell_length_b 10.301292
_cell_length_c 31.662293
_cell_angle_alpha 90.000000
_cell_angle_beta 90.000000
_cell_angle_gamma 90.000000
_cell_volume 3376.967414
_symmetry_space_group_name_H-M "C C C 2"
_symmetry_group_IT_number 37
_symmetry_cell_setting 'orthorhombic'
loop_
_space_group_symop_operation_xyz
x,y,z
-x,-y,z
-x,y,1/2+z
x,-y,1/2+z
1/2+x,1/2+y,z
1/2-x,1/2-y,z
1/2-x,1/2+y,1/2+z
1/2+x,1/2-y,1/2+z
loop_
_atom_site_type_symbol
_atom_site_label
_atom_site_fract_x
_atom_site_fract_y
_atom_site_fract_z
Si Si1 0.643374 0.356535 0.126880
Si Si2 0.356786 0.356940 0.525352
Si Si3 0.975017 0.706042 0.820213
Si Si4 0.096594 0.119496 0.255468
Si Si5 0.712230 0.026770 0.828764
Si Si6 0.646206 0.632914 0.890549
Si Si7 0.646550 0.353572 0.658660
Si Si8 0.135940 0.141899 0.988096
O O1 0.750000 0.250000 0.139549
O O2 0.640267 0.363593 0.076132
O O3 0.499770 0.323935 0.143726
O O4 0.676057 0.499981 0.143895
O O5 0.250000 0.250000 0.512791
O O6 0.326760 0.500970 0.507246
O O7 0.500931 0.319449 0.510035
O O8 0.015582 0.763218 0.775433
O O9 0.094706 0.622734 0.836847
O O10 0.852620 0.611086 0.816175
O O11 0.950001 0.819195 0.853971
O O12 0.149799 0.148182 0.209458
O O13 0.202390 0.081685 0.290696
O O14 0.000000 0.000000 0.250985
O O15 0.790184 0.995784 0.871231
O O16 0.750000 0.750000 0.892263
O O17 0.603616 0.620905 0.938509
O O18 0.750000 0.250000 0.642020
O O19 0.250000 0.250000 0.992539
#
# Coordination Sequence:
#
# PCOD9354381 Si02
#       8
#     8   8   8   8   8   8   8   8
#     4  10  23  43  63  88 120 154 189 237 296 357
#     4  10  23  41  61  89 122 151 191 239 293 357
#     4  10  21  37  56  79 112 153 196 240 282 331
#     4  12  22  37  59  82 115 153 190 237 291 338
#     4  10  21  37  56  79 112 153 196 240 282 331
#     4   9  19  35  55  82 114 151 195 238 283 335
#     4  11  23  41  63  90 120 152 194 244 293 351
#     4  10  21  38  62  89 120 156 197 242 293 348
#
# _framework density 18.951915
#
# number of rings (size 3 to 8) (size 9 to 14) (size 15 to 20)
#    0.000    1.750    2.500    2.625    0.000    7.000 
#    0.000    5.000    0.000    0.000    0.000    0.000 
#    0.000    0.000    0.000    0.000    0.000    0.000 
#
# Total GULP energy -178604.797370 kJ/mol
# GULP energy per Si atom -5581.399918 kJ/mol
# Density = 1.890878 g / cm^3
# Si number density = 18.951915 Si / 1000 Ang^3
#
#
#
# Elastic Constant Matrix: (Units=GPa)
#
#
# Indices 1 2 3 4 5 6 
#
# 1 96.0700 64.9615 26.9661 0.0000 0.0000 0.0000
# 2 64.9615 92.3444 26.4490 0.0000 0.0000 0.0000
# 3 26.9661 26.4490 94.1155 0.0000 0.0000 0.0000
# 4 0.0000 0.0000 0.0000 28.5746 0.0000 0.0000
# 5 0.0000 0.0000 0.0000 0.0000 -27.5853 0.0000
# 6 0.0000 0.0000 0.0000 0.0000 0.0000 42.6296
#
#
#
# Elastic Compliance Matrix: (Units=1/GPa)
#
#
# Indices 1 2 3 4 5 6 
#
# 1 0.020176 -0.013635 -0.001949 0.000000 0.000000 0.000000
# 2 -0.013635 0.020991 -0.001992 0.000000 0.000000 0.000000
# 3 -0.001949 -0.001992 0.011744 0.000000 0.000000 0.000000
# 4 0.000000 0.000000 0.000000 0.034996 0.000000 0.000000
# 5 0.000000 0.000000 0.000000 0.000000 -0.036251 0.000000
# 6 0.000000 0.000000 0.000000 0.000000 0.000000 0.023458
#
#
# Mechanical properties :
#
#
# Convention : Reuss Voigt Hill
#
# Bulk Modulus (GPa) = 56.31224 57.69813 57.00518
# Shear Modulus (GPa) = 43.03435 19.66733 31.35084
#
# Velocity S-wave (km/s) = 4.77037 3.22491 4.07164
# Velocity P-wave (km/s) = 7.75368 6.66163 7.22831
#
# Compressibility (1/GPa) = 0.01775813
#
# Stress axis : x y z
#
# Youngs Moduli (GPa) = 49.56392 47.63835 85.15252
#
# Poissons Ratio (x) = 0.64955 0.16597
# Poissons Ratio (y) = 0.67580 0.16966
# Poissons Ratio (z) = 0.09660 0.09492
#
# Static dielectric constant tensor:
#      x y z
#    x 1.685940 0.000000 0.000000 
#    y 0.000000 1.663190 0.000000 
#    z 0.000000 0.000000 1.638160 
# 
# From -- ./inp_files/20413.got.cif
#   From: 2010.05.17/outbox.cif.g08.bks.cpg/sg37_11_cif.got.tgz:20413.got - 2010.06.03 17:53:42.
