data_PCOD9354482
_publ_section_title
;
Structure prediction by ZEFSAII (Michael W. Deem and Ramdas Pophale) SiO2 
 PCOD9354482
Probable space group: C C C 2
;
_chemical_formula_sum "Si O2"
_cell_formula_units_Z 56
_cell_length_a 24.164572
_cell_length_b 5.053329
_cell_length_c 20.817082
_cell_angle_alpha 90.000000
_cell_angle_beta 90.000000
_cell_angle_gamma 90.000000
_cell_volume 2542.005784
_symmetry_space_group_name_H-M "C C C 2"
_symmetry_group_IT_number 37
_symmetry_cell_setting 'orthorhombic'
loop_
_space_group_symop_operation_xyz
x,y,z
-x,-y,z
-x,y,1/2+z
x,-y,1/2+z
1/2+x,1/2+y,z
1/2-x,1/2-y,z
1/2-x,1/2+y,1/2+z
1/2+x,1/2-y,1/2+z
loop_
_atom_site_type_symbol
_atom_site_label
_atom_site_fract_x
_atom_site_fract_y
_atom_site_fract_z
Si Si1 0.611364 0.617343 0.360680
Si Si2 0.440568 0.140988 0.808672
Si Si3 0.343508 0.964399 0.076210
Si Si4 0.941590 0.634352 0.663332
Si Si5 0.213973 0.012192 0.273782
Si Si6 0.382625 0.550387 0.504595
Si Si7 0.750000 0.750000 0.149029
Si Si8 0.000000 0.000000 0.558790
O O1 0.561480 0.414890 0.346397
O O2 0.658956 0.504777 0.314339
O O3 0.625476 0.574232 0.434741
O O4 0.598976 0.917448 0.339887
O O5 0.423905 0.211554 0.734900
O O6 0.500000 0.000000 0.810972
O O7 0.354412 0.168886 0.018370
O O8 0.285464 0.044104 0.107750
O O9 0.391701 0.020919 0.129470
O O10 0.354417 0.665193 0.052818
O O11 0.963318 0.829754 0.608198
O O12 0.000000 0.500000 0.676963
O O13 0.250000 0.250000 0.303059
O O14 0.208998 0.097133 0.198760
O O15 0.250000 0.750000 0.275965
O O16 0.448987 0.602925 0.515610
#
# Coordination Sequence:
#
# PCOD9354482 Si02
#       8
#     8   8   8   8   8   8   4   4
#     4  12  25  48  66  98 141 180 238 274 347 417
#     4  11  26  39  69 104 134 178 221 293 341 402
#     4  11  24  43  68  99 131 181 226 280 349 404
#     4  10  21  39  65  96 137 169 230 280 351 404
#     4  10  24  43  72  99 127 182 224 293 356 396
#     4  11  26  43  68  97 136 187 223 277 333 427
#     4  10  26  44  72 102 142 166 238 298 356 404
#     4  10  22  40  66  94 140 176 224 274 350 404
#
# _framework density 22.029847
#
# number of rings (size 3 to 8) (size 9 to 14) (size 15 to 20)
#    0.429    0.857    1.429    3.000   10.000    1.143 
#    3.857    0.000    0.000    0.000    0.000    0.000 
#    0.000    0.000    0.000    0.000    0.000    0.000 
#
# Total GULP energy -156092.132437 kJ/mol
# GULP energy per Si atom -5574.719016 kJ/mol
# Density = 2.197971 g / cm^3
# Si number density = 22.029847 Si / 1000 Ang^3
#
#
#
# Elastic Constant Matrix: (Units=GPa)
#
#
# Indices 1 2 3 4 5 6 
#
# 1 82.5495 15.9423 34.4154 0.0000 0.0000 0.0000
# 2 15.9423 79.2663 -4.9055 0.0000 0.0000 0.0000
# 3 34.4154 -4.9055 95.1345 0.0000 0.0000 0.0000
# 4 0.0000 0.0000 0.0000 18.0853 0.0000 0.0000
# 5 0.0000 0.0000 0.0000 0.0000 26.0742 0.0000
# 6 0.0000 0.0000 0.0000 0.0000 0.0000 39.9141
#
#
#
# Elastic Compliance Matrix: (Units=1/GPa)
#
#
# Indices 1 2 3 4 5 6 
#
# 1 0.015122 -0.003391 -0.005645 0.000000 0.000000 0.000000
# 2 -0.003391 0.013416 0.001918 0.000000 0.000000 0.000000
# 3 -0.005645 0.001918 0.012653 0.000000 0.000000 0.000000
# 4 0.000000 0.000000 0.000000 0.055294 0.000000 0.000000
# 5 0.000000 0.000000 0.000000 0.000000 0.038352 0.000000
# 6 0.000000 0.000000 0.000000 0.000000 0.000000 0.025054
#
#
# Mechanical properties :
#
#
# Convention : Reuss Voigt Hill
#
# Bulk Modulus (GPa) = 37.09783 38.65054 37.87418
# Shear Modulus (GPa) = 27.30572 30.91460 29.11016
#
# Velocity S-wave (km/s) = 3.52445 3.75014 3.63905
# Velocity P-wave (km/s) = 5.78262 6.02777 5.90647
#
# Compressibility (1/GPa) = 0.02695575
#
# Stress axis : x y z
#
# Youngs Moduli (GPa) = 66.12699 74.53561 79.03496
#
# Poissons Ratio (x) = 0.25274 0.44619
# Poissons Ratio (y) = 0.22423 -0.15163
# Poissons Ratio (z) = 0.37332 -0.14299
#
# Static dielectric constant tensor:
#      x y z
#    x 1.927610 0.000000 0.000000 
#    y 0.000000 1.842570 0.000000 
#    z 0.000000 0.000000 1.897120 
# 
# From -- ./inp_files/17567.got.cif
#   From: 2010.05.17/outbox.cif.g08.bks.cpg/sg37_9_cif.got.tgz:17567.got - 2010.06.03 17:53:42.
