data_PCOD9354059
_publ_section_title
;
Structure prediction by ZEFSAII (Michael W. Deem and Ramdas Pophale) SiO2 
 PCOD9354059
Probable space group: C C C 2
;
_chemical_formula_sum "Si O2"
_cell_formula_units_Z 60
_cell_length_a 21.362388
_cell_length_b 7.358720
_cell_length_c 14.185959
_cell_angle_alpha 90.000000
_cell_angle_beta 90.000000
_cell_angle_gamma 90.000000
_cell_volume 2230.030369
_symmetry_space_group_name_H-M "C C C 2"
_symmetry_group_IT_number 37
_symmetry_cell_setting 'orthorhombic'
loop_
_space_group_symop_operation_xyz
x,y,z
-x,-y,z
-x,y,1/2+z
x,-y,1/2+z
1/2+x,1/2+y,z
1/2-x,1/2-y,z
1/2-x,1/2+y,1/2+z
1/2+x,1/2-y,1/2+z
loop_
_atom_site_type_symbol
_atom_site_label
_atom_site_fract_x
_atom_site_fract_y
_atom_site_fract_z
Si Si1 0.100114 0.136672 0.548930
Si Si2 0.073448 0.452422 0.052204
Si Si3 0.842417 0.500000 0.907151
Si Si4 0.100114 0.136672 0.765372
Si Si5 0.764086 0.966678 0.549773
Si Si6 0.235914 0.966678 0.264528
Si Si7 0.500000 0.500000 0.907151
Si Si8 0.573448 0.952422 0.262097
O O1 0.111470 0.354820 0.550229
O O2 0.083826 0.090263 0.657151
O O3 0.163018 0.030726 0.522256
O O4 0.043874 0.104770 0.479559
O O5 0.081529 0.370983 0.157151
O O6 0.000000 0.500000 0.043072
O O7 0.104391 0.367972 0.959901
O O8 0.787586 0.447284 0.830265
O O9 0.895609 0.367972 0.854401
O O10 0.787586 0.552716 0.984036
O O11 0.163018 0.030727 0.792046
O O12 0.111470 0.354820 0.764073
O O13 0.043874 0.104771 0.834743
O O14 0.750000 0.750000 0.548472
O O15 0.758208 0.029821 0.657151
O O16 0.250000 0.750000 0.265830
O O17 0.500000 0.000000 0.271230
#
# Coordination Sequence:
#
# PCOD9354059 Si02
#       8
#     8   8   8   8   8   8   4   8
#     4  10  22  41  60  84 121 160 196 240 296 354
#     4  10  22  38  59  90 123 153 192 246 304 356
#     4  12  20  32  64  88 110 144 202 242 286 344
#     4  10  22  41  60  84 121 160 196 240 296 354
#     4  10  20  37  58  82 113 152 192 232 284 348
#     4  10  20  37  58  82 113 152 192 232 284 348
#     4  12  24  36  62  88 116 156 208 242 280 344
#     4  10  22  38  59  90 123 153 192 246 304 356
#
# _framework density 26.905463999999998
#
# number of rings (size 3 to 8) (size 9 to 14) (size 15 to 20)
#    0.000    1.600    2.667    2.400    3.733    0.000 
#    0.000    0.000    0.000    3.200    0.000    0.000 
#    0.000    0.000    0.000    0.000    0.000    0.000 
#
# Total GULP energy -167183.762503 kJ/mol
# GULP energy per Si atom -5572.792083 kJ/mol
# Density = 2.684423 g / cm^3
# Si number density = 26.905464 Si / 1000 Ang^3
#
#
#
# Elastic Constant Matrix: (Units=GPa)
#
#
# Indices 1 2 3 4 5 6 
#
# 1 184.0928 9.3537 80.7786 0.0000 0.0000 0.0000
# 2 9.3537 48.1608 -0.9365 0.0000 0.0000 0.0000
# 3 80.7786 -0.9365 168.2740 0.0000 0.0000 0.0000
# 4 0.0000 0.0000 0.0000 10.4465 0.0000 0.0000
# 5 0.0000 0.0000 0.0000 0.0000 70.3779 0.0000
# 6 0.0000 0.0000 0.0000 0.0000 0.0000 5.4324
#
#
#
# Elastic Compliance Matrix: (Units=1/GPa)
#
#
# Indices 1 2 3 4 5 6 
#
# 1 0.006977 -0.001420 -0.003357 0.000000 0.000000 0.000000
# 2 -0.001420 0.021055 0.000799 0.000000 0.000000 0.000000
# 3 -0.003357 0.000799 0.007559 0.000000 0.000000 0.000000
# 4 0.000000 0.000000 0.000000 0.095726 0.000000 0.000000
# 5 0.000000 0.000000 0.000000 0.000000 0.014209 0.000000
# 6 0.000000 0.000000 0.000000 0.000000 0.000000 0.184080
#
#
# Mechanical properties :
#
#
# Convention : Reuss Voigt Hill
#
# Bulk Modulus (GPa) = 36.18738 64.32434 50.25586
# Shear Modulus (GPa) = 14.41854 38.00682 26.21268
#
# Velocity S-wave (km/s) = 2.31746 3.76254 3.12469
# Velocity P-wave (km/s) = 4.54311 6.54485 5.63360
#
# Compressibility (1/GPa) = 0.02763394
#
# Stress axis : x y z
#
# Youngs Moduli (GPa) = 143.32002 47.49421 132.29612
#
# Poissons Ratio (x) = 0.06746 0.44416
# Poissons Ratio (y) = 0.20358 -0.10571
# Poissons Ratio (z) = 0.48117 -0.03795
#
# Static dielectric constant tensor:
#      x y z
#    x 2.085660 0.000000 0.000000 
#    y 0.000000 2.991200 0.000000 
#    z 0.000000 0.000000 -1.448790 
# 
# From -- ./inp_files/12684.got.cif
#   From: 2010.05.17/outbox.cif.g08.bks.cpg/sg37_7_cif.got.tgz:12684.got - 2010.06.03 17:53:42.
