data_PCOD9354341
_publ_section_title
;
Structure prediction by ZEFSAII (Michael W. Deem and Ramdas Pophale) SiO2 
 PCOD9354341
Probable space group: C C C 2
;
_chemical_formula_sum "Si O2"
_cell_formula_units_Z 48
_cell_length_a 17.641439
_cell_length_b 13.255896
_cell_length_c 9.106357
_cell_angle_alpha 90.000000
_cell_angle_beta 90.000000
_cell_angle_gamma 90.000000
_cell_volume 2129.549638
_symmetry_space_group_name_H-M "C C C 2"
_symmetry_group_IT_number 37
_symmetry_cell_setting 'orthorhombic'
loop_
_space_group_symop_operation_xyz
x,y,z
-x,-y,z
-x,y,1/2+z
x,-y,1/2+z
1/2+x,1/2+y,z
1/2-x,1/2-y,z
1/2-x,1/2+y,1/2+z
1/2+x,1/2-y,1/2+z
loop_
_atom_site_type_symbol
_atom_site_label
_atom_site_fract_x
_atom_site_fract_y
_atom_site_fract_z
Si Si1 0.909387 0.511212 0.018290
Si Si2 0.485584 0.693346 0.768350
Si Si3 0.101701 0.278449 0.537094
Si Si4 0.309183 0.015080 0.261996
Si Si5 0.206729 0.911953 0.017571
Si Si6 0.430103 0.431983 0.018196
O O1 0.868845 0.569596 0.151952
O O2 0.000000 0.500000 0.011269
O O3 0.883347 0.395945 0.046039
O O4 0.866336 0.545162 0.871082
O O5 0.543350 0.751539 0.665233
O O6 0.441321 0.759837 0.884671
O O7 0.537883 0.620415 0.870728
O O8 0.424953 0.642851 0.656778
O O9 0.169237 0.197183 0.542160
O O10 0.257912 0.082367 0.370771
O O11 0.250867 0.951495 0.162214
O O12 0.140320 0.995154 0.993257
O O13 0.500000 0.500000 0.069320
#
# Coordination Sequence:
#
# PCOD9354341 Si02
#       6
#     8   8   8   8   8   8
#     4  11  26  49  73  93 125 181 245 295 329 409
#     4  10  21  34  57 108 126 180 221 274 334 383
#     4  11  24  38  70  97 138 170 231 287 330 389
#     4  10  25  42  67  96 126 184 218 270 367 390
#     4  11  21  40  65  99 141 177 214 277 339 437
#     4  11  19  33  60  95 144 182 222 263 339 405
#
# _framework density 22.539975999999999
#
# number of rings (size 3 to 8) (size 9 to 14) (size 15 to 20)
#    0.000    1.333    3.333    3.000    4.667    2.667 
#    0.000    0.000    0.000    6.000    0.000    0.000 
#    0.000    0.000    0.000    0.000    0.000    0.000 
#
# Total GULP energy -133975.925115 kJ/mol
# GULP energy per Si atom -5582.330213 kJ/mol
# Density = 2.248867 g / cm^3
# Si number density = 22.539976 Si / 1000 Ang^3
#
#
#
# Elastic Constant Matrix: (Units=GPa)
#
#
# Indices 1 2 3 4 5 6 
#
# 1 107.5278 4.9768 19.4756 0.0000 0.0000 0.0000
# 2 4.9768 64.0828 3.0491 0.0000 0.0000 0.0000
# 3 19.4756 3.0491 124.7336 0.0000 0.0000 0.0000
# 4 0.0000 0.0000 0.0000 18.8710 0.0000 0.0000
# 5 0.0000 0.0000 0.0000 0.0000 40.6493 0.0000
# 6 0.0000 0.0000 0.0000 0.0000 0.0000 6.8719
#
#
#
# Elastic Compliance Matrix: (Units=1/GPa)
#
#
# Indices 1 2 3 4 5 6 
#
# 1 0.009600 -0.000675 -0.001482 0.000000 0.000000 0.000000
# 2 -0.000675 0.015670 -0.000278 0.000000 0.000000 0.000000
# 3 -0.001482 -0.000278 0.008255 0.000000 0.000000 0.000000
# 4 0.000000 0.000000 0.000000 0.052991 0.000000 0.000000
# 5 0.000000 0.000000 0.000000 0.000000 0.024601 0.000000
# 6 0.000000 0.000000 0.000000 0.000000 0.000000 0.145521
#
#
# Mechanical properties :
#
#
# Convention : Reuss Voigt Hill
#
# Bulk Modulus (GPa) = 34.89750 39.03858 36.96804
# Shear Modulus (GPa) = 18.44609 31.20127 24.82368
#
# Velocity S-wave (km/s) = 2.86382 3.72461 3.32221
# Velocity P-wave (km/s) = 5.14309 5.98784 5.58147
#
# Compressibility (1/GPa) = 0.02865534
#
# Stress axis : x y z
#
# Youngs Moduli (GPa) = 104.17044 63.81444 121.13390
#
# Poissons Ratio (x) = 0.04307 0.17956
# Poissons Ratio (y) = 0.07031 0.03364
# Poissons Ratio (z) = 0.15442 0.01772
#
# Static dielectric constant tensor:
#      x y z
#    x 1.893040 0.000000 0.000000 
#    y 0.000000 -0.634210 0.000000 
#    z 0.000000 0.000000 1.905160 
# 
# From -- ./inp_files/3971.got.cif
#   From: 2010.05.17/outbox.cif.g08.bks.cpg/sg37_2_cif.got.tgz:3971.got - 2010.06.03 17:53:42.
