data_PCOD9354509
_publ_section_title
;
Structure prediction by ZEFSAII (Michael W. Deem and Ramdas Pophale) SiO2 
 PCOD9354509
Probable space group: C C C 2
;
_chemical_formula_sum "Si O2"
_cell_formula_units_Z 64
_cell_length_a 5.599497
_cell_length_b 19.248709
_cell_length_c 27.010007
_cell_angle_alpha 90.000000
_cell_angle_beta 90.000000
_cell_angle_gamma 90.000000
_cell_volume 2911.221969
_symmetry_space_group_name_H-M "C C C 2"
_symmetry_group_IT_number 37
_symmetry_cell_setting 'orthorhombic'
loop_
_space_group_symop_operation_xyz
x,y,z
-x,-y,z
-x,y,1/2+z
x,-y,1/2+z
1/2+x,1/2+y,z
1/2-x,1/2-y,z
1/2-x,1/2+y,1/2+z
1/2+x,1/2-y,1/2+z
loop_
_atom_site_type_symbol
_atom_site_label
_atom_site_fract_x
_atom_site_fract_y
_atom_site_fract_z
Si Si1 0.491299 0.290361 0.583670
Si Si2 0.880283 0.822230 0.191983
Si Si3 0.170675 0.821856 0.282666
Si Si4 0.666384 0.567326 0.041540
Si Si5 0.993663 0.576995 0.837659
Si Si6 0.336966 0.430615 0.934390
Si Si7 0.881603 0.821300 0.381518
Si Si8 0.233573 0.538407 0.650121
O O1 0.750000 0.250000 0.579096
O O2 0.464570 0.307556 0.642444
O O3 0.521580 0.362208 0.553741
O O4 0.250000 0.250000 0.568348
O O5 0.750000 0.750000 0.204095
O O6 0.722256 0.885809 0.173986
O O7 0.001023 0.851913 0.241247
O O8 0.250000 0.750000 0.258817
O O9 0.379029 0.872844 0.297438
O O10 0.048151 0.802537 0.334843
O O11 0.500000 0.500000 0.036566
O O12 0.807918 0.552935 0.091588
O O13 0.788934 0.573199 0.987855
O O14 0.831372 0.568492 0.886780
O O15 0.000000 0.500000 0.816511
O O16 0.222866 0.616922 0.858047
O O17 0.500000 0.500000 0.931933
O O18 0.485680 0.359450 0.926347
O O19 0.750000 0.750000 0.395555
O O20 0.500000 0.500000 0.655272
O O21 0.000000 0.500000 0.669482
#
# Coordination Sequence:
#
# PCOD9354509 Si02
#       8
#     8   8   8   8   8   8   8   8
#     4  10  22  43  66  97 137 173 217 277 336 392
#     4  10  23  42  69  95 126 173 220 272 332 407
#     4  11  23  40  65  92 125 165 227 264 329 407
#     4   9  21  40  65  96 129 177 224 272 332 405
#     4  11  23  42  65  91 129 171 209 279 332 394
#     4  10  21  40  63  94 125 170 225 263 325 403
#     4  11  22  41  62  91 127 169 210 275 333 392
#     4  10  23  46  69 100 142 178 223 283 340 398
#
# _framework density 21.983896000000001
#
# number of rings (size 3 to 8) (size 9 to 14) (size 15 to 20)
#    0.000    1.750    2.500    0.750    0.000   11.000 
#    9.000    0.000    0.000    0.000    0.000    0.000 
#    0.000    0.000    0.000    0.000    0.000    0.000 
#
# Total GULP energy -178450.913147 kJ/mol
# GULP energy per Si atom -5576.591036 kJ/mol
# Density = 2.193386 g / cm^3
# Si number density = 21.983896 Si / 1000 Ang^3
#
#
#
# Elastic Constant Matrix: (Units=GPa)
#
#
# Indices 1 2 3 4 5 6 
#
# 1 65.4825 33.9555 2.5557 0.0000 0.0000 0.0000
# 2 33.9555 122.4101 0.6261 0.0000 0.0000 0.0000
# 3 2.5557 0.6261 66.9622 0.0000 0.0000 0.0000
# 4 0.0000 0.0000 0.0000 411.8007 0.0000 0.0000
# 5 0.0000 0.0000 0.0000 0.0000 133.0788 0.0000
# 6 0.0000 0.0000 0.0000 0.0000 0.0000 36.0025
#
#
#
# Elastic Compliance Matrix: (Units=1/GPa)
#
#
# Indices 1 2 3 4 5 6 
#
# 1 0.017864 -0.004952 -0.000636 0.000000 0.000000 0.000000
# 2 -0.004952 0.009542 0.000100 0.000000 0.000000 0.000000
# 3 -0.000636 0.000100 0.014957 0.000000 0.000000 0.000000
# 4 0.000000 0.000000 0.000000 0.002428 0.000000 0.000000
# 5 0.000000 0.000000 0.000000 0.000000 0.007514 0.000000
# 6 0.000000 0.000000 0.000000 0.000000 0.000000 0.027776
#
#
# Mechanical properties :
#
#
# Convention : Reuss Voigt Hill
#
# Bulk Modulus (GPa) = 31.85943 36.56995 34.21469
# Shear Modulus (GPa) = 49.25134 130.69090 89.97112
#
# Velocity S-wave (km/s) = 4.73835 7.71865 6.40428
# Velocity P-wave (km/s) = 6.66781 9.80345 8.38354
#
# Compressibility (1/GPa) = 0.03138788
#
# Stress axis : x y z
#
# Youngs Moduli (GPa) = 55.97886 104.79545 66.85782
#
# Poissons Ratio (x) = 0.51895 0.04249
# Poissons Ratio (y) = 0.27721 -0.00667
# Poissons Ratio (z) = 0.03557 -0.01046
#
# Static dielectric constant tensor:
#      x y z
#    x 1.906850 0.000000 0.000000 
#    y 0.000000 1.432140 0.000000 
#    z 0.000000 0.000000 1.776060 
# 
# From -- ./inp_files/20273.got.cif
#   From: 2010.05.17/outbox.cif.g08.bks.cpg/sg37_11_cif.got.tgz:20273.got - 2010.06.03 17:53:42.
