data_PCOD9354559
_publ_section_title
;
Structure prediction by ZEFSAII (Michael W. Deem and Ramdas Pophale) SiO2 
 PCOD9354559
Probable space group: C C C 2
;
_chemical_formula_sum "Si O2"
_cell_formula_units_Z 56
_cell_length_a 17.148276
_cell_length_b 9.836128
_cell_length_c 14.714406
_cell_angle_alpha 90.000000
_cell_angle_beta 90.000000
_cell_angle_gamma 90.000000
_cell_volume 2481.917672
_symmetry_space_group_name_H-M "C C C 2"
_symmetry_group_IT_number 37
_symmetry_cell_setting 'orthorhombic'
loop_
_space_group_symop_operation_xyz
x,y,z
-x,-y,z
-x,y,1/2+z
x,-y,1/2+z
1/2+x,1/2+y,z
1/2-x,1/2-y,z
1/2-x,1/2+y,1/2+z
1/2+x,1/2-y,1/2+z
loop_
_atom_site_type_symbol
_atom_site_label
_atom_site_fract_x
_atom_site_fract_y
_atom_site_fract_z
Si Si1 0.588318 0.542497 0.666490
Si Si2 0.789483 0.120067 0.041359
Si Si3 0.607665 0.241771 0.666843
Si Si4 0.565115 0.886253 0.977986
Si Si5 0.264086 0.089499 0.910983
Si Si6 0.188736 0.526697 0.213373
Si Si7 0.950080 0.282067 0.279329
O O1 0.500000 0.500000 0.645044
O O2 0.626611 0.633654 0.588073
O O3 0.632276 0.398761 0.674155
O O4 0.586434 0.635357 0.755800
O O5 0.750000 0.250000 0.995181
O O6 0.732515 0.089150 0.126960
O O7 0.793982 0.996696 0.971683
O O8 0.579171 0.207524 0.565038
O O9 0.533896 0.217429 0.732344
O O10 0.670977 0.129886 0.693152
O O11 0.500000 0.000000 0.997459
O O12 0.650209 0.946076 0.951645
O O13 0.542219 0.808591 0.885816
O O14 0.250000 0.250000 0.920392
O O15 0.263959 0.050990 0.805685
O O16 0.107131 0.605611 0.234440
#
# Coordination Sequence:
#
# PCOD9354559 Si02
#       7
#     8   8   8   8   8   8   8
#     4  10  24  44  66  96 139 186 227 281 364 415
#     4  12  24  44  68  97 135 182 231 290 348 421
#     4  11  22  42  68 102 141 179 230 289 347 416
#     4  11  22  39  71 103 135 181 238 291 337 417
#     4  11  25  43  65 103 135 178 232 283 356 417
#     4  11  22  41  70  97 131 182 226 287 341 416
#     4  10  21  41  65  98 137 181 230 277 348 423
#
# _framework density 22.563198
#
# number of rings (size 3 to 8) (size 9 to 14) (size 15 to 20)
#    0.000    1.143    2.857    4.286    2.000    0.000 
#    2.571    6.429    0.000    0.000    0.000    0.000 
#    0.000    0.000    0.000    0.000    0.000    0.000 
#
# Total GULP energy -156675.136030 kJ/mol
# GULP energy per Si atom -5595.540572 kJ/mol
# Density = 2.251184 g / cm^3
# Si number density = 22.563198 Si / 1000 Ang^3
#
#
#
# Elastic Constant Matrix: (Units=GPa)
#
#
# Indices 1 2 3 4 5 6 
#
# 1 50.2436 3.7467 -14.0723 0.0000 0.0000 0.0000
# 2 3.7467 135.9060 23.3438 0.0000 0.0000 0.0000
# 3 -14.0723 23.3438 96.6193 0.0000 0.0000 0.0000
# 4 0.0000 0.0000 0.0000 26.9667 0.0000 0.0000
# 5 0.0000 0.0000 0.0000 0.0000 21.5959 0.0000
# 6 0.0000 0.0000 0.0000 0.0000 0.0000 31.9070
#
#
#
# Elastic Compliance Matrix: (Units=1/GPa)
#
#
# Indices 1 2 3 4 5 6 
#
# 1 0.020920 -0.001148 0.003324 0.000000 0.000000 0.000000
# 2 -0.001148 0.007740 -0.002037 0.000000 0.000000 0.000000
# 3 0.003324 -0.002037 0.011326 0.000000 0.000000 0.000000
# 4 0.000000 0.000000 0.000000 0.037083 0.000000 0.000000
# 5 0.000000 0.000000 0.000000 0.000000 0.046305 0.000000
# 6 0.000000 0.000000 0.000000 0.000000 0.000000 0.031341
#
#
# Mechanical properties :
#
#
# Convention : Reuss Voigt Hill
#
# Bulk Modulus (GPa) = 24.83595 34.31170 29.57383
# Shear Modulus (GPa) = 29.78726 34.07731 31.93228
#
# Velocity S-wave (km/s) = 3.63736 3.89048 3.76605
# Velocity P-wave (km/s) = 5.35459 5.95156 5.66095
#
# Compressibility (1/GPa) = 0.04026421
#
# Stress axis : x y z
#
# Youngs Moduli (GPa) = 47.80197 129.20629 88.29067
#
# Poissons Ratio (x) = 0.14829 -0.29349
# Poissons Ratio (y) = 0.05486 0.17986
# Poissons Ratio (z) = -0.15890 0.26320
#
# Static dielectric constant tensor:
#      x y z
#    x 1.898500 0.000000 0.000000 
#    y 0.000000 1.876040 0.000000 
#    z 0.000000 0.000000 1.789090 
# 
# From -- ./inp_files/12942.got.cif
#   From: 2010.05.17/outbox.cif.g08.bks.cpg/sg37_7_cif.got.tgz:12942.got - 2010.06.03 17:53:42.
