data_PCOD9354654
_publ_section_title
;
Structure prediction by ZEFSAII (Michael W. Deem and Ramdas Pophale) SiO2 
 PCOD9354654
Probable space group: C C C 2
;
_chemical_formula_sum "Si O2"
_cell_formula_units_Z 36
_cell_length_a 9.315785
_cell_length_b 11.639258
_cell_length_c 14.474643
_cell_angle_alpha 90.000000
_cell_angle_beta 90.000000
_cell_angle_gamma 90.000000
_cell_volume 1569.468534
_symmetry_space_group_name_H-M "C C C 2"
_symmetry_group_IT_number 37
_symmetry_cell_setting 'orthorhombic'
loop_
_space_group_symop_operation_xyz
x,y,z
-x,-y,z
-x,y,1/2+z
x,-y,1/2+z
1/2+x,1/2+y,z
1/2-x,1/2-y,z
1/2-x,1/2+y,1/2+z
1/2+x,1/2-y,1/2+z
loop_
_atom_site_type_symbol
_atom_site_label
_atom_site_fract_x
_atom_site_fract_y
_atom_site_fract_z
Si Si1 0.735288 0.472417 0.479220
Si Si2 0.021066 0.177341 0.532504
Si Si3 0.870865 0.663708 0.375207
Si Si4 0.000000 0.500000 0.599298
Si Si5 0.589530 0.207178 0.215686
O O1 0.637103 0.574945 0.521400
O O2 0.624268 0.366881 0.482520
O O3 0.803518 0.536860 0.389405
O O4 0.874861 0.442966 0.538644
O O5 0.086101 0.283991 0.475061
O O6 0.012054 0.208242 0.640768
O O7 0.750000 0.750000 0.338168
O O8 0.003361 0.682628 0.308373
O O9 0.085898 0.412486 0.662376
O O10 0.750000 0.250000 0.231870
#
# Coordination Sequence:
#
# PCOD9354654 Si02
#       5
#     8   8   8   4   8
#     4  10  22  43  72 100 136 188 236 290 355 428
#     4  10  21  47  72  95 143 194 232 290 366 427
#     4  10  23  44  68 102 145 184 237 302 358 427
#     4  12  24  40  70 100 136 180 242 292 350 428
#     4  12  25  45  69 105 145 188 244 304 358 434
#
# _framework density 22.9377
#
# number of rings (size 3 to 8) (size 9 to 14) (size 15 to 20)
#    0.000    1.333    4.444    0.667    3.111    4.444 
#    0.000    2.222    0.000    0.000    0.000    0.000 
#    0.000    0.000    0.000    0.000    0.000    0.000 
#
# Total GULP energy -100529.217016 kJ/mol
# GULP energy per Si atom -5584.956501 kJ/mol
# Density = 2.288549 g / cm^3
# Si number density = 22.937700 Si / 1000 Ang^3
#
#
#
# Elastic Constant Matrix: (Units=GPa)
#
#
# Indices 1 2 3 4 5 6 
#
# 1 185.6249 48.6757 41.8028 0.0000 0.0000 0.0000
# 2 48.6757 59.2033 11.3680 0.0000 0.0000 0.0000
# 3 41.8028 11.3680 79.4575 0.0000 0.0000 0.0000
# 4 0.0000 0.0000 0.0000 455.4159 0.0000 0.0000
# 5 0.0000 0.0000 0.0000 0.0000 27.6667 0.0000
# 6 0.0000 0.0000 0.0000 0.0000 0.0000 58.0716
#
#
#
# Elastic Compliance Matrix: (Units=1/GPa)
#
#
# Indices 1 2 3 4 5 6 
#
# 1 0.007577 -0.005619 -0.003183 0.000000 0.000000 0.000000
# 2 -0.005619 0.021535 -0.000125 0.000000 0.000000 0.000000
# 3 -0.003183 -0.000125 0.014278 0.000000 0.000000 0.000000
# 4 0.000000 0.000000 0.000000 0.002196 0.000000 0.000000
# 5 0.000000 0.000000 0.000000 0.000000 0.036144 0.000000
# 6 0.000000 0.000000 0.000000 0.000000 0.000000 0.017220
#
#
# Mechanical properties :
#
#
# Convention : Reuss Voigt Hill
#
# Bulk Modulus (GPa) = 39.15896 58.66431 48.91163
# Shear Modulus (GPa) = 39.89954 123.06012 81.47983
#
# Velocity S-wave (km/s) = 4.17523 7.33254 5.96652
# Velocity P-wave (km/s) = 6.35234 9.86505 8.29673
#
# Compressibility (1/GPa) = 0.02553694
#
# Stress axis : x y z
#
# Youngs Moduli (GPa) = 131.97280 46.43690 70.03998
#
# Poissons Ratio (x) = 0.26092 0.22291
# Poissons Ratio (y) = 0.74153 0.00875
# Poissons Ratio (z) = 0.42001 0.00580
#
# Static dielectric constant tensor:
#      x y z
#    x 1.864230 0.000000 0.000000 
#    y 0.000000 1.393290 0.000000 
#    z 0.000000 0.000000 1.897870 
# 
# From -- ./inp_files/10278.got.cif
#   From: 2010.05.17/outbox.cif.g08.bks.cpg/sg37_6_cif.got.tgz:10278.got - 2010.06.03 17:53:42.
