data_PCOD9354052
_publ_section_title
;
Structure prediction by ZEFSAII (Michael W. Deem and Ramdas Pophale) SiO2 
 PCOD9354052
Probable space group: C C C 2
;
_chemical_formula_sum "Si O2"
_cell_formula_units_Z 60
_cell_length_a 16.105805
_cell_length_b 19.497908
_cell_length_c 9.059662
_cell_angle_alpha 90.000000
_cell_angle_beta 90.000000
_cell_angle_gamma 90.000000
_cell_volume 2845.001166
_symmetry_space_group_name_H-M "C C C 2"
_symmetry_group_IT_number 37
_symmetry_cell_setting 'orthorhombic'
loop_
_space_group_symop_operation_xyz
x,y,z
-x,-y,z
-x,y,1/2+z
x,-y,1/2+z
1/2+x,1/2+y,z
1/2-x,1/2-y,z
1/2-x,1/2+y,1/2+z
1/2+x,1/2-y,1/2+z
loop_
_atom_site_type_symbol
_atom_site_label
_atom_site_fract_x
_atom_site_fract_y
_atom_site_fract_z
Si Si1 0.905057 0.920622 0.335660
Si Si2 0.500000 0.000000 0.665026
Si Si3 0.063621 0.174598 0.787583
Si Si4 0.019373 0.265720 0.055908
Si Si5 0.182736 0.500559 0.035343
Si Si6 0.724555 0.086329 0.781256
Si Si7 0.147125 0.943821 0.160127
Si Si8 0.560784 0.140566 0.817614
O O1 0.816021 0.886217 0.302134
O O2 0.905966 0.934859 0.510102
O O3 0.981603 0.874025 0.290741
O O4 0.891908 0.991775 0.247604
O O5 0.414301 0.013657 0.573298
O O6 0.520688 0.069027 0.759317
O O7 0.051200 0.224141 0.646482
O O8 0.138483 0.123085 0.759705
O O9 0.064923 0.214910 0.942020
O O10 0.065918 0.303653 0.187387
O O11 0.987561 0.326533 0.951751
O O12 0.201605 0.427066 0.111021
O O13 0.258787 0.544418 0.106155
O O14 0.204899 0.513086 0.864513
O O15 0.655518 0.129818 0.861989
#
# Coordination Sequence:
#
# PCOD9354052 Si02
#       8
#     8   4   8   8   8   8   8   8
#     4  10  21  36  60  93 119 157 209 256 304 367
#     4  10  20  36  70  92 116 152 196 260 342 358
#     4  11  21  39  61  80 122 175 205 248 305 358
#     4  10  23  38  57  85 120 162 216 246 294 389
#     4   9  19  34  56  94 122 150 188 251 317 379
#     4   9  19  36  57  87 123 152 191 254 315 364
#     4  10  21  36  59  91 127 156 206 258 306 360
#     4  10  21  39  62  87 118 153 204 262 311 381
#
# _framework density 21.089623
#
# number of rings (size 3 to 8) (size 9 to 14) (size 15 to 20)
#    0.000    2.133    1.333    1.200    1.867    8.000 
#    0.000    2.667    5.867    1.600    0.000    0.000 
#    0.000    0.000    0.000    0.000    0.000    0.000 
#
# Total GULP energy -167144.055778 kJ/mol
# GULP energy per Si atom -5571.468526 kJ/mol
# Density = 2.104162 g / cm^3
# Si number density = 21.089623 Si / 1000 Ang^3
#
#
#
# Elastic Constant Matrix: (Units=GPa)
#
#
# Indices 1 2 3 4 5 6 
#
# 1 67.2019 9.8347 -5.7961 0.0000 0.0000 0.0000
# 2 9.8347 58.1688 5.7524 0.0000 0.0000 0.0000
# 3 -5.7961 5.7524 78.1908 0.0000 0.0000 0.0000
# 4 0.0000 0.0000 0.0000 28.0089 0.0000 0.0000
# 5 0.0000 0.0000 0.0000 0.0000 11.9306 0.0000
# 6 0.0000 0.0000 0.0000 0.0000 0.0000 14.1592
#
#
#
# Elastic Compliance Matrix: (Units=1/GPa)
#
#
# Indices 1 2 3 4 5 6 
#
# 1 0.015397 -0.002736 0.001343 0.000000 0.000000 0.000000
# 2 -0.002736 0.017803 -0.001513 0.000000 0.000000 0.000000
# 3 0.001343 -0.001513 0.013000 0.000000 0.000000 0.000000
# 4 0.000000 0.000000 0.000000 0.035703 0.000000 0.000000
# 5 0.000000 0.000000 0.000000 0.000000 0.083818 0.000000
# 6 0.000000 0.000000 0.000000 0.000000 0.000000 0.070625
#
#
# Mechanical properties :
#
#
# Convention : Reuss Voigt Hill
#
# Bulk Modulus (GPa) = 24.75954 24.79370 24.77662
# Shear Modulus (GPa) = 19.56017 23.73777 21.64897
#
# Velocity S-wave (km/s) = 3.04876 3.35859 3.20741
# Velocity P-wave (km/s) = 4.91517 5.17900 5.04881
#
# Compressibility (1/GPa) = 0.04038847
#
# Stress axis : x y z
#
# Youngs Moduli (GPa) = 64.94895 56.16873 76.92286
#
# Poissons Ratio (x) = 0.15367 -0.10328
# Poissons Ratio (y) = 0.17769 0.11635
# Poissons Ratio (z) = -0.08720 0.08496
#
# Static dielectric constant tensor:
#      x y z
#    x 1.790580 0.000000 0.000000 
#    y 0.000000 1.828430 0.000000 
#    z 0.000000 0.000000 1.780690 
# 
# From -- ./inp_files/4098.got.cif
#   From: 2010.05.17/outbox.cif.g08.bks.cpg/sg37_3_cif.got.tgz:4098.got - 2010.06.03 17:53:42.
