data_PCOD9354729
_publ_section_title
;
Structure prediction by ZEFSAII (Michael W. Deem and Ramdas Pophale) SiO2 
 PCOD9354729
Probable space group: C C C 2
;
_chemical_formula_sum "Si O2"
_cell_formula_units_Z 36
_cell_length_a 17.457551
_cell_length_b 9.336988
_cell_length_c 8.450143
_cell_angle_alpha 90.000000
_cell_angle_beta 90.000000
_cell_angle_gamma 90.000000
_cell_volume 1377.381288
_symmetry_space_group_name_H-M "C C C 2"
_symmetry_group_IT_number 37
_symmetry_cell_setting 'orthorhombic'
loop_
_space_group_symop_operation_xyz
x,y,z
-x,-y,z
-x,y,1/2+z
x,-y,1/2+z
1/2+x,1/2+y,z
1/2-x,1/2-y,z
1/2-x,1/2+y,1/2+z
1/2+x,1/2-y,1/2+z
loop_
_atom_site_type_symbol
_atom_site_label
_atom_site_fract_x
_atom_site_fract_y
_atom_site_fract_z
Si Si1 0.053407 0.136464 0.867620
Si Si2 0.750000 0.250000 0.224107
Si Si3 0.626944 0.104037 0.453936
Si Si4 0.162651 0.307911 0.308104
Si Si5 0.126141 0.918254 0.038269
O O1 0.050050 0.304817 0.907683
O O2 0.069180 0.120415 0.681464
O O3 0.000000 0.000000 0.910552
O O4 0.124633 0.080944 0.979303
O O5 0.689415 0.169462 0.333282
O O6 0.794095 0.134525 0.115410
O O7 0.641907 0.137115 0.635868
O O8 0.637785 0.935905 0.425245
O O9 0.250000 0.250000 0.304644
O O10 0.116405 0.173793 0.378125
#
# Coordination Sequence:
#
# PCOD9354729 Si02
#       5
#     8   4   8   8   8
#     4  11  25  46  72 103 144 201 262 313 366 449
#     4  10  22  38  66 106 148 192 240 306 394 458
#     4  11  25  41  69 104 155 201 247 311 381 460
#     4  12  26  42  68 111 159 199 240 312 401 474
#     4  11  24  40  70 105 145 193 250 313 383 457
#
# _framework density 26.136555000000001
#
# number of rings (size 3 to 8) (size 9 to 14) (size 15 to 20)
#    0.000    0.889    2.222    4.667    9.333    0.000 
#    0.000    2.222    0.000    8.000    0.000    0.000 
#    0.000    0.000    0.000    0.000    0.000    0.000 
#
# Total GULP energy -100606.393832 kJ/mol
# GULP energy per Si atom -5589.244102 kJ/mol
# Density = 2.607707 g / cm^3
# Si number density = 26.136555 Si / 1000 Ang^3
#
#
#
# Elastic Constant Matrix: (Units=GPa)
#
#
# Indices 1 2 3 4 5 6 
#
# 1 53.4836 28.4650 -5.1658 0.0000 0.0000 0.0000
# 2 28.4650 144.0676 21.0122 0.0000 0.0000 0.0000
# 3 -5.1658 21.0122 168.1611 0.0000 0.0000 0.0000
# 4 0.0000 0.0000 0.0000 48.5571 0.0000 0.0000
# 5 0.0000 0.0000 0.0000 0.0000 12.1704 0.0000
# 6 0.0000 0.0000 0.0000 0.0000 0.0000 40.9230
#
#
#
# Elastic Compliance Matrix: (Units=1/GPa)
#
#
# Indices 1 2 3 4 5 6 
#
# 1 0.021127 -0.004348 0.001192 0.000000 0.000000 0.000000
# 2 -0.004348 0.007965 -0.001129 0.000000 0.000000 0.000000
# 3 0.001192 -0.001129 0.006124 0.000000 0.000000 0.000000
# 4 0.000000 0.000000 0.000000 0.020594 0.000000 0.000000
# 5 0.000000 0.000000 0.000000 0.000000 0.082166 0.000000
# 6 0.000000 0.000000 0.000000 0.000000 0.000000 0.024436
#
#
# Mechanical properties :
#
#
# Convention : Reuss Voigt Hill
#
# Bulk Modulus (GPa) = 37.52814 50.48167 44.00491
# Shear Modulus (GPa) = 27.79875 41.75683 34.77779
#
# Velocity S-wave (km/s) = 3.26482 4.00139 3.65172
# Velocity P-wave (km/s) = 5.34806 6.38002 5.88670
#
# Compressibility (1/GPa) = 0.02664667
#
# Stress axis : x y z
#
# Youngs Moduli (GPa) = 47.33362 125.55044 163.28253
#
# Poissons Ratio (x) = 0.54591 -0.19468
# Poissons Ratio (y) = 0.20581 0.18431
# Poissons Ratio (z) = -0.05644 0.14172
#
# Static dielectric constant tensor:
#      x y z
#    x 2.708110 0.000000 0.000000 
#    y 0.000000 2.025870 0.000000 
#    z 0.000000 0.000000 1.978040 
# 
# From -- ./inp_files/2114.got.cif
#   From: 2010.05.17/outbox.cif.g08.bks.cpg/sg37_2_cif.got.tgz:2114.got - 2010.06.03 17:53:42.
