data_PCOD9354992
_publ_section_title
;
Structure prediction by ZEFSAII (Michael W. Deem and Ramdas Pophale) SiO2 
 PCOD9354992
Probable space group: C C C 2
;
_chemical_formula_sum "Si O2"
_cell_formula_units_Z 56
_cell_length_a 14.804514
_cell_length_b 13.896480
_cell_length_c 12.222469
_cell_angle_alpha 90.000000
_cell_angle_beta 90.000000
_cell_angle_gamma 90.000000
_cell_volume 2514.536281
_symmetry_space_group_name_H-M "C C C 2"
_symmetry_group_IT_number 37
_symmetry_cell_setting 'orthorhombic'
loop_
_space_group_symop_operation_xyz
x,y,z
-x,-y,z
-x,y,1/2+z
x,-y,1/2+z
1/2+x,1/2+y,z
1/2-x,1/2-y,z
1/2-x,1/2+y,1/2+z
1/2+x,1/2-y,1/2+z
loop_
_atom_site_type_symbol
_atom_site_label
_atom_site_fract_x
_atom_site_fract_y
_atom_site_fract_z
Si Si1 0.103463 0.129305 0.571660
Si Si2 0.819330 0.832724 0.968343
Si Si3 0.169066 0.689100 0.933598
Si Si4 0.919540 0.425181 0.734950
Si Si5 0.493418 0.397430 0.357293
Si Si6 0.934631 0.779500 0.175325
Si Si7 0.265000 0.012195 0.581197
O O1 0.134145 0.231363 0.520150
O O2 0.174379 0.060003 0.630764
O O3 0.062734 0.076000 0.466872
O O4 0.022032 0.158902 0.646864
O O5 0.750000 0.750000 0.927441
O O6 0.857231 0.802015 0.088410
O O7 0.763003 0.928361 0.996523
O O8 0.909402 0.852076 0.894573
O O9 0.250000 0.750000 0.876751
O O10 0.112243 0.629152 0.844584
O O11 0.200940 0.601904 0.010990
O O12 0.953502 0.333448 0.665466
O O13 0.836325 0.473871 0.669829
O O14 0.000000 0.500000 0.753053
O O15 0.500000 0.500000 0.298386
O O16 0.427838 0.319896 0.298224
#
# Coordination Sequence:
#
# PCOD9354992 Si02
#       7
#     8   8   8   8   8   8   8
#     4  10  22  45  68  97 139 181 223 293 353 412
#     4  11  24  43  67  99 138 181 231 289 347 420
#     4  10  24  45  70  95 137 185 228 285 354 424
#     4  12  26  43  70 104 136 185 236 286 357 429
#     4  11  23  40  68 104 134 177 233 288 355 413
#     4  11  25  41  71 100 140 177 232 291 351 414
#     4  11  24  42  67 102 135 182 236 288 348 423
#
# _framework density 22.270506999999998
#
# number of rings (size 3 to 8) (size 9 to 14) (size 15 to 20)
#    0.000    1.143    4.286    0.857    4.000    4.000 
#    0.000    2.143    0.000    0.000    0.000    0.000 
#    0.000    0.000    0.000    0.000    0.000    0.000 
#
# Total GULP energy -156115.848485 kJ/mol
# GULP energy per Si atom -5575.566017 kJ/mol
# Density = 2.221982 g / cm^3
# Si number density = 22.270507 Si / 1000 Ang^3
#
#
#
# Elastic Constant Matrix: (Units=GPa)
#
#
# Indices 1 2 3 4 5 6 
#
# 1 92.3157 44.3042 17.8495 0.0000 0.0000 0.0000
# 2 44.3042 164.0515 20.0074 0.0000 0.0000 0.0000
# 3 17.8495 20.0074 37.4799 0.0000 0.0000 0.0000
# 4 0.0000 0.0000 0.0000 20.2129 0.0000 0.0000
# 5 0.0000 0.0000 0.0000 0.0000 -9.5420 0.0000
# 6 0.0000 0.0000 0.0000 0.0000 0.0000 52.9654
#
#
#
# Elastic Compliance Matrix: (Units=1/GPa)
#
#
# Indices 1 2 3 4 5 6 
#
# 1 0.013170 -0.002986 -0.004678 0.000000 0.000000 0.000000
# 2 -0.002986 0.007197 -0.002420 0.000000 0.000000 0.000000
# 3 -0.004678 -0.002420 0.030201 0.000000 0.000000 0.000000
# 4 0.000000 0.000000 0.000000 0.049473 0.000000 0.000000
# 5 0.000000 0.000000 0.000000 0.000000 -0.104799 0.000000
# 6 0.000000 0.000000 0.000000 0.000000 0.000000 0.018880
#
#
# Mechanical properties :
#
#
# Convention : Reuss Voigt Hill
#
# Bulk Modulus (GPa) = 32.89509 50.90771 41.90140
# Shear Modulus (GPa) = 112.55306 26.83964 69.69635
#
# Velocity S-wave (km/s) = 7.11680 3.47532 5.60029
# Velocity P-wave (km/s) = 9.07383 6.24597 7.78931
#
# Compressibility (1/GPa) = 0.03039968
#
# Stress axis : x y z
#
# Youngs Moduli (GPa) = 75.92979 138.94234 33.11192
#
# Poissons Ratio (x) = 0.41491 0.15490
# Poissons Ratio (y) = 0.22674 0.08013
# Poissons Ratio (z) = 0.35520 0.33622
#
# Static dielectric constant tensor:
#      x y z
#    x 1.934030 0.000000 0.000000 
#    y 0.000000 1.810180 0.000000 
#    z 0.000000 0.000000 2.004070 
# 
# From -- ./inp_files/12143.got.cif
#   From: 2010.05.17/outbox.cif.g08.bks.cpg/sg37_7_cif.got.tgz:12143.got - 2010.06.03 17:53:42.
