data_PCOD9354484
_publ_section_title
;
Structure prediction by ZEFSAII (Michael W. Deem and Ramdas Pophale) SiO2 
 PCOD9354484
Probable space group: C C C 2
;
_chemical_formula_sum "Si O2"
_cell_formula_units_Z 56
_cell_length_a 11.534593
_cell_length_b 18.126337
_cell_length_c 11.451396
_cell_angle_alpha 90.000000
_cell_angle_beta 90.000000
_cell_angle_gamma 90.000000
_cell_volume 2394.256958
_symmetry_space_group_name_H-M "C C C 2"
_symmetry_group_IT_number 37
_symmetry_cell_setting 'orthorhombic'
loop_
_space_group_symop_operation_xyz
x,y,z
-x,-y,z
-x,y,1/2+z
x,-y,1/2+z
1/2+x,1/2+y,z
1/2-x,1/2-y,z
1/2-x,1/2+y,1/2+z
1/2+x,1/2-y,1/2+z
loop_
_atom_site_type_symbol
_atom_site_label
_atom_site_fract_x
_atom_site_fract_y
_atom_site_fract_z
Si Si1 0.500000 0.500000 0.296741
Si Si2 0.884370 0.238604 0.714763
Si Si3 0.138927 0.445255 0.358345
Si Si4 0.433885 0.856974 0.279689
Si Si5 0.133777 0.476831 0.618159
Si Si6 0.582553 0.358548 0.165414
Si Si7 0.849663 0.869920 0.407075
Si Si8 0.250000 0.750000 0.310705
O O1 0.569898 0.439566 0.221114
O O2 0.415916 0.445002 0.368477
O O3 0.750000 0.250000 0.682352
O O4 0.898192 0.201492 0.842734
O O5 0.965475 0.309739 0.717821
O O6 0.954115 0.176045 0.642375
O O7 0.172708 0.483216 0.483052
O O8 0.176765 0.478756 0.232997
O O9 0.217288 0.372683 0.367236
O O10 0.004420 0.420094 0.350241
O O11 0.365852 0.894639 0.172141
O O12 0.343142 0.810502 0.358203
O O13 0.000000 0.500000 0.610843
O O14 0.658274 0.301907 0.241836
O O15 0.641492 0.364135 0.042491
#
# Coordination Sequence:
#
# PCOD9354484 Si02
#       8
#     4   8   8   8   8   8   8   4
#     4  10  24  44  64  96 140 180 246 300 358 434
#     4  10  21  42  66  96 137 179 233 287 356 442
#     4  11  23  40  70  98 137 181 236 290 363 428
#     4  10  21  39  66  94 139 180 232 286 358 435
#     4  10  22  41  63  99 135 178 228 290 352 426
#     4  10  23  42  69 100 139 188 237 301 368 447
#     4  11  23  39  68  96 133 188 232 295 356 441
#     4  10  22  38  66 100 140 188 236 298 368 448
#
# _framework density 23.389303000000002
#
# number of rings (size 3 to 8) (size 9 to 14) (size 15 to 20)
#    0.000    1.714    1.429    2.571    5.000    2.286 
#    0.000    0.000   22.000    0.000    0.000    0.000 
#    0.000    0.000    0.000    0.000    0.000    0.000 
#
# Total GULP energy -155952.016518 kJ/mol
# GULP energy per Si atom -5569.714876 kJ/mol
# Density = 2.333607 g / cm^3
# Si number density = 23.389303 Si / 1000 Ang^3
#
#
#
# Elastic Constant Matrix: (Units=GPa)
#
#
# Indices 1 2 3 4 5 6 
#
# 1 105.7979 23.2932 11.8954 0.0000 0.0000 0.0000
# 2 23.2932 100.6045 21.4617 0.0000 0.0000 0.0000
# 3 11.8954 21.4617 103.2122 0.0000 0.0000 0.0000
# 4 0.0000 0.0000 0.0000 104.4231 0.0000 0.0000
# 5 0.0000 0.0000 0.0000 0.0000 29.5020 0.0000
# 6 0.0000 0.0000 0.0000 0.0000 0.0000 68.9216
#
#
#
# Elastic Compliance Matrix: (Units=1/GPa)
#
#
# Indices 1 2 3 4 5 6 
#
# 1 0.010008 -0.002167 -0.000703 0.000000 0.000000 0.000000
# 2 -0.002167 0.010871 -0.002011 0.000000 0.000000 0.000000
# 3 -0.000703 -0.002011 0.010188 0.000000 0.000000 0.000000
# 4 0.000000 0.000000 0.000000 0.009576 0.000000 0.000000
# 5 0.000000 0.000000 0.000000 0.000000 0.033896 0.000000
# 6 0.000000 0.000000 0.000000 0.000000 0.000000 0.014509
#
#
# Mechanical properties :
#
#
# Convention : Reuss Voigt Hill
#
# Bulk Modulus (GPa) = 46.93683 46.99057 46.96370
# Shear Modulus (GPa) = 47.20922 57.43363 52.32142
#
# Velocity S-wave (km/s) = 4.49755 4.96073 4.73480
# Velocity P-wave (km/s) = 6.86162 7.27640 7.07205
#
# Compressibility (1/GPa) = 0.02130523
#
# Stress axis : x y z
#
# Youngs Moduli (GPa) = 99.91843 91.99099 98.15605
#
# Poissons Ratio (x) = 0.19937 0.06898
# Poissons Ratio (y) = 0.21655 0.19735
# Poissons Ratio (z) = 0.07022 0.18496
#
# Static dielectric constant tensor:
#      x y z
#    x 1.944690 0.000000 0.000000 
#    y 0.000000 1.976140 0.000000 
#    z 0.000000 0.000000 1.853150 
# 
# From -- ./inp_files/7326.got.cif
#   From: 2010.05.17/outbox.cif.g08.bks.cpg/sg37_4_cif.got.tgz:7326.got - 2010.06.03 17:53:42.
