data_PCOD9354065
_publ_section_title
;
Structure prediction by ZEFSAII (Michael W. Deem and Ramdas Pophale) SiO2 
 PCOD9354065
Probable space group: C C C 2
;
_chemical_formula_sum "Si O2"
_cell_formula_units_Z 56
_cell_length_a 15.650544
_cell_length_b 34.556079
_cell_length_c 5.173003
_cell_angle_alpha 90.000000
_cell_angle_beta 90.000000
_cell_angle_gamma 90.000000
_cell_volume 2797.670905
_symmetry_space_group_name_H-M "C C C 2"
_symmetry_group_IT_number 37
_symmetry_cell_setting 'orthorhombic'
loop_
_space_group_symop_operation_xyz
x,y,z
-x,-y,z
-x,y,1/2+z
x,-y,1/2+z
1/2+x,1/2+y,z
1/2-x,1/2-y,z
1/2-x,1/2+y,1/2+z
1/2+x,1/2-y,1/2+z
loop_
_atom_site_type_symbol
_atom_site_label
_atom_site_fract_x
_atom_site_fract_y
_atom_site_fract_z
Si Si1 0.097560 0.016024 0.224850
Si Si2 0.151070 0.898108 0.611888
Si Si3 0.808829 0.783853 0.454538
Si Si4 0.748989 0.869202 0.607018
Si Si5 0.448965 0.676917 0.613009
Si Si6 0.444008 0.857217 0.223369
Si Si7 0.055548 0.264882 0.753785
O O1 0.110999 0.059356 0.128043
O O2 0.137505 0.011185 0.506394
O O3 0.000000 0.000000 0.259726
O O4 0.196764 0.886584 0.344208
O O5 0.074413 0.867880 0.643254
O O6 0.217220 0.889316 0.844973
O O7 0.750000 0.750000 0.339568
O O8 0.766879 0.822732 0.573763
O O9 0.868586 0.800655 0.229077
O O10 0.862752 0.759219 0.663924
O O11 0.648732 0.874841 0.664499
O O12 0.475271 0.683846 0.318426
O O13 0.488878 0.866584 0.495440
O O14 0.428626 0.810755 0.230488
O O15 0.982159 0.257455 0.537688
#
# Coordination Sequence:
#
# PCOD9354065 Si02
#       7
#     8   8   8   8   8   8   8
#     4  10  22  38  64  95 127 167 212 239 295 365
#     4  11  24  40  64  92 131 165 206 264 301 382
#     4  11  22  40  56  82 113 163 219 271 326 384
#     4  11  23  41  59  91 124 168 205 273 333 366
#     4  11  24  40  59  81 118 161 214 258 321 368
#     4  10  20  37  59  85 113 157 206 264 319 381
#     4  10  21  37  56  75 107 146 207 270 312 361
#
# _framework density 20.016651
#
# number of rings (size 3 to 8) (size 9 to 14) (size 15 to 20)
#    0.000    1.429    1.429    4.286    4.000    2.286 
#    0.000    7.143    0.000    0.000    0.000    0.000 
#    0.000   40.000    0.000    0.000    0.000    0.000 
#
# Total GULP energy -156429.406897 kJ/mol
# GULP energy per Si atom -5586.764532 kJ/mol
# Density = 1.997109 g / cm^3
# Si number density = 20.016651 Si / 1000 Ang^3
#
#
#
# Elastic Constant Matrix: (Units=GPa)
#
#
# Indices 1 2 3 4 5 6 
#
# 1 70.2943 19.0749 9.6966 0.0000 0.0000 0.0000
# 2 19.0749 76.4684 -1.5467 0.0000 0.0000 0.0000
# 3 9.6966 -1.5467 110.5206 0.0000 0.0000 0.0000
# 4 0.0000 0.0000 0.0000 21.5552 0.0000 0.0000
# 5 0.0000 0.0000 0.0000 0.0000 19.9341 0.0000
# 6 0.0000 0.0000 0.0000 0.0000 0.0000 24.0959
#
#
#
# Elastic Compliance Matrix: (Units=1/GPa)
#
#
# Indices 1 2 3 4 5 6 
#
# 1 0.015476 -0.003889 -0.001412 0.000000 0.000000 0.000000
# 2 -0.003889 0.014058 0.000538 0.000000 0.000000 0.000000
# 3 -0.001412 0.000538 0.009180 0.000000 0.000000 0.000000
# 4 0.000000 0.000000 0.000000 0.046392 0.000000 0.000000
# 5 0.000000 0.000000 0.000000 0.000000 0.050165 0.000000
# 6 0.000000 0.000000 0.000000 0.000000 0.000000 0.041501
#
#
# Mechanical properties :
#
#
# Convention : Reuss Voigt Hill
#
# Bulk Modulus (GPa) = 34.26156 34.63698 34.44927
# Shear Modulus (GPa) = 25.50653 28.45427 26.98040
#
# Velocity S-wave (km/s) = 3.57356 3.77441 3.67536
# Velocity P-wave (km/s) = 5.84643 6.02798 5.93790
#
# Compressibility (1/GPa) = 0.02918723
#
# Stress axis : x y z
#
# Youngs Moduli (GPa) = 64.61605 71.13240 108.93820
#
# Poissons Ratio (x) = 0.27664 0.15384
# Poissons Ratio (y) = 0.25129 -0.05860
# Poissons Ratio (z) = 0.09125 -0.03827
#
# Static dielectric constant tensor:
#      x y z
#    x 1.643100 0.000000 0.000000 
#    y 0.000000 1.738440 0.000000 
#    z 0.000000 0.000000 1.744740 
# 
# From -- ./inp_files/628.got.cif
#   From: 2010.05.17/outbox.cif.g08.bks.cpg/sg37_1_cif.got.tgz:628.got - 2010.06.03 17:53:42.
