data_PCOD9354598
_publ_section_title
;
Structure prediction by ZEFSAII (Michael W. Deem and Ramdas Pophale) SiO2 
 PCOD9354598
Probable space group: C C C 2
;
_chemical_formula_sum "Si O2"
_cell_formula_units_Z 48
_cell_length_a 14.934611
_cell_length_b 9.039208
_cell_length_c 15.168114
_cell_angle_alpha 90.000000
_cell_angle_beta 90.000000
_cell_angle_gamma 90.000000
_cell_volume 2047.650723
_symmetry_space_group_name_H-M "C C C 2"
_symmetry_group_IT_number 37
_symmetry_cell_setting 'orthorhombic'
loop_
_space_group_symop_operation_xyz
x,y,z
-x,-y,z
-x,y,1/2+z
x,-y,1/2+z
1/2+x,1/2+y,z
1/2-x,1/2-y,z
1/2-x,1/2+y,1/2+z
1/2+x,1/2-y,1/2+z
loop_
_atom_site_type_symbol
_atom_site_label
_atom_site_fract_x
_atom_site_fract_y
_atom_site_fract_z
Si Si1 0.322794 0.515122 0.636370
Si Si2 0.099201 0.808022 0.374845
Si Si3 0.900800 0.691975 0.053224
Si Si4 0.322794 0.015119 0.791700
Si Si5 0.500000 0.000000 0.682135
Si Si6 0.250000 0.518981 0.964035
Si Si7 0.000000 0.000000 0.745935
O O1 0.342019 0.680500 0.599376
O O2 0.250000 0.500002 0.714035
O O3 0.300030 0.416221 0.550024
O O4 0.415468 0.485088 0.683661
O O5 0.055455 0.749998 0.464034
O O6 0.157981 0.680497 0.328692
O O7 0.172025 0.927305 0.411167
O O8 0.020853 0.865791 0.312428
O O9 0.979148 0.634209 0.115642
O O10 0.827976 0.572691 0.016902
O O11 0.300029 0.916218 0.878046
O O12 0.415468 0.985084 0.744410
#
# Coordination Sequence:
#
# PCOD9354598 Si02
#       7
#     8   8   8   8   4   8   4
#     4  11  22  40  66  95 129 170 229 282 344 419
#     4  10  22  41  66  97 132 184 231 280 351 426
#     4  10  22  41  66  97 132 184 231 280 351 426
#     4  11  22  40  66  95 129 170 229 282 344 419
#     4  12  24  38  70  98 134 176 234 290 352 412
#     4  10  21  42  68  85 128 185 224 274 354 419
#     4  12  24  38  70  98 134 176 234 290 352 412
#
# _framework density 23.441499
#
# number of rings (size 3 to 8) (size 9 to 14) (size 15 to 20)
#    0.000    1.333    3.333    5.500    0.000    5.333 
#    0.000    0.000    0.000    2.000    0.000    0.000 
#    0.000    0.000    0.000    0.000    0.000    0.000 
#
# Total GULP energy -133701.424359 kJ/mol
# GULP energy per Si atom -5570.892682 kJ/mol
# Density = 2.338814 g / cm^3
# Si number density = 23.441499 Si / 1000 Ang^3
#
#
#
# Elastic Constant Matrix: (Units=GPa)
#
#
# Indices 1 2 3 4 5 6 
#
# 1 120.2256 6.7370 90.3532 0.0000 0.0000 0.0000
# 2 6.7370 30.3342 30.1942 0.0000 0.0000 0.0000
# 3 90.3532 30.1942 238.7455 0.0000 0.0000 0.0000
# 4 0.0000 0.0000 0.0000 35.0477 0.0000 0.0000
# 5 0.0000 0.0000 0.0000 0.0000 27.3094 0.0000
# 6 0.0000 0.0000 0.0000 0.0000 0.0000 16.3817
#
#
#
# Elastic Compliance Matrix: (Units=1/GPa)
#
#
# Indices 1 2 3 4 5 6 
#
# 1 0.011737 0.002076 -0.004704 0.000000 0.000000 0.000000
# 2 0.002076 0.038081 -0.005602 0.000000 0.000000 0.000000
# 3 -0.004704 -0.005602 0.006677 0.000000 0.000000 0.000000
# 4 0.000000 0.000000 0.000000 0.028533 0.000000 0.000000
# 5 0.000000 0.000000 0.000000 0.000000 0.036617 0.000000
# 6 0.000000 0.000000 0.000000 0.000000 0.000000 0.061044
#
#
# Mechanical properties :
#
#
# Convention : Reuss Voigt Hill
#
# Bulk Modulus (GPa) = 24.97821 71.54155 48.25988
# Shear Modulus (GPa) = 23.53009 33.21583 28.37296
#
# Velocity S-wave (km/s) = 3.17168 3.76835 3.48282
# Velocity P-wave (km/s) = 4.90831 7.03700 6.06675
#
# Compressibility (1/GPa) = 0.04003489
#
# Stress axis : x y z
#
# Youngs Moduli (GPa) = 85.20189 26.25986 149.75938
#
# Poissons Ratio (x) = -0.05452 0.70452
# Poissons Ratio (y) = -0.17688 0.83892
# Poissons Ratio (z) = 0.40082 0.14710
#
# Static dielectric constant tensor:
#      x y z
#    x 1.903890 0.000000 0.000000 
#    y 0.000000 1.981440 0.000000 
#    z 0.000000 0.000000 1.936640 
# 
# From -- ./inp_files/12120.got.cif
#   From: 2010.05.17/outbox.cif.g08.bks.cpg/sg37_7_cif.got.tgz:12120.got - 2010.06.03 17:53:42.
