data_PCOD9354680
_publ_section_title
;
Structure prediction by ZEFSAII (Michael W. Deem and Ramdas Pophale) SiO2 
 PCOD9354680
Probable space group: C C C 2
;
_chemical_formula_sum "Si O2"
_cell_formula_units_Z 44
_cell_length_a 23.358829
_cell_length_b 4.933757
_cell_length_c 18.403834
_cell_angle_alpha 90.000000
_cell_angle_beta 90.000000
_cell_angle_gamma 90.000000
_cell_volume 2120.982720
_symmetry_space_group_name_H-M "C C C 2"
_symmetry_group_IT_number 37
_symmetry_cell_setting 'orthorhombic'
loop_
_space_group_symop_operation_xyz
x,y,z
-x,-y,z
-x,y,1/2+z
x,-y,1/2+z
1/2+x,1/2+y,z
1/2-x,1/2-y,z
1/2-x,1/2+y,1/2+z
1/2+x,1/2-y,1/2+z
loop_
_atom_site_type_symbol
_atom_site_label
_atom_site_fract_x
_atom_site_fract_y
_atom_site_fract_z
Si Si1 0.461748 0.751037 0.366670
Si Si2 0.872200 0.434536 0.482747
Si Si3 0.068097 0.032459 0.715167
Si Si4 0.799046 0.056145 0.984581
Si Si5 0.129696 0.458499 0.151584
Si Si6 0.750000 0.250000 0.619815
O O1 0.500000 0.500000 0.393116
O O2 0.424151 0.868650 0.431112
O O3 0.427616 0.634869 0.297903
O O4 0.500000 0.000000 0.338593
O O5 0.853295 0.746237 0.482007
O O6 0.882906 0.377639 0.567763
O O7 0.820355 0.235266 0.456863
O O8 0.104230 0.244733 0.666720
O O9 0.096193 0.742275 0.704175
O O10 0.000000 0.000000 0.698415
O O11 0.750000 0.250000 0.951565
O O12 0.777045 0.975030 0.065233
O O13 0.197672 0.397879 0.160406
#
# Coordination Sequence:
#
# PCOD9354680 Si02
#       6
#     8   8   8   8   8   4
#     4  11  24  45  64  85 126 174 210 256 328 390
#     4  11  23  36  65  97 119 162 212 267 306 373
#     4  11  24  42  64  88 126 172 212 261 327 380
#     4  11  18  36  60  92 125 163 202 247 314 391
#     4  11  22  38  67  95 127 158 217 268 306 389
#     4  10  22  36  66  94 136 174 204 254 342 382
#
# _framework density 20.745100999999998
#
# number of rings (size 3 to 8) (size 9 to 14) (size 15 to 20)
#    0.000    1.091    3.636    6.000    0.000    2.182 
#    0.000    0.000   12.000    0.000    0.000    0.000 
#    0.000    0.000    0.000    0.000    0.000    0.000 
#
# Total GULP energy -122726.484531 kJ/mol
# GULP energy per Si atom -5578.476570 kJ/mol
# Density = 2.069788 g / cm^3
# Si number density = 20.745101 Si / 1000 Ang^3
#
#
#
# Elastic Constant Matrix: (Units=GPa)
#
#
# Indices 1 2 3 4 5 6 
#
# 1 83.4798 15.6804 22.8584 0.0000 0.0000 0.0000
# 2 15.6804 114.5532 -3.4372 0.0000 0.0000 0.0000
# 3 22.8584 -3.4372 51.0349 0.0000 0.0000 0.0000
# 4 0.0000 0.0000 0.0000 10.9194 0.0000 0.0000
# 5 0.0000 0.0000 0.0000 0.0000 66.6508 0.0000
# 6 0.0000 0.0000 0.0000 0.0000 0.0000 51.9808
#
#
#
# Elastic Compliance Matrix: (Units=1/GPa)
#
#
# Indices 1 2 3 4 5 6 
#
# 1 0.014155 -0.002132 -0.006483 0.000000 0.000000 0.000000
# 2 -0.002132 0.009068 0.001566 0.000000 0.000000 0.000000
# 3 -0.006483 0.001566 0.022604 0.000000 0.000000 0.000000
# 4 0.000000 0.000000 0.000000 0.091580 0.000000 0.000000
# 5 0.000000 0.000000 0.000000 0.000000 0.015004 0.000000
# 6 0.000000 0.000000 0.000000 0.000000 0.000000 0.019238
#
#
# Mechanical properties :
#
#
# Convention : Reuss Voigt Hill
#
# Bulk Modulus (GPa) = 31.51862 35.47455 33.49659
# Shear Modulus (GPa) = 25.46815 40.17462 32.82138
#
# Velocity S-wave (km/s) = 3.50761 4.40544 3.98191
# Velocity P-wave (km/s) = 5.62412 6.55854 6.10922
#
# Compressibility (1/GPa) = 0.03172728
#
# Stress axis : x y z
#
# Youngs Moduli (GPa) = 70.64777 110.27311 44.24030
#
# Poissons Ratio (x) = 0.23511 0.28683
# Poissons Ratio (y) = 0.15063 -0.06927
# Poissons Ratio (z) = 0.45804 -0.17266
#
# Static dielectric constant tensor:
#      x y z
#    x 1.810990 0.000000 0.000000 
#    y 0.000000 1.755720 0.000000 
#    z 0.000000 0.000000 1.706530 
# 
# From -- ./inp_files/17406.got.cif
#   From: 2010.05.17/outbox.cif.g08.bks.cpg/sg37_9_cif.got.tgz:17406.got - 2010.06.03 17:53:42.
