data_PCOD9354269
_publ_section_title
;
Structure prediction by ZEFSAII (Michael W. Deem and Ramdas Pophale) SiO2 
 PCOD9354269
Probable space group: C C C 2
;
_chemical_formula_sum "Si O2"
_cell_formula_units_Z 56
_cell_length_a 5.337532
_cell_length_b 14.348274
_cell_length_c 32.995465
_cell_angle_alpha 90.000000
_cell_angle_beta 90.000000
_cell_angle_gamma 90.000000
_cell_volume 2526.936953
_symmetry_space_group_name_H-M "C C C 2"
_symmetry_group_IT_number 37
_symmetry_cell_setting 'orthorhombic'
loop_
_space_group_symop_operation_xyz
x,y,z
-x,-y,z
-x,y,1/2+z
x,-y,1/2+z
1/2+x,1/2+y,z
1/2-x,1/2-y,z
1/2-x,1/2+y,1/2+z
1/2+x,1/2-y,1/2+z
loop_
_atom_site_type_symbol
_atom_site_label
_atom_site_fract_x
_atom_site_fract_y
_atom_site_fract_z
Si Si1 0.250000 0.250000 0.352350
Si Si2 0.610409 0.598701 0.405297
Si Si3 0.000379 0.189106 0.487083
Si Si4 0.609170 0.147828 0.300688
Si Si5 0.498499 0.612582 0.077909
Si Si6 0.999565 0.688694 0.713803
Si Si7 0.000000 0.500000 0.859992
Si Si8 0.495817 0.888455 0.624378
O O1 0.442936 0.305267 0.381336
O O2 0.346858 0.172479 0.321606
O O3 0.500000 0.500000 0.392316
O O4 0.531505 0.614660 0.451232
O O5 0.897070 0.577983 0.391897
O O6 0.250000 0.250000 0.483019
O O7 0.001585 0.146886 0.531940
O O8 0.750000 0.250000 0.481550
O O9 0.750000 0.250000 0.302938
O O10 0.563170 0.127533 0.253573
O O11 0.679100 0.058764 0.328396
O O12 0.500000 0.500000 0.077423
O O13 0.751933 0.643924 0.099990
O O14 0.253088 0.643147 0.103003
O O15 0.750000 0.750000 0.708755
O O16 0.250000 0.750000 0.721831
O O17 0.031688 0.638031 0.671176
O O18 0.500000 0.000000 0.622023
#
# Coordination Sequence:
#
# PCOD9354269 Si02
#       8
#     4   8   8   8   8   8   4   8
#     4  10  20  42  62  90 130 172 222 282 330 406
#     4  11  24  41  67  97 131 178 227 279 344 405
#     4  12  27  44  68 101 136 175 225 284 343 407
#     4  10  21  39  64  92 134 173 226 280 336 398
#     4  10  22  44  65  96 129 179 217 276 337 409
#     4  11  23  39  64  98 132 175 218 274 337 398
#     4  10  24  42  68  98 128 186 234 272 358 402
#     4  10  22  40  67  93 135 171 222 272 336 398
#
# _framework density 22.16122
#
# number of rings (size 3 to 8) (size 9 to 14) (size 15 to 20)
#    0.000    1.429    1.429    3.000    3.000    4.000 
#    3.857    0.000    0.000    0.000    0.000    0.000 
#    0.000    0.000    0.000    0.000    0.000    0.000 
#
# Total GULP energy -156087.987584 kJ/mol
# GULP energy per Si atom -5574.570985 kJ/mol
# Density = 2.211078 g / cm^3
# Si number density = 22.161220 Si / 1000 Ang^3
#
#
#
# Elastic Constant Matrix: (Units=GPa)
#
#
# Indices 1 2 3 4 5 6 
#
# 1 114.7310 30.2160 45.2858 0.0000 0.0000 0.0000
# 2 30.2160 107.3323 47.8491 0.0000 0.0000 0.0000
# 3 45.2858 47.8491 187.3276 0.0000 0.0000 0.0000
# 4 0.0000 0.0000 0.0000 46.1063 0.0000 0.0000
# 5 0.0000 0.0000 0.0000 0.0000 24.2758 0.0000
# 6 0.0000 0.0000 0.0000 0.0000 0.0000 9.5528
#
#
#
# Elastic Compliance Matrix: (Units=1/GPa)
#
#
# Indices 1 2 3 4 5 6 
#
# 1 0.009987 -0.001958 -0.001914 0.000000 0.000000 0.000000
# 2 -0.001958 0.010898 -0.002310 0.000000 0.000000 0.000000
# 3 -0.001914 -0.002310 0.006391 0.000000 0.000000 0.000000
# 4 0.000000 0.000000 0.000000 0.021689 0.000000 0.000000
# 5 0.000000 0.000000 0.000000 0.000000 0.041193 0.000000
# 6 0.000000 0.000000 0.000000 0.000000 0.000000 0.104682
#
#
# Mechanical properties :
#
#
# Convention : Reuss Voigt Hill
#
# Bulk Modulus (GPa) = 67.06454 72.89920 69.98187
# Shear Modulus (GPa) = 23.56531 35.05631 29.31081
#
# Velocity S-wave (km/s) = 3.26445 3.98160 3.64073
# Velocity P-wave (km/s) = 6.67358 7.35553 7.02284
#
# Compressibility (1/GPa) = 0.01491101
#
# Stress axis : x y z
#
# Youngs Moduli (GPa) = 100.12681 91.75922 156.46726
#
# Poissons Ratio (x) = 0.17969 0.29951
# Poissons Ratio (y) = 0.19607 0.36149
# Poissons Ratio (z) = 0.19166 0.21199
#
# Static dielectric constant tensor:
#      x y z
#    x 1.984750 0.000000 0.000000 
#    y 0.000000 1.965600 0.000000 
#    z 0.000000 0.000000 1.784050 
# 
# From -- ./inp_files/20169.got.cif
#   From: 2010.05.17/outbox.cif.g08.bks.cpg/sg37_11_cif.got.tgz:20169.got - 2010.06.03 17:53:42.
