data_PCOD9354532
_publ_section_title
;
Structure prediction by ZEFSAII (Michael W. Deem and Ramdas Pophale) SiO2 
 PCOD9354532
Probable space group: C C C 2
;
_chemical_formula_sum "Si O2"
_cell_formula_units_Z 64
_cell_length_a 7.723839
_cell_length_b 23.267186
_cell_length_c 14.166556
_cell_angle_alpha 90.000000
_cell_angle_beta 90.000000
_cell_angle_gamma 90.000000
_cell_volume 2545.900093
_symmetry_space_group_name_H-M "C C C 2"
_symmetry_group_IT_number 37
_symmetry_cell_setting 'orthorhombic'
loop_
_space_group_symop_operation_xyz
x,y,z
-x,-y,z
-x,y,1/2+z
x,-y,1/2+z
1/2+x,1/2+y,z
1/2-x,1/2-y,z
1/2-x,1/2+y,1/2+z
1/2+x,1/2-y,1/2+z
loop_
_atom_site_type_symbol
_atom_site_label
_atom_site_fract_x
_atom_site_fract_y
_atom_site_fract_z
Si Si1 0.846100 0.623298 0.174200
Si Si2 0.553688 0.756284 0.202311
Si Si3 0.347265 0.546103 0.342027
Si Si4 0.976921 0.262426 0.478487
Si Si5 0.865589 0.563722 0.351630
Si Si6 0.175599 0.373750 0.956050
Si Si7 0.682110 0.656115 0.470952
Si Si8 0.070985 0.860002 0.186737
O O1 0.966966 0.675273 0.213654
O O2 0.879394 0.569735 0.239424
O O3 0.639302 0.634574 0.182900
O O4 0.874900 0.616839 0.064292
O O5 0.750000 0.750000 0.242053
O O6 0.418438 0.706004 0.226345
O O7 0.562905 0.750167 0.088246
O O8 0.500000 0.500000 0.330073
O O9 0.191544 0.501290 0.365663
O O10 0.346212 0.590627 0.429782
O O11 0.350820 0.589618 0.252186
O O12 0.144393 0.304567 0.476216
O O13 0.039827 0.202360 0.437207
O O14 0.830593 0.305380 0.439895
O O15 0.717657 0.604848 0.398161
O O16 0.030327 0.595798 0.394129
O O17 0.642435 0.637385 0.579320
#
# Coordination Sequence:
#
# PCOD9354532 Si02
#       8
#     8   8   8   8   8   8   8   8
#     4  10  21  42  71  98 137 184 234 290 365 422
#     4   8  16  34  63  93 131 172 223 288 352 428
#     4  12  26  45  65 102 145 185 246 292 338 423
#     4   8  16  38  64 101 132 173 235 287 362 440
#     4  11  24  45  68 103 143 186 241 300 337 432
#     4  10  24  44  71  98 139 188 238 300 363 418
#     4   9  19  37  71  99 138 182 227 291 368 425
#     4  10  21  40  67 101 137 185 227 293 361 419
#
# _framework density 25.138456999999999
#
# number of rings (size 3 to 8) (size 9 to 14) (size 15 to 20)
#    0.000    2.250    1.250    0.375    1.750    4.000 
#   13.500    1.250   16.500    0.000    0.000    0.000 
#    0.000    0.000    0.000    0.000    0.000    0.000 
#
# Total GULP energy -178592.863803 kJ/mol
# GULP energy per Si atom -5581.026994 kJ/mol
# Density = 2.508124 g / cm^3
# Si number density = 25.138457 Si / 1000 Ang^3
#
#
#
# Elastic Constant Matrix: (Units=GPa)
#
#
# Indices 1 2 3 4 5 6 
#
# 1 65.9249 16.7724 7.6820 0.0000 0.0000 0.0000
# 2 16.7724 199.8284 63.2246 0.0000 0.0000 0.0000
# 3 7.6820 63.2246 119.0637 0.0000 0.0000 0.0000
# 4 0.0000 0.0000 0.0000 39.3155 0.0000 0.0000
# 5 0.0000 0.0000 0.0000 0.0000 30.9087 0.0000
# 6 0.0000 0.0000 0.0000 0.0000 0.0000 35.5773
#
#
#
# Elastic Compliance Matrix: (Units=1/GPa)
#
#
# Indices 1 2 3 4 5 6 
#
# 1 0.015513 -0.001184 -0.000372 0.000000 0.000000 0.000000
# 2 -0.001184 0.006105 -0.003166 0.000000 0.000000 0.000000
# 3 -0.000372 -0.003166 0.010104 0.000000 0.000000 0.000000
# 4 0.000000 0.000000 0.000000 0.025435 0.000000 0.000000
# 5 0.000000 0.000000 0.000000 0.000000 0.032353 0.000000
# 6 0.000000 0.000000 0.000000 0.000000 0.000000 0.028108
#
#
# Mechanical properties :
#
#
# Convention : Reuss Voigt Hill
#
# Bulk Modulus (GPa) = 44.88611 62.24168 53.56390
# Shear Modulus (GPa) = 37.17772 40.96950 39.07361
#
# Velocity S-wave (km/s) = 3.84984 4.04140 3.94678
# Velocity P-wave (km/s) = 6.13645 6.82573 6.49025
#
# Compressibility (1/GPa) = 0.02227861
#
# Stress axis : x y z
#
# Youngs Moduli (GPa) = 64.46019 163.79281 98.97236
#
# Poissons Ratio (x) = 0.19400 0.03682
# Poissons Ratio (y) = 0.07635 0.31330
# Poissons Ratio (z) = 0.02398 0.51850
#
# Static dielectric constant tensor:
#      x y z
#    x 2.499250 0.000000 0.000000 
#    y 0.000000 1.964850 0.000000 
#    z 0.000000 0.000000 1.922920 
# 
# From -- ./inp_files/10981.got.cif
#   From: 2010.05.17/outbox.cif.g08.bks.cpg/sg37_6_cif.got.tgz:10981.got - 2010.06.03 17:53:42.
