data_PCOD9354663
_publ_section_title
;
Structure prediction by ZEFSAII (Michael W. Deem and Ramdas Pophale) SiO2 
 PCOD9354663
Probable space group: C C C 2
;
_chemical_formula_sum "Si O2"
_cell_formula_units_Z 24
_cell_length_a 17.823099
_cell_length_b 9.599906
_cell_length_c 5.355919
_cell_angle_alpha 90.000000
_cell_angle_beta 90.000000
_cell_angle_gamma 90.000000
_cell_volume 916.398143
_symmetry_space_group_name_H-M "C C C 2"
_symmetry_group_IT_number 37
_symmetry_cell_setting 'orthorhombic'
loop_
_space_group_symop_operation_xyz
x,y,z
-x,-y,z
-x,y,1/2+z
x,-y,1/2+z
1/2+x,1/2+y,z
1/2-x,1/2-y,z
1/2-x,1/2+y,1/2+z
1/2+x,1/2-y,1/2+z
loop_
_atom_site_type_symbol
_atom_site_label
_atom_site_fract_x
_atom_site_fract_y
_atom_site_fract_z
Si Si1 0.666041 0.069937 0.066680
Si Si2 0.968672 0.844112 0.113211
Si Si3 0.188851 0.151156 0.354505
O O1 0.757534 0.050690 0.019265
O O2 0.657813 0.235651 0.057728
O O3 0.636329 0.998115 0.312596
O O4 0.881942 0.871718 0.180688
O O5 0.990833 0.775152 0.851540
O O6 0.000000 0.000000 0.078463
O O7 0.250000 0.250000 0.213129
#
# Coordination Sequence:
#
# PCOD9354663 Si02
#       3
#     8   8   8
#     4   9  20  34  58  82 118 150 206 238 286 335
#     4  10  22  35  56  84 122 150 185 247 309 337
#     4   8  22  36  59  91 118 160 203 237 292 362
#
# _framework density 26.189488000000001
#
# number of rings (size 3 to 8) (size 9 to 14) (size 15 to 20)
#    2.000    0.667    0.000    0.000    9.333    8.000 
#    0.000    0.000    0.000    6.000    0.000    0.000 
#    0.000    0.000    0.000    0.000    0.000    0.000 
#
# Total GULP energy -66829.443233 kJ/mol
# GULP energy per Si atom -5569.120269 kJ/mol
# Density = 2.612988 g / cm^3
# Si number density = 26.189488 Si / 1000 Ang^3
#
#
#
# Elastic Constant Matrix: (Units=GPa)
#
#
# Indices 1 2 3 4 5 6 
#
# 1 137.3232 -9.3772 -1.1734 0.0000 0.0000 0.0000
# 2 -9.3772 19.8041 -2.2955 0.0000 0.0000 0.0000
# 3 -1.1734 -2.2955 176.9653 0.0000 0.0000 0.0000
# 4 0.0000 0.0000 0.0000 7.8280 0.0000 0.0000
# 5 0.0000 0.0000 0.0000 0.0000 -13.1923 0.0000
# 6 0.0000 0.0000 0.0000 0.0000 0.0000 31.3946
#
#
#
# Elastic Compliance Matrix: (Units=1/GPa)
#
#
# Indices 1 2 3 4 5 6 
#
# 1 0.007527 0.003575 0.000096 0.000000 0.000000 0.000000
# 2 0.003575 0.052269 0.000702 0.000000 0.000000 0.000000
# 3 0.000096 0.000702 0.005661 0.000000 0.000000 0.000000
# 4 0.000000 0.000000 0.000000 0.127747 0.000000 0.000000
# 5 0.000000 0.000000 0.000000 0.000000 -0.075802 0.000000
# 6 0.000000 0.000000 0.000000 0.000000 0.000000 0.031853
#
#
# Mechanical properties :
#
#
# Convention : Reuss Voigt Hill
#
# Bulk Modulus (GPa) = 13.47658 34.26671 23.87165
# Shear Modulus (GPa) = 30.25859 28.33531 29.29695
#
# Velocity S-wave (km/s) = 3.40276 3.29285 3.34826
# Velocity P-wave (km/s) = 4.53821 5.25068 4.90739
#
# Compressibility (1/GPa) = 0.07420282
#
# Stress axis : x y z
#
# Youngs Moduli (GPa) = 132.85424 19.13186 176.66081
#
# Poissons Ratio (x) = -0.06840 -0.01701
# Poissons Ratio (y) = -0.47498 -0.12396
# Poissons Ratio (z) = -0.01279 -0.01342
#
# Static dielectric constant tensor:
#      x y z
#    x 2.160420 0.000000 0.000000 
#    y 0.000000 2.515360 0.000000 
#    z 0.000000 0.000000 2.171980 
# 
# From -- ./inp_files/212.got.cif
#   From: 2010.05.17/outbox.cif.g08.bks.cpg/sg37_1_cif.got.tgz:212.got - 2010.06.03 17:53:42.
