data_PCOD9354665
_publ_section_title
;
Structure prediction by ZEFSAII (Michael W. Deem and Ramdas Pophale) SiO2 
 PCOD9354665
Probable space group: C C C 2
;
_chemical_formula_sum "Si O2"
_cell_formula_units_Z 64
_cell_length_a 10.874800
_cell_length_b 10.874864
_cell_length_c 28.322238
_cell_angle_alpha 90.000000
_cell_angle_beta 90.000000
_cell_angle_gamma 90.000000
_cell_volume 3349.443690
_symmetry_space_group_name_H-M "C C C 2"
_symmetry_group_IT_number 37
_symmetry_cell_setting 'orthorhombic'
loop_
_space_group_symop_operation_xyz
x,y,z
-x,-y,z
-x,y,1/2+z
x,-y,1/2+z
1/2+x,1/2+y,z
1/2-x,1/2-y,z
1/2-x,1/2+y,1/2+z
1/2+x,1/2-y,1/2+z
loop_
_atom_site_type_symbol
_atom_site_label
_atom_site_fract_x
_atom_site_fract_y
_atom_site_fract_z
Si Si1 0.196080 0.000561 0.191310
Si Si2 0.144830 0.644830 0.869895
Si Si3 0.500561 0.303920 0.691310
Si Si4 0.503552 0.295869 0.439886
Si Si5 0.897546 0.397546 0.760002
Si Si6 0.395974 0.104026 0.513224
Si Si7 0.204131 0.003552 0.939886
Si Si8 0.895494 0.604506 0.620729
O O1 0.282450 0.949468 0.150276
O O2 0.109605 0.890395 0.208724
O O3 0.107726 0.107726 0.172678
O O4 0.276271 0.055591 0.233547
O O5 0.250000 0.750000 0.873223
O O6 0.120142 0.620142 0.815407
O O7 0.200840 0.526284 0.897155
O O8 0.026284 0.700840 0.897155
O O9 0.555591 0.223729 0.733548
O O10 0.449468 0.217550 0.650276
O O11 0.456516 0.218602 0.485288
O O12 0.406767 0.406767 0.434245
O O13 0.637178 0.362822 0.442152
O O14 0.000000 0.500000 0.751320
O O15 0.281398 0.043484 0.485288
O O16 0.363509 0.136491 0.566964
O O17 0.500000 0.000000 0.514012
O O18 0.000000 0.500000 0.620171
#
# Coordination Sequence:
#
# PCOD9354665 Si02
#       8
#     8   8   8   8   8   8   8   8
#     4  11  23  39  61  85 114 156 200 248 305 361
#     4   9  19  35  57  85 117 156 196 242 298 360
#     4  11  23  39  61  85 114 156 200 248 305 361
#     4   9  19  38  61  85 117 157 200 245 295 351
#     4  12  23  39  60  86 122 155 194 251 307 358
#     4  10  22  36  57  87 120 156 194 239 301 353
#     4   9  19  38  61  85 117 157 200 245 295 351
#     4  11  22  40  60  84 119 159 198 249 303 362
#
# _framework density 19.107648999999999
#
# number of rings (size 3 to 8) (size 9 to 14) (size 15 to 20)
#    0.000    1.750    2.500    2.625    0.000    6.500 
#    0.000    7.500    0.000    0.000    0.000    0.000 
#    0.000    0.000    0.000    0.000    0.000    0.000 
#
# Total GULP energy -178564.585822 kJ/mol
# GULP energy per Si atom -5580.143307 kJ/mol
# Density = 1.906416 g / cm^3
# Si number density = 19.107649 Si / 1000 Ang^3
#
#
#
# Elastic Constant Matrix: (Units=GPa)
#
#
# Indices 1 2 3 4 5 6 
#
# 1 114.3592 73.5116 63.4668 0.0000 0.0000 0.0000
# 2 73.5116 114.3620 63.4676 0.0000 0.0000 0.0000
# 3 63.4668 63.4676 168.3347 0.0000 0.0000 0.0000
# 4 0.0000 0.0000 0.0000 26.3912 0.0000 0.0000
# 5 0.0000 0.0000 0.0000 0.0000 26.3890 0.0000
# 6 0.0000 0.0000 0.0000 0.0000 0.0000 41.4194
#
#
#
# Elastic Compliance Matrix: (Units=1/GPa)
#
#
# Indices 1 2 3 4 5 6 
#
# 1 0.015811 -0.008669 -0.002693 0.000000 0.000000 0.000000
# 2 -0.008669 0.015811 -0.002693 0.000000 0.000000 0.000000
# 3 -0.002693 -0.002693 0.007971 0.000000 0.000000 0.000000
# 4 0.000000 0.000000 0.000000 0.037891 0.000000 0.000000
# 5 0.000000 0.000000 0.000000 0.000000 0.037895 0.000000
# 6 0.000000 0.000000 0.000000 0.000000 0.000000 0.024143
#
#
# Mechanical properties :
#
#
# Convention : Reuss Voigt Hill
#
# Bulk Modulus (GPa) = 87.07651 88.66090 87.86870
# Shear Modulus (GPa) = 29.16125 31.94724 30.55425
#
# Velocity S-wave (km/s) = 3.91084 4.09340 4.00316
# Velocity P-wave (km/s) = 8.12794 8.29715 8.21298
#
# Compressibility (1/GPa) = 0.01148415
#
# Stress axis : x y z
#
# Youngs Moduli (GPa) = 63.24528 63.24684 125.45353
#
# Poissons Ratio (x) = 0.54829 0.33782
# Poissons Ratio (y) = 0.54828 0.33782
# Poissons Ratio (z) = 0.17031 0.17031
#
# Static dielectric constant tensor:
#      x y z
#    x 1.682330 0.000000 0.000000 
#    y 0.000000 1.682330 0.000000 
#    z 0.000000 0.000000 1.641210 
# 
# From -- ./inp_files/20439.got.cif
#   From: 2010.05.17/outbox.cif.g08.bks.cpg/sg37_11_cif.got.tgz:20439.got - 2010.06.03 17:53:42.
