data_PCOD9354719
_publ_section_title
;
Structure prediction by ZEFSAII (Michael W. Deem and Ramdas Pophale) SiO2 
 PCOD9354719
Probable space group: C C C 2
;
_chemical_formula_sum "Si O2"
_cell_formula_units_Z 40
_cell_length_a 5.414484
_cell_length_b 19.377038
_cell_length_c 18.005047
_cell_angle_alpha 90.000000
_cell_angle_beta 90.000000
_cell_angle_gamma 90.000000
_cell_volume 1889.029434
_symmetry_space_group_name_H-M "C C C 2"
_symmetry_group_IT_number 37
_symmetry_cell_setting 'orthorhombic'
loop_
_space_group_symop_operation_xyz
x,y,z
-x,-y,z
-x,y,1/2+z
x,-y,1/2+z
1/2+x,1/2+y,z
1/2-x,1/2-y,z
1/2-x,1/2+y,1/2+z
1/2+x,1/2-y,1/2+z
loop_
_atom_site_type_symbol
_atom_site_label
_atom_site_fract_x
_atom_site_fract_y
_atom_site_fract_z
Si Si1 0.750000 0.750000 0.122751
Si Si2 0.583879 0.188700 0.233652
Si Si3 0.249903 0.961052 0.205856
Si Si4 0.250018 0.039367 0.525925
Si Si5 0.568503 0.312191 0.990966
Si Si6 0.750000 0.250000 0.374179
O O1 0.645891 0.808832 0.178479
O O2 0.566800 0.709681 0.067300
O O3 0.750000 0.250000 0.199764
O O4 0.725228 0.117058 0.233492
O O5 0.552551 0.215835 0.317483
O O6 0.251840 0.958650 0.115913
O O7 0.500000 0.000000 0.229620
O O8 0.000000 0.000000 0.229180
O O9 0.217730 0.117403 0.498481
O O10 0.500000 0.000000 0.502391
O O11 0.000000 0.000000 0.503070
O O12 0.750000 0.250000 0.973299
O O13 0.364593 0.308628 0.926351
#
# Coordination Sequence:
#
# PCOD9354719 Si02
#       6
#     4   8   8   8   8   4
#     4  11  22  36  76 101 128 172 254 289 354 410
#     4  10  23  41  66  98 132 181 227 286 342 422
#     4  10  22  38  64 101 137 169 221 290 350 407
#     4  10  23  39  65 101 138 172 223 289 351 406
#     4  11  24  43  68  98 135 185 234 295 342 429
#     4   9  26  42  68  93 144 178 242 279 366 400
#
# _framework density 21.174894999999999
#
# number of rings (size 3 to 8) (size 9 to 14) (size 15 to 20)
#    0.600    1.200    0.000    3.000   18.200    0.000 
#    0.000    1.000    0.000    0.000    0.000    0.000 
#    0.000    0.000    0.000    0.000    0.000    0.000 
#
# Total GULP energy -111587.027214 kJ/mol
# GULP energy per Si atom -5579.351361 kJ/mol
# Density = 2.112670 g / cm^3
# Si number density = 21.174895 Si / 1000 Ang^3
#
#
#
# Elastic Constant Matrix: (Units=GPa)
#
#
# Indices 1 2 3 4 5 6 
#
# 1 109.4208 61.0459 40.3392 0.0000 0.0000 0.0000
# 2 61.0459 163.6307 20.1203 0.0000 0.0000 0.0000
# 3 40.3392 20.1203 97.1366 0.0000 0.0000 0.0000
# 4 0.0000 0.0000 0.0000 15.6467 0.0000 0.0000
# 5 0.0000 0.0000 0.0000 0.0000 12.7764 0.0000
# 6 0.0000 0.0000 0.0000 0.0000 0.0000 44.3209
#
#
#
# Elastic Compliance Matrix: (Units=1/GPa)
#
#
# Indices 1 2 3 4 5 6 
#
# 1 0.013288 -0.004391 -0.004609 0.000000 0.000000 0.000000
# 2 -0.004391 0.007722 0.000224 0.000000 0.000000 0.000000
# 3 -0.004609 0.000224 0.012162 0.000000 0.000000 0.000000
# 4 0.000000 0.000000 0.000000 0.063911 0.000000 0.000000
# 5 0.000000 0.000000 0.000000 0.000000 0.078270 0.000000
# 6 0.000000 0.000000 0.000000 0.000000 0.000000 0.022563
#
#
# Mechanical properties :
#
#
# Convention : Reuss Voigt Hill
#
# Bulk Modulus (GPa) = 64.01642 68.13321 66.07481
# Shear Modulus (GPa) = 22.65799 31.12763 26.89281
#
# Velocity S-wave (km/s) = 3.27470 3.83825 3.56762
# Velocity P-wave (km/s) = 6.67803 7.20341 6.94569
#
# Compressibility (1/GPa) = 0.01562099
#
# Stress axis : x y z
#
# Youngs Moduli (GPa) = 75.25847 129.50395 82.22115
#
# Poissons Ratio (x) = 0.56859 0.37893
# Poissons Ratio (y) = 0.33042 -0.01841
# Poissons Ratio (z) = 0.34684 -0.02899
#
# Static dielectric constant tensor:
#      x y z
#    x 1.820900 0.000000 0.000000 
#    y 0.000000 1.718390 0.000000 
#    z 0.000000 0.000000 1.733930 
# 
# From -- ./inp_files/13741.got.cif
#   From: 2010.05.17/outbox.cif.g08.bks.cpg/sg37_7_cif.got.tgz:13741.got - 2010.06.03 17:53:42.
