data_PCOD9354063
_publ_section_title
;
Structure prediction by ZEFSAII (Michael W. Deem and Ramdas Pophale) SiO2 
 PCOD9354063
Probable space group: C C C 2
;
_chemical_formula_sum "Si O2"
_cell_formula_units_Z 32
_cell_length_a 22.605721
_cell_length_b 10.595954
_cell_length_c 5.026885
_cell_angle_alpha 90.000000
_cell_angle_beta 90.000000
_cell_angle_gamma 90.000000
_cell_volume 1204.085641
_symmetry_space_group_name_H-M "C C C 2"
_symmetry_group_IT_number 37
_symmetry_cell_setting 'orthorhombic'
loop_
_space_group_symop_operation_xyz
x,y,z
-x,-y,z
-x,y,1/2+z
x,-y,1/2+z
1/2+x,1/2+y,z
1/2-x,1/2-y,z
1/2-x,1/2+y,1/2+z
1/2+x,1/2-y,1/2+z
loop_
_atom_site_type_symbol
_atom_site_label
_atom_site_fract_x
_atom_site_fract_y
_atom_site_fract_z
Si Si1 0.651303 0.444607 0.563920
Si Si2 0.777790 0.619648 0.909390
Si Si3 0.650470 0.819801 0.377516
Si Si4 0.476035 0.141891 0.629857
O O1 0.624829 0.451118 0.266514
O O2 0.719885 0.466602 0.459940
O O3 0.645746 0.316823 0.734809
O O4 0.750000 0.750000 0.016496
O O5 0.804835 0.665068 0.627529
O O6 0.826764 0.590001 0.136432
O O7 0.587461 0.856157 0.496886
O O8 0.479056 0.203071 0.919106
O O9 0.500000 0.000000 0.685101
#
# Coordination Sequence:
#
# PCOD9354063 Si02
#       4
#     8   8   8   8
#     4  11  22  38  58  95 133 164 219 276 324 420
#     4  10  20  37  58  89 125 169 217 255 327 413
#     4  11  21  39  65  83 125 183 207 270 353 383
#     4  10  22  42  61  88 122 157 224 283 326 397
#
# _framework density 26.576186
#
# number of rings (size 3 to 8) (size 9 to 14) (size 15 to 20)
#    0.000    1.500    0.000    8.250    0.000    0.000 
#   27.000    0.000    0.000    4.500    0.000    0.000 
#    0.000    0.000    0.000    0.000    0.000    0.000 
#
# Total GULP energy -89214.758242 kJ/mol
# GULP energy per Si atom -5575.922390 kJ/mol
# Density = 2.651570 g / cm^3
# Si number density = 26.576186 Si / 1000 Ang^3
#
#
#
# Elastic Constant Matrix: (Units=GPa)
#
#
# Indices 1 2 3 4 5 6 
#
# 1 71.6085 11.7140 -1.1988 0.0000 0.0000 0.0000
# 2 11.7140 50.3406 -1.3953 0.0000 0.0000 0.0000
# 3 -1.1988 -1.3953 212.7177 0.0000 0.0000 0.0000
# 4 0.0000 0.0000 0.0000 8.7553 0.0000 0.0000
# 5 0.0000 0.0000 0.0000 0.0000 42.6129 0.0000
# 6 0.0000 0.0000 0.0000 0.0000 0.0000 21.4607
#
#
#
# Elastic Compliance Matrix: (Units=1/GPa)
#
#
# Indices 1 2 3 4 5 6 
#
# 1 0.014518 -0.003377 0.000060 0.000000 0.000000 0.000000
# 2 -0.003377 0.020654 0.000116 0.000000 0.000000 0.000000
# 3 0.000060 0.000116 0.004702 0.000000 0.000000 0.000000
# 4 0.000000 0.000000 0.000000 0.114216 0.000000 0.000000
# 5 0.000000 0.000000 0.000000 0.000000 0.023467 0.000000
# 6 0.000000 0.000000 0.000000 0.000000 0.000000 0.046597
#
#
# Mechanical properties :
#
#
# Convention : Reuss Voigt Hill
#
# Bulk Modulus (GPa) = 29.87488 39.21183 34.54336
# Shear Modulus (GPa) = 20.68569 36.26890 28.47730
#
# Velocity S-wave (km/s) = 2.79293 3.69821 3.27698
# Velocity P-wave (km/s) = 4.65470 5.74650 5.22917
#
# Compressibility (1/GPa) = 0.03347293
#
# Stress axis : x y z
#
# Youngs Moduli (GPa) = 68.87912 48.41759 212.66791
#
# Poissons Ratio (x) = 0.16349 -0.01269
# Poissons Ratio (y) = 0.23258 -0.02476
# Poissons Ratio (z) = -0.00411 -0.00564
#
# Static dielectric constant tensor:
#      x y z
#    x 2.339050 0.000000 0.000000 
#    y 0.000000 2.876990 0.000000 
#    z 0.000000 0.000000 2.287610 
# 
# From -- ./inp_files/408.got.cif
#   From: 2010.05.17/outbox.cif.g08.bks.cpg/sg37_1_cif.got.tgz:408.got - 2010.06.03 17:53:42.
