data_PCOD9354448
_publ_section_title
;
Structure prediction by ZEFSAII (Michael W. Deem and Ramdas Pophale) SiO2 
 PCOD9354448
Probable space group: C C C 2
;
_chemical_formula_sum "Si O2"
_cell_formula_units_Z 40
_cell_length_a 15.856158
_cell_length_b 11.697443
_cell_length_c 8.077750
_cell_angle_alpha 90.000000
_cell_angle_beta 90.000000
_cell_angle_gamma 90.000000
_cell_volume 1498.232833
_symmetry_space_group_name_H-M "C C C 2"
_symmetry_group_IT_number 37
_symmetry_cell_setting 'orthorhombic'
loop_
_space_group_symop_operation_xyz
x,y,z
-x,-y,z
-x,y,1/2+z
x,-y,1/2+z
1/2+x,1/2+y,z
1/2-x,1/2-y,z
1/2-x,1/2+y,1/2+z
1/2+x,1/2-y,1/2+z
loop_
_atom_site_type_symbol
_atom_site_label
_atom_site_fract_x
_atom_site_fract_y
_atom_site_fract_z
Si Si1 0.878839 0.260506 0.668550
Si Si2 0.235641 0.435365 0.354834
Si Si3 0.954581 0.236759 0.033676
Si Si4 0.408644 0.503434 0.701309
Si Si5 0.308591 0.849334 0.217937
O O1 0.800254 0.343913 0.717175
O O2 0.919868 0.250176 0.850671
O O3 0.953850 0.295679 0.547543
O O4 0.882809 0.124958 0.616715
O O5 0.324883 0.496953 0.313800
O O6 0.176818 0.544345 0.336212
O O7 0.234103 0.384898 0.539310
O O8 0.930279 0.106137 0.087739
O O9 0.896924 0.302563 0.162437
O O10 0.500000 0.500000 0.793587
O O11 0.250000 0.750000 0.293035
#
# Coordination Sequence:
#
# PCOD9354448 Si02
#       5
#     8   8   8   8   8
#     4  10  23  41  67  99 139 183 233 293 357 423
#     4  11  23  43  69  98 137 188 226 292 362 425
#     4  10  22  42  66  97 138 181 231 292 354 416
#     4  10  21  38  67  97 131 180 233 289 351 412
#     4  11  23  45  69  94 139 181 231 292 356 431
#
# _framework density 26.698121
#
# number of rings (size 3 to 8) (size 9 to 14) (size 15 to 20)
#    0.000    1.600    2.000    3.000    0.000    9.600 
#    0.000    7.000    0.000    0.000    0.000    0.000 
#    0.000    0.000    0.000    0.000    0.000    0.000 
#
# Total GULP energy -111354.535297 kJ/mol
# GULP energy per Si atom -5567.726765 kJ/mol
# Density = 2.663735 g / cm^3
# Si number density = 26.698121 Si / 1000 Ang^3
#
#
#
# Elastic Constant Matrix: (Units=GPa)
#
#
# Indices 1 2 3 4 5 6 
#
# 1 117.9170 47.9826 36.0534 0.0000 0.0000 0.0000
# 2 47.9826 137.2859 33.5138 0.0000 0.0000 0.0000
# 3 36.0534 33.5138 80.5491 0.0000 0.0000 0.0000
# 4 0.0000 0.0000 0.0000 14.1285 0.0000 0.0000
# 5 0.0000 0.0000 0.0000 0.0000 -0.5351 0.0000
# 6 0.0000 0.0000 0.0000 0.0000 0.0000 27.1404
#
#
#
# Elastic Compliance Matrix: (Units=1/GPa)
#
#
# Indices 1 2 3 4 5 6 
#
# 1 0.010757 -0.002877 -0.003618 0.000000 0.000000 0.000000
# 2 -0.002877 0.008877 -0.002406 0.000000 0.000000 0.000000
# 3 -0.003618 -0.002406 0.015035 0.000000 0.000000 0.000000
# 4 0.000000 0.000000 0.000000 0.070779 0.000000 0.000000
# 5 0.000000 0.000000 0.000000 0.000000 -1.868744 0.000000
# 6 0.000000 0.000000 0.000000 0.000000 0.000000 0.036845
#
#
# Mechanical properties :
#
#
# Convention : Reuss Voigt Hill
#
# Bulk Modulus (GPa) = 59.28242 63.42795 61.35518
# Shear Modulus (GPa) = -2.93595 22.69358 9.87881
#
# Velocity S-wave (km/s) = -1.04980 2.91865 1.92567
# Velocity P-wave (km/s) = 4.55889 5.93018 5.28917
#
# Compressibility (1/GPa) = 0.01686841
#
# Stress axis : x y z
#
# Youngs Moduli (GPa) = 92.96018 112.65406 66.51060
#
# Poissons Ratio (x) = 0.32405 0.24064
# Poissons Ratio (y) = 0.26740 0.16001
# Poissons Ratio (z) = 0.33634 0.27102
#
# Static dielectric constant tensor:
#      x y z
#    x 2.505520 0.000000 0.000000 
#    y 0.000000 2.402920 0.000000 
#    z 0.000000 0.000000 2.180950 
# 
# From -- ./inp_files/3890.got.cif
#   From: 2010.05.17/outbox.cif.g08.bks.cpg/sg37_2_cif.got.tgz:3890.got - 2010.06.03 17:53:42.
