data_PCOD9354814
_publ_section_title
;
Structure prediction by ZEFSAII (Michael W. Deem and Ramdas Pophale) SiO2 
 PCOD9354814
Probable space group: C C C 2
;
_chemical_formula_sum "Si O2"
_cell_formula_units_Z 56
_cell_length_a 5.662415
_cell_length_b 14.279011
_cell_length_c 33.082336
_cell_angle_alpha 90.000000
_cell_angle_beta 90.000000
_cell_angle_gamma 90.000000
_cell_volume 2674.828809
_symmetry_space_group_name_H-M "C C C 2"
_symmetry_group_IT_number 37
_symmetry_cell_setting 'orthorhombic'
loop_
_space_group_symop_operation_xyz
x,y,z
-x,-y,z
-x,y,1/2+z
x,-y,1/2+z
1/2+x,1/2+y,z
1/2-x,1/2-y,z
1/2-x,1/2+y,1/2+z
1/2+x,1/2-y,1/2+z
loop_
_atom_site_type_symbol
_atom_site_label
_atom_site_fract_x
_atom_site_fract_y
_atom_site_fract_z
Si Si1 0.840058 0.856887 0.229110
Si Si2 0.498852 0.691131 0.146250
Si Si3 0.642609 0.353813 0.396428
Si Si4 0.500000 0.000000 0.935664
Si Si5 0.001017 0.194552 0.558154
Si Si6 0.880144 0.899242 0.473956
Si Si7 0.500000 0.000000 0.266611
Si Si8 0.341362 0.356825 0.807230
O O1 0.750000 0.750000 0.229410
O O2 0.980051 0.868666 0.187147
O O3 0.638577 0.931989 0.236131
O O4 0.988895 0.868254 0.269529
O O5 0.750000 0.750000 0.145777
O O6 0.502878 0.643216 0.101933
O O7 0.250000 0.750000 0.149460
O O8 0.750000 0.250000 0.394152
O O9 0.461944 0.347684 0.433475
O O10 0.548391 0.374113 0.351406
O O11 0.821656 0.438751 0.408189
O O12 0.608195 0.077812 0.966039
O O13 0.250000 0.250000 0.561070
O O14 0.037520 0.142891 0.515838
O O15 0.750000 0.250000 0.555516
O O16 0.000000 0.000000 0.472042
O O17 0.360046 0.931080 0.296639
O O18 0.250000 0.250000 0.806299
#
# Coordination Sequence:
#
# PCOD9354814 Si02
#       8
#     8   8   8   4   8   8   4   8
#     4  11  23  42  69  93 138 175 226 282 345 412
#     4   9  20  40  70  99 132 175 219 280 343 403
#     4  10  23  40  63  91 126 173 227 272 338 399
#     4  10  23  40  58  91 128 176 212 285 331 400
#     4  10  22  40  70 100 126 170 226 274 337 408
#     4  10  23  39  60  88 132 171 217 276 340 394
#     4  12  25  40  68 101 126 186 222 287 347 410
#     4  11  23  43  64  95 133 176 229 284 343 410
#
# _framework density 20.935918999999998
#
# number of rings (size 3 to 8) (size 9 to 14) (size 15 to 20)
#    0.000    1.714    1.429    1.714    8.000    4.571 
#    0.000    1.429    0.000    0.857    0.000    0.000 
#    0.000    0.000    0.000    0.000    0.000    0.000 
#
# Total GULP energy -155901.037248 kJ/mol
# GULP energy per Si atom -5567.894187 kJ/mol
# Density = 2.088827 g / cm^3
# Si number density = 20.935919 Si / 1000 Ang^3
#
#
#
# Elastic Constant Matrix: (Units=GPa)
#
#
# Indices 1 2 3 4 5 6 
#
# 1 71.2088 25.9971 46.2180 0.0000 0.0000 0.0000
# 2 25.9971 85.8274 44.4116 0.0000 0.0000 0.0000
# 3 46.2180 44.4116 243.0791 0.0000 0.0000 0.0000
# 4 0.0000 0.0000 0.0000 -155.2551 0.0000 0.0000
# 5 0.0000 0.0000 0.0000 0.0000 21.2631 0.0000
# 6 0.0000 0.0000 0.0000 0.0000 0.0000 26.4324
#
#
#
# Elastic Compliance Matrix: (Units=1/GPa)
#
#
# Indices 1 2 3 4 5 6 
#
# 1 0.017107 -0.003864 -0.002547 0.000000 0.000000 0.000000
# 2 -0.003864 0.013741 -0.001776 0.000000 0.000000 0.000000
# 3 -0.002547 -0.001776 0.004923 0.000000 0.000000 0.000000
# 4 0.000000 0.000000 0.000000 -0.006441 0.000000 0.000000
# 5 0.000000 0.000000 0.000000 0.000000 0.047030 0.000000
# 6 0.000000 0.000000 0.000000 0.000000 0.000000 0.037832
#
#
# Mechanical properties :
#
#
# Convention : Reuss Voigt Hill
#
# Bulk Modulus (GPa) = 51.55382 70.37430 60.96406
# Shear Modulus (GPa) = 36.48851 -2.61269 16.93791
#
# Velocity S-wave (km/s) = 4.17929 -1.11833 2.84744
# Velocity P-wave (km/s) = 6.92580 5.65858 6.32401
#
# Compressibility (1/GPa) = 0.01939720
#
# Stress axis : x y z
#
# Youngs Moduli (GPa) = 58.45642 72.77734 203.14693
#
# Poissons Ratio (x) = 0.28120 0.51735
# Poissons Ratio (y) = 0.22587 0.36075
# Poissons Ratio (z) = 0.14887 0.12924
#
# Static dielectric constant tensor:
#      x y z
#    x 1.888990 0.000000 0.000000 
#    y 0.000000 1.787870 0.000000 
#    z 0.000000 0.000000 1.799830 
# 
# From -- ./inp_files/20223.got.cif
#   From: 2010.05.17/outbox.cif.g08.bks.cpg/sg37_11_cif.got.tgz:20223.got - 2010.06.03 17:53:42.
