data_PCOD9354760
_publ_section_title
;
Structure prediction by ZEFSAII (Michael W. Deem and Ramdas Pophale) SiO2 
 PCOD9354760
Probable space group: C C C 2
;
_chemical_formula_sum "Si O2"
_cell_formula_units_Z 64
_cell_length_a 13.938505
_cell_length_b 8.467296
_cell_length_c 27.956029
_cell_angle_alpha 90.000000
_cell_angle_beta 90.000000
_cell_angle_gamma 90.000000
_cell_volume 3299.411013
_symmetry_space_group_name_H-M "C C C 2"
_symmetry_group_IT_number 37
_symmetry_cell_setting 'orthorhombic'
loop_
_space_group_symop_operation_xyz
x,y,z
-x,-y,z
-x,y,1/2+z
x,-y,1/2+z
1/2+x,1/2+y,z
1/2-x,1/2-y,z
1/2-x,1/2+y,1/2+z
1/2+x,1/2-y,1/2+z
loop_
_atom_site_type_symbol
_atom_site_label
_atom_site_fract_x
_atom_site_fract_y
_atom_site_fract_z
Si Si1 0.107481 0.068140 0.722430
Si Si2 0.925334 0.625924 0.541804
Si Si3 0.420895 0.363706 0.863949
Si Si4 0.898017 0.090806 0.111391
Si Si5 0.235656 0.924449 0.536937
Si Si6 0.942194 0.162545 0.471002
Si Si7 0.080247 0.377297 0.780822
Si Si8 0.269127 0.434851 0.306970
O O1 0.131154 0.076475 0.666523
O O2 0.109932 0.246926 0.742034
O O3 0.171379 0.959968 0.757511
O O4 0.000000 0.000000 0.726699
O O5 0.905721 0.738934 0.586612
O O6 0.829956 0.529551 0.524389
O O7 0.000000 0.500000 0.560438
O O8 0.987043 0.720603 0.500898
O O9 0.500000 0.500000 0.863403
O O10 0.418781 0.289023 0.916705
O O11 0.449996 0.231124 0.825757
O O12 0.326123 0.458343 0.846118
O O13 0.819269 0.014185 0.078026
O O14 0.000000 0.000000 0.105518
O O15 0.250000 0.750000 0.557276
O O16 0.159069 0.884036 0.495246
O O17 0.000000 0.000000 0.469190
O O18 0.169216 0.479864 0.797962
O O19 0.000000 0.500000 0.764400
O O20 0.250000 0.250000 0.318236
#
# Coordination Sequence:
#
# PCOD9354760 Si02
#       8
#     8   8   8   8   8   8   8   8
#     4  10  22  39  66  94 126 168 204 263 317 377
#     4  12  23  41  64  89 125 171 210 270 325 376
#     4  10  22  41  64  90 123 162 202 263 315 380
#     4  11  22  42  65  92 130 164 217 262 322 388
#     4  12  23  40  65  88 126 167 212 267 320 382
#     4  11  23  44  63  91 130 161 218 266 322 390
#     4  11  22  40  64  90 130 164 207 260 314 373
#     4  11  22  41  64  92 130 165 211 258 315 382
#
# _framework density 19.397400999999999
#
# number of rings (size 3 to 8) (size 9 to 14) (size 15 to 20)
#    0.000    1.000    3.750    4.875    0.000    4.500 
#    6.750    0.000    0.000    0.000    0.000    0.000 
#    0.000    0.000    0.000    0.000    0.000    0.000 
#
# Total GULP energy -178430.990635 kJ/mol
# GULP energy per Si atom -5575.968457 kJ/mol
# Density = 1.935325 g / cm^3
# Si number density = 19.397401 Si / 1000 Ang^3
#
#
#
# Elastic Constant Matrix: (Units=GPa)
#
#
# Indices 1 2 3 4 5 6 
#
# 1 74.5960 3.0428 4.6423 0.0000 0.0000 0.0000
# 2 3.0428 86.9008 2.8782 0.0000 0.0000 0.0000
# 3 4.6423 2.8782 82.1489 0.0000 0.0000 0.0000
# 4 0.0000 0.0000 0.0000 -17.4369 0.0000 0.0000
# 5 0.0000 0.0000 0.0000 0.0000 23.8353 0.0000
# 6 0.0000 0.0000 0.0000 0.0000 0.0000 47.9988
#
#
#
# Elastic Compliance Matrix: (Units=1/GPa)
#
#
# Indices 1 2 3 4 5 6 
#
# 1 0.013470 -0.000447 -0.000746 0.000000 0.000000 0.000000
# 2 -0.000447 0.011536 -0.000379 0.000000 0.000000 0.000000
# 3 -0.000746 -0.000379 0.012228 0.000000 0.000000 0.000000
# 4 0.000000 0.000000 0.000000 -0.057350 0.000000 0.000000
# 5 0.000000 0.000000 0.000000 0.000000 0.041955 0.000000
# 6 0.000000 0.000000 0.000000 0.000000 0.000000 0.020834
#
#
# Mechanical properties :
#
#
# Convention : Reuss Voigt Hill
#
# Bulk Modulus (GPa) = 29.33297 29.41915 29.37606
# Shear Modulus (GPa) = 87.44359 26.41826 56.93093
#
# Velocity S-wave (km/s) = 6.72145 3.69446 5.42342
# Velocity P-wave (km/s) = 8.68287 5.77912 7.37531
#
# Compressibility (1/GPa) = 0.03409133
#
# Stress axis : x y z
#
# Youngs Moduli (GPa) = 74.23810 86.68840 81.77669
#
# Poissons Ratio (x) = 0.03875 0.06097
# Poissons Ratio (y) = 0.03318 0.03099
# Poissons Ratio (z) = 0.05535 0.03285
#
# Static dielectric constant tensor:
#      x y z
#    x 1.707170 0.000000 0.000000 
#    y 0.000000 1.553580 0.000000 
#    z 0.000000 0.000000 1.700430 
# 
# From -- ./inp_files/20403.got.cif
#   From: 2010.05.17/outbox.cif.g08.bks.cpg/sg37_11_cif.got.tgz:20403.got - 2010.06.03 17:53:42.
