data_PCOD9354410
_publ_section_title
;
Structure prediction by ZEFSAII (Michael W. Deem and Ramdas Pophale) SiO2 
 PCOD9354410
Probable space group: C C C 2
;
_chemical_formula_sum "Si O2"
_cell_formula_units_Z 64
_cell_length_a 31.193146
_cell_length_b 8.555248
_cell_length_c 12.089025
_cell_angle_alpha 90.000000
_cell_angle_beta 90.000000
_cell_angle_gamma 90.000000
_cell_volume 3226.138865
_symmetry_space_group_name_H-M "C C C 2"
_symmetry_group_IT_number 37
_symmetry_cell_setting 'orthorhombic'
loop_
_space_group_symop_operation_xyz
x,y,z
-x,-y,z
-x,y,1/2+z
x,-y,1/2+z
1/2+x,1/2+y,z
1/2-x,1/2-y,z
1/2-x,1/2+y,1/2+z
1/2+x,1/2-y,1/2+z
loop_
_atom_site_type_symbol
_atom_site_label
_atom_site_fract_x
_atom_site_fract_y
_atom_site_fract_z
Si Si1 0.077014 0.909636 0.796040
Si Si2 0.199654 0.281744 0.225179
Si Si3 0.852217 0.217418 0.944071
Si Si4 0.495951 0.681267 0.646119
Si Si5 0.924714 0.267301 0.280541
Si Si6 0.075697 0.652955 0.510735
Si Si7 0.139482 0.558149 0.141739
Si Si8 0.138658 0.093498 0.081045
O O1 0.101578 0.802924 0.883957
O O2 0.032818 0.835114 0.756924
O O3 0.106458 0.925875 0.685439
O O4 0.071032 0.090195 0.828054
O O5 0.250000 0.250000 0.226767
O O6 0.180782 0.232758 0.344052
O O7 0.176334 0.447788 0.194129
O O8 0.180631 0.169165 0.131598
O O9 0.846371 0.358374 0.028911
O O10 0.849903 0.060892 0.015859
O O11 0.500000 0.500000 0.606829
O O12 0.540316 0.759369 0.681918
O O13 0.467958 0.778954 0.560559
O O14 0.932183 0.386489 0.382283
O O15 0.879233 0.314428 0.227151
O O16 0.097600 0.538947 0.600499
O O17 0.113467 0.783381 0.505861
#
# Coordination Sequence:
#
# PCOD9354410 Si02
#       8
#     8   8   8   8   8   8   8   8
#     4   9  18  35  58  91 118 159 213 266 294 363
#     4  10  24  43  61  93 133 154 199 266 324 390
#     4  11  20  38  71  90 117 169 216 249 325 384
#     4   9  21  35  55  88 127 165 217 269 311 357
#     4  11  20  36  60  85 122 165 218 260 310 370
#     4  10  21  38  56  85 123 165 211 260 322 365
#     4  11  24  40  63  92 124 168 204 264 326 391
#     4   9  18  37  63  86 116 159 207 251 303 381
#
# _framework density 19.837955000000001
#
# number of rings (size 3 to 8) (size 9 to 14) (size 15 to 20)
#    0.000    2.000    2.500    1.500    0.000    4.000 
#    0.000    1.250    0.000    0.000    0.000    0.000 
#    0.000    0.000    0.000    0.000    0.000    0.000 
#
# Total GULP energy -178331.498958 kJ/mol
# GULP energy per Si atom -5572.859342 kJ/mol
# Density = 1.979280 g / cm^3
# Si number density = 19.837955 Si / 1000 Ang^3
#
#
#
# Elastic Constant Matrix: (Units=GPa)
#
#
# Indices 1 2 3 4 5 6 
#
# 1 89.0701 23.4357 9.6702 0.0000 0.0000 0.0000
# 2 23.4357 55.3227 12.3348 0.0000 0.0000 0.0000
# 3 9.6702 12.3348 64.7011 0.0000 0.0000 0.0000
# 4 0.0000 0.0000 0.0000 19.9063 0.0000 0.0000
# 5 0.0000 0.0000 0.0000 0.0000 9.1029 0.0000
# 6 0.0000 0.0000 0.0000 0.0000 0.0000 19.2745
#
#
#
# Elastic Compliance Matrix: (Units=1/GPa)
#
#
# Indices 1 2 3 4 5 6 
#
# 1 0.012687 -0.005171 -0.000910 0.000000 0.000000 0.000000
# 2 -0.005171 0.020986 -0.003228 0.000000 0.000000 0.000000
# 3 -0.000910 -0.003228 0.016207 0.000000 0.000000 0.000000
# 4 0.000000 0.000000 0.000000 0.050235 0.000000 0.000000
# 5 0.000000 0.000000 0.000000 0.000000 0.109855 0.000000
# 6 0.000000 0.000000 0.000000 0.000000 0.000000 0.051882
#
#
# Mechanical properties :
#
#
# Convention : Reuss Voigt Hill
#
# Bulk Modulus (GPa) = 31.98895 33.33057 32.65976
# Shear Modulus (GPa) = 17.18855 20.56697 18.87776
#
# Velocity S-wave (km/s) = 2.94674 3.22335 3.08814
# Velocity P-wave (km/s) = 5.26667 5.53996 5.40505
#
# Compressibility (1/GPa) = 0.03126080
#
# Stress axis : x y z
#
# Youngs Moduli (GPa) = 78.82336 47.65050 61.70123
#
# Poissons Ratio (x) = 0.24642 0.05616
# Poissons Ratio (y) = 0.40762 0.19917
# Poissons Ratio (z) = 0.07175 0.15381
#
# Static dielectric constant tensor:
#      x y z
#    x 1.690910 0.000000 0.000000 
#    y 0.000000 1.769960 0.000000 
#    z 0.000000 0.000000 1.735100 
# 
# From -- ./inp_files/6622.got.cif
#   From: 2010.05.17/outbox.cif.g08.bks.cpg/sg37_4_cif.got.tgz:6622.got - 2010.06.03 17:53:42.
