data_PCOD9354240
_publ_section_title
;
Structure prediction by ZEFSAII (Michael W. Deem and Ramdas Pophale) SiO2 
 PCOD9354240
Probable space group: C C C 2
;
_chemical_formula_sum "Si O2"
_cell_formula_units_Z 48
_cell_length_a 11.322433
_cell_length_b 8.962422
_cell_length_c 21.476479
_cell_angle_alpha 90.000000
_cell_angle_beta 90.000000
_cell_angle_gamma 90.000000
_cell_volume 2179.356259
_symmetry_space_group_name_H-M "C C C 2"
_symmetry_group_IT_number 37
_symmetry_cell_setting 'orthorhombic'
loop_
_space_group_symop_operation_xyz
x,y,z
-x,-y,z
-x,y,1/2+z
x,-y,1/2+z
1/2+x,1/2+y,z
1/2-x,1/2-y,z
1/2-x,1/2+y,1/2+z
1/2+x,1/2-y,1/2+z
loop_
_atom_site_type_symbol
_atom_site_label
_atom_site_fract_x
_atom_site_fract_y
_atom_site_fract_z
Si Si1 0.187425 0.104097 0.348660
Si Si2 0.631895 0.067686 0.262577
Si Si3 0.142117 0.635427 0.648483
Si Si4 0.620267 0.566692 0.968313
Si Si5 0.497770 0.330033 0.241032
Si Si6 0.385094 0.910721 0.504122
O O1 0.250000 0.250000 0.377234
O O2 0.097460 0.166909 0.296714
O O3 0.282782 0.003797 0.312946
O O4 0.125449 0.002292 0.399494
O O5 0.614612 0.245828 0.264374
O O6 0.500000 0.000000 0.274671
O O7 0.668995 0.002680 0.194647
O O8 0.250000 0.750000 0.646016
O O9 0.041988 0.727847 0.684076
O O10 0.106705 0.598659 0.578856
O O11 0.500000 0.500000 0.998586
O O12 0.611495 0.745192 0.974491
O O13 0.752179 0.527172 0.993164
O O14 0.500000 0.500000 0.220574
O O15 0.500000 0.000000 0.480615
#
# Coordination Sequence:
#
# PCOD9354240 Si02
#       6
#     8   8   8   8   8   8
#     4  12  23  42  68  99 148 194 242 308 365 444
#     4  10  20  40  71 103 135 190 234 287 381 438
#     4  11  19  46  74 101 139 184 240 304 373 441
#     4  11  28  46  70 106 144 193 255 304 363 440
#     4  11  23  38  66 107 144 181 235 307 370 448
#     4  11  26  51  78 103 144 198 254 312 368 437
#
# _framework density 22.024854000000001
#
# number of rings (size 3 to 8) (size 9 to 14) (size 15 to 20)
#    0.000    1.000    6.667    2.000    2.333    7.333 
#    0.000    0.000    3.667    0.000    0.000    0.000 
#    0.000    0.000    0.000    0.000    0.000    0.000 
#
# Total GULP energy -134052.668291 kJ/mol
# GULP energy per Si atom -5585.527845 kJ/mol
# Density = 2.197472 g / cm^3
# Si number density = 22.024854 Si / 1000 Ang^3
#
#
#
# Elastic Constant Matrix: (Units=GPa)
#
#
# Indices 1 2 3 4 5 6 
#
# 1 158.9252 62.8560 36.0048 0.0000 0.0000 0.0000
# 2 62.8560 107.8176 31.5513 0.0000 0.0000 0.0000
# 3 36.0048 31.5513 80.7158 0.0000 0.0000 0.0000
# 4 0.0000 0.0000 0.0000 27.3400 0.0000 0.0000
# 5 0.0000 0.0000 0.0000 0.0000 68.5190 0.0000
# 6 0.0000 0.0000 0.0000 0.0000 0.0000 49.7710
#
#
#
# Elastic Compliance Matrix: (Units=1/GPa)
#
#
# Indices 1 2 3 4 5 6 
#
# 1 0.008479 -0.004332 -0.002089 0.000000 0.000000 0.000000
# 2 -0.004332 0.012686 -0.003027 0.000000 0.000000 0.000000
# 3 -0.002089 -0.003027 0.014504 0.000000 0.000000 0.000000
# 4 0.000000 0.000000 0.000000 0.036576 0.000000 0.000000
# 5 0.000000 0.000000 0.000000 0.000000 0.014594 0.000000
# 6 0.000000 0.000000 0.000000 0.000000 0.000000 0.020092
#
#
# Mechanical properties :
#
#
# Convention : Reuss Voigt Hill
#
# Bulk Modulus (GPa) = 59.61492 67.58696 63.60094
# Shear Modulus (GPa) = 38.04670 43.59576 40.82123
#
# Velocity S-wave (km/s) = 4.16076 4.45386 4.30980
# Velocity P-wave (km/s) = 7.08579 7.56323 7.32840
#
# Compressibility (1/GPa) = 0.01677432
#
# Stress axis : x y z
#
# Youngs Moduli (GPa) = 117.94244 78.82748 68.94644
#
# Poissons Ratio (x) = 0.34146 0.14402
# Poissons Ratio (y) = 0.51089 0.20868
# Poissons Ratio (z) = 0.24637 0.23858
#
# Static dielectric constant tensor:
#      x y z
#    x 1.924880 0.000000 0.000000 
#    y 0.000000 1.831930 0.000000 
#    z 0.000000 0.000000 1.794990 
# 
# From -- ./inp_files/18651.got.cif
#   From: 2010.05.17/outbox.cif.g08.bks.cpg/sg37_10_cif.got.tgz:18651.got - 2010.06.03 17:53:42.
