data_PCOD9354722
_publ_section_title
;
Structure prediction by ZEFSAII (Michael W. Deem and Ramdas Pophale) SiO2 
 PCOD9354722
Probable space group: C C C 2
;
_chemical_formula_sum "Si O2"
_cell_formula_units_Z 52
_cell_length_a 13.500651
_cell_length_b 19.920414
_cell_length_c 8.054534
_cell_angle_alpha 90.000000
_cell_angle_beta 90.000000
_cell_angle_gamma 90.000000
_cell_volume 2166.174753
_symmetry_space_group_name_H-M "C C C 2"
_symmetry_group_IT_number 37
_symmetry_cell_setting 'orthorhombic'
loop_
_space_group_symop_operation_xyz
x,y,z
-x,-y,z
-x,y,1/2+z
x,-y,1/2+z
1/2+x,1/2+y,z
1/2-x,1/2-y,z
1/2-x,1/2+y,1/2+z
1/2+x,1/2-y,1/2+z
loop_
_atom_site_type_symbol
_atom_site_label
_atom_site_fract_x
_atom_site_fract_y
_atom_site_fract_z
Si Si1 0.045012 0.193272 0.869540
Si Si2 0.106656 0.413663 0.777066
Si Si3 0.500000 0.500000 0.047300
Si Si4 0.898131 0.919587 0.298652
Si Si5 0.000000 0.500000 0.531714
Si Si6 0.727773 0.624379 0.039891
Si Si7 0.415599 0.221586 0.562345
Si Si8 0.250000 0.750000 0.783305
O O1 0.124122 0.145779 0.955384
O O2 0.091520 0.219219 0.699010
O O3 0.940135 0.152725 0.854020
O O4 0.020430 0.259642 0.977023
O O5 0.201936 0.400513 0.893442
O O6 0.089751 0.347126 0.666190
O O7 0.091744 0.475233 0.646293
O O8 0.026843 0.436740 0.915790
O O9 0.482746 0.438950 0.168015
O O10 0.591679 0.476139 0.937146
O O11 0.799142 0.924817 0.192942
O O12 0.754922 0.689113 0.150399
O O13 0.335485 0.227877 0.415793
#
# Coordination Sequence:
#
# PCOD9354722 Si02
#       8
#     8   8   4   8   4   8   8   4
#     4  12  22  43  72 103 147 187 233 303 391 440
#     4  11  26  48  78 107 142 196 259 311 368 448
#     4  10  22  38  64  96 132 196 236 262 348 438
#     4  11  21  41  64  98 144 187 227 287 346 435
#     4  10  26  54  76 104 150 202 254 310 374 424
#     4  12  25  44  69 109 143 186 251 306 367 443
#     4  12  23  42  71 106 142 197 236 309 383 451
#     4  12  26  42  64 108 156 184 246 310 374 448
#
# _framework density 24.00545
#
# number of rings (size 3 to 8) (size 9 to 14) (size 15 to 20)
#    0.000    0.615    4.615    2.769    0.000    4.923 
#    0.000    0.000    0.000    0.000    0.000    0.000 
#    0.000    0.000    0.000    0.000    0.000    0.000 
#
# Total GULP energy -144814.888092 kJ/mol
# GULP energy per Si atom -5569.803388 kJ/mol
# Density = 2.395081 g / cm^3
# Si number density = 24.005450 Si / 1000 Ang^3
#
#
#
# Elastic Constant Matrix: (Units=GPa)
#
#
# Indices 1 2 3 4 5 6 
#
# 1 61.3684 20.8276 27.1858 0.0000 0.0000 0.0000
# 2 20.8276 93.3553 48.3079 0.0000 0.0000 0.0000
# 3 27.1858 48.3079 116.8845 0.0000 0.0000 0.0000
# 4 0.0000 0.0000 0.0000 42.2882 0.0000 0.0000
# 5 0.0000 0.0000 0.0000 0.0000 -116.0344 0.0000
# 6 0.0000 0.0000 0.0000 0.0000 0.0000 18.4395
#
#
#
# Elastic Compliance Matrix: (Units=1/GPa)
#
#
# Indices 1 2 3 4 5 6 
#
# 1 0.018590 -0.002430 -0.003320 0.000000 0.000000 0.000000
# 2 -0.002430 0.013943 -0.005198 0.000000 0.000000 0.000000
# 3 -0.003320 -0.005198 0.011476 0.000000 0.000000 0.000000
# 4 0.000000 0.000000 0.000000 0.023647 0.000000 0.000000
# 5 0.000000 0.000000 0.000000 0.000000 -0.008618 0.000000
# 6 0.000000 0.000000 0.000000 0.000000 0.000000 0.054231
#
#
# Mechanical properties :
#
#
# Convention : Reuss Voigt Hill
#
# Bulk Modulus (GPa) = 45.21738 51.58341 48.40039
# Shear Modulus (GPa) = 35.07895 0.62446 17.85170
#
# Velocity S-wave (km/s) = 3.82683 0.51058 2.72996
# Velocity P-wave (km/s) = 6.19705 4.67787 5.49026
#
# Compressibility (1/GPa) = 0.02211539
#
# Stress axis : x y z
#
# Youngs Moduli (GPa) = 53.79176 71.71841 87.14044
#
# Poissons Ratio (x) = 0.17425 0.28928
# Poissons Ratio (y) = 0.13070 0.45293
# Poissons Ratio (z) = 0.17857 0.37277
#
# Static dielectric constant tensor:
#      x y z
#    x 1.967460 0.000000 0.000000 
#    y 0.000000 1.983820 0.000000 
#    z 0.000000 0.000000 1.968730 
# 
# From -- ./inp_files/3627.got.cif
#   From: 2010.05.17/outbox.cif.g08.bks.cpg/sg37_2_cif.got.tgz:3627.got - 2010.06.03 17:53:42.
