data_PCOD9354127
_publ_section_title
;
Structure prediction by ZEFSAII (Michael W. Deem and Ramdas Pophale) SiO2 
 PCOD9354127
Probable space group: C C C 2
;
_chemical_formula_sum "Si O2"
_cell_formula_units_Z 32
_cell_length_a 13.737924
_cell_length_b 9.502735
_cell_length_c 9.441658
_cell_angle_alpha 90.000000
_cell_angle_beta 90.000000
_cell_angle_gamma 90.000000
_cell_volume 1232.588164
_symmetry_space_group_name_H-M "C C C 2"
_symmetry_group_IT_number 37
_symmetry_cell_setting 'orthorhombic'
loop_
_space_group_symop_operation_xyz
x,y,z
-x,-y,z
-x,y,1/2+z
x,-y,1/2+z
1/2+x,1/2+y,z
1/2-x,1/2-y,z
1/2-x,1/2+y,1/2+z
1/2+x,1/2-y,1/2+z
loop_
_atom_site_type_symbol
_atom_site_label
_atom_site_fract_x
_atom_site_fract_y
_atom_site_fract_z
Si Si1 0.809796 0.037805 0.663950
Si Si2 0.385941 0.842998 0.645979
Si Si3 0.440181 0.201161 0.859562
Si Si4 0.750000 0.750000 0.665191
Si Si5 0.000000 0.000000 0.854197
O O1 0.703241 0.078336 0.720555
O O2 0.844318 0.187427 0.604032
O O3 0.784725 0.891342 0.583191
O O4 0.900626 0.005477 0.764551
O O5 0.477412 0.841318 0.747972
O O6 0.415380 0.897967 0.491579
O O7 0.341572 0.220174 0.768669
O O8 0.489044 0.347103 0.923533
#
# Coordination Sequence:
#
# PCOD9354127 Si02
#       5
#     8   8   8   4   4
#     4   9  19  38  65  94 128 169 216 271 329 391
#     4  10  21  41  66  94 130 171 217 269 328 393
#     4  10  21  39  64  92 127 171 218 271 327 391
#     4  10  20  38  62  94 128 166 216 272 332 390
#     4   8  18  36  64  94 122 164 218 266 324 396
#
# _framework density 25.96163
#
# number of rings (size 3 to 8) (size 9 to 14) (size 15 to 20)
#    0.000    2.500    0.000    1.500    0.000    7.000 
#    0.000   22.500    0.000    0.000    0.000    0.000 
#    0.000    0.000    0.000    0.000    0.000    0.000 
#
# Total GULP energy -89097.425275 kJ/mol
# GULP energy per Si atom -5568.589080 kJ/mol
# Density = 2.590254 g / cm^3
# Si number density = 25.961630 Si / 1000 Ang^3
#
#
#
# Elastic Constant Matrix: (Units=GPa)
#
#
# Indices 1 2 3 4 5 6 
#
# 1 268.0020 22.8910 67.5890 0.0000 0.0000 0.0000
# 2 22.8910 133.3398 -3.5791 0.0000 0.0000 0.0000
# 3 67.5890 -3.5791 70.5413 0.0000 0.0000 0.0000
# 4 0.0000 0.0000 0.0000 -4.6543 0.0000 0.0000
# 5 0.0000 0.0000 0.0000 0.0000 -10.2040 0.0000
# 6 0.0000 0.0000 0.0000 0.0000 0.0000 46.3825
#
#
#
# Elastic Compliance Matrix: (Units=1/GPa)
#
#
# Indices 1 2 3 4 5 6 
#
# 1 0.005050 -0.000998 -0.004889 0.000000 0.000000 0.000000
# 2 -0.000998 0.007707 0.001347 0.000000 0.000000 0.000000
# 3 -0.004889 0.001347 0.018929 0.000000 0.000000 0.000000
# 4 0.000000 0.000000 0.000000 -0.214855 0.000000 0.000000
# 5 0.000000 0.000000 0.000000 0.000000 -0.098001 0.000000
# 6 0.000000 0.000000 0.000000 0.000000 0.000000 0.021560
#
#
# Mechanical properties :
#
#
# Convention : Reuss Voigt Hill
#
# Bulk Modulus (GPa) = 44.23557 71.74276 57.98916
# Shear Modulus (GPa) = -20.57644 31.97032 5.69694
#
# Velocity S-wave (km/s) = -2.81832 3.51300 1.48295
# Velocity P-wave (km/s) = 2.54662 6.64448 5.03162
#
# Compressibility (1/GPa) = 0.02260624
#
# Stress axis : x y z
#
# Youngs Moduli (GPa) = 198.03909 129.74968 52.82989
#
# Poissons Ratio (x) = 0.12950 0.25828
# Poissons Ratio (y) = 0.19766 -0.07118
# Poissons Ratio (z) = 0.96818 -0.17482
#
# Static dielectric constant tensor:
#      x y z
#    x 2.335780 0.000000 0.000000 
#    y 0.000000 2.554590 0.000000 
#    z 0.000000 0.000000 1.939580 
# 
# From -- ./inp_files/2642.got.cif
#   From: 2010.05.17/outbox.cif.g08.bks.cpg/sg37_2_cif.got.tgz:2642.got - 2010.06.03 17:53:42.
