data_PCOD9354163
_publ_section_title
;
Structure prediction by ZEFSAII (Michael W. Deem and Ramdas Pophale) SiO2 
 PCOD9354163
Probable space group: C C C 2
;
_chemical_formula_sum "Si O2"
_cell_formula_units_Z 60
_cell_length_a 9.587478
_cell_length_b 27.670095
_cell_length_c 10.742058
_cell_angle_alpha 90.000000
_cell_angle_beta 90.000000
_cell_angle_gamma 90.000000
_cell_volume 2849.722186
_symmetry_space_group_name_H-M "C C C 2"
_symmetry_group_IT_number 37
_symmetry_cell_setting 'orthorhombic'
loop_
_space_group_symop_operation_xyz
x,y,z
-x,-y,z
-x,y,1/2+z
x,-y,1/2+z
1/2+x,1/2+y,z
1/2-x,1/2-y,z
1/2-x,1/2+y,1/2+z
1/2+x,1/2-y,1/2+z
loop_
_atom_site_type_symbol
_atom_site_label
_atom_site_fract_x
_atom_site_fract_y
_atom_site_fract_z
Si Si1 0.360735 0.380222 0.095940
Si Si2 0.344960 0.599264 0.174339
Si Si3 0.574208 0.097127 0.497983
Si Si4 0.222558 0.197941 0.283345
Si Si5 0.427976 0.949682 0.233229
Si Si6 0.077594 0.176871 0.872239
Si Si7 0.134578 0.676715 0.038575
Si Si8 0.250000 0.250000 0.720485
O O1 0.503366 0.410286 0.113659
O O2 0.237942 0.406997 0.024105
O O3 0.285037 0.353222 0.210809
O O4 0.410105 0.334089 0.015910
O O5 0.238276 0.556116 0.206584
O O6 0.396331 0.626867 0.298465
O O7 0.250088 0.637551 0.092676
O O8 0.544912 0.084433 0.353872
O O9 0.498533 0.064902 0.602342
O O10 0.513168 0.150073 0.529179
O O11 0.250000 0.250000 0.219272
O O12 0.324179 0.192260 0.400441
O O13 0.068494 0.199995 0.340295
O O14 0.500000 0.000000 0.268131
O O15 0.190915 0.210492 0.811976
O O16 0.142150 0.722453 0.129878
#
# Coordination Sequence:
#
# PCOD9354163 Si02
#       8
#     8   8   8   8   8   8   8   4
#     4  11  22  39  63  91 129 178 229 272 344 415
#     4   9  20  41  64  88 125 176 211 275 346 405
#     4  11  24  41  70 101 134 176 224 278 351 422
#     4  11  23  34  54  86 127 176 236 286 326 378
#     4  11  23  45  73 104 133 169 220 286 349 426
#     4  10  21  38  57  83 124 178 232 279 332 391
#     4  10  20  39  58  85 129 177 226 279 338 392
#     4  10  22  36  58  80 128 180 238 292 330 370
#
# _framework density 21.054684000000002
#
# number of rings (size 3 to 8) (size 9 to 14) (size 15 to 20)
#    0.000    1.600    3.333    1.200    2.800    1.067 
#    0.000    0.667    0.000    1.600    0.000    0.000 
#    0.000    0.000    0.000    0.000    0.000    0.000 
#
# Total GULP energy -167165.159163 kJ/mol
# GULP energy per Si atom -5572.171972 kJ/mol
# Density = 2.100676 g / cm^3
# Si number density = 21.054684 Si / 1000 Ang^3
#
#
#
# Elastic Constant Matrix: (Units=GPa)
#
#
# Indices 1 2 3 4 5 6 
#
# 1 118.6922 20.6067 10.5919 0.0000 0.0000 0.0000
# 2 20.6067 36.6877 -9.0165 0.0000 0.0000 0.0000
# 3 10.5919 -9.0165 55.3278 0.0000 0.0000 0.0000
# 4 0.0000 0.0000 0.0000 4.6044 0.0000 0.0000
# 5 0.0000 0.0000 0.0000 0.0000 30.2501 0.0000
# 6 0.0000 0.0000 0.0000 0.0000 0.0000 9.7094
#
#
#
# Elastic Compliance Matrix: (Units=1/GPa)
#
#
# Indices 1 2 3 4 5 6 
#
# 1 0.009756 -0.006186 -0.002876 0.000000 0.000000 0.000000
# 2 -0.006186 0.032317 0.006451 0.000000 0.000000 0.000000
# 3 -0.002876 0.006451 0.019676 0.000000 0.000000 0.000000
# 4 0.000000 0.000000 0.000000 0.217186 0.000000 0.000000
# 5 0.000000 0.000000 0.000000 0.000000 0.033058 0.000000
# 6 0.000000 0.000000 0.000000 0.000000 0.000000 0.102993
#
#
# Mechanical properties :
#
#
# Convention : Reuss Voigt Hill
#
# Bulk Modulus (GPa) = 17.69085 28.34131 23.01608
# Shear Modulus (GPa) = 11.38820 21.48114 16.43467
#
# Velocity S-wave (km/s) = 2.32822 3.19761 2.79690
# Velocity P-wave (km/s) = 3.95576 5.20797 4.62445
#
# Compressibility (1/GPa) = 0.05652641
#
# Stress axis : x y z
#
# Youngs Moduli (GPa) = 102.50268 30.94321 50.82353
#
# Poissons Ratio (x) = 0.19143 0.14616
# Poissons Ratio (y) = 0.63412 -0.32786
# Poissons Ratio (z) = 0.29478 -0.19961
#
# Static dielectric constant tensor:
#      x y z
#    x 1.763470 0.000000 0.000000 
#    y 0.000000 1.812080 0.000000 
#    z 0.000000 0.000000 1.887720 
# 
# From -- ./inp_files/6531.got.cif
#   From: 2010.05.17/outbox.cif.g08.bks.cpg/sg37_4_cif.got.tgz:6531.got - 2010.06.03 17:53:42.
