data_PCOD9354413
_publ_section_title
;
Structure prediction by ZEFSAII (Michael W. Deem and Ramdas Pophale) SiO2 
 PCOD9354413
Probable space group: C C C 2
;
_chemical_formula_sum "Si O2"
_cell_formula_units_Z 60
_cell_length_a 19.211777
_cell_length_b 17.569993
_cell_length_c 8.353809
_cell_angle_alpha 90.000000
_cell_angle_beta 90.000000
_cell_angle_gamma 90.000000
_cell_volume 2819.834806
_symmetry_space_group_name_H-M "C C C 2"
_symmetry_group_IT_number 37
_symmetry_cell_setting 'orthorhombic'
loop_
_space_group_symop_operation_xyz
x,y,z
-x,-y,z
-x,y,1/2+z
x,-y,1/2+z
1/2+x,1/2+y,z
1/2-x,1/2-y,z
1/2-x,1/2+y,1/2+z
1/2+x,1/2-y,1/2+z
loop_
_atom_site_type_symbol
_atom_site_label
_atom_site_fract_x
_atom_site_fract_y
_atom_site_fract_z
Si Si1 0.892854 0.717685 0.908070
Si Si2 0.258719 0.376076 0.339138
Si Si3 0.820919 0.952939 0.830059
Si Si4 0.578563 0.488417 0.056534
Si Si5 0.250000 0.750000 0.582153
Si Si6 0.914477 0.153803 0.855097
Si Si7 0.502958 0.735686 0.627835
Si Si8 0.282931 0.835081 0.184254
O O1 0.854345 0.660617 0.784666
O O2 0.945003 0.755426 0.777704
O O3 0.823340 0.757369 0.984250
O O4 0.948011 0.702324 0.053919
O O5 0.279441 0.465596 0.321066
O O6 0.233921 0.326378 0.187706
O O7 0.332903 0.335344 0.366378
O O8 0.214553 0.365058 0.501340
O O9 0.767818 0.887501 0.788544
O O10 0.878564 0.946061 0.691999
O O11 0.866081 0.949366 0.992604
O O12 0.500000 0.500000 0.105555
O O13 0.571999 0.432445 0.904448
O O14 0.949153 0.171315 0.686651
O O15 0.948818 0.207610 0.985757
O O16 0.250000 0.750000 0.174785
#
# Coordination Sequence:
#
# PCOD9354413 Si02
#       8
#     8   8   8   8   4   8   8   8
#     4  11  25  39  69  98 139 176 238 293 353 423
#     4  11  24  42  63  98 146 177 232 294 353 412
#     4  11  25  42  59  96 139 184 232 290 342 411
#     4  11  25  36  60  88 142 199 231 267 328 428
#     4  12  24  38  70 108 132 194 232 294 350 436
#     4  10  21  38  58  84 135 188 226 275 325 413
#     4  10  23  41  60  97 135 181 233 292 352 411
#     4  12  24  44  70  96 134 187 238 298 345 412
#
# _framework density 21.277840999999999
#
# number of rings (size 3 to 8) (size 9 to 14) (size 15 to 20)
#    0.000    1.067    5.333    1.200    7.467    1.067 
#    0.000    0.000    0.000    0.000    0.000   11.200 
#    0.000    0.000    0.000    0.000    0.000    0.000 
#
# Total GULP energy -167061.356642 kJ/mol
# GULP energy per Si atom -5568.711888 kJ/mol
# Density = 2.122941 g / cm^3
# Si number density = 21.277841 Si / 1000 Ang^3
#
#
#
# Elastic Constant Matrix: (Units=GPa)
#
#
# Indices 1 2 3 4 5 6 
#
# 1 109.6871 32.9356 43.5113 0.0000 0.0000 0.0000
# 2 32.9356 69.8444 20.3390 0.0000 0.0000 0.0000
# 3 43.5113 20.3390 65.2843 0.0000 0.0000 0.0000
# 4 0.0000 0.0000 0.0000 21.5241 0.0000 0.0000
# 5 0.0000 0.0000 0.0000 0.0000 43.1554 0.0000
# 6 0.0000 0.0000 0.0000 0.0000 0.0000 27.1356
#
#
#
# Elastic Compliance Matrix: (Units=1/GPa)
#
#
# Indices 1 2 3 4 5 6 
#
# 1 0.013374 -0.004081 -0.007642 0.000000 0.000000 0.000000
# 2 -0.004081 0.016991 -0.002574 0.000000 0.000000 0.000000
# 3 -0.007642 -0.002574 0.021213 0.000000 0.000000 0.000000
# 4 0.000000 0.000000 0.000000 0.046460 0.000000 0.000000
# 5 0.000000 0.000000 0.000000 0.000000 0.023172 0.000000
# 6 0.000000 0.000000 0.000000 0.000000 0.000000 0.036852
#
#
# Mechanical properties :
#
#
# Convention : Reuss Voigt Hill
#
# Bulk Modulus (GPa) = 43.50755 48.70974 46.10865
# Shear Modulus (GPa) = 25.73121 28.23166 26.98144
#
# Velocity S-wave (km/s) = 3.48127 3.64649 3.56484
# Velocity P-wave (km/s) = 6.05398 6.37739 6.21779
#
# Compressibility (1/GPa) = 0.02298452
#
# Stress axis : x y z
#
# Youngs Moduli (GPa) = 74.77338 58.85310 47.14151
#
# Poissons Ratio (x) = 0.24019 0.36026
# Poissons Ratio (y) = 0.30516 0.12132
# Poissons Ratio (z) = 0.57142 0.15146
#
# Static dielectric constant tensor:
#      x y z
#    x 1.860220 0.000000 0.000000 
#    y 0.000000 1.828800 0.000000 
#    z 0.000000 0.000000 1.922950 
# 
# From -- ./inp_files/4089.got.cif
#   From: 2010.05.17/outbox.cif.g08.bks.cpg/sg37_3_cif.got.tgz:4089.got - 2010.06.03 17:53:42.
