data_PCOD9354322
_publ_section_title
;
Structure prediction by ZEFSAII (Michael W. Deem and Ramdas Pophale) SiO2 
 PCOD9354322
Probable space group: C C C 2
;
_chemical_formula_sum "Si O2"
_cell_formula_units_Z 48
_cell_length_a 22.919625
_cell_length_b 8.126614
_cell_length_c 11.413436
_cell_angle_alpha 90.000000
_cell_angle_beta 90.000000
_cell_angle_gamma 90.000000
_cell_volume 2125.854553
_symmetry_space_group_name_H-M "C C C 2"
_symmetry_group_IT_number 37
_symmetry_cell_setting 'orthorhombic'
loop_
_space_group_symop_operation_xyz
x,y,z
-x,-y,z
-x,y,1/2+z
x,-y,1/2+z
1/2+x,1/2+y,z
1/2-x,1/2-y,z
1/2-x,1/2+y,1/2+z
1/2+x,1/2-y,1/2+z
loop_
_atom_site_type_symbol
_atom_site_label
_atom_site_fract_x
_atom_site_fract_y
_atom_site_fract_z
Si Si1 0.750000 0.750000 0.613720
Si Si2 0.554185 0.623372 0.511101
Si Si3 0.673828 0.032770 0.935618
Si Si4 0.662370 0.524080 0.118013
Si Si5 0.906248 0.267804 0.777391
Si Si6 0.438618 0.027401 0.585378
Si Si7 0.250000 0.250000 0.973200
O O1 0.710839 0.863397 0.528495
O O2 0.702948 0.622950 0.668596
O O3 0.500000 0.500000 0.530944
O O4 0.617494 0.539373 0.519201
O O5 0.552721 0.706125 0.382619
O O6 0.560676 0.775281 0.602998
O O7 0.615612 0.979715 0.004440
O O8 0.713000 0.879887 0.899255
O O9 0.650834 0.143929 0.831441
O O10 0.619005 0.613031 0.207615
O O11 0.705319 0.654236 0.057566
O O12 0.935652 0.405764 0.695583
O O13 0.500000 0.000000 0.522681
#
# Coordination Sequence:
#
# PCOD9354322 Si02
#       7
#     4   8   8   8   8   8   4
#     4  10  20  45  69  96 148 180 232 290 354 408
#     4  11  26  49  72 101 144 183 235 300 353 425
#     4  10  22  45  66 105 137 186 228 293 347 421
#     4  11  22  45  71 103 139 190 233 293 349 418
#     4  11  24  44  70 107 138 188 242 284 360 424
#     4  11  23  45  71 101 137 181 231 298 351 419
#     4  10  22  43  73  94 148 182 228 292 354 410
#
# _framework density 22.579155
#
# number of rings (size 3 to 8) (size 9 to 14) (size 15 to 20)
#    0.000    1.333    5.000    1.000    0.000    5.333 
#    3.000    1.667    0.000    0.000    0.000    0.000 
#    0.000    0.000    0.000    0.000    0.000    0.000 
#
# Total GULP energy -134016.779557 kJ/mol
# GULP energy per Si atom -5584.032482 kJ/mol
# Density = 2.252776 g / cm^3
# Si number density = 22.579155 Si / 1000 Ang^3
#
#
#
# Elastic Constant Matrix: (Units=GPa)
#
#
# Indices 1 2 3 4 5 6 
#
# 1 133.0427 49.9078 14.7254 0.0000 0.0000 0.0000
# 2 49.9078 127.6496 31.5699 0.0000 0.0000 0.0000
# 3 14.7254 31.5699 58.9869 0.0000 0.0000 0.0000
# 4 0.0000 0.0000 0.0000 35.3990 0.0000 0.0000
# 5 0.0000 0.0000 0.0000 0.0000 73.3257 0.0000
# 6 0.0000 0.0000 0.0000 0.0000 0.0000 68.1809
#
#
#
# Elastic Compliance Matrix: (Units=1/GPa)
#
#
# Indices 1 2 3 4 5 6 
#
# 1 0.008817 -0.003346 -0.000410 0.000000 0.000000 0.000000
# 2 -0.003346 0.010299 -0.004677 0.000000 0.000000 0.000000
# 3 -0.000410 -0.004677 0.019558 0.000000 0.000000 0.000000
# 4 0.000000 0.000000 0.000000 0.028249 0.000000 0.000000
# 5 0.000000 0.000000 0.000000 0.000000 0.013638 0.000000
# 6 0.000000 0.000000 0.000000 0.000000 0.000000 0.014667
#
#
# Mechanical properties :
#
#
# Convention : Reuss Voigt Hill
#
# Bulk Modulus (GPa) = 45.85400 56.89838 51.37619
# Shear Modulus (GPa) = 41.88912 50.27953 46.08433
#
# Velocity S-wave (km/s) = 4.31189 4.72403 4.52266
# Velocity P-wave (km/s) = 6.71878 7.41684 7.07642
#
# Compressibility (1/GPa) = 0.02180835
#
# Stress axis : x y z
#
# Youngs Moduli (GPa) = 113.41907 97.10032 51.12916
#
# Poissons Ratio (x) = 0.32487 0.02098
# Poissons Ratio (y) = 0.37946 0.23911
# Poissons Ratio (z) = 0.04655 0.45410
#
# Static dielectric constant tensor:
#      x y z
#    x 1.810380 0.000000 0.000000 
#    y 0.000000 1.907980 0.000000 
#    z 0.000000 0.000000 1.819140 
# 
# From -- ./inp_files/8878.got.cif
#   From: 2010.05.17/outbox.cif.g08.bks.cpg/sg37_5_cif.got.tgz:8878.got - 2010.06.03 17:53:42.
