data_PCOD9354556
_publ_section_title
;
Structure prediction by ZEFSAII (Michael W. Deem and Ramdas Pophale) SiO2 
 PCOD9354556
Probable space group: C C C 2
;
_chemical_formula_sum "Si O2"
_cell_formula_units_Z 40
_cell_length_a 13.660001
_cell_length_b 7.075512
_cell_length_c 15.994839
_cell_angle_alpha 90.000000
_cell_angle_beta 90.000000
_cell_angle_gamma 90.000000
_cell_volume 1545.925198
_symmetry_space_group_name_H-M "C C C 2"
_symmetry_group_IT_number 37
_symmetry_cell_setting 'orthorhombic'
loop_
_space_group_symop_operation_xyz
x,y,z
-x,-y,z
-x,y,1/2+z
x,-y,1/2+z
1/2+x,1/2+y,z
1/2-x,1/2-y,z
1/2-x,1/2+y,1/2+z
1/2+x,1/2-y,1/2+z
loop_
_atom_site_type_symbol
_atom_site_label
_atom_site_fract_x
_atom_site_fract_y
_atom_site_fract_z
Si Si1 0.892828 0.932963 0.969020
Si Si2 0.106863 0.921059 0.273336
Si Si3 0.792579 0.439005 0.670637
Si Si4 0.680810 0.000861 0.501883
Si Si5 0.110716 0.487271 0.327421
O O1 0.886518 0.984745 0.870571
O O2 0.798168 0.023531 0.011193
O O3 0.868646 0.708626 0.980995
O O4 0.000000 0.000000 0.998301
O O5 0.124222 0.696589 0.288337
O O6 0.197852 0.972537 0.214795
O O7 0.000000 0.000000 0.244472
O O8 0.750000 0.250000 0.628382
O O9 0.850692 0.546000 0.596620
O O10 0.862061 0.368421 0.746095
O O11 0.661574 0.914165 0.410875
O O12 0.000000 0.500000 0.352620
#
# Coordination Sequence:
#
# PCOD9354556 Si02
#       5
#     8   8   8   8   8
#     4   9  17  37  68  94 124 177 226 271 341 403
#     4  10  21  41  71  96 125 175 225 270 339 402
#     4  12  23  39  67 101 134 170 221 272 338 408
#     4  10  21  41  64  95 136 178 220 284 339 402
#     4  11  24  45  68  92 137 176 222 282 335 403
#
# _framework density 25.874475
#
# number of rings (size 3 to 8) (size 9 to 14) (size 15 to 20)
#    0.000    1.600    4.000    1.800    0.000    1.600 
#    3.600    2.000    0.000    0.000    0.000    0.000 
#    0.000    0.000    0.000    0.000    0.000    0.000 
#
# Total GULP energy -111414.566094 kJ/mol
# GULP energy per Si atom -5570.728305 kJ/mol
# Density = 2.581558 g / cm^3
# Si number density = 25.874475 Si / 1000 Ang^3
#
#
#
# Elastic Constant Matrix: (Units=GPa)
#
#
# Indices 1 2 3 4 5 6 
#
# 1 155.5804 15.5558 45.1737 0.0000 0.0000 0.0000
# 2 15.5558 80.2945 2.2292 0.0000 0.0000 0.0000
# 3 45.1737 2.2292 189.3482 0.0000 0.0000 0.0000
# 4 0.0000 0.0000 0.0000 2.1902 0.0000 0.0000
# 5 0.0000 0.0000 0.0000 0.0000 48.2681 0.0000
# 6 0.0000 0.0000 0.0000 0.0000 0.0000 33.0387
#
#
#
# Elastic Compliance Matrix: (Units=1/GPa)
#
#
# Indices 1 2 3 4 5 6 
#
# 1 0.007043 -0.001318 -0.001665 0.000000 0.000000 0.000000
# 2 -0.001318 0.012705 0.000165 0.000000 0.000000 0.000000
# 3 -0.001665 0.000165 0.005676 0.000000 0.000000 0.000000
# 4 0.000000 0.000000 0.000000 0.456585 0.000000 0.000000
# 5 0.000000 0.000000 0.000000 0.000000 0.020718 0.000000
# 6 0.000000 0.000000 0.000000 0.000000 0.000000 0.030268
#
#
# Mechanical properties :
#
#
# Convention : Reuss Voigt Hill
#
# Bulk Modulus (GPa) = 50.53518 61.23783 55.88650
# Shear Modulus (GPa) = 9.17050 40.85036 25.01043
#
# Velocity S-wave (km/s) = 1.88465 3.97771 3.11240
# Velocity P-wave (km/s) = 4.93044 6.69439 5.87895
#
# Compressibility (1/GPa) = 0.01978819
#
# Stress axis : x y z
#
# Youngs Moduli (GPa) = 141.99104 78.70946 176.16523
#
# Poissons Ratio (x) = 0.10375 0.29326
# Poissons Ratio (y) = 0.18717 -0.02905
# Poissons Ratio (z) = 0.23637 -0.01298
#
# Static dielectric constant tensor:
#      x y z
#    x 1.940970 0.000000 0.000000 
#    y 0.000000 2.350880 0.000000 
#    z 0.000000 0.000000 2.068510 
# 
# From -- ./inp_files/11995.got.cif
#   From: 2010.05.17/outbox.cif.g08.bks.cpg/sg37_6_cif.got.tgz:11995.got - 2010.06.03 17:53:42.
