data_PCOD9354003
_publ_section_title
;
Structure prediction by ZEFSAII (Michael W. Deem and Ramdas Pophale) SiO2 
 PCOD9354003
Probable space group: C C C 2
;
_chemical_formula_sum "Si O2"
_cell_formula_units_Z 60
_cell_length_a 11.900542
_cell_length_b 26.102972
_cell_length_c 8.446290
_cell_angle_alpha 90.000000
_cell_angle_beta 90.000000
_cell_angle_gamma 90.000000
_cell_volume 2623.751426
_symmetry_space_group_name_H-M "C C C 2"
_symmetry_group_IT_number 37
_symmetry_cell_setting 'orthorhombic'
loop_
_space_group_symop_operation_xyz
x,y,z
-x,-y,z
-x,y,1/2+z
x,-y,1/2+z
1/2+x,1/2+y,z
1/2-x,1/2-y,z
1/2-x,1/2+y,1/2+z
1/2+x,1/2-y,1/2+z
loop_
_atom_site_type_symbol
_atom_site_label
_atom_site_fract_x
_atom_site_fract_y
_atom_site_fract_z
Si Si1 0.883299 0.803661 0.810500
Si Si2 0.122852 0.684303 0.259517
Si Si3 0.516663 0.878584 0.047036
Si Si4 0.000000 0.000000 0.303983
Si Si5 0.666311 0.952234 0.688037
Si Si6 0.940252 0.863745 0.093692
Si Si7 0.222455 0.434115 0.066474
Si Si8 0.115315 0.935386 0.040611
O O1 0.901877 0.743261 0.796358
O O2 0.758058 0.818647 0.752391
O O3 0.981792 0.834871 0.721935
O O4 0.881243 0.819989 0.992982
O O5 0.063611 0.666977 0.099965
O O6 0.063965 0.643776 0.380011
O O7 0.445942 0.930391 0.100454
O O8 0.634745 0.891885 0.130492
O O9 0.900424 0.979963 0.414428
O O10 0.053782 0.956562 0.197181
O O11 0.761274 0.922688 0.588480
O O12 0.694979 0.011749 0.650267
O O13 0.690066 0.943142 0.877427
O O14 0.844671 0.909155 0.103755
O O15 0.037746 0.889871 0.987292
#
# Coordination Sequence:
#
# PCOD9354003 Si02
#       8
#     8   8   8   4   8   8   8   8
#     4  11  25  48  76 108 142 190 247 319 387 454
#     4  11  25  50  77 103 146 191 249 319 385 442
#     4  12  24  48  73 101 146 195 244 306 370 440
#     4  10  20  36  56  92 134 190 230 294 338 428
#     4  12  26  44  69 105 146 203 249 293 361 441
#     4  12  23  44  71 106 146 191 240 310 378 444
#     4  12  27  45  69 106 151 197 247 297 363 438
#     4  11  21  37  61  91 138 179 240 286 357 407
#
# _framework density 22.868017999999999
#
# number of rings (size 3 to 8) (size 9 to 14) (size 15 to 20)
#    0.000    0.533    2.667    6.800    1.867    2.133 
#    2.400    0.000    0.000    0.000    0.000    0.000 
#    0.000    0.000    0.000    0.000    0.000    0.000 
#
# Total GULP energy -167062.831533 kJ/mol
# GULP energy per Si atom -5568.761051 kJ/mol
# Density = 2.281597 g / cm^3
# Si number density = 22.868018 Si / 1000 Ang^3
#
#
#
# Elastic Constant Matrix: (Units=GPa)
#
#
# Indices 1 2 3 4 5 6 
#
# 1 144.3762 36.8609 29.8154 0.0000 0.0000 0.0000
# 2 36.8609 127.0707 44.4054 0.0000 0.0000 0.0000
# 3 29.8154 44.4054 70.6372 0.0000 0.0000 0.0000
# 4 0.0000 0.0000 0.0000 24.8999 0.0000 0.0000
# 5 0.0000 0.0000 0.0000 0.0000 29.2857 0.0000
# 6 0.0000 0.0000 0.0000 0.0000 0.0000 36.5984
#
#
#
# Elastic Compliance Matrix: (Units=1/GPa)
#
#
# Indices 1 2 3 4 5 6 
#
# 1 0.007783 -0.001422 -0.002391 0.000000 0.000000 0.000000
# 2 -0.001422 0.010345 -0.005903 0.000000 0.000000 0.000000
# 3 -0.002391 -0.005903 0.018877 0.000000 0.000000 0.000000
# 4 0.000000 0.000000 0.000000 0.040161 0.000000 0.000000
# 5 0.000000 0.000000 0.000000 0.000000 0.034146 0.000000
# 6 0.000000 0.000000 0.000000 0.000000 0.000000 0.027324
#
#
# Mechanical properties :
#
#
# Convention : Reuss Voigt Hill
#
# Bulk Modulus (GPa) = 56.90705 62.69416 59.80060
# Shear Modulus (GPa) = 30.50152 33.55697 32.02925
#
# Velocity S-wave (km/s) = 3.65609 3.83485 3.74654
# Velocity P-wave (km/s) = 6.53924 6.86172 6.70242
#
# Compressibility (1/GPa) = 0.01757252
#
# Stress axis : x y z
#
# Youngs Moduli (GPa) = 128.48089 96.66494 52.97443
#
# Poissons Ratio (x) = 0.13747 0.12667
# Poissons Ratio (y) = 0.18272 0.31271
# Poissons Ratio (z) = 0.30723 0.57061
#
# Static dielectric constant tensor:
#      x y z
#    x 1.885520 0.000000 0.000000 
#    y 0.000000 1.907220 0.000000 
#    z 0.000000 0.000000 1.983090 
# 
# From -- ./inp_files/3057.got.cif
#   From: 2010.05.17/outbox.cif.g08.bks.cpg/sg37_2_cif.got.tgz:3057.got - 2010.06.03 17:53:42.
