data_PCOD9354443
_publ_section_title
;
Structure prediction by ZEFSAII (Michael W. Deem and Ramdas Pophale) SiO2 
 PCOD9354443
Probable space group: C C C 2
;
_chemical_formula_sum "Si O2"
_cell_formula_units_Z 64
_cell_length_a 14.002087
_cell_length_b 7.768172
_cell_length_c 28.019530
_cell_angle_alpha 90.000000
_cell_angle_beta 90.000000
_cell_angle_gamma 90.000000
_cell_volume 3047.701655
_symmetry_space_group_name_H-M "C C C 2"
_symmetry_group_IT_number 37
_symmetry_cell_setting 'orthorhombic'
loop_
_space_group_symop_operation_xyz
x,y,z
-x,-y,z
-x,y,1/2+z
x,-y,1/2+z
1/2+x,1/2+y,z
1/2-x,1/2-y,z
1/2-x,1/2+y,1/2+z
1/2+x,1/2-y,1/2+z
loop_
_atom_site_type_symbol
_atom_site_label
_atom_site_fract_x
_atom_site_fract_y
_atom_site_fract_z
Si Si1 0.568081 0.352590 0.751430
Si Si2 0.665256 0.890767 0.426112
Si Si3 0.760501 0.992675 0.017411
Si Si4 0.946123 0.184167 0.997435
Si Si5 0.164903 0.605982 0.819213
Si Si6 0.263616 0.948064 0.227886
Si Si7 0.422562 0.139015 0.164646
Si Si8 0.390073 0.195208 0.061116
O O1 0.500000 0.500000 0.769276
O O2 0.582644 0.213004 0.792671
O O3 0.666450 0.441777 0.733485
O O4 0.528913 0.258797 0.704420
O O5 0.750000 0.750000 0.420956
O O6 0.574226 0.796825 0.450199
O O7 0.645626 0.954571 0.372772
O O8 0.709975 0.019117 0.465463
O O9 0.671426 0.978163 0.053494
O O10 0.829436 0.837808 0.032865
O O11 0.838311 0.145075 0.015736
O O12 0.000000 0.000000 0.988282
O O13 0.008206 0.288732 0.035676
O O14 0.250000 0.750000 0.820273
O O15 0.192307 0.459430 0.781340
O O16 0.250000 0.750000 0.214049
O O17 0.334500 0.047294 0.191824
O O18 0.392594 0.236432 0.116902
O O19 0.500000 0.000000 0.148544
#
# Coordination Sequence:
#
# PCOD9354443 Si02
#       8
#     8   8   8   8   8   8   8   8
#     4  10  21  38  65  91 125 162 206 260 319 381
#     4   9  17  34  60  86 118 161 203 247 307 373
#     4   9  20  36  58  82 117 158 198 252 302 373
#     4   9  19  36  55  83 117 157 201 253 304 368
#     4   8  17  35  61  89 121 160 203 254 316 368
#     4  10  21  41  62  89 124 160 206 262 312 383
#     4  11  24  40  61  87 121 163 201 265 318 378
#     4  10  22  38  57  81 123 152 202 257 310 365
#
# _framework density 20.99943
#
# number of rings (size 3 to 8) (size 9 to 14) (size 15 to 20)
#    0.000    2.500    0.000    1.875    5.250    2.000 
#    4.500    1.250   13.750    0.000    0.000    0.000 
#    0.000    0.000    0.000    0.000    0.000    0.000 
#
# Total GULP energy -178313.328274 kJ/mol
# GULP energy per Si atom -5572.291509 kJ/mol
# Density = 2.095163 g / cm^3
# Si number density = 20.999430 Si / 1000 Ang^3
#
#
#
# Elastic Constant Matrix: (Units=GPa)
#
#
# Indices 1 2 3 4 5 6 
#
# 1 80.9555 3.3699 19.3694 0.0000 0.0000 0.0000
# 2 3.3699 45.5510 7.7841 0.0000 0.0000 0.0000
# 3 19.3694 7.7841 134.2121 0.0000 0.0000 0.0000
# 4 0.0000 0.0000 0.0000 27.9926 0.0000 0.0000
# 5 0.0000 0.0000 0.0000 0.0000 10.8153 0.0000
# 6 0.0000 0.0000 0.0000 0.0000 0.0000 33.2270
#
#
#
# Elastic Compliance Matrix: (Units=1/GPa)
#
#
# Indices 1 2 3 4 5 6 
#
# 1 0.012813 -0.000638 -0.001812 0.000000 0.000000 0.000000
# 2 -0.000638 0.022205 -0.001196 0.000000 0.000000 0.000000
# 3 -0.001812 -0.001196 0.007782 0.000000 0.000000 0.000000
# 4 0.000000 0.000000 0.000000 0.035724 0.000000 0.000000
# 5 0.000000 0.000000 0.000000 0.000000 0.092462 0.000000
# 6 0.000000 0.000000 0.000000 0.000000 0.000000 0.030096
#
#
# Mechanical properties :
#
#
# Convention : Reuss Voigt Hill
#
# Bulk Modulus (GPa) = 28.16329 35.75170 31.95749
# Shear Modulus (GPa) = 22.70572 29.75333 26.22952
#
# Velocity S-wave (km/s) = 3.29181 3.76821 3.53804
# Velocity P-wave (km/s) = 5.28096 5.99955 5.65169
#
# Compressibility (1/GPa) = 0.03550722
#
# Stress axis : x y z
#
# Youngs Moduli (GPa) = 78.04821 45.03497 128.50554
#
# Poissons Ratio (x) = 0.02874 0.23286
# Poissons Ratio (y) = 0.04981 0.15366
# Poissons Ratio (z) = 0.14143 0.05385
#
# Static dielectric constant tensor:
#      x y z
#    x 1.809890 0.000000 0.000000 
#    y 0.000000 1.768080 0.000000 
#    z 0.000000 0.000000 1.730960 
# 
# From -- ./inp_files/18889.got.cif
#   From: 2010.05.17/outbox.cif.g08.bks.cpg/sg37_10_cif.got.tgz:18889.got - 2010.06.03 17:53:42.
