data_PCOD9354662
_publ_section_title
;
Structure prediction by ZEFSAII (Michael W. Deem and Ramdas Pophale) SiO2 
 PCOD9354662
Probable space group: C C C 2
;
_chemical_formula_sum "Si O2"
_cell_formula_units_Z 48
_cell_length_a 8.706957
_cell_length_b 25.205462
_cell_length_c 10.575680
_cell_angle_alpha 90.000000
_cell_angle_beta 90.000000
_cell_angle_gamma 90.000000
_cell_volume 2320.969125
_symmetry_space_group_name_H-M "C C C 2"
_symmetry_group_IT_number 37
_symmetry_cell_setting 'orthorhombic'
loop_
_space_group_symop_operation_xyz
x,y,z
-x,-y,z
-x,y,1/2+z
x,-y,1/2+z
1/2+x,1/2+y,z
1/2-x,1/2-y,z
1/2-x,1/2+y,1/2+z
1/2+x,1/2-y,1/2+z
loop_
_atom_site_type_symbol
_atom_site_label
_atom_site_fract_x
_atom_site_fract_y
_atom_site_fract_z
Si Si1 0.336795 0.528371 0.578220
Si Si2 0.275917 0.613287 0.770992
Si Si3 0.317539 0.003044 0.331239
Si Si4 0.250000 0.250000 0.616308
Si Si5 0.750000 0.250000 0.496561
Si Si6 0.545958 0.706789 0.400266
Si Si7 0.043470 0.698760 0.709545
O O1 0.500000 0.500000 0.565308
O O2 0.341759 0.586339 0.643628
O O3 0.255796 0.531352 0.442576
O O4 0.241953 0.495654 0.686898
O O5 0.242142 0.562989 0.859642
O O6 0.392427 0.655703 0.827938
O O7 0.113484 0.642483 0.746841
O O8 0.500000 0.000000 0.333973
O O9 0.362803 0.285665 0.530573
O O10 0.364162 0.209511 0.686820
O O11 0.636067 0.288884 0.422121
O O12 0.862895 0.284077 0.584906
O O13 0.583801 0.759023 0.318109
#
# Coordination Sequence:
#
# PCOD9354662 Si02
#       7
#     8   8   8   4   4   8   8
#     4  10  23  45  69  98 136 183 233 305 352 415
#     4  10  23  40  72  92 142 182 225 288 356 418
#     4  10  23  45  69  98 136 183 233 305 352 415
#     4  10  22  34  68  86 144 174 210 278 328 400
#     4  10  22  34  68  86 144 174 210 278 328 400
#     4  11  20  43  59 101 137 172 222 275 335 423
#     4  11  20  43  59 101 137 172 222 275 335 423
#
# _framework density 20.681016
#
# number of rings (size 3 to 8) (size 9 to 14) (size 15 to 20)
#    1.000    0.667    3.333    1.500    0.000    2.667 
#    0.000    0.000    0.000    0.000    0.000    0.000 
#    0.000    0.000    0.000    0.000    0.000    0.000 
#
# Total GULP energy -133785.745909 kJ/mol
# GULP energy per Si atom -5574.406080 kJ/mol
# Density = 2.063394 g / cm^3
# Si number density = 20.681016 Si / 1000 Ang^3
#
#
#
# Elastic Constant Matrix: (Units=GPa)
#
#
# Indices 1 2 3 4 5 6 
#
# 1 128.7162 -11.3059 14.4371 0.0000 0.0000 0.0000
# 2 -11.3059 38.7188 -16.4084 0.0000 0.0000 0.0000
# 3 14.4371 -16.4084 40.0147 0.0000 0.0000 0.0000
# 4 0.0000 0.0000 0.0000 26.3209 0.0000 0.0000
# 5 0.0000 0.0000 0.0000 0.0000 37.6762 0.0000
# 6 0.0000 0.0000 0.0000 0.0000 0.0000 8.6873
#
#
#
# Elastic Compliance Matrix: (Units=1/GPa)
#
#
# Indices 1 2 3 4 5 6 
#
# 1 0.008157 0.001373 -0.002380 0.000000 0.000000 0.000000
# 2 0.001373 0.031491 0.012418 0.000000 0.000000 0.000000
# 3 -0.002380 0.012418 0.030941 0.000000 0.000000 0.000000
# 4 0.000000 0.000000 0.000000 0.037993 0.000000 0.000000
# 5 0.000000 0.000000 0.000000 0.000000 0.026542 0.000000
# 6 0.000000 0.000000 0.000000 0.000000 0.000000 0.115111
#
#
# Mechanical properties :
#
#
# Convention : Reuss Voigt Hill
#
# Bulk Modulus (GPa) = 10.70543 20.09949 15.40246
# Shear Modulus (GPa) = 19.33873 29.25200 24.29537
#
# Velocity S-wave (km/s) = 3.06125 3.76498 3.43121
# Velocity P-wave (km/s) = 4.20508 5.35164 4.81262
#
# Compressibility (1/GPa) = 0.09341054
#
# Stress axis : x y z
#
# Youngs Moduli (GPa) = 122.60063 31.75551 32.31920
#
# Poissons Ratio (x) = -0.04361 0.07691
# Poissons Ratio (y) = -0.16836 -0.40133
# Poissons Ratio (z) = 0.29176 -0.39433
#
# Static dielectric constant tensor:
#      x y z
#    x 1.754090 0.000000 0.000000 
#    y 0.000000 1.726080 0.000000 
#    z 0.000000 0.000000 1.802310 
# 
# From -- ./inp_files/6481.got.cif
#   From: 2010.05.17/outbox.cif.g08.bks.cpg/sg37_4_cif.got.tgz:6481.got - 2010.06.03 17:53:42.
