data_PCOD9354124
_publ_section_title
;
Structure prediction by ZEFSAII (Michael W. Deem and Ramdas Pophale) SiO2 
 PCOD9354124
Probable space group: C C C 2
;
_chemical_formula_sum "Si O2"
_cell_formula_units_Z 56
_cell_length_a 8.507667
_cell_length_b 22.938923
_cell_length_c 12.829741
_cell_angle_alpha 90.000000
_cell_angle_beta 90.000000
_cell_angle_gamma 90.000000
_cell_volume 2503.810149
_symmetry_space_group_name_H-M "C C C 2"
_symmetry_group_IT_number 37
_symmetry_cell_setting 'orthorhombic'
loop_
_space_group_symop_operation_xyz
x,y,z
-x,-y,z
-x,y,1/2+z
x,-y,1/2+z
1/2+x,1/2+y,z
1/2-x,1/2-y,z
1/2-x,1/2+y,1/2+z
1/2+x,1/2-y,1/2+z
loop_
_atom_site_type_symbol
_atom_site_label
_atom_site_fract_x
_atom_site_fract_y
_atom_site_fract_z
Si Si1 0.329775 0.892678 0.204950
Si Si2 0.831374 0.568547 0.238225
Si Si3 0.336856 0.469598 0.846406
Si Si4 0.159189 0.884471 0.548243
Si Si5 0.354288 0.807472 0.404988
Si Si6 0.334891 0.686709 0.054375
Si Si7 0.798915 0.307324 0.842296
O O1 0.487544 0.930830 0.201267
O O2 0.188041 0.932879 0.241666
O O3 0.337006 0.846726 0.300767
O O4 0.287415 0.859494 0.101266
O O5 0.791944 0.521299 0.327905
O O6 0.813065 0.633641 0.282168
O O7 0.713116 0.572320 0.140709
O O8 0.500000 0.500000 0.844746
O O9 0.346273 0.426946 0.946242
O O10 0.296634 0.840406 0.508845
O O11 0.009071 0.842192 0.577721
O O12 0.250000 0.750000 0.393375
O O13 0.538889 0.795544 0.403436
O O14 0.250000 0.750000 0.084735
O O15 0.330922 0.684573 0.930269
O O16 0.750000 0.250000 0.778319
#
# Coordination Sequence:
#
# PCOD9354124 Si02
#       7
#     8   8   8   8   8   8   8
#     4  10  23  41  64  95 128 168 216 268 327 390
#     4  11  24  43  66  93 126 170 219 272 332 393
#     4  11  24  44  65  89 125 167 219 273 324 386
#     4  11  25  41  65  97 128 170 220 270 327 394
#     4  10  20  38  62  90 128 171 213 264 327 395
#     4  11  22  39  64  97 135 172 210 264 328 394
#     4  10  22  38  61  93 130 170 216 271 332 398
#
# _framework density 22.365914
#
# number of rings (size 3 to 8) (size 9 to 14) (size 15 to 20)
#    0.000    1.429    0.000    5.143    0.000    9.143 
#    0.000    5.714    0.000    0.000    0.000    0.000 
#    0.000    0.000    0.000    0.000    0.000    0.000 
#
# Total GULP energy -155877.055795 kJ/mol
# GULP energy per Si atom -5567.037707 kJ/mol
# Density = 2.231501 g / cm^3
# Si number density = 22.365914 Si / 1000 Ang^3
#
#
#
# Elastic Constant Matrix: (Units=GPa)
#
#
# Indices 1 2 3 4 5 6 
#
# 1 82.1298 27.4222 17.7977 0.0000 0.0000 0.0000
# 2 27.4222 101.3403 25.7687 0.0000 0.0000 0.0000
# 3 17.7977 25.7687 38.7679 0.0000 0.0000 0.0000
# 4 0.0000 0.0000 0.0000 29.3031 0.0000 0.0000
# 5 0.0000 0.0000 0.0000 0.0000 -1.4441 0.0000
# 6 0.0000 0.0000 0.0000 0.0000 0.0000 40.7929
#
#
#
# Elastic Compliance Matrix: (Units=1/GPa)
#
#
# Indices 1 2 3 4 5 6 
#
# 1 0.014070 -0.002605 -0.004728 0.000000 0.000000 0.000000
# 2 -0.002605 0.012357 -0.007018 0.000000 0.000000 0.000000
# 3 -0.004728 -0.007018 0.032630 0.000000 0.000000 0.000000
# 4 0.000000 0.000000 0.000000 0.034126 0.000000 0.000000
# 5 0.000000 0.000000 0.000000 0.000000 -0.692464 0.000000
# 6 0.000000 0.000000 0.000000 0.000000 0.000000 0.024514
#
#
# Mechanical properties :
#
#
# Convention : Reuss Voigt Hill
#
# Bulk Modulus (GPa) = 32.94277 40.46835 36.70556
# Shear Modulus (GPa) = -9.32927 23.81367 7.24220
#
# Velocity S-wave (km/s) = -2.04457 3.26656 1.80141
# Velocity P-wave (km/s) = 3.03106 5.68861 4.55783
#
# Compressibility (1/GPa) = 0.03035567
#
# Stress axis : x y z
#
# Youngs Moduli (GPa) = 71.07219 80.92494 30.64707
#
# Poissons Ratio (x) = 0.21082 0.14489
# Poissons Ratio (y) = 0.18515 0.21507
# Poissons Ratio (z) = 0.33601 0.56791
#
# Static dielectric constant tensor:
#      x y z
#    x 1.862950 0.000000 0.000000 
#    y 0.000000 2.022830 0.000000 
#    z 0.000000 0.000000 1.790680 
# 
# From -- ./inp_files/10842.got.cif
#   From: 2010.05.17/outbox.cif.g08.bks.cpg/sg37_6_cif.got.tgz:10842.got - 2010.06.03 17:53:42.
