data_PCOD9354702
_publ_section_title
;
Structure prediction by ZEFSAII (Michael W. Deem and Ramdas Pophale) SiO2 
 PCOD9354702
Probable space group: C C C 2
;
_chemical_formula_sum "Si O2"
_cell_formula_units_Z 44
_cell_length_a 5.141272
_cell_length_b 32.001295
_cell_length_c 10.016545
_cell_angle_alpha 90.000000
_cell_angle_beta 90.000000
_cell_angle_gamma 90.000000
_cell_volume 1647.995725
_symmetry_space_group_name_H-M "C C C 2"
_symmetry_group_IT_number 37
_symmetry_cell_setting 'orthorhombic'
loop_
_space_group_symop_operation_xyz
x,y,z
-x,-y,z
-x,y,1/2+z
x,-y,1/2+z
1/2+x,1/2+y,z
1/2-x,1/2-y,z
1/2-x,1/2+y,1/2+z
1/2+x,1/2-y,1/2+z
loop_
_atom_site_type_symbol
_atom_site_label
_atom_site_fract_x
_atom_site_fract_y
_atom_site_fract_z
Si Si1 0.000000 0.500000 0.905680
Si Si2 0.050962 0.411274 0.908220
Si Si3 0.000000 0.000000 0.596963
Si Si4 0.932702 0.675789 0.411932
Si Si5 0.949038 0.911274 0.594423
Si Si6 0.250000 0.250000 0.251322
Si Si7 0.067298 0.824211 0.590712
O O1 0.007924 0.455260 0.833003
O O2 0.750000 0.500000 0.001322
O O3 0.994729 0.367559 0.835435
O O4 0.835646 0.411064 0.027495
O O5 0.335646 0.411064 0.975148
O O6 0.007924 0.044740 0.669641
O O7 0.935360 0.718439 0.331444
O O8 0.646417 0.675518 0.474973
O O9 0.146417 0.675518 0.527671
O O10 0.005271 0.867559 0.667209
O O11 0.064640 0.218439 0.171200
#
# Coordination Sequence:
#
# PCOD9354702 Si02
#       7
#     4   8   4   8   8   4   8
#     4   8  12  20  40  68  94 126 164 200 254 318
#     4   8  14  26  44  69 100 130 165 211 259 314
#     4   8  12  20  40  68  94 126 164 200 254 318
#     4  10  22  38  55  80 111 142 184 233 277 329
#     4   8  14  26  44  69 100 130 165 211 259 314
#     4  12  24  38  60  80 108 154 192 230 284 334
#     4  10  22  38  55  80 111 142 184 233 277 329
#
# _framework density 26.699097999999999
#
# number of rings (size 3 to 8) (size 9 to 14) (size 15 to 20)
#    0.000    2.909    0.000    1.091    0.000    2.909 
#    0.000    0.000    0.000    0.000    0.000   38.182 
#    0.000    0.000    0.000    1.091    0.000    0.545 
#
# Total GULP energy -123037.377965 kJ/mol
# GULP energy per Si atom -5592.608089 kJ/mol
# Density = 2.663833 g / cm^3
# Si number density = 26.699098 Si / 1000 Ang^3
#
#
#
# Elastic Constant Matrix: (Units=GPa)
#
#
# Indices 1 2 3 4 5 6 
#
# 1 168.9575 1.1497 41.0957 0.0000 0.0000 0.0000
# 2 1.1497 331.9436 47.2648 0.0000 0.0000 0.0000
# 3 41.0957 47.2648 47.4302 0.0000 0.0000 0.0000
# 4 0.0000 0.0000 0.0000 -189.9901 0.0000 0.0000
# 5 0.0000 0.0000 0.0000 0.0000 44.4761 0.0000
# 6 0.0000 0.0000 0.0000 0.0000 0.0000 27.4609
#
#
#
# Elastic Compliance Matrix: (Units=1/GPa)
#
#
# Indices 1 2 3 4 5 6 
#
# 1 0.007825 0.001093 -0.007870 0.000000 0.000000 0.000000
# 2 0.001093 0.003663 -0.004598 0.000000 0.000000 0.000000
# 3 -0.007870 -0.004598 0.032485 0.000000 0.000000 0.000000
# 4 0.000000 0.000000 0.000000 -0.005263 0.000000 0.000000
# 5 0.000000 0.000000 0.000000 0.000000 0.022484 0.000000
# 6 0.000000 0.000000 0.000000 0.000000 0.000000 0.036415
#
#
# Mechanical properties :
#
#
# Convention : Reuss Voigt Hill
#
# Bulk Modulus (GPa) = 47.11587 80.81686 63.96637
# Shear Modulus (GPa) = 39.23606 6.97745 23.10676
#
# Velocity S-wave (km/s) = 3.83765 1.61834 2.94505
# Velocity P-wave (km/s) = 6.10918 5.81612 5.96445
#
# Compressibility (1/GPa) = 0.02122427
#
# Stress axis : x y z
#
# Youngs Moduli (GPa) = 127.78833 272.96308 30.78370
#
# Poissons Ratio (x) = -0.29848 0.24227
# Poissons Ratio (y) = -0.13974 0.14155
# Poissons Ratio (z) = 1.00570 1.25513
#
# Static dielectric constant tensor:
#      x y z
#    x 1.747440 0.000000 0.000000 
#    y 0.000000 2.198660 0.000000 
#    z 0.000000 0.000000 2.121330 
# 
# From -- ./inp_files/9842.got.cif
#   From: 2010.05.17/outbox.cif.g08.bks.cpg/sg37_5_cif.got.tgz:9842.got - 2010.06.03 17:53:42.
