data_PCOD9354679
_publ_section_title
;
Structure prediction by ZEFSAII (Michael W. Deem and Ramdas Pophale) SiO2 
 PCOD9354679
Probable space group: C C C 2
;
_chemical_formula_sum "Si O2"
_cell_formula_units_Z 40
_cell_length_a 5.146278
_cell_length_b 18.805693
_cell_length_c 18.051783
_cell_angle_alpha 90.000000
_cell_angle_beta 90.000000
_cell_angle_gamma 90.000000
_cell_volume 1747.039359
_symmetry_space_group_name_H-M "C C C 2"
_symmetry_group_IT_number 37
_symmetry_cell_setting 'orthorhombic'
loop_
_space_group_symop_operation_xyz
x,y,z
-x,-y,z
-x,y,1/2+z
x,-y,1/2+z
1/2+x,1/2+y,z
1/2-x,1/2-y,z
1/2-x,1/2+y,1/2+z
1/2+x,1/2-y,1/2+z
loop_
_atom_site_type_symbol
_atom_site_label
_atom_site_fract_x
_atom_site_fract_y
_atom_site_fract_z
Si Si1 0.916070 0.399778 0.064060
Si Si2 0.000000 0.500000 0.445975
Si Si3 0.500000 0.000000 0.700699
Si Si4 0.008980 0.798562 0.758865
Si Si5 0.323369 0.441977 0.831227
Si Si6 0.406925 0.321793 0.086324
O O1 0.951218 0.434513 0.145234
O O2 0.704139 0.337095 0.064778
O O3 0.212919 0.377913 0.048815
O O4 0.823783 0.458035 0.005562
O O5 0.089094 0.562111 0.389310
O O6 0.730332 0.986038 0.758754
O O7 0.250000 0.750000 0.785431
O O8 0.085793 0.825205 0.676306
O O9 0.750000 0.750000 0.752984
O O10 0.944831 0.867411 0.808268
O O11 0.500000 0.500000 0.871422
O O12 0.250000 0.250000 0.069523
#
# Coordination Sequence:
#
# PCOD9354679 Si02
#       6
#     8   4   4   8   8   8
#     4  11  23  42  66 103 134 179 233 299 345 414
#     4  10  28  42  70  94 146 186 246 292 356 416
#     4  10  22  36  66 102 130 172 234 296 350 396
#     4  11  24  42  71 109 144 178 229 302 365 421
#     4  11  24  43  71 100 139 191 236 295 347 433
#     4  11  22  39  70 100 138 174 227 288 363 423
#
# _framework density 22.895876000000001
#
# number of rings (size 3 to 8) (size 9 to 14) (size 15 to 20)
#    0.000    1.200    2.000    4.200    8.400    1.600 
#    0.000    1.000    4.400    0.000    0.000    0.000 
#    0.000    0.000    0.000    0.000    0.000    0.000 
#
# Total GULP energy -111364.838008 kJ/mol
# GULP energy per Si atom -5568.241900 kJ/mol
# Density = 2.284376 g / cm^3
# Si number density = 22.895876 Si / 1000 Ang^3
#
#
#
# Elastic Constant Matrix: (Units=GPa)
#
#
# Indices 1 2 3 4 5 6 
#
# 1 137.5267 58.9990 23.5527 0.0000 0.0000 0.0000
# 2 58.9990 121.1354 39.5054 0.0000 0.0000 0.0000
# 3 23.5527 39.5054 83.9037 0.0000 0.0000 0.0000
# 4 0.0000 0.0000 0.0000 3.3934 0.0000 0.0000
# 5 0.0000 0.0000 0.0000 0.0000 4.0978 0.0000
# 6 0.0000 0.0000 0.0000 0.0000 0.0000 49.3700
#
#
#
# Elastic Compliance Matrix: (Units=1/GPa)
#
#
# Indices 1 2 3 4 5 6 
#
# 1 0.009214 -0.004305 -0.000559 0.000000 0.000000 0.000000
# 2 -0.004305 0.011764 -0.004331 0.000000 0.000000 0.000000
# 3 -0.000559 -0.004331 0.014114 0.000000 0.000000 0.000000
# 4 0.000000 0.000000 0.000000 0.294686 0.000000 0.000000
# 5 0.000000 0.000000 0.000000 0.000000 0.244034 0.000000
# 6 0.000000 0.000000 0.000000 0.000000 0.000000 0.020255
#
#
# Mechanical properties :
#
#
# Convention : Reuss Voigt Hill
#
# Bulk Modulus (GPa) = 59.87170 65.18667 62.52918
# Shear Modulus (GPa) = 8.09028 26.07283 17.08155
#
# Velocity S-wave (km/s) = 1.88180 3.37821 2.73436
# Velocity P-wave (km/s) = 5.56129 6.61431 6.11052
#
# Compressibility (1/GPa) = 0.01670238
#
# Stress axis : x y z
#
# Youngs Moduli (GPa) = 108.52951 85.00179 70.84914
#
# Poissons Ratio (x) = 0.36596 0.03963
# Poissons Ratio (y) = 0.46725 0.30682
# Poissons Ratio (z) = 0.06071 0.36811
#
# Static dielectric constant tensor:
#      x y z
#    x 2.384830 0.000000 0.000000 
#    y 0.000000 1.931520 0.000000 
#    z 0.000000 0.000000 1.812130 
# 
# From -- ./inp_files/13739.got.cif
#   From: 2010.05.17/outbox.cif.g08.bks.cpg/sg37_7_cif.got.tgz:13739.got - 2010.06.03 17:53:42.
