data_PCOD9354316
_publ_section_title
;
Structure prediction by ZEFSAII (Michael W. Deem and Ramdas Pophale) SiO2 
 PCOD9354316
Probable space group: C C C 2
;
_chemical_formula_sum "Si O2"
_cell_formula_units_Z 48
_cell_length_a 13.902769
_cell_length_b 5.858068
_cell_length_c 27.037586
_cell_angle_alpha 90.000000
_cell_angle_beta 90.000000
_cell_angle_gamma 90.000000
_cell_volume 2202.032017
_symmetry_space_group_name_H-M "C C C 2"
_symmetry_group_IT_number 37
_symmetry_cell_setting 'orthorhombic'
loop_
_space_group_symop_operation_xyz
x,y,z
-x,-y,z
-x,y,1/2+z
x,-y,1/2+z
1/2+x,1/2+y,z
1/2-x,1/2-y,z
1/2-x,1/2+y,1/2+z
1/2+x,1/2-y,1/2+z
loop_
_atom_site_type_symbol
_atom_site_label
_atom_site_fract_x
_atom_site_fract_y
_atom_site_fract_z
Si Si1 0.102935 0.899499 0.023030
Si Si2 0.750000 0.750000 0.240137
Si Si3 0.398017 0.105588 0.315658
Si Si4 0.393817 0.925115 0.112856
Si Si5 0.750000 0.250000 0.186675
Si Si6 0.250000 0.750000 0.360390
Si Si7 0.750000 0.750000 0.068941
Si Si8 0.854627 0.866786 0.411194
O O1 0.111875 0.683004 0.058202
O O2 0.190612 0.070494 0.035509
O O3 0.100630 0.847703 0.964956
O O4 0.000000 0.000000 0.037342
O O5 0.653632 0.744010 0.274034
O O6 0.753019 0.498430 0.213813
O O7 0.411203 0.247069 0.366581
O O8 0.500000 0.000000 0.300884
O O9 0.315017 0.919295 0.328013
O O10 0.343636 0.755660 0.151184
O O11 0.500000 0.000000 0.126544
O O12 0.327233 0.142744 0.105849
O O13 0.327330 0.620707 0.394553
O O14 0.750000 0.750000 0.413761
#
# Coordination Sequence:
#
# PCOD9354316 Si02
#       8
#     8   4   8   8   4   4   4   8
#     4  12  25  40  70 110 151 202 247 297 362 452
#     4  12  27  56  78 116 143 193 256 323 390 462
#     4  11  25  46  74 104 148 192 242 310 375 445
#     4  12  26  48  74 107 146 194 247 307 377 451
#     4  12  29  52  86 104 153 189 252 331 390 448
#     4  10  20  44  67 102 148 197 240 303 357 438
#     4  12  22  46  69 100 152 199 238 307 365 424
#     4  10  22  41  66 104 150 195 247 294 361 439
#
# _framework density 21.79805
#
# number of rings (size 3 to 8) (size 9 to 14) (size 15 to 20)
#    0.000    0.667    5.833    2.500    2.333    2.667 
#    0.000    5.000    0.000    0.000    0.000    0.000 
#    0.000    0.000    0.000    0.000    0.000    0.000 
#
# Total GULP energy -134086.534425 kJ/mol
# GULP energy per Si atom -5586.938934 kJ/mol
# Density = 2.174844 g / cm^3
# Si number density = 21.798050 Si / 1000 Ang^3
#
#
#
# Elastic Constant Matrix: (Units=GPa)
#
#
# Indices 1 2 3 4 5 6 
#
# 1 141.4337 28.4491 32.8359 0.0000 0.0000 0.0000
# 2 28.4491 78.5569 38.8576 0.0000 0.0000 0.0000
# 3 32.8359 38.8576 94.6542 0.0000 0.0000 0.0000
# 4 0.0000 0.0000 0.0000 32.9286 0.0000 0.0000
# 5 0.0000 0.0000 0.0000 0.0000 -62.2535 0.0000
# 6 0.0000 0.0000 0.0000 0.0000 0.0000 40.1985
#
#
#
# Elastic Compliance Matrix: (Units=1/GPa)
#
#
# Indices 1 2 3 4 5 6 
#
# 1 0.007907 -0.001891 -0.001967 0.000000 0.000000 0.000000
# 2 -0.001891 0.016425 -0.006087 0.000000 0.000000 0.000000
# 3 -0.001967 -0.006087 0.013746 0.000000 0.000000 0.000000
# 4 0.000000 0.000000 0.000000 0.030369 0.000000 0.000000
# 5 0.000000 0.000000 0.000000 0.000000 -0.016063 0.000000
# 6 0.000000 0.000000 0.000000 0.000000 0.000000 0.024877
#
#
# Mechanical properties :
#
#
# Convention : Reuss Voigt Hill
#
# Bulk Modulus (GPa) = 54.97742 57.21444 56.09593
# Shear Modulus (GPa) = 48.44349 16.47486 32.45918
#
# Velocity S-wave (km/s) = 4.71932 2.75216 3.86305
# Velocity P-wave (km/s) = 7.41431 6.03354 6.75928
#
# Compressibility (1/GPa) = 0.01818929
#
# Stress axis : x y z
#
# Youngs Moduli (GPa) = 126.46353 60.88184 72.74857
#
# Poissons Ratio (x) = 0.11511 0.14309
# Poissons Ratio (y) = 0.23911 0.44282
# Poissons Ratio (z) = 0.24875 0.37059
#
# Static dielectric constant tensor:
#      x y z
#    x 1.975160 0.000000 0.000000 
#    y 0.000000 1.963270 0.000000 
#    z 0.000000 0.000000 1.836330 
# 
# From -- ./inp_files/19919.got.cif
#   From: 2010.05.17/outbox.cif.g08.bks.cpg/sg37_10_cif.got.tgz:19919.got - 2010.06.03 17:53:42.
