data_PCOD9354825
_publ_section_title
;
Structure prediction by ZEFSAII (Michael W. Deem and Ramdas Pophale) SiO2 
 PCOD9354825
Probable space group: C C C 2
;
_chemical_formula_sum "Si O2"
_cell_formula_units_Z 64
_cell_length_a 13.329743
_cell_length_b 8.608673
_cell_length_c 25.422486
_cell_angle_alpha 90.000000
_cell_angle_beta 90.000000
_cell_angle_gamma 90.000000
_cell_volume 2917.265826
_symmetry_space_group_name_H-M "C C C 2"
_symmetry_group_IT_number 37
_symmetry_cell_setting 'orthorhombic'
loop_
_space_group_symop_operation_xyz
x,y,z
-x,-y,z
-x,y,1/2+z
x,-y,1/2+z
1/2+x,1/2+y,z
1/2-x,1/2-y,z
1/2-x,1/2+y,1/2+z
1/2+x,1/2-y,1/2+z
loop_
_atom_site_type_symbol
_atom_site_label
_atom_site_fract_x
_atom_site_fract_y
_atom_site_fract_z
Si Si1 0.786170 0.927230 0.884490
Si Si2 0.437751 0.659585 0.082172
Si Si3 0.583939 0.130634 0.874785
Si Si4 0.786355 0.927926 0.767922
Si Si5 0.789539 0.996888 0.651239
Si Si6 0.357538 0.660830 0.965172
Si Si7 0.584355 0.869302 0.262971
Si Si8 0.401459 0.813044 0.645915
O O1 0.750000 0.750000 0.891510
O O2 0.835880 0.939310 0.825942
O O3 0.689340 0.039689 0.878736
O O4 0.841083 0.995213 0.935932
O O5 0.500000 0.500000 0.090631
O O6 0.335511 0.633839 0.114376
O O7 0.505116 0.797951 0.106580
O O8 0.410471 0.665534 0.021117
O O9 0.577558 0.244898 0.923012
O O10 0.577042 0.217188 0.818544
O O11 0.500000 0.000000 0.877269
O O12 0.750000 0.750000 0.765844
O O13 0.830058 0.960673 0.710191
O O14 0.692490 0.047534 0.765640
O O15 0.670258 0.034344 0.646928
O O16 0.835552 0.161560 0.633966
O O17 0.250000 0.750000 0.970203
O O18 0.568787 0.790326 0.207170
O O19 0.500000 0.000000 0.265032
#
# Coordination Sequence:
#
# PCOD9354825 Si02
#       8
#     8   8   8   8   8   8   8   8
#     4   9  19  37  59  89 118 155 198 248 307 370
#     4  10  22  41  59  83 122 157 204 258 296 363
#     4   9  19  37  59  85 122 153 197 249 301 366
#     4   9  18  31  55  85 118 146 184 239 305 366
#     4   9  19  36  59  85 112 155 196 244 307 363
#     4  10  22  41  61  87 118 163 208 249 304 363
#     4   9  18  32  54  84 115 150 183 240 304 356
#     4   9  19  37  58  85 113 153 201 241 304 369
#
# _framework density 21.93835
#
# number of rings (size 3 to 8) (size 9 to 14) (size 15 to 20)
#    0.000    2.750    0.000    0.000    3.500    1.500 
#   11.250    0.000    0.000    0.000    0.000    0.000 
#    0.000    0.000    0.000    0.000    0.000    0.000 
#
# Total GULP energy -178281.773220 kJ/mol
# GULP energy per Si atom -5571.305413 kJ/mol
# Density = 2.188842 g / cm^3
# Si number density = 21.938350 Si / 1000 Ang^3
#
#
#
# Elastic Constant Matrix: (Units=GPa)
#
#
# Indices 1 2 3 4 5 6 
#
# 1 43.5820 23.0284 60.2109 0.0000 0.0000 0.0000
# 2 23.0284 74.2593 44.4736 0.0000 0.0000 0.0000
# 3 60.2109 44.4736 198.9581 0.0000 0.0000 0.0000
# 4 0.0000 0.0000 0.0000 28.2887 0.0000 0.0000
# 5 0.0000 0.0000 0.0000 0.0000 76.7508 0.0000
# 6 0.0000 0.0000 0.0000 0.0000 0.0000 21.3437
#
#
#
# Elastic Compliance Matrix: (Units=1/GPa)
#
#
# Indices 1 2 3 4 5 6 
#
# 1 0.041777 -0.006216 -0.011254 0.000000 0.000000 0.000000
# 2 -0.006216 0.016472 -0.001801 0.000000 0.000000 0.000000
# 3 -0.011254 -0.001801 0.008835 0.000000 0.000000 0.000000
# 4 0.000000 0.000000 0.000000 0.035350 0.000000 0.000000
# 5 0.000000 0.000000 0.000000 0.000000 0.013029 0.000000
# 6 0.000000 0.000000 0.000000 0.000000 0.000000 0.046852
#
#
# Mechanical properties :
#
#
# Convention : Reuss Voigt Hill
#
# Bulk Modulus (GPa) = 35.03442 63.58057 49.30749
# Shear Modulus (GPa) = 23.76757 37.88239 30.82498
#
# Velocity S-wave (km/s) = 3.29504 4.15995 3.75250
# Velocity P-wave (km/s) = 5.52092 7.21927 6.42645
#
# Compressibility (1/GPa) = 0.02854336
#
# Stress axis : x y z
#
# Youngs Moduli (GPa) = 23.93653 60.70725 113.19253
#
# Poissons Ratio (x) = 0.37733 1.27383
# Poissons Ratio (y) = 0.14878 0.20387
# Poissons Ratio (z) = 0.26937 0.10934
#
# Static dielectric constant tensor:
#      x y z
#    x 1.778710 0.000000 0.000000 
#    y 0.000000 1.796310 0.000000 
#    z 0.000000 0.000000 1.812330 
# 
# From -- ./inp_files/18883.got.cif
#   From: 2010.05.17/outbox.cif.g08.bks.cpg/sg37_10_cif.got.tgz:18883.got - 2010.06.03 17:53:42.
