data_PCOD9354288
_publ_section_title
;
Structure prediction by ZEFSAII (Michael W. Deem and Ramdas Pophale) SiO2 
 PCOD9354288
Probable space group: C C C 2
;
_chemical_formula_sum "Si O2"
_cell_formula_units_Z 48
_cell_length_a 17.819866
_cell_length_b 7.787516
_cell_length_c 13.901191
_cell_angle_alpha 90.000000
_cell_angle_beta 90.000000
_cell_angle_gamma 90.000000
_cell_volume 1929.102911
_symmetry_space_group_name_H-M "C C C 2"
_symmetry_group_IT_number 37
_symmetry_cell_setting 'orthorhombic'
loop_
_space_group_symop_operation_xyz
x,y,z
-x,-y,z
-x,y,1/2+z
x,-y,1/2+z
1/2+x,1/2+y,z
1/2-x,1/2-y,z
1/2-x,1/2+y,1/2+z
1/2+x,1/2-y,1/2+z
loop_
_atom_site_type_symbol
_atom_site_label
_atom_site_fract_x
_atom_site_fract_y
_atom_site_fract_z
Si Si1 0.419398 0.831563 0.623850
Si Si2 0.661844 0.469416 0.171228
Si Si3 0.447714 0.327797 0.514635
Si Si4 0.920599 0.419269 0.844933
Si Si5 0.749372 0.552710 0.338826
Si Si6 0.278043 0.055046 0.035257
O O1 0.376476 0.651937 0.647147
O O2 0.494026 0.796819 0.566600
O O3 0.432078 0.892686 0.731344
O O4 0.366077 0.938983 0.552797
O O5 0.613767 0.352284 0.100021
O O6 0.682248 0.452697 0.283924
O O7 0.746575 0.481355 0.133937
O O8 0.500000 0.500000 0.496674
O O9 0.415935 0.248273 0.415194
O O10 0.837348 0.507930 0.842370
O O11 0.000000 0.500000 0.876301
O O12 0.750000 0.750000 0.302312
O O13 0.736858 0.548625 0.452371
O O14 0.250000 0.250000 0.020715
#
# Coordination Sequence:
#
# PCOD9354288 Si02
#       6
#     8   8   8   8   8   8
#     4  10  21  44  67  96 141 188 231 291 359 419
#     4  10  20  42  69 100 132 182 243 291 338 413
#     4  10  24  44  70 104 138 187 247 302 342 428
#     4  12  25  43  69 105 145 191 229 299 375 430
#     4  12  22  42  71 102 140 190 234 286 360 427
#     4  10  21  41  68  95 139 182 234 289 350 422
#
# _framework density 24.882031999999999
#
# number of rings (size 3 to 8) (size 9 to 14) (size 15 to 20)
#    0.000    1.333    3.333    2.500    0.000    4.000 
#    9.000    0.833    0.000    0.000    0.000    0.000 
#    0.000    0.000    0.000    0.000    0.000    0.000 
#
# Total GULP energy -133804.379011 kJ/mol
# GULP energy per Si atom -5575.182459 kJ/mol
# Density = 2.482540 g / cm^3
# Si number density = 24.882032 Si / 1000 Ang^3
#
#
#
# Elastic Constant Matrix: (Units=GPa)
#
#
# Indices 1 2 3 4 5 6 
#
# 1 146.1873 29.5697 24.9313 0.0000 0.0000 0.0000
# 2 29.5697 54.8383 23.0814 0.0000 0.0000 0.0000
# 3 24.9313 23.0814 142.1236 0.0000 0.0000 0.0000
# 4 0.0000 0.0000 0.0000 21.6489 0.0000 0.0000
# 5 0.0000 0.0000 0.0000 0.0000 47.5432 0.0000
# 6 0.0000 0.0000 0.0000 0.0000 0.0000 25.6014
#
#
#
# Elastic Compliance Matrix: (Units=1/GPa)
#
#
# Indices 1 2 3 4 5 6 
#
# 1 0.007748 -0.003870 -0.000731 0.000000 0.000000 0.000000
# 2 -0.003870 0.021507 -0.002814 0.000000 0.000000 0.000000
# 3 -0.000731 -0.002814 0.007621 0.000000 0.000000 0.000000
# 4 0.000000 0.000000 0.000000 0.046192 0.000000 0.000000
# 5 0.000000 0.000000 0.000000 0.000000 0.021034 0.000000
# 6 0.000000 0.000000 0.000000 0.000000 0.000000 0.039060
#
#
# Mechanical properties :
#
#
# Convention : Reuss Voigt Hill
#
# Bulk Modulus (GPa) = 45.35877 55.36822 50.36350
# Shear Modulus (GPa) = 30.24072 36.66315 33.45193
#
# Velocity S-wave (km/s) = 3.48999 3.84276 3.67061
# Velocity P-wave (km/s) = 5.87445 6.47994 6.18461
#
# Compressibility (1/GPa) = 0.02204645
#
# Stress axis : x y z
#
# Youngs Moduli (GPa) = 129.06554 46.49706 131.21183
#
# Poissons Ratio (x) = 0.17996 0.09586
# Poissons Ratio (y) = 0.49953 0.36921
# Poissons Ratio (z) = 0.09429 0.13084
#
# Static dielectric constant tensor:
#      x y z
#    x 1.994000 0.000000 0.000000 
#    y 0.000000 2.066890 0.000000 
#    z 0.000000 0.000000 1.970550 
# 
# From -- ./inp_files/12552.got.cif
#   From: 2010.05.17/outbox.cif.g08.bks.cpg/sg37_7_cif.got.tgz:12552.got - 2010.06.03 17:53:42.
