data_PCOD9354594
_publ_section_title
;
Structure prediction by ZEFSAII (Michael W. Deem and Ramdas Pophale) SiO2 
 PCOD9354594
Probable space group: C C C 2
;
_chemical_formula_sum "Si O2"
_cell_formula_units_Z 56
_cell_length_a 16.515841
_cell_length_b 11.817760
_cell_length_c 14.253399
_cell_angle_alpha 90.000000
_cell_angle_beta 90.000000
_cell_angle_gamma 90.000000
_cell_volume 2781.981911
_symmetry_space_group_name_H-M "C C C 2"
_symmetry_group_IT_number 37
_symmetry_cell_setting 'orthorhombic'
loop_
_space_group_symop_operation_xyz
x,y,z
-x,-y,z
-x,y,1/2+z
x,-y,1/2+z
1/2+x,1/2+y,z
1/2-x,1/2-y,z
1/2-x,1/2+y,1/2+z
1/2+x,1/2-y,1/2+z
loop_
_atom_site_type_symbol
_atom_site_label
_atom_site_fract_x
_atom_site_fract_y
_atom_site_fract_z
Si Si1 0.750000 0.250000 0.432940
Si Si2 0.934574 0.174072 0.705092
Si Si3 0.097942 0.872484 0.503478
Si Si4 0.329084 0.812019 0.827696
Si Si5 0.643272 0.074229 0.318805
Si Si6 0.000000 0.000000 0.357501
Si Si7 0.508004 0.156706 0.941864
Si Si8 0.045127 0.613561 0.150732
O O1 0.812061 0.175053 0.492599
O O2 0.701638 0.162333 0.368623
O O3 0.919935 0.100707 0.611560
O O4 0.852706 0.239434 0.735498
O O5 0.996541 0.274869 0.680209
O O6 0.970555 0.098848 0.788343
O O7 0.073173 0.966049 0.427406
O O8 0.040931 0.767111 0.474729
O O9 0.250000 0.750000 0.868863
O O10 0.413268 0.806792 0.884599
O O11 0.321125 0.947333 0.816715
O O12 0.558851 0.087269 0.379978
O O13 0.625882 0.111381 0.211946
O O14 0.544353 0.105981 0.038475
O O15 0.000000 0.500000 0.184242
#
# Coordination Sequence:
#
# PCOD9354594 Si02
#       8
#     4   8   8   8   8   4   8   8
#     4  10  24  42  62  94 132 178 210 268 322 390
#     4  11  23  40  67  98 122 171 217 264 327 390
#     4  10  23  41  67  92 130 167 221 263 321 394
#     4  12  24  40  62  94 134 167 212 273 324 380
#     4  11  21  42  66  93 133 173 218 267 327 386
#     4  12  22  44  70  92 128 176 212 272 318 398
#     4  10  21  42  67  96 125 167 221 272 322 375
#     4  11  19  38  72  98 122 164 222 270 319 389
#
# _framework density 20.129534
#
# number of rings (size 3 to 8) (size 9 to 14) (size 15 to 20)
#    0.000    1.143    4.286    2.571    3.000    0.000 
#    1.286    0.000    0.000    0.000    0.000    0.000 
#    0.000    0.000    0.000    0.000    0.000    0.000 
#
# Total GULP energy -156157.622452 kJ/mol
# GULP energy per Si atom -5577.057945 kJ/mol
# Density = 2.008372 g / cm^3
# Si number density = 20.129534 Si / 1000 Ang^3
#
#
#
# Elastic Constant Matrix: (Units=GPa)
#
#
# Indices 1 2 3 4 5 6 
#
# 1 103.9008 34.3619 35.1250 0.0000 0.0000 0.0000
# 2 34.3619 88.3685 48.2668 0.0000 0.0000 0.0000
# 3 35.1250 48.2668 136.3290 0.0000 0.0000 0.0000
# 4 0.0000 0.0000 0.0000 21.3127 0.0000 0.0000
# 5 0.0000 0.0000 0.0000 0.0000 4.9839 0.0000
# 6 0.0000 0.0000 0.0000 0.0000 0.0000 37.0951
#
#
#
# Elastic Compliance Matrix: (Units=1/GPa)
#
#
# Indices 1 2 3 4 5 6 
#
# 1 0.011350 -0.003491 -0.001688 0.000000 0.000000 0.000000
# 2 -0.003491 0.015103 -0.004448 0.000000 0.000000 0.000000
# 3 -0.001688 -0.004448 0.009345 0.000000 0.000000 0.000000
# 4 0.000000 0.000000 0.000000 0.046920 0.000000 0.000000
# 5 0.000000 0.000000 0.000000 0.000000 0.200647 0.000000
# 6 0.000000 0.000000 0.000000 0.000000 0.000000 0.026958
#
#
# Mechanical properties :
#
#
# Convention : Reuss Voigt Hill
#
# Bulk Modulus (GPa) = 60.44658 62.67842 61.56250
# Shear Modulus (GPa) = 14.92126 26.73466 20.82796
#
# Velocity S-wave (km/s) = 2.72557 3.64831 3.22016
# Velocity P-wave (km/s) = 6.32447 6.99657 6.66899
#
# Compressibility (1/GPa) = 0.01654353
#
# Stress axis : x y z
#
# Youngs Moduli (GPa) = 88.10635 66.21139 107.01084
#
# Poissons Ratio (x) = 0.23116 0.18066
# Poissons Ratio (y) = 0.30760 0.47595
# Poissons Ratio (z) = 0.14874 0.29449
#
# Static dielectric constant tensor:
#      x y z
#    x 1.735380 0.000000 0.000000 
#    y 0.000000 1.765040 0.000000 
#    z 0.000000 0.000000 1.749550 
# 
# From -- ./inp_files/12165.got.cif
#   From: 2010.05.17/outbox.cif.g08.bks.cpg/sg37_7_cif.got.tgz:12165.got - 2010.06.03 17:53:42.
