data_PCOD9354219
_publ_section_title
;
Structure prediction by ZEFSAII (Michael W. Deem and Ramdas Pophale) SiO2 
 PCOD9354219
Probable space group: C C C 2
;
_chemical_formula_sum "Si O2"
_cell_formula_units_Z 60
_cell_length_a 8.344812
_cell_length_b 11.625984
_cell_length_c 26.800606
_cell_angle_alpha 90.000000
_cell_angle_beta 90.000000
_cell_angle_gamma 90.000000
_cell_volume 2600.105033
_symmetry_space_group_name_H-M "C C C 2"
_symmetry_group_IT_number 37
_symmetry_cell_setting 'orthorhombic'
loop_
_space_group_symop_operation_xyz
x,y,z
-x,-y,z
-x,y,1/2+z
x,-y,1/2+z
1/2+x,1/2+y,z
1/2-x,1/2-y,z
1/2-x,1/2+y,1/2+z
1/2+x,1/2-y,1/2+z
loop_
_atom_site_type_symbol
_atom_site_label
_atom_site_fract_x
_atom_site_fract_y
_atom_site_fract_z
Si Si1 0.113572 0.336704 0.998260
Si Si2 0.854943 0.931431 0.260653
Si Si3 0.436457 0.866867 0.900658
Si Si4 0.671097 0.447232 0.967891
Si Si5 0.697220 0.131927 0.065115
Si Si6 0.818705 0.626423 0.712016
Si Si7 0.458815 0.811482 0.791871
Si Si8 0.500000 0.000000 0.136315
O O1 0.250000 0.250000 0.014690
O O2 0.030219 0.305164 0.945943
O O3 0.202965 0.454011 0.984083
O O4 0.974265 0.351994 0.038174
O O5 0.688482 0.899496 0.286671
O O6 0.925752 0.801813 0.258324
O O7 0.802799 0.016870 0.214963
O O8 0.000000 0.000000 0.286812
O O9 0.464392 0.794792 0.850821
O O10 0.500000 0.000000 0.892826
O O11 0.256692 0.882684 0.922276
O O12 0.500000 0.500000 0.956203
O O13 0.672426 0.380404 0.020749
O O14 0.750000 0.250000 0.091397
O O15 0.656502 0.025073 0.101714
O O16 0.750000 0.750000 0.699479
O O17 0.970725 0.601987 0.676105
O O18 0.882207 0.636811 0.768547
#
# Coordination Sequence:
#
# PCOD9354219 Si02
#       8
#     8   8   8   8   8   8   8   4
#     4  10  20  40  65  96 137 179 225 277 340 406
#     4  11  23  43  67  97 131 177 229 276 337 410
#     4   9  20  39  63  96 137 187 229 279 337 408
#     4  10  20  40  68  97 139 180 228 280 342 416
#     4  11  22  43  70  97 132 174 221 289 350 415
#     4  12  24  44  75  99 133 187 226 289 361 414
#     4  11  23  44  69  95 145 183 226 287 343 401
#     4  12  24  46  72  98 132 172 234 286 358 428
#
# _framework density 23.075990000000001
#
# number of rings (size 3 to 8) (size 9 to 14) (size 15 to 20)
#    0.000    1.333    4.000    2.800    0.000    1.067 
#   19.200    2.000    0.000    0.000    0.000    0.000 
#    0.000    0.000    0.000    0.000    0.000    0.000 
#
# Total GULP energy -167101.554355 kJ/mol
# GULP energy per Si atom -5570.051812 kJ/mol
# Density = 2.302347 g / cm^3
# Si number density = 23.075990 Si / 1000 Ang^3
#
#
#
# Elastic Constant Matrix: (Units=GPa)
#
#
# Indices 1 2 3 4 5 6 
#
# 1 96.2397 37.2086 27.7398 0.0000 0.0000 0.0000
# 2 37.2086 115.4864 25.7919 0.0000 0.0000 0.0000
# 3 27.7398 25.7919 106.6968 0.0000 0.0000 0.0000
# 4 0.0000 0.0000 0.0000 -145.7942 0.0000 0.0000
# 5 0.0000 0.0000 0.0000 0.0000 11.4822 0.0000
# 6 0.0000 0.0000 0.0000 0.0000 0.0000 55.2069
#
#
#
# Elastic Compliance Matrix: (Units=1/GPa)
#
#
# Indices 1 2 3 4 5 6 
#
# 1 0.012421 -0.003468 -0.002391 0.000000 0.000000 0.000000
# 2 -0.003468 0.010121 -0.001545 0.000000 0.000000 0.000000
# 3 -0.002391 -0.001545 0.010367 0.000000 0.000000 0.000000
# 4 0.000000 0.000000 0.000000 -0.006859 0.000000 0.000000
# 5 0.000000 0.000000 0.000000 0.000000 0.087091 0.000000
# 6 0.000000 0.000000 0.000000 0.000000 0.000000 0.018114
#
#
# Mechanical properties :
#
#
# Convention : Reuss Voigt Hill
#
# Bulk Modulus (GPa) = 55.24300 55.54482 55.39391
# Shear Modulus (GPa) = 32.87376 -0.64216 16.11580
#
# Velocity S-wave (km/s) = 3.77846 -0.52809 2.64555
# Velocity P-wave (km/s) = 6.55952 4.87348 5.77833
#
# Compressibility (1/GPa) = 0.01810184
#
# Stress axis : x y z
#
# Youngs Moduli (GPa) = 80.51127 98.80068 96.45576
#
# Poissons Ratio (x) = 0.34262 0.23062
# Poissons Ratio (y) = 0.27920 0.14903
# Poissons Ratio (z) = 0.19250 0.15265
#
# Static dielectric constant tensor:
#      x y z
#    x 1.863490 0.000000 0.000000 
#    y 0.000000 1.981580 0.000000 
#    z 0.000000 0.000000 1.930160 
# 
# From -- ./inp_files/20399.got.cif
#   From: 2010.05.17/outbox.cif.g08.bks.cpg/sg37_11_cif.got.tgz:20399.got - 2010.06.03 17:53:42.
