data_PCOD9354492
_publ_section_title
;
Structure prediction by ZEFSAII (Michael W. Deem and Ramdas Pophale) SiO2 
 PCOD9354492
Probable space group: C C C 2
;
_chemical_formula_sum "Si O2"
_cell_formula_units_Z 44
_cell_length_a 14.119245
_cell_length_b 9.299391
_cell_length_c 14.135339
_cell_angle_alpha 90.000000
_cell_angle_beta 90.000000
_cell_angle_gamma 90.000000
_cell_volume 1855.975380
_symmetry_space_group_name_H-M "C C C 2"
_symmetry_group_IT_number 37
_symmetry_cell_setting 'orthorhombic'
loop_
_space_group_symop_operation_xyz
x,y,z
-x,-y,z
-x,y,1/2+z
x,-y,1/2+z
1/2+x,1/2+y,z
1/2-x,1/2-y,z
1/2-x,1/2+y,1/2+z
1/2+x,1/2-y,1/2+z
loop_
_atom_site_type_symbol
_atom_site_label
_atom_site_fract_x
_atom_site_fract_y
_atom_site_fract_z
Si Si1 0.361248 0.455125 0.829060
Si Si2 0.954322 0.753250 0.335793
Si Si3 0.033526 0.746479 0.059414
Si Si4 0.175712 0.861736 0.525756
Si Si5 0.000000 0.500000 0.199602
Si Si6 0.296460 0.606479 0.142825
O O1 0.443539 0.333393 0.826534
O O2 0.388955 0.616528 0.799609
O O3 0.285191 0.401215 0.754875
O O4 0.341898 0.468480 0.939107
O O5 0.941034 0.723221 0.448391
O O6 0.948660 0.611872 0.271177
O O7 0.094068 0.872658 0.109472
O O8 0.922355 0.789877 0.058318
O O9 0.051722 0.608223 0.126205
O O10 0.250000 0.750000 0.485362
O O11 0.230831 0.952907 0.603482
O O12 0.250000 0.750000 0.103103
#
# Coordination Sequence:
#
# PCOD9354492 Si02
#       6
#     8   8   8   8   4   8
#     4  10  21  44  69  97 136 183 234 272 349 417
#     4  10  21  39  70 101 132 185 229 280 342 413
#     4  11  24  44  70  98 140 186 224 284 351 407
#     4  11  25  45  71 101 138 184 233 285 342 414
#     4  12  22  38  68 106 138 176 238 282 336 404
#     4  12  25  44  68 102 140 182 233 286 347 407
#
# _framework density 23.707208999999999
#
# number of rings (size 3 to 8) (size 9 to 14) (size 15 to 20)
#    0.000    1.091    3.636    2.727    5.091    0.000 
#    0.000    0.909    0.000    0.000    0.000    0.000 
#    0.000    0.000    0.000    0.000    0.000    0.000 
#
# Total GULP energy -122741.302122 kJ/mol
# GULP energy per Si atom -5579.150096 kJ/mol
# Density = 2.365325 g / cm^3
# Si number density = 23.707209 Si / 1000 Ang^3
#
#
#
# Elastic Constant Matrix: (Units=GPa)
#
#
# Indices 1 2 3 4 5 6 
#
# 1 29.2612 -0.5687 -9.6143 0.0000 0.0000 0.0000
# 2 -0.5687 112.1732 37.9425 0.0000 0.0000 0.0000
# 3 -9.6143 37.9425 137.3490 0.0000 0.0000 0.0000
# 4 0.0000 0.0000 0.0000 54.5222 0.0000 0.0000
# 5 0.0000 0.0000 0.0000 0.0000 8.4606 0.0000
# 6 0.0000 0.0000 0.0000 0.0000 0.0000 24.5145
#
#
#
# Elastic Compliance Matrix: (Units=1/GPa)
#
#
# Indices 1 2 3 4 5 6 
#
# 1 0.035032 -0.000719 0.002651 0.000000 0.000000 0.000000
# 2 -0.000719 0.009848 -0.002771 0.000000 0.000000 0.000000
# 3 0.002651 -0.002771 0.008232 0.000000 0.000000 0.000000
# 4 0.000000 0.000000 0.000000 0.018341 0.000000 0.000000
# 5 0.000000 0.000000 0.000000 0.000000 0.118195 0.000000
# 6 0.000000 0.000000 0.000000 0.000000 0.000000 0.040792
#
#
# Mechanical properties :
#
#
# Convention : Reuss Voigt Hill
#
# Bulk Modulus (GPa) = 19.44244 37.14471 28.29357
# Shear Modulus (GPa) = 20.05908 34.23439 27.14673
#
# Velocity S-wave (km/s) = 2.91197 3.80419 3.38758
# Velocity P-wave (km/s) = 4.41870 5.91590 5.22125
#
# Compressibility (1/GPa) = 0.05143388
#
# Stress axis : x y z
#
# Youngs Moduli (GPa) = 28.54533 101.53920 121.48092
#
# Poissons Ratio (x) = 0.07301 -0.32202
# Poissons Ratio (y) = 0.02052 0.33662
# Poissons Ratio (z) = -0.07567 0.28136
#
# Static dielectric constant tensor:
#      x y z
#    x 2.003070 0.000000 0.000000 
#    y 0.000000 1.868780 0.000000 
#    z 0.000000 0.000000 1.878850 
# 
# From -- ./inp_files/12502.got.cif
#   From: 2010.05.17/outbox.cif.g08.bks.cpg/sg37_7_cif.got.tgz:12502.got - 2010.06.03 17:53:42.
