data_PCOD9354905
_publ_section_title
;
Structure prediction by ZEFSAII (Michael W. Deem and Ramdas Pophale) SiO2 
 PCOD9354905
Probable space group: C C C 2
;
_chemical_formula_sum "Si O2"
_cell_formula_units_Z 36
_cell_length_a 31.179861
_cell_length_b 4.887584
_cell_length_c 8.645775
_cell_angle_alpha 90.000000
_cell_angle_beta 90.000000
_cell_angle_gamma 90.000000
_cell_volume 1317.565876
_symmetry_space_group_name_H-M "C C C 2"
_symmetry_group_IT_number 37
_symmetry_cell_setting 'orthorhombic'
loop_
_space_group_symop_operation_xyz
x,y,z
-x,-y,z
-x,y,1/2+z
x,-y,1/2+z
1/2+x,1/2+y,z
1/2-x,1/2-y,z
1/2-x,1/2+y,1/2+z
1/2+x,1/2-y,1/2+z
loop_
_atom_site_type_symbol
_atom_site_label
_atom_site_fract_x
_atom_site_fract_y
_atom_site_fract_z
Si Si1 0.000000 0.500000 0.299640
Si Si2 0.201290 0.159290 0.939601
Si Si3 0.916964 0.322496 0.310390
Si Si4 0.953429 0.098231 0.557078
Si Si5 0.167157 0.642726 0.763098
O O1 0.960679 0.402609 0.405619
O O2 0.971085 0.700348 0.195079
O O3 0.250000 0.250000 0.973896
O O4 0.117537 0.552781 0.783502
O O5 0.189045 0.351061 0.794698
O O6 0.176072 0.245680 0.093394
O O7 0.909080 0.112578 0.449419
O O8 0.811528 0.855292 0.384301
O O9 0.935615 0.838383 0.665351
O O10 0.000000 0.000000 0.487376
#
# Coordination Sequence:
#
# PCOD9354905 Si02
#       5
#     4   8   8   8   8
#     4  10  22  42  74 104 162 228 276 352 398 494
#     4  12  27  56  88 125 164 219 273 349 438 511
#     4  11  26  45  73 115 165 219 287 342 412 484
#     4  10  22  45  72 107 158 233 286 338 410 484
#     4  12  30  52  88 126 170 215 281 351 411 511
#
# _framework density 27.323111000000001
#
# number of rings (size 3 to 8) (size 9 to 14) (size 15 to 20)
#    0.000    0.889    0.000    6.000    6.222    3.556 
#    0.000    0.000    0.000    0.000    0.000    0.000 
#    0.000    0.000    0.000    0.000    0.000    0.000 
#
# Total GULP energy -100386.011677 kJ/mol
# GULP energy per Si atom -5577.000649 kJ/mol
# Density = 2.726092 g / cm^3
# Si number density = 27.323111 Si / 1000 Ang^3
#
#
#
# Elastic Constant Matrix: (Units=GPa)
#
#
# Indices 1 2 3 4 5 6 
#
# 1 217.7298 53.1200 39.2809 0.0000 0.0000 0.0000
# 2 53.1200 128.4306 20.1511 0.0000 0.0000 0.0000
# 3 39.2809 20.1511 127.9950 0.0000 0.0000 0.0000
# 4 0.0000 0.0000 0.0000 23.1421 0.0000 0.0000
# 5 0.0000 0.0000 0.0000 0.0000 28.8150 0.0000
# 6 0.0000 0.0000 0.0000 0.0000 0.0000 50.4624
#
#
#
# Elastic Compliance Matrix: (Units=1/GPa)
#
#
# Indices 1 2 3 4 5 6 
#
# 1 0.005317 -0.001992 -0.001318 0.000000 0.000000 0.000000
# 2 -0.001992 0.008730 -0.000763 0.000000 0.000000 0.000000
# 3 -0.001318 -0.000763 0.008337 0.000000 0.000000 0.000000
# 4 0.000000 0.000000 0.000000 0.043211 0.000000 0.000000
# 5 0.000000 0.000000 0.000000 0.000000 0.034704 0.000000
# 6 0.000000 0.000000 0.000000 0.000000 0.000000 0.019817
#
#
# Mechanical properties :
#
#
# Convention : Reuss Voigt Hill
#
# Bulk Modulus (GPa) = 70.23649 77.69550 73.96600
# Shear Modulus (GPa) = 37.59155 44.59079 41.09117
#
# Velocity S-wave (km/s) = 3.71322 4.04416 3.88222
# Velocity P-wave (km/s) = 6.64422 7.09257 6.87205
#
# Compressibility (1/GPa) = 0.01423761
#
# Stress axis : x y z
#
# Youngs Moduli (GPa) = 188.08730 114.54716 119.94115
#
# Poissons Ratio (x) = 0.22820 0.15808
# Poissons Ratio (y) = 0.37471 0.09152
# Poissons Ratio (z) = 0.24790 0.08740
#
# Static dielectric constant tensor:
#      x y z
#    x 2.459550 0.000000 0.000000 
#    y 0.000000 3.026900 0.000000 
#    z 0.000000 0.000000 2.254110 
# 
# From -- ./inp_files/8753.got.cif
#   From: 2010.05.17/outbox.cif.g08.bks.cpg/sg37_5_cif.got.tgz:8753.got - 2010.06.03 17:53:42.
