data_PCOD9354335
_publ_section_title
;
Structure prediction by ZEFSAII (Michael W. Deem and Ramdas Pophale) SiO2 
 PCOD9354335
Probable space group: C C C 2
;
_chemical_formula_sum "Si O2"
_cell_formula_units_Z 60
_cell_length_a 12.115330
_cell_length_b 26.009002
_cell_length_c 8.317580
_cell_angle_alpha 90.000000
_cell_angle_beta 90.000000
_cell_angle_gamma 90.000000
_cell_volume 2620.933023
_symmetry_space_group_name_H-M "C C C 2"
_symmetry_group_IT_number 37
_symmetry_cell_setting 'orthorhombic'
loop_
_space_group_symop_operation_xyz
x,y,z
-x,-y,z
-x,y,1/2+z
x,-y,1/2+z
1/2+x,1/2+y,z
1/2-x,1/2-y,z
1/2-x,1/2+y,1/2+z
1/2+x,1/2-y,1/2+z
loop_
_atom_site_type_symbol
_atom_site_label
_atom_site_fract_x
_atom_site_fract_y
_atom_site_fract_z
Si Si1 0.198937 0.135927 0.558430
Si Si2 0.395619 0.935280 0.168227
Si Si3 0.394791 0.213156 0.893946
Si Si4 0.308843 0.625132 0.700714
Si Si5 0.750000 0.250000 0.975154
Si Si6 0.854321 0.172475 0.373886
Si Si7 0.900047 0.301033 0.750750
Si Si8 0.864613 0.448372 0.550561
O O1 0.309661 0.102981 0.584271
O O2 0.145499 0.121664 0.384579
O O3 0.236794 0.195790 0.559567
O O4 0.130047 0.133544 0.725136
O O5 0.372480 0.938903 0.359278
O O6 0.524191 0.924284 0.129402
O O7 0.372216 0.991439 0.091421
O O8 0.276685 0.186479 0.888348
O O9 0.400899 0.271168 0.828988
O O10 0.486867 0.177328 0.817655
O O11 0.423239 0.220639 0.078089
O O12 0.378436 0.650002 0.552808
O O13 0.203578 0.662030 0.735604
O O14 0.246622 0.575343 0.627414
O O15 0.857663 0.256188 0.865915
#
# Coordination Sequence:
#
# PCOD9354335 Si02
#       8
#     8   8   8   8   4   8   8   8
#     4  11  21  35  58  74 106 149 190 229 293 323
#     4  11  22  35  55  80 109 157 186 246 289 342
#     4  10  21  34  51  75 108 146 196 233 283 340
#     4  10  21  35  54  77 109 147 189 240 279 339
#     4  10  22  38  54  78 114 150 196 240 280 348
#     4  10  21  37  50  75 109 150 186 242 281 336
#     4  10  22  34  54  77 107 152 189 236 288 339
#     4  11  21  37  52  81 116 143 202 237 287 346
#
# _framework density 22.892612
#
# number of rings (size 3 to 8) (size 9 to 14) (size 15 to 20)
#    0.000    1.600    1.333    6.400    7.467    2.133 
#    0.000    0.000    0.000    0.000    0.000    0.000 
#    0.000    1.067    1.067    0.000    0.000    0.000 
#
# Total GULP energy -167515.209368 kJ/mol
# GULP energy per Si atom -5583.840312 kJ/mol
# Density = 2.284051 g / cm^3
# Si number density = 22.892612 Si / 1000 Ang^3
#
#
#
# Elastic Constant Matrix: (Units=GPa)
#
#
# Indices 1 2 3 4 5 6 
#
# 1 36.2513 4.8977 12.6511 0.0000 0.0000 0.0000
# 2 4.8977 83.4692 23.6771 0.0000 0.0000 0.0000
# 3 12.6511 23.6771 187.5445 0.0000 0.0000 0.0000
# 4 0.0000 0.0000 0.0000 27.8089 0.0000 0.0000
# 5 0.0000 0.0000 0.0000 0.0000 33.8221 0.0000
# 6 0.0000 0.0000 0.0000 0.0000 0.0000 19.9572
#
#
#
# Elastic Compliance Matrix: (Units=1/GPa)
#
#
# Indices 1 2 3 4 5 6 
#
# 1 0.028359 -0.001163 -0.001766 0.000000 0.000000 0.000000
# 2 -0.001163 0.012473 -0.001496 0.000000 0.000000 0.000000
# 3 -0.001766 -0.001496 0.005640 0.000000 0.000000 0.000000
# 4 0.000000 0.000000 0.000000 0.035960 0.000000 0.000000
# 5 0.000000 0.000000 0.000000 0.000000 0.029566 0.000000
# 6 0.000000 0.000000 0.000000 0.000000 0.000000 0.050107
#
#
# Mechanical properties :
#
#
# Convention : Reuss Voigt Hill
#
# Bulk Modulus (GPa) = 26.58083 43.30188 34.94136
# Shear Modulus (GPa) = 27.24847 34.05358 30.65102
#
# Velocity S-wave (km/s) = 3.45378 3.86104 3.66307
# Velocity P-wave (km/s) = 5.24796 6.23162 5.76083
#
# Compressibility (1/GPa) = 0.03762109
#
# Stress axis : x y z
#
# Youngs Moduli (GPa) = 35.26259 80.17230 177.30163
#
# Poissons Ratio (x) = 0.09324 0.31314
# Poissons Ratio (y) = 0.04101 0.26529
# Poissons Ratio (z) = 0.06228 0.11996
#
# Static dielectric constant tensor:
#      x y z
#    x 1.882670 0.000000 0.000000 
#    y 0.000000 1.864980 0.000000 
#    z 0.000000 0.000000 1.974900 
# 
# From -- ./inp_files/3797.got.cif
#   From: 2010.05.17/outbox.cif.g08.bks.cpg/sg37_2_cif.got.tgz:3797.got - 2010.06.03 17:53:42.
