data_PCOD9354549
_publ_section_title
;
Structure prediction by ZEFSAII (Michael W. Deem and Ramdas Pophale) SiO2 
 PCOD9354549
Probable space group: C C C 2
;
_chemical_formula_sum "Si O2"
_cell_formula_units_Z 36
_cell_length_a 5.999102
_cell_length_b 21.548925
_cell_length_c 12.259360
_cell_angle_alpha 90.000000
_cell_angle_beta 90.000000
_cell_angle_gamma 90.000000
_cell_volume 1584.818945
_symmetry_space_group_name_H-M "C C C 2"
_symmetry_group_IT_number 37
_symmetry_cell_setting 'orthorhombic'
loop_
_space_group_symop_operation_xyz
x,y,z
-x,-y,z
-x,y,1/2+z
x,-y,1/2+z
1/2+x,1/2+y,z
1/2-x,1/2-y,z
1/2-x,1/2+y,1/2+z
1/2+x,1/2-y,1/2+z
loop_
_atom_site_type_symbol
_atom_site_label
_atom_site_fract_x
_atom_site_fract_y
_atom_site_fract_z
Si Si1 0.353885 0.940046 0.654330
Si Si2 0.574131 0.563984 0.371135
Si Si3 0.250000 0.750000 0.412931
Si Si4 0.785560 0.351169 0.252209
Si Si5 0.008566 0.147989 0.545801
O O1 0.224195 0.955078 0.767612
O O2 0.524150 0.887451 0.690989
O O3 0.176450 0.904676 0.577194
O O4 0.500000 0.000000 0.616897
O O5 0.500000 0.500000 0.424592
O O6 0.362699 0.601252 0.323227
O O7 0.670374 0.611026 0.461606
O O8 0.128026 0.702435 0.331104
O O9 0.094509 0.793040 0.485787
O O10 0.621187 0.329303 0.156514
#
# Coordination Sequence:
#
# PCOD9354549 Si02
#       5
#     8   8   4   8   8
#     4  11  23  42  69 100 133 175 221 270 343 407
#     4  10  21  41  62  96 141 168 207 274 334 394
#     4  10  24  48  64  98 132 178 234 264 338 392
#     4  10  23  44  66  95 134 176 218 281 324 395
#     4  10  25  42  68  98 135 178 220 283 332 392
#
# _framework density 22.715527999999999
#
# number of rings (size 3 to 8) (size 9 to 14) (size 15 to 20)
#    0.000    1.778    2.222    0.000    6.222    3.556 
#    0.000    2.222    0.000    0.000    0.000    0.000 
#    0.000    0.000    0.000    0.000    0.000    0.000 
#
# Total GULP energy -100510.053205 kJ/mol
# GULP energy per Si atom -5583.891845 kJ/mol
# Density = 2.266383 g / cm^3
# Si number density = 22.715528 Si / 1000 Ang^3
#
#
#
# Elastic Constant Matrix: (Units=GPa)
#
#
# Indices 1 2 3 4 5 6 
#
# 1 43.9458 24.7760 16.8329 0.0000 0.0000 0.0000
# 2 24.7760 139.4137 63.2359 0.0000 0.0000 0.0000
# 3 16.8329 63.2359 106.7462 0.0000 0.0000 0.0000
# 4 0.0000 0.0000 0.0000 38.4261 0.0000 0.0000
# 5 0.0000 0.0000 0.0000 0.0000 -3.0486 0.0000
# 6 0.0000 0.0000 0.0000 0.0000 0.0000 19.2795
#
#
#
# Elastic Compliance Matrix: (Units=1/GPa)
#
#
# Indices 1 2 3 4 5 6 
#
# 1 0.025548 -0.003710 -0.001831 0.000000 0.000000 0.000000
# 2 -0.003710 0.010347 -0.005545 0.000000 0.000000 0.000000
# 3 -0.001831 -0.005545 0.012941 0.000000 0.000000 0.000000
# 4 0.000000 0.000000 0.000000 0.026024 0.000000 0.000000
# 5 0.000000 0.000000 0.000000 0.000000 -0.328021 0.000000
# 6 0.000000 0.000000 0.000000 0.000000 0.000000 0.051869
#
#
# Mechanical properties :
#
#
# Convention : Reuss Voigt Hill
#
# Bulk Modulus (GPa) = 37.50122 55.53280 46.51701
# Shear Modulus (GPa) = -29.37159 23.28214 -3.04472
#
# Velocity S-wave (km/s) = -3.59976 3.20495 -1.15900
# Velocity P-wave (km/s) = 0.85601 6.18027 4.32799
#
# Compressibility (1/GPa) = 0.02666580
#
# Stress axis : x y z
#
# Youngs Moduli (GPa) = 39.14176 96.64531 77.27176
#
# Poissons Ratio (x) = 0.35853 0.14149
# Poissons Ratio (y) = 0.14521 0.42844
# Poissons Ratio (z) = 0.07167 0.53586
#
# Static dielectric constant tensor:
#      x y z
#    x 1.912410 0.000000 0.000000 
#    y 0.000000 1.877290 0.000000 
#    z 0.000000 0.000000 1.911600 
# 
# From -- ./inp_files/5465.got.cif
#   From: 2010.05.17/outbox.cif.g08.bks.cpg/sg37_3_cif.got.tgz:5465.got - 2010.06.03 17:53:42.
