data_PCOD9354697
_publ_section_title
;
Structure prediction by ZEFSAII (Michael W. Deem and Ramdas Pophale) SiO2 
 PCOD9354697
Probable space group: C C C 2
;
_chemical_formula_sum "Si O2"
_cell_formula_units_Z 40
_cell_length_a 14.720970
_cell_length_b 13.412907
_cell_length_c 9.635928
_cell_angle_alpha 90.000000
_cell_angle_beta 90.000000
_cell_angle_gamma 90.000000
_cell_volume 1902.623635
_symmetry_space_group_name_H-M "C C C 2"
_symmetry_group_IT_number 37
_symmetry_cell_setting 'orthorhombic'
loop_
_space_group_symop_operation_xyz
x,y,z
-x,-y,z
-x,y,1/2+z
x,-y,1/2+z
1/2+x,1/2+y,z
1/2-x,1/2-y,z
1/2-x,1/2+y,1/2+z
1/2+x,1/2-y,1/2+z
loop_
_atom_site_type_symbol
_atom_site_label
_atom_site_fract_x
_atom_site_fract_y
_atom_site_fract_z
Si Si1 0.560926 0.590890 0.761390
Si Si2 0.479965 0.103135 0.011510
Si Si3 0.275029 0.469741 0.135608
Si Si4 0.348520 0.041261 0.390239
Si Si5 0.576302 0.314397 0.549502
O O1 0.500000 0.500000 0.820411
O O2 0.655673 0.545277 0.711105
O O3 0.505563 0.631730 0.630400
O O4 0.569851 0.670008 0.884144
O O5 0.436700 0.198274 0.080718
O O6 0.500000 0.000000 0.096736
O O7 0.578103 0.123027 0.941794
O O8 0.408816 0.060073 0.898810
O O9 0.196438 0.442682 0.243379
O O10 0.332864 0.372049 0.095272
O O11 0.230326 0.522922 0.003171
#
# Coordination Sequence:
#
# PCOD9354697 Si02
#       5
#     8   8   8   8   8
#     4  10  22  37  64  96 134 165 218 284 341 394
#     4   8  23  46  65  93 136 182 220 275 345 400
#     4  11  20  40  67  98 130 171 225 285 331 398
#     4   9  22  40  67  91 138 171 220 281 331 394
#     4  11  22  40  67  98 130 177 222 275 349 407
#
# _framework density 21.023599999999998
#
# number of rings (size 3 to 8) (size 9 to 14) (size 15 to 20)
#    1.200    0.800    2.000    1.800    2.800    7.200 
#    0.000    5.000    0.000    0.000    0.000    0.000 
#    0.000    0.000    0.000    0.000    0.000    0.000 
#
# Total GULP energy -111513.527102 kJ/mol
# GULP energy per Si atom -5575.676355 kJ/mol
# Density = 2.097575 g / cm^3
# Si number density = 21.023600 Si / 1000 Ang^3
#
#
#
# Elastic Constant Matrix: (Units=GPa)
#
#
# Indices 1 2 3 4 5 6 
#
# 1 109.6200 35.1482 29.0076 0.0000 0.0000 0.0000
# 2 35.1482 89.8060 25.0221 0.0000 0.0000 0.0000
# 3 29.0076 25.0221 79.3055 0.0000 0.0000 0.0000
# 4 0.0000 0.0000 0.0000 11.0708 0.0000 0.0000
# 5 0.0000 0.0000 0.0000 0.0000 14.8398 0.0000
# 6 0.0000 0.0000 0.0000 0.0000 0.0000 3.4281
#
#
#
# Elastic Compliance Matrix: (Units=1/GPa)
#
#
# Indices 1 2 3 4 5 6 
#
# 1 0.011018 -0.003497 -0.002927 0.000000 0.000000 0.000000
# 2 -0.003497 0.013318 -0.002923 0.000000 0.000000 0.000000
# 3 -0.002927 -0.002923 0.014602 0.000000 0.000000 0.000000
# 4 0.000000 0.000000 0.000000 0.090328 0.000000 0.000000
# 5 0.000000 0.000000 0.000000 0.000000 0.067386 0.000000
# 6 0.000000 0.000000 0.000000 0.000000 0.000000 0.291704
#
#
# Mechanical properties :
#
#
# Convention : Reuss Voigt Hill
#
# Bulk Modulus (GPa) = 49.39441 50.78750 50.09095
# Shear Modulus (GPa) = 9.73144 18.50465 14.11805
#
# Velocity S-wave (km/s) = 2.15380 2.97001 2.59421
# Velocity P-wave (km/s) = 5.45261 5.99759 5.73158
#
# Compressibility (1/GPa) = 0.02024521
#
# Stress axis : x y z
#
# Youngs Moduli (GPa) = 90.75959 75.08574 68.48248
#
# Poissons Ratio (x) = 0.26256 0.20044
# Poissons Ratio (y) = 0.31737 0.20018
# Poissons Ratio (z) = 0.26564 0.21948
#
# Static dielectric constant tensor:
#      x y z
#    x 1.770150 0.000000 0.000000 
#    y 0.000000 1.781120 0.000000 
#    z 0.000000 0.000000 1.739260 
# 
# From -- ./inp_files/3330.got.cif
#   From: 2010.05.17/outbox.cif.g08.bks.cpg/sg37_2_cif.got.tgz:3330.got - 2010.06.03 17:53:42.
