data_PCOD9354042
_publ_section_title
;
Structure prediction by ZEFSAII (Michael W. Deem and Ramdas Pophale) SiO2 
 PCOD9354042
Probable space group: C C C 2
;
_chemical_formula_sum "Si O2"
_cell_formula_units_Z 40
_cell_length_a 5.253628
_cell_length_b 18.083804
_cell_length_c 19.559488
_cell_angle_alpha 90.000000
_cell_angle_beta 90.000000
_cell_angle_gamma 90.000000
_cell_volume 1858.260483
_symmetry_space_group_name_H-M "C C C 2"
_symmetry_group_IT_number 37
_symmetry_cell_setting 'orthorhombic'
loop_
_space_group_symop_operation_xyz
x,y,z
-x,-y,z
-x,y,1/2+z
x,-y,1/2+z
1/2+x,1/2+y,z
1/2-x,1/2-y,z
1/2-x,1/2+y,1/2+z
1/2+x,1/2-y,1/2+z
loop_
_atom_site_type_symbol
_atom_site_label
_atom_site_fract_x
_atom_site_fract_y
_atom_site_fract_z
Si Si1 0.194610 0.337948 0.062980
Si Si2 0.000000 0.500000 0.919873
Si Si3 0.605355 0.859552 0.347158
Si Si4 0.855209 0.834788 0.211770
Si Si5 0.750000 0.250000 0.275481
Si Si6 0.686722 0.614695 0.486302
O O1 0.250000 0.250000 0.061382
O O2 0.260780 0.364740 0.139827
O O3 0.408632 0.374048 0.015197
O O4 0.909796 0.354582 0.036651
O O5 0.937938 0.570656 0.872558
O O6 0.223420 0.531845 0.967080
O O7 0.758017 0.877970 0.278087
O O8 0.447735 0.788404 0.325954
O O9 0.782216 0.845658 0.412702
O O10 0.750000 0.750000 0.213830
O O11 0.149741 0.815819 0.226276
#
# Coordination Sequence:
#
# PCOD9354042 Si02
#       6
#     8   4   8   8   4   8
#     4  11  24  39  65  99 133 169 219 281 342 397
#     4   8  22  44  62  88 138 174 216 276 322 400
#     4   9  21  40  63  92 123 174 222 273 328 392
#     4   9  21  37  61  93 131 164 217 279 341 391
#     4  10  20  36  64  94 124 166 222 288 324 398
#     4  10  24  41  65  90 133 176 221 264 336 398
#
# _framework density 21.525507000000001
#
# number of rings (size 3 to 8) (size 9 to 14) (size 15 to 20)
#    1.200    1.200    0.000    0.600   12.600    4.000 
#    3.600    1.000    4.400    0.000    0.000    0.000 
#    0.000    0.000    0.000    0.000    0.000    0.000 
#
# Total GULP energy -111367.405830 kJ/mol
# GULP energy per Si atom -5568.370291 kJ/mol
# Density = 2.147651 g / cm^3
# Si number density = 21.525507 Si / 1000 Ang^3
#
#
#
# Elastic Constant Matrix: (Units=GPa)
#
#
# Indices 1 2 3 4 5 6 
#
# 1 43.0594 8.5324 9.2983 0.0000 0.0000 0.0000
# 2 8.5324 47.9904 21.8398 0.0000 0.0000 0.0000
# 3 9.2983 21.8398 141.4346 0.0000 0.0000 0.0000
# 4 0.0000 0.0000 0.0000 -30.9303 0.0000 0.0000
# 5 0.0000 0.0000 0.0000 0.0000 22.7949 0.0000
# 6 0.0000 0.0000 0.0000 0.0000 0.0000 26.3796
#
#
#
# Elastic Compliance Matrix: (Units=1/GPa)
#
#
# Indices 1 2 3 4 5 6 
#
# 1 0.024202 -0.003849 -0.000997 0.000000 0.000000 0.000000
# 2 -0.003849 0.023025 -0.003302 0.000000 0.000000 0.000000
# 3 -0.000997 -0.003302 0.007646 0.000000 0.000000 0.000000
# 4 0.000000 0.000000 0.000000 -0.032331 0.000000 0.000000
# 5 0.000000 0.000000 0.000000 0.000000 0.043870 0.000000
# 6 0.000000 0.000000 0.000000 0.000000 0.000000 0.037908
#
#
# Mechanical properties :
#
#
# Convention : Reuss Voigt Hill
#
# Bulk Modulus (GPa) = 25.92310 34.64727 30.28518
# Shear Modulus (GPa) = 37.46037 16.50310 26.98174
#
# Velocity S-wave (km/s) = 4.17619 2.77190 3.54429
# Velocity P-wave (km/s) = 5.94333 5.13570 5.55421
#
# Compressibility (1/GPa) = 0.03857563
#
# Stress axis : x y z
#
# Youngs Moduli (GPa) = 41.31936 43.43152 130.78959
#
# Poissons Ratio (x) = 0.16718 0.13036
# Poissons Ratio (y) = 0.15905 0.43191
# Poissons Ratio (z) = 0.04118 0.14343
#
# Static dielectric constant tensor:
#      x y z
#    x 1.998840 0.000000 0.000000 
#    y 0.000000 1.820720 0.000000 
#    z 0.000000 0.000000 1.799850 
# 
# From -- ./inp_files/15720.got.cif
#   From: 2010.05.17/outbox.cif.g08.bks.cpg/sg37_8_cif.got.tgz:15720.got - 2010.06.03 17:53:42.
