data_PCOD9354673
_publ_section_title
;
Structure prediction by ZEFSAII (Michael W. Deem and Ramdas Pophale) SiO2 
 PCOD9354673
Probable space group: C C C 2
;
_chemical_formula_sum "Si O2"
_cell_formula_units_Z 60
_cell_length_a 11.744489
_cell_length_b 24.134605
_cell_length_c 9.630401
_cell_angle_alpha 90.000000
_cell_angle_beta 90.000000
_cell_angle_gamma 90.000000
_cell_volume 2729.723709
_symmetry_space_group_name_H-M "C C C 2"
_symmetry_group_IT_number 37
_symmetry_cell_setting 'orthorhombic'
loop_
_space_group_symop_operation_xyz
x,y,z
-x,-y,z
-x,y,1/2+z
x,-y,1/2+z
1/2+x,1/2+y,z
1/2-x,1/2-y,z
1/2-x,1/2+y,1/2+z
1/2+x,1/2-y,1/2+z
loop_
_atom_site_type_symbol
_atom_site_label
_atom_site_fract_x
_atom_site_fract_y
_atom_site_fract_z
Si Si1 0.820629 0.193313 0.929320
Si Si2 0.743179 0.620157 0.671681
Si Si3 0.991573 0.655933 0.606395
Si Si4 0.902489 0.963287 0.503786
Si Si5 0.255519 0.137595 0.161822
Si Si6 0.513733 0.231151 0.354619
Si Si7 0.873518 0.077875 0.434435
Si Si8 0.250000 0.750000 0.491644
O O1 0.750000 0.250000 0.911615
O O2 0.772091 0.147657 0.822727
O O3 0.945964 0.213598 0.890647
O O4 0.806006 0.171809 0.085038
O O5 0.879355 0.624757 0.659964
O O6 0.689975 0.567221 0.593451
O O7 0.693160 0.615425 0.825322
O O8 0.003308 0.711891 0.698042
O O9 0.111587 0.625234 0.629095
O O10 0.974684 0.678977 0.451065
O O11 0.149722 0.012154 0.910404
O O12 0.988725 0.920047 0.429887
O O13 0.000000 0.000000 0.585308
O O14 0.173935 0.094617 0.084888
O O15 0.232127 0.197000 0.089384
O O16 0.643337 0.238920 0.394522
#
# Coordination Sequence:
#
# PCOD9354673 Si02
#       8
#     8   8   8   8   8   8   8   4
#     4  12  23  42  62  97 146 189 231 266 334 404
#     4  12  23  41  71 103 127 180 231 280 346 408
#     4  11  22  39  64  90 140 174 225 274 336 393
#     4   8  24  46  67  97 137 163 215 312 350 398
#     4  11  21  44  64  94 138 194 217 274 345 410
#     4  11  23  41  56  90 138 189 222 285 314 395
#     4   9  24  44  71  97 130 172 227 285 357 404
#     4  10  22  36  60  90 134 184 240 266 328 398
#
# _framework density 21.980246000000001
#
# number of rings (size 3 to 8) (size 9 to 14) (size 15 to 20)
#    0.800    0.533    3.333    2.400    3.733    4.267 
#    3.600    0.667    0.000    1.600    0.000    0.000 
#    0.000    0.000    0.000    0.000    0.000    0.000 
#
# Total GULP energy -167569.209327 kJ/mol
# GULP energy per Si atom -5585.640311 kJ/mol
# Density = 2.193022 g / cm^3
# Si number density = 21.980246 Si / 1000 Ang^3
#
#
#
# Elastic Constant Matrix: (Units=GPa)
#
#
# Indices 1 2 3 4 5 6 
#
# 1 104.9722 42.5400 23.8934 0.0000 0.0000 0.0000
# 2 42.5400 58.3543 19.4391 0.0000 0.0000 0.0000
# 3 23.8934 19.4391 69.6148 0.0000 0.0000 0.0000
# 4 0.0000 0.0000 0.0000 29.0823 0.0000 0.0000
# 5 0.0000 0.0000 0.0000 0.0000 23.8379 0.0000
# 6 0.0000 0.0000 0.0000 0.0000 0.0000 39.9628
#
#
#
# Elastic Compliance Matrix: (Units=1/GPa)
#
#
# Indices 1 2 3 4 5 6 
#
# 1 0.013800 -0.009352 -0.002125 0.000000 0.000000 0.000000
# 2 -0.009352 0.025232 -0.003836 0.000000 0.000000 0.000000
# 3 -0.002125 -0.003836 0.016165 0.000000 0.000000 0.000000
# 4 0.000000 0.000000 0.000000 0.034385 0.000000 0.000000
# 5 0.000000 0.000000 0.000000 0.000000 0.041950 0.000000
# 6 0.000000 0.000000 0.000000 0.000000 0.000000 0.025023
#
#
# Mechanical properties :
#
#
# Convention : Reuss Voigt Hill
#
# Bulk Modulus (GPa) = 40.69799 44.96516 42.83157
# Shear Modulus (GPa) = 25.59213 28.38120 26.98667
#
# Velocity S-wave (km/s) = 3.41592 3.59724 3.50775
# Velocity P-wave (km/s) = 5.84071 6.14451 5.99454
#
# Compressibility (1/GPa) = 0.02457124
#
# Stress axis : x y z
#
# Youngs Moduli (GPa) = 72.46374 39.63183 61.86114
#
# Poissons Ratio (x) = 0.37065 0.13145
# Poissons Ratio (y) = 0.67770 0.23729
# Poissons Ratio (z) = 0.15398 0.15202
#
# Static dielectric constant tensor:
#      x y z
#    x 1.840510 0.000000 0.000000 
#    y 0.000000 1.826090 0.000000 
#    z 0.000000 0.000000 1.834740 
# 
# From -- ./inp_files/3064.got.cif
#   From: 2010.05.17/outbox.cif.g08.bks.cpg/sg37_2_cif.got.tgz:3064.got - 2010.06.03 17:53:42.
