data_PCOD9354887
_publ_section_title
;
Structure prediction by ZEFSAII (Michael W. Deem and Ramdas Pophale) SiO2 
 PCOD9354887
Probable space group: C C C 2
;
_chemical_formula_sum "Si O2"
_cell_formula_units_Z 48
_cell_length_a 8.552435
_cell_length_b 29.489689
_cell_length_c 8.452668
_cell_angle_alpha 90.000000
_cell_angle_beta 90.000000
_cell_angle_gamma 90.000000
_cell_volume 2131.835971
_symmetry_space_group_name_H-M "C C C 2"
_symmetry_group_IT_number 37
_symmetry_cell_setting 'orthorhombic'
loop_
_space_group_symop_operation_xyz
x,y,z
-x,-y,z
-x,y,1/2+z
x,-y,1/2+z
1/2+x,1/2+y,z
1/2-x,1/2-y,z
1/2-x,1/2+y,1/2+z
1/2+x,1/2-y,1/2+z
loop_
_atom_site_type_symbol
_atom_site_label
_atom_site_fract_x
_atom_site_fract_y
_atom_site_fract_z
Si Si1 0.736867 0.098286 0.518950
Si Si2 0.065944 0.619223 0.846845
Si Si3 0.167547 0.990949 0.355953
Si Si4 0.982273 0.150220 0.144121
Si Si5 0.738207 0.432377 0.096159
Si Si6 0.712425 0.697459 0.392832
O O1 0.646519 0.098644 0.688980
O O2 0.616845 0.111977 0.378373
O O3 0.813905 0.049699 0.482854
O O4 0.875112 0.134656 0.530515
O O5 0.128873 0.670372 0.851668
O O6 0.135676 0.597945 0.008064
O O7 0.282651 0.971187 0.222465
O O8 0.186757 0.037402 0.447184
O O9 0.000000 0.000000 0.275832
O O10 0.076988 0.176531 0.279854
O O11 0.892608 0.101723 0.168225
O O12 0.855456 0.182982 0.063611
O O13 0.750000 0.750000 0.377321
#
# Coordination Sequence:
#
# PCOD9354887 Si02
#       6
#     8   8   8   8   8   8
#     4  11  22  42  64  94 132 177 223 271 343 396
#     4  10  24  42  65  94 137 175 217 283 346 404
#     4  12  23  36  64  95 127 171 230 272 318 401
#     4  10  22  42  68  93 135 174 217 275 334 408
#     4  11  23  40  63  97 129 173 223 276 332 391
#     4  10  23  43  68 102 131 172 226 277 342 418
#
# _framework density 22.515805
#
# number of rings (size 3 to 8) (size 9 to 14) (size 15 to 20)
#    0.000    1.333    1.667    3.500    4.667    4.667 
#    0.000    4.167    0.000    0.000    0.000    0.000 
#    0.000    0.000    0.000    0.000    0.000    0.000 
#
# Total GULP energy -133768.246995 kJ/mol
# GULP energy per Si atom -5573.676958 kJ/mol
# Density = 2.246456 g / cm^3
# Si number density = 22.515805 Si / 1000 Ang^3
#
#
#
# Elastic Constant Matrix: (Units=GPa)
#
#
# Indices 1 2 3 4 5 6 
#
# 1 97.5109 51.8847 19.8105 0.0000 0.0000 0.0000
# 2 51.8847 149.1980 33.5471 0.0000 0.0000 0.0000
# 3 19.8105 33.5471 73.1623 0.0000 0.0000 0.0000
# 4 0.0000 0.0000 0.0000 28.6028 0.0000 0.0000
# 5 0.0000 0.0000 0.0000 0.0000 42.3829 0.0000
# 6 0.0000 0.0000 0.0000 0.0000 0.0000 17.0355
#
#
#
# Elastic Compliance Matrix: (Units=1/GPa)
#
#
# Indices 1 2 3 4 5 6 
#
# 1 0.012746 -0.004077 -0.001582 0.000000 0.000000 0.000000
# 2 -0.004077 0.008777 -0.002921 0.000000 0.000000 0.000000
# 3 -0.001582 -0.002921 0.015436 0.000000 0.000000 0.000000
# 4 0.000000 0.000000 0.000000 0.034962 0.000000 0.000000
# 5 0.000000 0.000000 0.000000 0.000000 0.023594 0.000000
# 6 0.000000 0.000000 0.000000 0.000000 0.000000 0.058701
#
#
# Mechanical properties :
#
#
# Convention : Reuss Voigt Hill
#
# Bulk Modulus (GPa) = 50.50515 58.92842 54.71678
# Shear Modulus (GPa) = 28.09396 31.91283 30.00340
#
# Velocity S-wave (km/s) = 3.53617 3.76886 3.65437
# Velocity P-wave (km/s) = 6.25719 6.72071 6.49308
#
# Compressibility (1/GPa) = 0.01979996
#
# Stress axis : x y z
#
# Youngs Moduli (GPa) = 78.45686 113.93514 64.78455
#
# Poissons Ratio (x) = 0.46449 0.10248
# Poissons Ratio (y) = 0.31985 0.18921
# Poissons Ratio (z) = 0.12411 0.33276
#
# Static dielectric constant tensor:
#      x y z
#    x 1.896110 0.000000 0.000000 
#    y 0.000000 1.783000 0.000000 
#    z 0.000000 0.000000 1.947090 
# 
# From -- ./inp_files/2382.got.cif
#   From: 2010.05.17/outbox.cif.g08.bks.cpg/sg37_2_cif.got.tgz:2382.got - 2010.06.03 17:53:42.
