data_PCOD9354485
_publ_section_title
;
Structure prediction by ZEFSAII (Michael W. Deem and Ramdas Pophale) SiO2 
 PCOD9354485
Probable space group: C C C 2
;
_chemical_formula_sum "Si O2"
_cell_formula_units_Z 48
_cell_length_a 27.689203
_cell_length_b 5.604906
_cell_length_c 14.401970
_cell_angle_alpha 90.000000
_cell_angle_beta 90.000000
_cell_angle_gamma 90.000000
_cell_volume 2235.119207
_symmetry_space_group_name_H-M "C C C 2"
_symmetry_group_IT_number 37
_symmetry_cell_setting 'orthorhombic'
loop_
_space_group_symop_operation_xyz
x,y,z
-x,-y,z
-x,y,1/2+z
x,-y,1/2+z
1/2+x,1/2+y,z
1/2-x,1/2-y,z
1/2-x,1/2+y,1/2+z
1/2+x,1/2-y,1/2+z
loop_
_atom_site_type_symbol
_atom_site_label
_atom_site_fract_x
_atom_site_fract_y
_atom_site_fract_z
Si Si1 0.628579 0.418192 0.332860
Si Si2 0.053715 0.491640 0.096051
Si Si3 0.971336 0.254277 0.282283
Si Si4 0.694896 0.824839 0.990147
Si Si5 0.627167 0.600765 0.132616
Si Si6 0.371952 0.786257 0.973155
O O1 0.578182 0.279507 0.337796
O O2 0.667499 0.300377 0.402200
O O3 0.641483 0.459857 0.225486
O O4 0.619186 0.682123 0.372932
O O5 0.047108 0.690018 0.176830
O O6 0.078727 0.261564 0.145297
O O7 0.000000 0.500000 0.056073
O O8 0.089832 0.527168 0.011206
O O9 0.000000 0.500000 0.306292
O O10 0.000000 0.000000 0.287846
O O11 0.750000 0.750000 0.988577
O O12 0.681238 0.102332 0.978606
O O13 0.670845 0.756750 0.089549
O O14 0.619708 0.420366 0.047975
#
# Coordination Sequence:
#
# PCOD9354485 Si02
#       6
#     8   8   8   8   8   8
#     4  11  23  43  68 100 140 185 242 298 360 426
#     4  10  21  39  66  95 140 191 243 282 352 420
#     4  11  24  41  69 103 146 195 246 297 352 431
#     4  10  25  47  67 104 136 180 239 308 371 441
#     4  10  22  44  66  97 136 192 229 298 359 430
#     4  10  23  42  67  93 141 179 230 300 350 426
#
# _framework density 21.475366000000001
#
# number of rings (size 3 to 8) (size 9 to 14) (size 15 to 20)
#    0.000    1.667    1.667    2.000    4.667    2.667 
#   15.000    0.833    0.000    0.000    0.000    0.000 
#    0.000    0.000    0.000    0.000    0.000    0.000 
#
# Total GULP energy -133713.297965 kJ/mol
# GULP energy per Si atom -5571.387415 kJ/mol
# Density = 2.142649 g / cm^3
# Si number density = 21.475366 Si / 1000 Ang^3
#
#
#
# Elastic Constant Matrix: (Units=GPa)
#
#
# Indices 1 2 3 4 5 6 
#
# 1 156.7175 44.9802 22.0327 0.0000 0.0000 0.0000
# 2 44.9802 86.3994 12.8029 0.0000 0.0000 0.0000
# 3 22.0327 12.8029 63.3104 0.0000 0.0000 0.0000
# 4 0.0000 0.0000 0.0000 30.7999 0.0000 0.0000
# 5 0.0000 0.0000 0.0000 0.0000 22.2985 0.0000
# 6 0.0000 0.0000 0.0000 0.0000 0.0000 26.6500
#
#
#
# Elastic Compliance Matrix: (Units=1/GPa)
#
#
# Indices 1 2 3 4 5 6 
#
# 1 0.007725 -0.003735 -0.001933 0.000000 0.000000 0.000000
# 2 -0.003735 0.013738 -0.001478 0.000000 0.000000 0.000000
# 3 -0.001933 -0.001478 0.016767 0.000000 0.000000 0.000000
# 4 0.000000 0.000000 0.000000 0.032468 0.000000 0.000000
# 5 0.000000 0.000000 0.000000 0.000000 0.044846 0.000000
# 6 0.000000 0.000000 0.000000 0.000000 0.000000 0.037523
#
#
# Mechanical properties :
#
#
# Convention : Reuss Voigt Hill
#
# Bulk Modulus (GPa) = 41.77694 51.78432 46.78063
# Shear Modulus (GPa) = 28.51638 31.05712 29.78675
#
# Velocity S-wave (km/s) = 3.64794 3.80699 3.72831
# Velocity P-wave (km/s) = 6.10237 6.59469 6.35330
#
# Compressibility (1/GPa) = 0.02393665
#
# Stress axis : x y z
#
# Youngs Moduli (GPa) = 129.45504 72.79220 59.64158
#
# Poissons Ratio (x) = 0.27189 0.11528
# Poissons Ratio (y) = 0.48353 0.08816
# Poissons Ratio (z) = 0.25023 0.10760
#
# Static dielectric constant tensor:
#      x y z
#    x 1.835040 0.000000 0.000000 
#    y 0.000000 1.962270 0.000000 
#    z 0.000000 0.000000 1.761060 
# 
# From -- ./inp_files/13338.got.cif
#   From: 2010.05.17/outbox.cif.g08.bks.cpg/sg37_7_cif.got.tgz:13338.got - 2010.06.03 17:53:42.
