data_PCOD9354849
_publ_section_title
;
Structure prediction by ZEFSAII (Michael W. Deem and Ramdas Pophale) SiO2 
 PCOD9354849
Probable space group: C C C 2
;
_chemical_formula_sum "Si O2"
_cell_formula_units_Z 64
_cell_length_a 11.113891
_cell_length_b 24.932938
_cell_length_c 9.121592
_cell_angle_alpha 90.000000
_cell_angle_beta 90.000000
_cell_angle_gamma 90.000000
_cell_volume 2527.610978
_symmetry_space_group_name_H-M "C C C 2"
_symmetry_group_IT_number 37
_symmetry_cell_setting 'orthorhombic'
loop_
_space_group_symop_operation_xyz
x,y,z
-x,-y,z
-x,y,1/2+z
x,-y,1/2+z
1/2+x,1/2+y,z
1/2-x,1/2-y,z
1/2-x,1/2+y,1/2+z
1/2+x,1/2-y,1/2+z
loop_
_atom_site_type_symbol
_atom_site_label
_atom_site_fract_x
_atom_site_fract_y
_atom_site_fract_z
Si Si1 0.170595 0.302087 0.750000
Si Si2 0.411193 0.754207 0.707385
Si Si3 0.780935 0.011852 0.272243
Si Si4 0.116139 0.095837 0.283191
Si Si5 0.526336 0.317054 0.965456
Si Si6 0.883804 0.463510 0.540267
Si Si7 0.212146 0.648058 0.562893
Si Si8 0.281637 0.615344 0.079076
O O1 0.250000 0.250000 0.712613
O O2 0.036238 0.281404 0.753991
O O3 0.171217 0.350654 0.634948
O O4 0.220317 0.327773 0.900228
O O5 0.393383 0.717866 0.851677
O O6 0.435568 0.720387 0.556489
O O7 0.322114 0.801958 0.666307
O O8 0.886803 0.967964 0.270327
O O9 0.728249 0.027722 0.429059
O O10 0.808325 0.063786 0.175289
O O11 0.665874 0.985079 0.193338
O O12 0.009522 0.129217 0.363143
O O13 0.168994 0.120706 0.134164
O O14 0.220891 0.101869 0.407975
O O15 0.610012 0.342222 0.090585
O O16 0.889071 0.398972 0.553918
O O17 0.000000 0.500000 0.502194
#
# Coordination Sequence:
#
# PCOD9354849 Si02
#       8
#     8   8   8   8   8   8   8   8
#     4  12  24  39  62  96 128 172 215 265 316 392
#     4  12  25  41  64  95 135 167 220 266 332 382
#     4  11  20  41  63  91 121 170 220 265 314 398
#     4   9  23  42  67  91 125 172 216 262 332 378
#     4  10  24  46  65  95 126 177 207 278 326 392
#     4  11  23  37  57  92 135 173 207 262 323 379
#     4  11  26  38  63  97 130 173 220 264 308 398
#     4  10  22  41  67  90 126 170 217 260 327 382
#
# _framework density 25.320353000000001
#
# number of rings (size 3 to 8) (size 9 to 14) (size 15 to 20)
#    0.750    0.500    5.000    0.375    5.250    3.000 
#    0.000    0.000    0.000    2.250    0.000    0.000 
#    0.000    0.000    0.000    0.000    0.000    0.000 
#
# Total GULP energy -178676.820939 kJ/mol
# GULP energy per Si atom -5583.650654 kJ/mol
# Density = 2.526272 g / cm^3
# Si number density = 25.320353 Si / 1000 Ang^3
#
#
#
# Elastic Constant Matrix: (Units=GPa)
#
#
# Indices 1 2 3 4 5 6 
#
# 1 64.3133 42.1544 26.9031 0.0000 0.0000 0.0000
# 2 42.1544 196.4628 48.2282 0.0000 0.0000 0.0000
# 3 26.9031 48.2282 117.0517 0.0000 0.0000 0.0000
# 4 0.0000 0.0000 0.0000 45.9385 0.0000 0.0000
# 5 0.0000 0.0000 0.0000 0.0000 6.9814 0.0000
# 6 0.0000 0.0000 0.0000 0.0000 0.0000 37.2806
#
#
#
# Elastic Compliance Matrix: (Units=1/GPa)
#
#
# Indices 1 2 3 4 5 6 
#
# 1 0.018988 -0.003341 -0.002988 0.000000 0.000000 0.000000
# 2 -0.003341 0.006251 -0.001808 0.000000 0.000000 0.000000
# 3 -0.002988 -0.001808 0.009975 0.000000 0.000000 0.000000
# 4 0.000000 0.000000 0.000000 0.021768 0.000000 0.000000
# 5 0.000000 0.000000 0.000000 0.000000 0.143237 0.000000
# 6 0.000000 0.000000 0.000000 0.000000 0.000000 0.026824
#
#
# Mechanical properties :
#
#
# Convention : Reuss Voigt Hill
#
# Bulk Modulus (GPa) = 52.79436 68.04436 60.41936
# Shear Modulus (GPa) = 20.02973 35.40959 27.71966
#
# Velocity S-wave (km/s) = 2.81562 3.74366 3.31230
# Velocity P-wave (km/s) = 5.60946 6.75414 6.20824
#
# Compressibility (1/GPa) = 0.01894142
#
# Stress axis : x y z
#
# Youngs Moduli (GPa) = 52.66349 159.98526 100.25372
#
# Poissons Ratio (x) = 0.53449 0.29954
# Poissons Ratio (y) = 0.17594 0.18121
# Poissons Ratio (z) = 0.15735 0.28918
#
# Static dielectric constant tensor:
#      x y z
#    x 2.103360 0.000000 0.000000 
#    y 0.000000 2.057840 0.000000 
#    z 0.000000 0.000000 1.942380 
# 
# From -- ./inp_files/3760.got.cif
#   From: 2010.05.17/outbox.cif.g08.bks.cpg/sg37_2_cif.got.tgz:3760.got - 2010.06.03 17:53:42.
