data_PCOD9354016
_publ_section_title
;
Structure prediction by ZEFSAII (Michael W. Deem and Ramdas Pophale) SiO2 
 PCOD9354016
Probable space group: C C C 2
;
_chemical_formula_sum "Si O2"
_cell_formula_units_Z 44
_cell_length_a 26.040517
_cell_length_b 4.913733
_cell_length_c 15.852789
_cell_angle_alpha 90.000000
_cell_angle_beta 90.000000
_cell_angle_gamma 90.000000
_cell_volume 2028.461811
_symmetry_space_group_name_H-M "C C C 2"
_symmetry_group_IT_number 37
_symmetry_cell_setting 'orthorhombic'
loop_
_space_group_symop_operation_xyz
x,y,z
-x,-y,z
-x,y,1/2+z
x,-y,1/2+z
1/2+x,1/2+y,z
1/2-x,1/2-y,z
1/2-x,1/2+y,1/2+z
1/2+x,1/2-y,1/2+z
loop_
_atom_site_type_symbol
_atom_site_label
_atom_site_fract_x
_atom_site_fract_y
_atom_site_fract_z
Si Si1 0.639937 0.686917 0.210590
Si Si2 0.750000 0.250000 0.776648
Si Si3 0.701035 0.645108 0.914478
Si Si4 0.387884 0.164837 0.813107
Si Si5 0.116590 0.900991 0.034755
Si Si6 0.556325 0.104293 0.479080
O O1 0.699319 0.780719 0.219640
O O2 0.619759 0.472554 0.281319
O O3 0.632104 0.522654 0.124859
O O4 0.610258 0.963095 0.234133
O O5 0.729418 0.482364 0.839714
O O6 0.750000 0.750000 0.966854
O O7 0.663925 0.868497 0.870433
O O8 0.663213 0.464902 0.970853
O O9 0.432773 0.103305 0.878697
O O10 0.068879 0.089431 0.006012
O O11 0.097635 0.592927 0.025231
O O12 0.500000 0.000000 0.498849
#
# Coordination Sequence:
#
# PCOD9354016 Si02
#       6
#     8   4   8   8   8   8
#     4  11  22  39  59  94 134 160 205 260 322 359
#     4  10  20  36  60  84 128 178 212 240 292 378
#     4  10  20  36  60  91 126 175 214 244 303 376
#     4  10  21  40  64  88 122 164 212 260 303 377
#     4  11  25  39  64  97 133 161 209 270 321 375
#     4  11  23  46  68  89 117 169 219 266 321 387
#
# _framework density 21.691312
#
# number of rings (size 3 to 8) (size 9 to 14) (size 15 to 20)
#    0.000    1.455    1.818    4.909    3.818    0.000 
#    0.000    5.455    0.000    0.000    0.000    0.000 
#    0.000    0.000    0.000    0.000    0.000    0.000 
#
# Total GULP energy -122683.056160 kJ/mol
# GULP energy per Si atom -5576.502553 kJ/mol
# Density = 2.164194 g / cm^3
# Si number density = 21.691312 Si / 1000 Ang^3
#
#
#
# Elastic Constant Matrix: (Units=GPa)
#
#
# Indices 1 2 3 4 5 6 
#
# 1 68.1367 -7.1132 3.3321 0.0000 0.0000 0.0000
# 2 -7.1132 79.9931 1.7255 0.0000 0.0000 0.0000
# 3 3.3321 1.7255 86.7307 0.0000 0.0000 0.0000
# 4 0.0000 0.0000 0.0000 27.6883 0.0000 0.0000
# 5 0.0000 0.0000 0.0000 0.0000 10.7443 0.0000
# 6 0.0000 0.0000 0.0000 0.0000 0.0000 21.0183
#
#
#
# Elastic Compliance Matrix: (Units=1/GPa)
#
#
# Indices 1 2 3 4 5 6 
#
# 1 0.014845 0.001333 -0.000597 0.000000 0.000000 0.000000
# 2 0.001333 0.012626 -0.000302 0.000000 0.000000 0.000000
# 3 -0.000597 -0.000302 0.011559 0.000000 0.000000 0.000000
# 4 0.000000 0.000000 0.000000 0.036116 0.000000 0.000000
# 5 0.000000 0.000000 0.000000 0.000000 0.093073 0.000000
# 6 0.000000 0.000000 0.000000 0.000000 0.000000 0.047578
#
#
# Mechanical properties :
#
#
# Convention : Reuss Voigt Hill
#
# Bulk Modulus (GPa) = 25.06449 25.63880 25.35165
# Shear Modulus (GPa) = 21.90792 27.68460 24.79626
#
# Velocity S-wave (km/s) = 3.18148 3.57641 3.38471
# Velocity P-wave (km/s) = 5.00758 5.37585 5.19498
#
# Compressibility (1/GPa) = 0.03989708
#
# Stress axis : x y z
#
# Youngs Moduli (GPa) = 67.36402 79.20087 86.51346
#
# Poissons Ratio (x) = -0.10557 0.05163
# Poissons Ratio (y) = -0.08979 0.02616
# Poissons Ratio (z) = 0.04020 0.02395
#
# Static dielectric constant tensor:
#      x y z
#    x 1.864330 0.000000 0.000000 
#    y 0.000000 1.822070 0.000000 
#    z 0.000000 0.000000 1.819230 
# 
# From -- ./inp_files/13231.got.cif
#   From: 2010.05.17/outbox.cif.g08.bks.cpg/sg37_7_cif.got.tgz:13231.got - 2010.06.03 17:53:42.
