data_PCOD9354090
_publ_section_title
;
Structure prediction by ZEFSAII (Michael W. Deem and Ramdas Pophale) SiO2 
 PCOD9354090
Probable space group: C C C 2
;
_chemical_formula_sum "Si O2"
_cell_formula_units_Z 48
_cell_length_a 8.702034
_cell_length_b 16.231302
_cell_length_c 16.071730
_cell_angle_alpha 90.000000
_cell_angle_beta 90.000000
_cell_angle_gamma 90.000000
_cell_volume 2270.056998
_symmetry_space_group_name_H-M "C C C 2"
_symmetry_group_IT_number 37
_symmetry_cell_setting 'orthorhombic'
loop_
_space_group_symop_operation_xyz
x,y,z
-x,-y,z
-x,y,1/2+z
x,-y,1/2+z
1/2+x,1/2+y,z
1/2-x,1/2-y,z
1/2-x,1/2+y,1/2+z
1/2+x,1/2-y,1/2+z
loop_
_atom_site_type_symbol
_atom_site_label
_atom_site_fract_x
_atom_site_fract_y
_atom_site_fract_z
Si Si1 0.567985 0.245542 0.218820
Si Si2 0.444855 0.413795 0.904919
Si Si3 0.398116 0.082283 0.161107
Si Si4 0.571981 0.751323 0.402096
Si Si5 0.063600 0.083583 0.215470
Si Si6 0.329188 0.159145 0.989174
O O1 0.750000 0.250000 0.208327
O O2 0.499777 0.161714 0.182879
O O3 0.524329 0.243650 0.316711
O O4 0.487474 0.327404 0.180569
O O5 0.500000 0.500000 0.940936
O O6 0.536646 0.337049 0.942768
O O7 0.488009 0.415652 0.807458
O O8 0.268714 0.390238 0.920436
O O9 0.247786 0.077821 0.219869
O O10 0.500000 0.000000 0.163367
O O11 0.328965 0.103806 0.070835
O O12 0.750000 0.750000 0.381991
O O13 0.502442 0.821829 0.460027
O O14 0.000000 0.000000 0.173589
O O15 0.250000 0.250000 0.000098
#
# Coordination Sequence:
#
# PCOD9354090 Si02
#       6
#     8   8   8   8   8   8
#     4  11  21  39  65  92 124 164 210 261 311 366
#     4   9  19  37  62  90 118 155 201 250 308 368
#     4  12  26  41  60  92 130 168 209 255 309 370
#     4  10  20  37  63  91 120 158 210 260 309 366
#     4  10  20  39  65  94 124 158 205 255 310 370
#     4  10  22  41  61  85 124 167 204 253 313 370
#
# _framework density 21.144843999999999
#
# number of rings (size 3 to 8) (size 9 to 14) (size 15 to 20)
#    0.000    1.667    0.000    7.000    0.000    4.000 
#    0.000    4.167    0.000    0.000    0.000    0.000 
#    0.000    0.000    0.000    0.000    0.000    0.000 
#
# Total GULP energy -133932.739803 kJ/mol
# GULP energy per Si atom -5580.530825 kJ/mol
# Density = 2.109672 g / cm^3
# Si number density = 21.144844 Si / 1000 Ang^3
#
#
#
# Elastic Constant Matrix: (Units=GPa)
#
#
# Indices 1 2 3 4 5 6 
#
# 1 146.4104 69.2406 15.7936 0.0000 0.0000 0.0000
# 2 69.2406 169.9436 19.0416 0.0000 0.0000 0.0000
# 3 15.7936 19.0416 52.4308 0.0000 0.0000 0.0000
# 4 0.0000 0.0000 0.0000 16.3698 0.0000 0.0000
# 5 0.0000 0.0000 0.0000 0.0000 16.4140 0.0000
# 6 0.0000 0.0000 0.0000 0.0000 0.0000 30.8924
#
#
#
# Elastic Compliance Matrix: (Units=1/GPa)
#
#
# Indices 1 2 3 4 5 6 
#
# 1 0.008553 -0.003332 -0.001366 0.000000 0.000000 0.000000
# 2 -0.003332 0.007432 -0.001695 0.000000 0.000000 0.000000
# 3 -0.001366 -0.001695 0.020100 0.000000 0.000000 0.000000
# 4 0.000000 0.000000 0.000000 0.061088 0.000000 0.000000
# 5 0.000000 0.000000 0.000000 0.000000 0.060924 0.000000
# 6 0.000000 0.000000 0.000000 0.000000 0.000000 0.032370
#
#
# Mechanical properties :
#
#
# Convention : Reuss Voigt Hill
#
# Bulk Modulus (GPa) = 42.92248 64.10404 53.51326
# Shear Modulus (GPa) = 23.69438 30.38249 27.03844
#
# Velocity S-wave (km/s) = 3.35113 3.79473 3.57981
# Velocity P-wave (km/s) = 5.94279 7.04147 6.51533
#
# Compressibility (1/GPa) = 0.02329781
#
# Stress axis : x y z
#
# Youngs Moduli (GPa) = 116.91583 134.55820 49.75098
#
# Poissons Ratio (x) = 0.44831 0.06798
# Poissons Ratio (y) = 0.38953 0.08435
# Poissons Ratio (z) = 0.15976 0.22813
#
# Static dielectric constant tensor:
#      x y z
#    x 1.829950 0.000000 0.000000 
#    y 0.000000 1.811710 0.000000 
#    z 0.000000 0.000000 1.814310 
# 
# From -- ./inp_files/14473.got.cif
#   From: 2010.05.17/outbox.cif.g08.bks.cpg/sg37_8_cif.got.tgz:14473.got - 2010.06.03 17:53:42.
