data_PCOD9354567
_publ_section_title
;
Structure prediction by ZEFSAII (Michael W. Deem and Ramdas Pophale) SiO2 
 PCOD9354567
Probable space group: C C C 2
;
_chemical_formula_sum "Si O2"
_cell_formula_units_Z 56
_cell_length_a 20.527843
_cell_length_b 11.861019
_cell_length_c 11.345916
_cell_angle_alpha 90.000000
_cell_angle_beta 90.000000
_cell_angle_gamma 90.000000
_cell_volume 2762.516515
_symmetry_space_group_name_H-M "C C C 2"
_symmetry_group_IT_number 37
_symmetry_cell_setting 'orthorhombic'
loop_
_space_group_symop_operation_xyz
x,y,z
-x,-y,z
-x,y,1/2+z
x,-y,1/2+z
1/2+x,1/2+y,z
1/2-x,1/2-y,z
1/2-x,1/2+y,1/2+z
1/2+x,1/2-y,1/2+z
loop_
_atom_site_type_symbol
_atom_site_label
_atom_site_fract_x
_atom_site_fract_y
_atom_site_fract_z
Si Si1 0.609439 0.370887 0.126560
Si Si2 0.011591 0.366537 0.886230
Si Si3 0.651418 0.229248 0.329058
Si Si4 0.978664 0.249757 0.638099
Si Si5 0.844701 0.873292 0.159407
Si Si6 0.729898 0.594850 0.940051
Si Si7 0.801540 0.842451 0.416044
O O1 0.645829 0.268626 0.194872
O O2 0.533361 0.348269 0.147265
O O3 0.631925 0.495690 0.165622
O O4 0.633759 0.355800 0.993847
O O5 0.086753 0.334245 0.865096
O O6 0.000000 0.500000 0.886388
O O7 0.978896 0.313802 0.766040
O O8 0.999033 0.319076 0.019906
O O9 0.663475 0.351141 0.388767
O O10 0.711338 0.153944 0.372284
O O11 0.906982 0.198843 0.617404
O O12 0.823477 0.824012 0.283490
O O13 0.780913 0.875577 0.076199
O O14 0.733318 0.463166 0.923191
O O15 0.750000 0.750000 0.456801
#
# Coordination Sequence:
#
# PCOD9354567 Si02
#       7
#     8   8   8   8   8   8   8
#     4  10  23  41  64  93 126 165 211 267 322 387
#     4  11  24  43  65  94 132 171 220 271 329 395
#     4  10  21  41  68  87 123 174 219 257 321 395
#     4  11  23  41  67  94 126 170 211 270 330 387
#     4  11  22  41  64  94 127 163 214 268 322 392
#     4  10  22  40  65  90 122 174 217 256 323 391
#     4  11  25  39  61  96 134 160 211 274 323 381
#
# _framework density 20.271372
#
# number of rings (size 3 to 8) (size 9 to 14) (size 15 to 20)
#    0.000    1.429    2.857    1.714    4.000    2.286 
#    0.000    4.286    0.000    0.000    0.000    0.000 
#    0.000    0.000    0.000    0.000    0.000    0.000 
#
# Total GULP energy -155998.834094 kJ/mol
# GULP energy per Si atom -5571.386932 kJ/mol
# Density = 2.022523 g / cm^3
# Si number density = 20.271372 Si / 1000 Ang^3
#
#
#
# Elastic Constant Matrix: (Units=GPa)
#
#
# Indices 1 2 3 4 5 6 
#
# 1 58.9382 31.7266 9.6688 0.0000 0.0000 0.0000
# 2 31.7266 114.4212 7.1085 0.0000 0.0000 0.0000
# 3 9.6688 7.1085 84.6216 0.0000 0.0000 0.0000
# 4 0.0000 0.0000 0.0000 30.4430 0.0000 0.0000
# 5 0.0000 0.0000 0.0000 0.0000 26.6094 0.0000
# 6 0.0000 0.0000 0.0000 0.0000 0.0000 17.3350
#
#
#
# Elastic Compliance Matrix: (Units=1/GPa)
#
#
# Indices 1 2 3 4 5 6 
#
# 1 0.020228 -0.005494 -0.001850 0.000000 0.000000 0.000000
# 2 -0.005494 0.010278 -0.000236 0.000000 0.000000 0.000000
# 3 -0.001850 -0.000236 0.012048 0.000000 0.000000 0.000000
# 4 0.000000 0.000000 0.000000 0.032848 0.000000 0.000000
# 5 0.000000 0.000000 0.000000 0.000000 0.037581 0.000000
# 6 0.000000 0.000000 0.000000 0.000000 0.000000 0.057687
#
#
# Mechanical properties :
#
#
# Convention : Reuss Voigt Hill
#
# Bulk Modulus (GPa) = 36.50239 39.44321 37.97280
# Shear Modulus (GPa) = 25.64631 28.84260 27.24446
#
# Velocity S-wave (km/s) = 3.56075 3.77613 3.67002
# Velocity P-wave (km/s) = 5.91196 6.20580 6.06066
#
# Compressibility (1/GPa) = 0.02739546
#
# Stress axis : x y z
#
# Youngs Moduli (GPa) = 49.43717 97.29902 82.99822
#
# Poissons Ratio (x) = 0.53454 0.15352
# Poissons Ratio (y) = 0.27160 0.01956
# Poissons Ratio (z) = 0.09144 0.02293
#
# Static dielectric constant tensor:
#      x y z
#    x 1.707210 0.000000 0.000000 
#    y 0.000000 1.709820 0.000000 
#    z 0.000000 0.000000 1.812150 
# 
# From -- ./inp_files/8592.got.cif
#   From: 2010.05.17/outbox.cif.g08.bks.cpg/sg37_5_cif.got.tgz:8592.got - 2010.06.03 17:53:42.
