data_PCOD9354576
_publ_section_title
;
Structure prediction by ZEFSAII (Michael W. Deem and Ramdas Pophale) SiO2 
 PCOD9354576
Probable space group: C C C 2
;
_chemical_formula_sum "Si O2"
_cell_formula_units_Z 56
_cell_length_a 25.145178
_cell_length_b 6.720504
_cell_length_c 13.412683
_cell_angle_alpha 90.000000
_cell_angle_beta 90.000000
_cell_angle_gamma 90.000000
_cell_volume 2266.586087
_symmetry_space_group_name_H-M "C C C 2"
_symmetry_group_IT_number 37
_symmetry_cell_setting 'orthorhombic'
loop_
_space_group_symop_operation_xyz
x,y,z
-x,-y,z
-x,y,1/2+z
x,-y,1/2+z
1/2+x,1/2+y,z
1/2-x,1/2-y,z
1/2-x,1/2+y,1/2+z
1/2+x,1/2-y,1/2+z
loop_
_atom_site_type_symbol
_atom_site_label
_atom_site_fract_x
_atom_site_fract_y
_atom_site_fract_z
Si Si1 0.597929 0.211625 0.552470
Si Si2 0.949152 0.121490 0.724552
Si Si3 0.802965 0.469114 0.670422
Si Si4 0.250000 0.250000 0.354594
Si Si5 0.563822 0.973516 0.364184
Si Si6 0.250000 0.250000 0.015529
Si Si7 0.663285 0.530403 0.920492
Si Si8 0.874697 0.205678 0.227337
O O1 0.548331 0.234785 0.628284
O O2 0.647932 0.164801 0.626621
O O3 0.587075 0.035625 0.472232
O O4 0.612648 0.408443 0.486871
O O5 0.927969 0.254878 0.816680
O O6 0.914832 0.942413 0.676330
O O7 0.000000 0.000000 0.760794
O O8 0.780117 0.401456 0.777647
O O9 0.756960 0.432634 0.590654
O O10 0.827950 0.685681 0.671026
O O11 0.296747 0.344860 0.421821
O O12 0.592316 0.126223 0.287478
O O13 0.500000 0.000000 0.365271
O O14 0.299866 0.279893 0.946906
O O15 0.650244 0.556350 0.806308
#
# Coordination Sequence:
#
# PCOD9354576 Si02
#       8
#     8   8   8   4   8   4   8   8
#     4  10  24  46  69 108 146 187 249 302 361 441
#     4  12  25  47  75 107 145 191 250 303 373 444
#     4  10  21  41  69  97 140 194 231 297 361 432
#     4  11  22  40  72 101 148 200 235 302 368 437
#     4  11  24  47  73 103 147 191 236 306 373 433
#     4   9  20  40  62  95 144 170 241 294 354 425
#     4  10  22  40  62 102 138 183 237 296 356 431
#     4  11  23  43  71 100 137 192 238 295 363 433
#
# _framework density 24.706761
#
# number of rings (size 3 to 8) (size 9 to 14) (size 15 to 20)
#    0.000    1.429    2.857    1.714    0.000    2.857 
#   10.286    0.000    0.000    0.000    0.000    0.000 
#    0.000    0.000    0.000    0.000    0.000    0.000 
#
# Total GULP energy -156118.988313 kJ/mol
# GULP energy per Si atom -5575.678154 kJ/mol
# Density = 2.465053 g / cm^3
# Si number density = 24.706761 Si / 1000 Ang^3
#
#
#
# Elastic Constant Matrix: (Units=GPa)
#
#
# Indices 1 2 3 4 5 6 
#
# 1 65.4635 35.5064 16.7001 0.0000 0.0000 0.0000
# 2 35.5064 109.8343 39.0222 0.0000 0.0000 0.0000
# 3 16.7001 39.0222 74.0449 0.0000 0.0000 0.0000
# 4 0.0000 0.0000 0.0000 -93.0859 0.0000 0.0000
# 5 0.0000 0.0000 0.0000 0.0000 15.7806 0.0000
# 6 0.0000 0.0000 0.0000 0.0000 0.0000 50.7899
#
#
#
# Elastic Compliance Matrix: (Units=1/GPa)
#
#
# Indices 1 2 3 4 5 6 
#
# 1 0.018619 -0.005570 -0.001264 0.000000 0.000000 0.000000
# 2 -0.005570 0.012868 -0.005525 0.000000 0.000000 0.000000
# 3 -0.001264 -0.005525 0.016702 0.000000 0.000000 0.000000
# 4 0.000000 0.000000 0.000000 -0.010743 0.000000 0.000000
# 5 0.000000 0.000000 0.000000 0.000000 0.063369 0.000000
# 6 0.000000 0.000000 0.000000 0.000000 0.000000 0.019689
#
#
# Mechanical properties :
#
#
# Convention : Reuss Voigt Hill
#
# Bulk Modulus (GPa) = 42.60560 47.97779 45.29169
# Shear Modulus (GPa) = 32.66959 5.23785 18.95372
#
# Velocity S-wave (km/s) = 3.64028 1.45760 2.77275
# Velocity P-wave (km/s) = 5.91192 4.72164 5.34998
#
# Compressibility (1/GPa) = 0.02347109
#
# Stress axis : x y z
#
# Youngs Moduli (GPa) = 53.70791 77.70995 59.87185
#
# Poissons Ratio (x) = 0.43285 0.07567
# Poissons Ratio (y) = 0.29915 0.33082
# Poissons Ratio (z) = 0.06788 0.42938
#
# Static dielectric constant tensor:
#      x y z
#    x 2.057210 0.000000 0.000000 
#    y 0.000000 2.164250 0.000000 
#    z 0.000000 0.000000 1.930930 
# 
# From -- ./inp_files/13396.got.cif
#   From: 2010.05.17/outbox.cif.g08.bks.cpg/sg37_7_cif.got.tgz:13396.got - 2010.06.03 17:53:42.
