data_PCOD9354202
_publ_section_title
;
Structure prediction by ZEFSAII (Michael W. Deem and Ramdas Pophale) SiO2 
 PCOD9354202
Probable space group: C C C 2
;
_chemical_formula_sum "Si O2"
_cell_formula_units_Z 40
_cell_length_a 13.037526
_cell_length_b 6.358954
_cell_length_c 22.816734
_cell_angle_alpha 90.000000
_cell_angle_beta 90.000000
_cell_angle_gamma 90.000000
_cell_volume 1891.621974
_symmetry_space_group_name_H-M "C C C 2"
_symmetry_group_IT_number 37
_symmetry_cell_setting 'orthorhombic'
loop_
_space_group_symop_operation_xyz
x,y,z
-x,-y,z
-x,y,1/2+z
x,-y,1/2+z
1/2+x,1/2+y,z
1/2-x,1/2-y,z
1/2-x,1/2+y,1/2+z
1/2+x,1/2-y,1/2+z
loop_
_atom_site_type_symbol
_atom_site_label
_atom_site_fract_x
_atom_site_fract_y
_atom_site_fract_z
Si Si1 0.500000 0.500000 0.964000
Si Si2 0.892108 0.117678 0.750771
Si Si3 0.463873 0.762253 0.075826
Si Si4 0.500000 0.000000 0.296583
Si Si5 0.139320 0.155519 0.861863
Si Si6 0.330358 0.431594 0.126760
O O1 0.590804 0.567391 0.921082
O O2 0.467909 0.682486 0.008845
O O3 0.819753 0.060299 0.696800
O O4 0.921415 0.361876 0.758023
O O5 0.853728 0.025612 0.812420
O O6 0.000000 0.000000 0.739462
O O7 0.356991 0.667579 0.101830
O O8 0.559380 0.667530 0.111852
O O9 0.500000 0.000000 0.076517
O O10 0.436948 0.833429 0.335596
O O11 0.250000 0.250000 0.872036
O O12 0.250000 0.250000 0.104664
#
# Coordination Sequence:
#
# PCOD9354202 Si02
#       6
#     4   8   8   4   8   8
#     4  10  22  44  64  90 134 164 228 290 322 390
#     4  10  20  40  60  94 133 169 213 269 336 408
#     4  10  24  43  67  91 124 178 227 280 340 391
#     4  10  22  38  64  90 132 172 214 266 328 404
#     4  11  24  41  64  98 133 171 217 269 335 405
#     4  10  22  40  62  96 136 164 217 281 334 410
#
# _framework density 21.145875
#
# number of rings (size 3 to 8) (size 9 to 14) (size 15 to 20)
#    0.000    2.000    5.000    0.000    5.600    4.000 
#    0.000    0.000    0.000    0.000    0.000    0.000 
#    0.000    0.000    0.000    0.000    0.000    0.000 
#
# Total GULP energy -111401.083128 kJ/mol
# GULP energy per Si atom -5570.054156 kJ/mol
# Density = 2.109775 g / cm^3
# Si number density = 21.145875 Si / 1000 Ang^3
#
#
#
# Elastic Constant Matrix: (Units=GPa)
#
#
# Indices 1 2 3 4 5 6 
#
# 1 116.7029 39.8394 35.5765 0.0000 0.0000 0.0000
# 2 39.8394 140.4986 40.9546 0.0000 0.0000 0.0000
# 3 35.5765 40.9546 132.4076 0.0000 0.0000 0.0000
# 4 0.0000 0.0000 0.0000 48.0392 0.0000 0.0000
# 5 0.0000 0.0000 0.0000 0.0000 2.4003 0.0000
# 6 0.0000 0.0000 0.0000 0.0000 0.0000 40.9050
#
#
#
# Elastic Compliance Matrix: (Units=1/GPa)
#
#
# Indices 1 2 3 4 5 6 
#
# 1 0.009936 -0.002241 -0.001977 0.000000 0.000000 0.000000
# 2 -0.002241 0.008328 -0.001974 0.000000 0.000000 0.000000
# 3 -0.001977 -0.001974 0.008694 0.000000 0.000000 0.000000
# 4 0.000000 0.000000 0.000000 0.020816 0.000000 0.000000
# 5 0.000000 0.000000 0.000000 0.000000 0.416619 0.000000
# 6 0.000000 0.000000 0.000000 0.000000 0.000000 0.024447
#
#
# Mechanical properties :
#
#
# Convention : Reuss Voigt Hill
#
# Bulk Modulus (GPa) = 68.60862 69.15000 68.87931
# Shear Modulus (GPa) = 9.87981 36.48481 23.18231
#
# Velocity S-wave (km/s) = 2.16388 4.15828 3.31464
# Velocity P-wave (km/s) = 6.22567 7.47178 6.87701
#
# Compressibility (1/GPa) = 0.01457543
#
# Stress axis : x y z
#
# Youngs Moduli (GPa) = 100.63932 120.07070 115.02152
#
# Poissons Ratio (x) = 0.26913 0.22735
# Poissons Ratio (y) = 0.22557 0.22703
# Poissons Ratio (z) = 0.19892 0.23700
#
# Static dielectric constant tensor:
#      x y z
#    x 1.766130 0.000000 0.000000 
#    y 0.000000 1.912800 0.000000 
#    z 0.000000 0.000000 1.759730 
# 
# From -- ./inp_files/18820.got.cif
#   From: 2010.05.17/outbox.cif.g08.bks.cpg/sg37_10_cif.got.tgz:18820.got - 2010.06.03 17:53:42.
