data_PCOD9354283
_publ_section_title
;
Structure prediction by ZEFSAII (Michael W. Deem and Ramdas Pophale) SiO2 
 PCOD9354283
Probable space group: C C C 2
;
_chemical_formula_sum "Si O2"
_cell_formula_units_Z 60
_cell_length_a 23.773093
_cell_length_b 8.849250
_cell_length_c 12.584681
_cell_angle_alpha 90.000000
_cell_angle_beta 90.000000
_cell_angle_gamma 90.000000
_cell_volume 2647.490225
_symmetry_space_group_name_H-M "C C C 2"
_symmetry_group_IT_number 37
_symmetry_cell_setting 'orthorhombic'
loop_
_space_group_symop_operation_xyz
x,y,z
-x,-y,z
-x,y,1/2+z
x,-y,1/2+z
1/2+x,1/2+y,z
1/2-x,1/2-y,z
1/2-x,1/2+y,1/2+z
1/2+x,1/2-y,1/2+z
loop_
_atom_site_type_symbol
_atom_site_label
_atom_site_fract_x
_atom_site_fract_y
_atom_site_fract_z
Si Si1 0.667397 0.021800 0.133240
Si Si2 0.158381 0.069926 0.408608
Si Si3 0.091892 0.070569 0.202841
Si Si4 0.926162 0.296438 0.994626
Si Si5 0.145103 0.764727 0.504772
Si Si6 0.521529 0.732489 0.693227
Si Si7 0.750000 0.750000 0.540166
Si Si8 0.909396 0.451743 0.330684
O O1 0.676567 0.862527 0.074147
O O2 0.618624 0.113871 0.069417
O O3 0.642551 0.005331 0.251859
O O4 0.721732 0.124770 0.115516
O O5 0.143612 0.080089 0.284488
O O6 0.100684 0.137180 0.460106
O O7 0.204829 0.176045 0.460987
O O8 0.174385 0.899608 0.440232
O O9 0.109844 0.142183 0.091719
O O10 0.036553 0.165620 0.234000
O O11 0.069128 0.899068 0.198902
O O12 0.980472 0.274972 0.068275
O O13 0.931138 0.403911 0.893980
O O14 0.110668 0.670114 0.417633
O O15 0.544011 0.872074 0.759276
#
# Coordination Sequence:
#
# PCOD9354283 Si02
#       8
#     8   8   8   8   8   8   4   8
#     4   9  21  42  67  97 138 178 236 300 359 451
#     4  11  22  42  68  98 141 185 239 306 364 435
#     4  11  23  40  66 104 146 185 249 301 356 445
#     4   9  19  39  64  91 141 181 229 294 357 428
#     4  11  22  41  68  97 137 188 233 298 370 435
#     4  10  21  40  65 103 143 196 239 295 370 438
#     4  10  24  46  74 104 142 188 240 308 394 432
#     4  10  20  42  68 101 140 188 236 295 370 436
#
# _framework density 22.662973999999998
#
# number of rings (size 3 to 8) (size 9 to 14) (size 15 to 20)
#    0.000    1.867    2.667    0.800    0.000    1.600 
#    0.000   26.667    0.000    0.000    0.000    0.000 
#    0.000    0.000    0.000    0.000    0.000    0.000 
#
# Total GULP energy -167604.876617 kJ/mol
# GULP energy per Si atom -5586.829221 kJ/mol
# Density = 2.261139 g / cm^3
# Si number density = 22.662974 Si / 1000 Ang^3
#
#
#
# Elastic Constant Matrix: (Units=GPa)
#
#
# Indices 1 2 3 4 5 6 
#
# 1 55.9657 31.0603 38.4509 0.0000 0.0000 0.0000
# 2 31.0603 146.1999 58.2071 0.0000 0.0000 0.0000
# 3 38.4509 58.2071 132.8051 0.0000 0.0000 0.0000
# 4 0.0000 0.0000 0.0000 45.8904 0.0000 0.0000
# 5 0.0000 0.0000 0.0000 0.0000 8.1110 0.0000
# 6 0.0000 0.0000 0.0000 0.0000 0.0000 20.9790
#
#
#
# Elastic Compliance Matrix: (Units=1/GPa)
#
#
# Indices 1 2 3 4 5 6 
#
# 1 0.023169 -0.002728 -0.005513 0.000000 0.000000 0.000000
# 2 -0.002728 0.008607 -0.002983 0.000000 0.000000 0.000000
# 3 -0.005513 -0.002983 0.010433 0.000000 0.000000 0.000000
# 4 0.000000 0.000000 0.000000 0.021791 0.000000 0.000000
# 5 0.000000 0.000000 0.000000 0.000000 0.123289 0.000000
# 6 0.000000 0.000000 0.000000 0.000000 0.000000 0.047667
#
#
# Mechanical properties :
#
#
# Convention : Reuss Voigt Hill
#
# Bulk Modulus (GPa) = 50.59802 65.60081 58.09942
# Shear Modulus (GPa) = 18.94012 28.81292 23.87652
#
# Velocity S-wave (km/s) = 2.89404 3.56949 3.24936
# Velocity P-wave (km/s) = 5.79155 6.78214 6.30632
#
# Compressibility (1/GPa) = 0.01976362
#
# Stress axis : x y z
#
# Youngs Moduli (GPa) = 43.16053 116.18598 95.84812
#
# Poissons Ratio (x) = 0.31690 0.52839
# Poissons Ratio (y) = 0.11772 0.28588
# Poissons Ratio (z) = 0.23793 0.34654
#
# Static dielectric constant tensor:
#      x y z
#    x 1.833110 0.000000 0.000000 
#    y 0.000000 1.844940 0.000000 
#    z 0.000000 0.000000 1.873390 
# 
# From -- ./inp_files/9089.got.cif
#   From: 2010.05.17/outbox.cif.g08.bks.cpg/sg37_5_cif.got.tgz:9089.got - 2010.06.03 17:53:42.
