data_PCOD9354261
_publ_section_title
;
Structure prediction by ZEFSAII (Michael W. Deem and Ramdas Pophale) SiO2 
 PCOD9354261
Probable space group: C C C 2
;
_chemical_formula_sum "Si O2"
_cell_formula_units_Z 36
_cell_length_a 10.190263
_cell_length_b 11.057742
_cell_length_c 13.856954
_cell_angle_alpha 90.000000
_cell_angle_beta 90.000000
_cell_angle_gamma 90.000000
_cell_volume 1561.419579
_symmetry_space_group_name_H-M "C C C 2"
_symmetry_group_IT_number 37
_symmetry_cell_setting 'orthorhombic'
loop_
_space_group_symop_operation_xyz
x,y,z
-x,-y,z
-x,y,1/2+z
x,-y,1/2+z
1/2+x,1/2+y,z
1/2-x,1/2-y,z
1/2-x,1/2+y,1/2+z
1/2+x,1/2-y,1/2+z
loop_
_atom_site_type_symbol
_atom_site_label
_atom_site_fract_x
_atom_site_fract_y
_atom_site_fract_z
Si Si1 0.250000 0.750000 0.480290
Si Si2 0.137740 0.428314 0.122814
Si Si3 0.289953 0.375706 0.520404
Si Si4 0.593069 0.116992 0.838180
Si Si5 0.972684 0.129143 0.383908
O O1 0.145579 0.683629 0.549329
O O2 0.176855 0.848895 0.415045
O O3 0.157064 0.393940 0.233394
O O4 0.000000 0.500000 0.113493
O O5 0.253304 0.516157 0.089499
O O6 0.250000 0.250000 0.569828
O O7 0.195789 0.380596 0.425567
O O8 0.435520 0.377784 0.479200
O O9 0.516115 0.244709 0.836056
O O10 0.500000 0.000000 0.851856
O O11 0.000000 0.000000 0.333627
#
# Coordination Sequence:
#
# PCOD9354261 Si02
#       5
#     4   8   8   8   8
#     4  12  24  42  74 104 146 190 240 304 364 446
#     4  11  23  42  69 103 141 191 239 295 365 433
#     4  10  20  41  71  95 134 184 237 294 361 432
#     4  10  23  42  72 101 139 193 241 295 366 436
#     4  11  23  42  69 103 135 190 239 298 368 431
#
# _framework density 23.055942999999999
#
# number of rings (size 3 to 8) (size 9 to 14) (size 15 to 20)
#    0.000    1.333    2.222    4.667    4.667    0.000 
#    0.000    7.778    0.000    0.000    0.000    0.000 
#    0.000    0.000    0.000    0.000    0.000    0.000 
#
# Total GULP energy -100708.430037 kJ/mol
# GULP energy per Si atom -5594.912780 kJ/mol
# Density = 2.300347 g / cm^3
# Si number density = 23.055943 Si / 1000 Ang^3
#
#
#
# Elastic Constant Matrix: (Units=GPa)
#
#
# Indices 1 2 3 4 5 6 
#
# 1 62.0764 20.3998 10.5708 0.0000 0.0000 0.0000
# 2 20.3998 169.0794 35.2963 0.0000 0.0000 0.0000
# 3 10.5708 35.2963 82.3733 0.0000 0.0000 0.0000
# 4 0.0000 0.0000 0.0000 -5.6436 0.0000 0.0000
# 5 0.0000 0.0000 0.0000 0.0000 16.8293 0.0000
# 6 0.0000 0.0000 0.0000 0.0000 0.0000 42.1364
#
#
#
# Elastic Compliance Matrix: (Units=1/GPa)
#
#
# Indices 1 2 3 4 5 6 
#
# 1 0.016925 -0.001745 -0.001424 0.000000 0.000000 0.000000
# 2 -0.001745 0.006675 -0.002636 0.000000 0.000000 0.000000
# 3 -0.001424 -0.002636 0.013452 0.000000 0.000000 0.000000
# 4 0.000000 0.000000 0.000000 -0.177191 0.000000 0.000000
# 5 0.000000 0.000000 0.000000 0.000000 0.059420 0.000000
# 6 0.000000 0.000000 0.000000 0.000000 0.000000 0.023732
#
#
# Mechanical properties :
#
#
# Convention : Reuss Voigt Hill
#
# Bulk Modulus (GPa) = 39.30552 49.56253 44.43403
# Shear Modulus (GPa) = -135.52366 27.14856 -54.18755
#
# Velocity S-wave (km/s) = -7.67515 3.43521 -4.85321
# Velocity P-wave (km/s) = 7.83958 6.10553 3.47718
#
# Compressibility (1/GPa) = 0.02544172
#
# Stress axis : x y z
#
# Youngs Moduli (GPa) = 59.08390 149.80725 74.33663
#
# Poissons Ratio (x) = 0.26137 0.10588
# Poissons Ratio (y) = 0.10308 0.19598
# Poissons Ratio (z) = 0.08416 0.39495
#
# Static dielectric constant tensor:
#      x y z
#    x 1.876490 0.000000 0.000000 
#    y 0.000000 1.941450 0.000000 
#    z 0.000000 0.000000 1.814440 
# 
# From -- ./inp_files/6888.got.cif
#   From: 2010.05.17/outbox.cif.g08.bks.cpg/sg37_4_cif.got.tgz:6888.got - 2010.06.03 17:53:42.
