data_PCOD9354033
_publ_section_title
;
Structure prediction by ZEFSAII (Michael W. Deem and Ramdas Pophale) SiO2 
 PCOD9354033
Probable space group: C C C 2
;
_chemical_formula_sum "Si O2"
_cell_formula_units_Z 44
_cell_length_a 16.381630
_cell_length_b 8.220133
_cell_length_c 14.550694
_cell_angle_alpha 90.000000
_cell_angle_beta 90.000000
_cell_angle_gamma 90.000000
_cell_volume 1959.384484
_symmetry_space_group_name_H-M "C C C 2"
_symmetry_group_IT_number 37
_symmetry_cell_setting 'orthorhombic'
loop_
_space_group_symop_operation_xyz
x,y,z
-x,-y,z
-x,y,1/2+z
x,-y,1/2+z
1/2+x,1/2+y,z
1/2-x,1/2-y,z
1/2-x,1/2+y,1/2+z
1/2+x,1/2-y,1/2+z
loop_
_atom_site_type_symbol
_atom_site_label
_atom_site_fract_x
_atom_site_fract_y
_atom_site_fract_z
Si Si1 0.108960 0.489861 0.368390
Si Si2 0.132850 0.637262 0.069759
Si Si3 0.844443 0.813036 0.941793
Si Si4 0.718008 0.573254 0.314909
Si Si5 0.190999 0.997994 0.609762
Si Si6 0.500000 0.000000 0.708679
O O1 0.110282 0.387164 0.462384
O O2 0.094806 0.674305 0.405933
O O3 0.195734 0.518740 0.319034
O O4 0.055940 0.412208 0.286669
O O5 0.156927 0.821384 0.093626
O O6 0.212850 0.521935 0.083846
O O7 0.061911 0.589851 0.140758
O O8 0.750000 0.750000 0.941733
O O9 0.842299 0.976264 0.880748
O O10 0.856265 0.872682 0.045022
O O11 0.750000 0.750000 0.345632
O O12 0.686101 0.566342 0.212554
#
# Coordination Sequence:
#
# PCOD9354033 Si02
#       6
#     8   8   8   8   8   4
#     4  11  23  40  63  94 130 179 223 268 333 412
#     4  11  23  39  66  95 131 177 223 281 335 404
#     4  10  20  36  62  98 130 163 216 292 333 381
#     4  11  21  34  61  97 128 165 214 278 334 387
#     4  11  21  38  65 100 129 162 228 291 335 378
#     4  12  24  42  64  94 136 182 222 260 330 428
#
# _framework density 22.456030999999999
#
# number of rings (size 3 to 8) (size 9 to 14) (size 15 to 20)
#    0.000    1.091    5.455    3.273    5.091    0.000 
#    0.000    0.000    0.000   24.000    0.000    0.000 
#    0.000    0.000    0.000    0.000    0.000    0.000 
#
# Total GULP energy -122657.055244 kJ/mol
# GULP energy per Si atom -5575.320693 kJ/mol
# Density = 2.240492 g / cm^3
# Si number density = 22.456031 Si / 1000 Ang^3
#
#
#
# Elastic Constant Matrix: (Units=GPa)
#
#
# Indices 1 2 3 4 5 6 
#
# 1 60.5215 12.2287 44.9211 0.0000 0.0000 0.0000
# 2 12.2287 96.3504 29.0553 0.0000 0.0000 0.0000
# 3 44.9211 29.0553 181.2602 0.0000 0.0000 0.0000
# 4 0.0000 0.0000 0.0000 18.5781 0.0000 0.0000
# 5 0.0000 0.0000 0.0000 0.0000 -10.9106 0.0000
# 6 0.0000 0.0000 0.0000 0.0000 0.0000 5.2725
#
#
#
# Elastic Compliance Matrix: (Units=1/GPa)
#
#
# Indices 1 2 3 4 5 6 
#
# 1 0.020361 -0.001117 -0.004867 0.000000 0.000000 0.000000
# 2 -0.001117 0.010967 -0.001481 0.000000 0.000000 0.000000
# 3 -0.004867 -0.001481 0.006961 0.000000 0.000000 0.000000
# 4 0.000000 0.000000 0.000000 0.053827 0.000000 0.000000
# 5 0.000000 0.000000 0.000000 0.000000 -0.091654 0.000000
# 6 0.000000 0.000000 0.000000 0.000000 0.000000 0.189665
#
#
# Mechanical properties :
#
#
# Convention : Reuss Voigt Hill
#
# Bulk Modulus (GPa) = 42.80973 56.72690 49.76832
# Shear Modulus (GPa) = 23.49158 19.38315 21.43737
#
# Velocity S-wave (km/s) = 3.23788 2.94115 3.09307
# Velocity P-wave (km/s) = 5.75184 6.07042 5.91327
#
# Compressibility (1/GPa) = 0.02335918
#
# Stress axis : x y z
#
# Youngs Moduli (GPa) = 49.11312 91.18110 143.66657
#
# Poissons Ratio (x) = 0.10180 0.69923
# Poissons Ratio (y) = 0.05484 0.21281
# Poissons Ratio (z) = 0.23904 0.13507
#
# Static dielectric constant tensor:
#      x y z
#    x 1.936780 0.000000 0.000000 
#    y 0.000000 1.909790 0.000000 
#    z 0.000000 0.000000 1.830180 
# 
# From -- ./inp_files/12517.got.cif
#   From: 2010.05.17/outbox.cif.g08.bks.cpg/sg37_7_cif.got.tgz:12517.got - 2010.06.03 17:53:42.
