data_PCOD9354682
_publ_section_title
;
Structure prediction by ZEFSAII (Michael W. Deem and Ramdas Pophale) SiO2 
 PCOD9354682
Probable space group: C C C 2
;
_chemical_formula_sum "Si O2"
_cell_formula_units_Z 48
_cell_length_a 18.062592
_cell_length_b 7.763846
_cell_length_c 17.140405
_cell_angle_alpha 90.000000
_cell_angle_beta 90.000000
_cell_angle_gamma 90.000000
_cell_volume 2403.687826
_symmetry_space_group_name_H-M "C C C 2"
_symmetry_group_IT_number 37
_symmetry_cell_setting 'orthorhombic'
loop_
_space_group_symop_operation_xyz
x,y,z
-x,-y,z
-x,y,1/2+z
x,-y,1/2+z
1/2+x,1/2+y,z
1/2-x,1/2-y,z
1/2-x,1/2+y,1/2+z
1/2+x,1/2-y,1/2+z
loop_
_atom_site_type_symbol
_atom_site_label
_atom_site_fract_x
_atom_site_fract_y
_atom_site_fract_z
Si Si1 0.966271 0.808528 0.022910
Si Si2 0.750000 0.750000 0.415765
Si Si3 0.500000 0.500000 0.313660
Si Si4 0.500000 0.000000 0.909801
Si Si5 0.533729 0.191472 0.700551
Si Si6 0.250000 0.250000 0.807695
Si Si7 0.644558 0.963003 0.302083
Si Si8 0.644558 0.536997 0.921377
O O1 0.968288 0.750000 0.111730
O O2 0.000000 0.000000 0.019708
O O3 0.003725 0.667644 0.965773
O O4 0.115421 0.163583 0.988116
O O5 0.697663 0.862917 0.360564
O O6 0.691843 0.621330 0.456432
O O7 0.503725 0.332356 0.257687
O O8 0.427241 0.486662 0.368459
O O9 0.427241 0.013338 0.855002
O O10 0.615421 0.163584 0.735345
O O11 0.500000 0.000000 0.703753
O O12 0.191843 0.378670 0.767029
O O13 0.302338 0.362917 0.862897
#
# Coordination Sequence:
#
# PCOD9354682 Si02
#       8
#     8   4   4   4   8   4   8   8
#     4  12  24  40  64  99 136 167 214 277 330 384
#     4  10  22  36  67  95 128 160 214 272 320 376
#     4  12  22  42  72  98 122 172 226 270 320 388
#     4  12  22  42  72  98 122 172 226 270 320 388
#     4  12  24  40  64  99 136 167 214 277 330 384
#     4  10  22  36  67  95 128 160 214 272 320 376
#     4  11  21  41  66  97 125 166 221 269 319 387
#     4  11  21  41  66  97 125 166 221 269 319 387
#
# _framework density 19.969315999999999
#
# number of rings (size 3 to 8) (size 9 to 14) (size 15 to 20)
#    0.000    0.667    6.667    3.000    0.000    0.000 
#    0.000    0.833    0.000    2.000    0.000    0.000 
#    0.000    0.000    0.000    0.000    0.000    0.000 
#
# Total GULP energy -133888.690637 kJ/mol
# GULP energy per Si atom -5578.695443 kJ/mol
# Density = 1.992386 g / cm^3
# Si number density = 19.969316 Si / 1000 Ang^3
#
#
#
# Elastic Constant Matrix: (Units=GPa)
#
#
# Indices 1 2 3 4 5 6 
#
# 1 105.5857 36.6789 32.4908 0.0000 0.0000 0.0000
# 2 36.6789 124.6421 42.3360 0.0000 0.0000 0.0000
# 3 32.4908 42.3360 109.7657 0.0000 0.0000 0.0000
# 4 0.0000 0.0000 0.0000 41.8427 0.0000 0.0000
# 5 0.0000 0.0000 0.0000 0.0000 11.0117 0.0000
# 6 0.0000 0.0000 0.0000 0.0000 0.0000 54.5935
#
#
#
# Elastic Compliance Matrix: (Units=1/GPa)
#
#
# Indices 1 2 3 4 5 6 
#
# 1 0.011039 -0.002461 -0.002318 0.000000 0.000000 0.000000
# 2 -0.002461 0.009781 -0.003044 0.000000 0.000000 0.000000
# 3 -0.002318 -0.003044 0.010971 0.000000 0.000000 0.000000
# 4 0.000000 0.000000 0.000000 0.023899 0.000000 0.000000
# 5 0.000000 0.000000 0.000000 0.000000 0.090812 0.000000
# 6 0.000000 0.000000 0.000000 0.000000 0.000000 0.018317
#
#
# Mechanical properties :
#
#
# Convention : Reuss Voigt Hill
#
# Bulk Modulus (GPa) = 61.94257 62.55610 62.24933
# Shear Modulus (GPa) = 26.90366 36.72209 31.81287
#
# Velocity S-wave (km/s) = 3.67447 4.29292 3.99568
# Velocity P-wave (km/s) = 7.00632 7.48107 7.24758
#
# Compressibility (1/GPa) = 0.01614399
#
# Stress axis : x y z
#
# Youngs Moduli (GPa) = 90.58493 102.23743 91.15238
#
# Poissons Ratio (x) = 0.25162 0.21133
# Poissons Ratio (y) = 0.22294 0.27747
# Poissons Ratio (z) = 0.21001 0.31121
#
# Static dielectric constant tensor:
#      x y z
#    x 1.765380 0.000000 0.000000 
#    y 0.000000 1.799090 0.000000 
#    z 0.000000 0.000000 1.669870 
# 
# From -- ./inp_files/12587.got.cif
#   From: 2010.05.17/outbox.cif.g08.bks.cpg/sg37_7_cif.got.tgz:12587.got - 2010.06.03 17:53:42.
