data_PCOD9354319
_publ_section_title
;
Structure prediction by ZEFSAII (Michael W. Deem and Ramdas Pophale) SiO2 
 PCOD9354319
Probable space group: C C C 2
;
_chemical_formula_sum "Si O2"
_cell_formula_units_Z 32
_cell_length_a 12.633901
_cell_length_b 9.558853
_cell_length_c 10.859024
_cell_angle_alpha 90.000000
_cell_angle_beta 90.000000
_cell_angle_gamma 90.000000
_cell_volume 1311.396576
_symmetry_space_group_name_H-M "C C C 2"
_symmetry_group_IT_number 37
_symmetry_cell_setting 'orthorhombic'
loop_
_space_group_symop_operation_xyz
x,y,z
-x,-y,z
-x,y,1/2+z
x,-y,1/2+z
1/2+x,1/2+y,z
1/2-x,1/2-y,z
1/2-x,1/2+y,1/2+z
1/2+x,1/2-y,1/2+z
loop_
_atom_site_type_symbol
_atom_site_label
_atom_site_fract_x
_atom_site_fract_y
_atom_site_fract_z
Si Si1 0.500000 0.000000 0.001060
Si Si2 0.188349 0.521017 0.313831
Si Si3 0.750000 0.250000 0.661592
Si Si4 0.031698 0.194820 0.056042
Si Si5 0.906103 0.168797 0.291002
O O1 0.512101 0.859296 0.074202
O O2 0.608775 0.014591 0.924563
O O3 0.197465 0.377185 0.237347
O O4 0.137608 0.671955 0.275422
O O5 0.310233 0.566792 0.326499
O O6 0.843592 0.179684 0.582913
O O7 0.957816 0.129874 0.160542
O O8 0.016133 0.166486 0.910337
#
# Coordination Sequence:
#
# PCOD9354319 Si02
#       5
#     4   8   4   8   8
#     4  10  20  44  72  98 132 186 232 270 332 426
#     4  10  22  42  69  98 133 176 227 279 337 403
#     4  12  22  38  66 102 134 176 226 282 338 404
#     4  11  22  41  68  96 133 176 226 280 337 404
#     4  10  23  45  68  96 133 177 224 280 339 404
#
# _framework density 24.401465999999999
#
# number of rings (size 3 to 8) (size 9 to 14) (size 15 to 20)
#    0.000    1.500    0.000    7.500    0.000    2.000 
#    0.000   30.000    0.000    0.000    0.000    0.000 
#    0.000    0.000    0.000    0.000    0.000    0.000 
#
# Total GULP energy -89275.047757 kJ/mol
# GULP energy per Si atom -5579.690485 kJ/mol
# Density = 2.434593 g / cm^3
# Si number density = 24.401466 Si / 1000 Ang^3
#
#
#
# Elastic Constant Matrix: (Units=GPa)
#
#
# Indices 1 2 3 4 5 6 
#
# 1 125.5891 21.4515 68.5587 0.0000 0.0000 0.0000
# 2 21.4515 141.3679 28.4633 0.0000 0.0000 0.0000
# 3 68.5587 28.4633 124.3416 0.0000 0.0000 0.0000
# 4 0.0000 0.0000 0.0000 42.1280 0.0000 0.0000
# 5 0.0000 0.0000 0.0000 0.0000 5.3949 0.0000
# 6 0.0000 0.0000 0.0000 0.0000 0.0000 41.8325
#
#
#
# Elastic Compliance Matrix: (Units=1/GPa)
#
#
# Indices 1 2 3 4 5 6 
#
# 1 0.011423 -0.000488 -0.006187 0.000000 0.000000 0.000000
# 2 -0.000488 0.007436 -0.001433 0.000000 0.000000 0.000000
# 3 -0.006187 -0.001433 0.011782 0.000000 0.000000 0.000000
# 4 0.000000 0.000000 0.000000 0.023737 0.000000 0.000000
# 5 0.000000 0.000000 0.000000 0.000000 0.185360 0.000000
# 6 0.000000 0.000000 0.000000 0.000000 0.000000 0.023905
#
#
# Mechanical properties :
#
#
# Convention : Reuss Voigt Hill
#
# Bulk Modulus (GPa) = 69.32177 69.80506 69.56342
# Shear Modulus (GPa) = 17.56438 36.05944 26.81191
#
# Velocity S-wave (km/s) = 2.68583 3.84833 3.31839
# Velocity P-wave (km/s) = 6.17161 6.95810 6.57663
#
# Compressibility (1/GPa) = 0.01442548
#
# Stress axis : x y z
#
# Youngs Moduli (GPa) = 87.54184 134.47471 84.87749
#
# Poissons Ratio (x) = 0.06559 0.52512
# Poissons Ratio (y) = 0.04270 0.12166
# Poissons Ratio (z) = 0.54160 0.19275
#
# Static dielectric constant tensor:
#      x y z
#    x 2.024580 0.000000 0.000000 
#    y 0.000000 1.868030 0.000000 
#    z 0.000000 0.000000 1.958560 
# 
# From -- ./inp_files/6841.got.cif
#   From: 2010.05.17/outbox.cif.g08.bks.cpg/sg37_4_cif.got.tgz:6841.got - 2010.06.03 17:53:42.
