data_PCOD9354523
_publ_section_title
;
Structure prediction by ZEFSAII (Michael W. Deem and Ramdas Pophale) SiO2 
 PCOD9354523
Probable space group: C C C 2
;
_chemical_formula_sum "Si O2"
_cell_formula_units_Z 32
_cell_length_a 5.267316
_cell_length_b 14.855353
_cell_length_c 16.861444
_cell_angle_alpha 90.000000
_cell_angle_beta 90.000000
_cell_angle_gamma 90.000000
_cell_volume 1319.371548
_symmetry_space_group_name_H-M "C C C 2"
_symmetry_group_IT_number 37
_symmetry_cell_setting 'orthorhombic'
loop_
_space_group_symop_operation_xyz
x,y,z
-x,-y,z
-x,y,1/2+z
x,-y,1/2+z
1/2+x,1/2+y,z
1/2-x,1/2-y,z
1/2-x,1/2+y,1/2+z
1/2+x,1/2-y,1/2+z
loop_
_atom_site_type_symbol
_atom_site_label
_atom_site_fract_x
_atom_site_fract_y
_atom_site_fract_z
Si Si1 0.910088 0.093692 0.634280
Si Si2 0.001094 0.847823 0.797919
Si Si3 0.499990 0.854715 0.867708
Si Si4 0.119604 0.651035 0.051064
O O1 0.623527 0.117956 0.604717
O O2 0.981876 0.163835 0.703702
O O3 0.125126 0.094108 0.565757
O O4 0.000000 0.000000 0.674857
O O5 0.750727 0.894094 0.829769
O O6 0.252239 0.895380 0.828339
O O7 0.000278 0.749839 0.839663
O O8 0.482773 0.856809 0.961962
O O9 0.250000 0.750000 0.061549
#
# Coordination Sequence:
#
# PCOD9354523 Si02
#       4
#     8   8   8   8
#     4  12  28  46  67 106 153 193 231 297 386 453
#     4  10  21  40  65  97 141 173 230 296 358 425
#     4  10  21  40  67 103 131 169 244 306 346 407
#     4  12  25  44  77 106 138 188 251 308 356 434
#
# _framework density 24.253969000000001
#
# number of rings (size 3 to 8) (size 9 to 14) (size 15 to 20)
#    0.000    1.000    2.500    4.500   14.000    0.000 
#    0.000    7.500    0.000    0.000    0.000    0.000 
#    0.000    0.000    0.000    0.000    0.000    0.000 
#
# Total GULP energy -89170.773179 kJ/mol
# GULP energy per Si atom -5573.173324 kJ/mol
# Density = 2.419877 g / cm^3
# Si number density = 24.253969 Si / 1000 Ang^3
#
#
#
# Elastic Constant Matrix: (Units=GPa)
#
#
# Indices 1 2 3 4 5 6 
#
# 1 282.9892 33.1411 57.9648 0.0000 0.0000 0.0000
# 2 33.1411 57.0865 14.2743 0.0000 0.0000 0.0000
# 3 57.9648 14.2743 128.2625 0.0000 0.0000 0.0000
# 4 0.0000 0.0000 0.0000 -0.2520 0.0000 0.0000
# 5 0.0000 0.0000 0.0000 0.0000 48.1412 0.0000
# 6 0.0000 0.0000 0.0000 0.0000 0.0000 12.5123
#
#
#
# Elastic Compliance Matrix: (Units=1/GPa)
#
#
# Indices 1 2 3 4 5 6 
#
# 1 0.004099 -0.001971 -0.001633 0.000000 0.000000 0.000000
# 2 -0.001971 0.018967 -0.001220 0.000000 0.000000 0.000000
# 3 -0.001633 -0.001220 0.008670 0.000000 0.000000 0.000000
# 4 0.000000 0.000000 0.000000 -3.968146 0.000000 0.000000
# 5 0.000000 0.000000 0.000000 0.000000 0.020772 0.000000
# 6 0.000000 0.000000 0.000000 0.000000 0.000000 0.079921
#
#
# Mechanical properties :
#
#
# Convention : Reuss Voigt Hill
#
# Bulk Modulus (GPa) = 45.27451 75.45540 60.36495
# Shear Modulus (GPa) = -1.30934 36.27751 17.48408
#
# Velocity S-wave (km/s) = -0.73554 3.87167 2.68782
# Velocity P-wave (km/s) = 4.24099 7.15294 5.88007
#
# Compressibility (1/GPa) = 0.02208748
#
# Stress axis : x y z
#
# Youngs Moduli (GPa) = 243.95762 52.72381 115.33624
#
# Poissons Ratio (x) = 0.10394 0.18835
# Poissons Ratio (y) = 0.48092 0.14070
# Poissons Ratio (z) = 0.39840 0.06432
#
# Static dielectric constant tensor:
#      x y z
#    x 1.913870 0.000000 0.000000 
#    y 0.000000 2.198140 0.000000 
#    z 0.000000 0.000000 1.913830 
# 
# From -- ./inp_files/9464.got.cif
#   From: 2010.05.17/outbox.cif.g08.bks.cpg/sg37_5_cif.got.tgz:9464.got - 2010.06.03 17:53:42.
