data_PCOD9354681
_publ_section_title
;
Structure prediction by ZEFSAII (Michael W. Deem and Ramdas Pophale) SiO2 
 PCOD9354681
Probable space group: C C C 2
;
_chemical_formula_sum "Si O2"
_cell_formula_units_Z 52
_cell_length_a 19.083657
_cell_length_b 13.557320
_cell_length_c 9.029812
_cell_angle_alpha 90.000000
_cell_angle_beta 90.000000
_cell_angle_gamma 90.000000
_cell_volume 2336.222260
_symmetry_space_group_name_H-M "C C C 2"
_symmetry_group_IT_number 37
_symmetry_cell_setting 'orthorhombic'
loop_
_space_group_symop_operation_xyz
x,y,z
-x,-y,z
-x,y,1/2+z
x,-y,1/2+z
1/2+x,1/2+y,z
1/2-x,1/2-y,z
1/2-x,1/2+y,1/2+z
1/2+x,1/2-y,1/2+z
loop_
_atom_site_type_symbol
_atom_site_label
_atom_site_fract_x
_atom_site_fract_y
_atom_site_fract_z
Si Si1 0.114675 0.084396 0.252910
Si Si2 0.417931 0.904310 0.011772
Si Si3 0.250000 0.250000 0.775592
Si Si4 0.950540 0.871362 0.760658
Si Si5 0.131845 0.223522 0.005548
Si Si6 0.650505 0.301090 0.033826
Si Si7 0.568228 0.101277 0.665918
O O1 0.157132 0.138188 0.383494
O O2 0.033220 0.118314 0.252457
O O3 0.098105 0.969293 0.280923
O O4 0.147075 0.122524 0.097252
O O5 0.435626 0.917209 0.839683
O O6 0.361201 0.816644 0.020193
O O7 0.490399 0.882916 0.099514
O O8 0.396581 0.008173 0.083783
O O9 0.188330 0.270238 0.893237
O O10 0.289961 0.320424 0.657451
O O11 0.931729 0.800204 0.895075
O O12 0.922968 0.833785 0.604526
O O13 0.112207 0.302119 0.129143
#
# Coordination Sequence:
#
# PCOD9354681 Si02
#       7
#     8   8   4   8   8   8   8
#     4  11  20  39  66 105 123 162 210 263 334 408
#     4  11  23  38  66 101 131 160 202 260 329 397
#     4  10  28  44  62  84 124 184 222 274 296 372
#     4  10  22  36  67 101 137 156 199 265 340 409
#     4  11  23  42  63  87 132 170 212 261 323 370
#     4  11  23  42  63  87 132 170 212 261 323 370
#     4  11  23  38  66 101 131 160 202 260 329 397
#
# _framework density 22.258156
#
# number of rings (size 3 to 8) (size 9 to 14) (size 15 to 20)
#    0.000    1.231    1.538    5.538    8.615    3.077 
#    0.000    6.154    0.000    0.000    0.000    0.000 
#    0.000    0.000    0.000    0.000    0.000    0.000 
#
# Total GULP energy -144972.150063 kJ/mol
# GULP energy per Si atom -5575.851925 kJ/mol
# Density = 2.220750 g / cm^3
# Si number density = 22.258156 Si / 1000 Ang^3
#
#
#
# Elastic Constant Matrix: (Units=GPa)
#
#
# Indices 1 2 3 4 5 6 
#
# 1 48.3407 18.5005 20.9597 0.0000 0.0000 0.0000
# 2 18.5005 81.1711 12.8279 0.0000 0.0000 0.0000
# 3 20.9597 12.8279 142.8702 0.0000 0.0000 0.0000
# 4 0.0000 0.0000 0.0000 28.5850 0.0000 0.0000
# 5 0.0000 0.0000 0.0000 0.0000 25.6857 0.0000
# 6 0.0000 0.0000 0.0000 0.0000 0.0000 4.9660
#
#
#
# Elastic Compliance Matrix: (Units=1/GPa)
#
#
# Indices 1 2 3 4 5 6 
#
# 1 0.023915 -0.004967 -0.003063 0.000000 0.000000 0.000000
# 2 -0.004967 0.013528 -0.000486 0.000000 0.000000 0.000000
# 3 -0.003063 -0.000486 0.007492 0.000000 0.000000 0.000000
# 4 0.000000 0.000000 0.000000 0.034983 0.000000 0.000000
# 5 0.000000 0.000000 0.000000 0.000000 0.038932 0.000000
# 6 0.000000 0.000000 0.000000 0.000000 0.000000 0.201368
#
#
# Mechanical properties :
#
#
# Convention : Reuss Voigt Hill
#
# Bulk Modulus (GPa) = 35.83543 41.88424 38.85984
# Shear Modulus (GPa) = 14.42787 26.52027 20.47407
#
# Velocity S-wave (km/s) = 2.54875 3.45553 3.03619
# Velocity P-wave (km/s) = 4.97960 5.89740 5.45782
#
# Compressibility (1/GPa) = 0.02790534
#
# Stress axis : x y z
#
# Youngs Moduli (GPa) = 41.81449 73.91815 133.47066
#
# Poissons Ratio (x) = 0.36713 0.40875
# Poissons Ratio (y) = 0.20768 0.06487
# Poissons Ratio (z) = 0.12806 0.03593
#
# Static dielectric constant tensor:
#      x y z
#    x 1.815280 0.000000 0.000000 
#    y 0.000000 1.927030 0.000000 
#    z 0.000000 0.000000 1.790010 
# 
# From -- ./inp_files/4353.got.cif
#   From: 2010.05.17/outbox.cif.g08.bks.cpg/sg37_3_cif.got.tgz:4353.got - 2010.06.03 17:53:42.
