data_PCOD9354020
_publ_section_title
;
Structure prediction by ZEFSAII (Michael W. Deem and Ramdas Pophale) SiO2 
 PCOD9354020
Probable space group: C C C 2
;
_chemical_formula_sum "Si O2"
_cell_formula_units_Z 48
_cell_length_a 17.816217
_cell_length_b 8.749709
_cell_length_c 15.545170
_cell_angle_alpha 90.000000
_cell_angle_beta 90.000000
_cell_angle_gamma 90.000000
_cell_volume 2423.285473
_symmetry_space_group_name_H-M "C C C 2"
_symmetry_group_IT_number 37
_symmetry_cell_setting 'orthorhombic'
loop_
_space_group_symop_operation_xyz
x,y,z
-x,-y,z
-x,y,1/2+z
x,-y,1/2+z
1/2+x,1/2+y,z
1/2-x,1/2-y,z
1/2-x,1/2+y,1/2+z
1/2+x,1/2-y,1/2+z
loop_
_atom_site_type_symbol
_atom_site_label
_atom_site_fract_x
_atom_site_fract_y
_atom_site_fract_z
Si Si1 0.341987 0.422952 0.157270
Si Si2 0.939751 0.221105 0.131711
Si Si3 0.704325 0.900215 0.596405
Si Si4 0.328372 0.804621 0.494954
Si Si5 0.508222 0.818957 0.951929
Si Si6 0.455838 0.659251 0.787297
O O1 0.403180 0.552191 0.131482
O O2 0.261851 0.507197 0.157103
O O3 0.337704 0.294105 0.083429
O O4 0.373183 0.364399 0.247947
O O5 0.870890 0.338752 0.140039
O O6 0.997072 0.236452 0.209987
O O7 0.980493 0.250329 0.041910
O O8 0.750000 0.750000 0.565316
O O9 0.681131 0.019018 0.522453
O O10 0.250000 0.750000 0.454520
O O11 0.403569 0.780696 0.441087
O O12 0.460335 0.753844 0.873834
O O13 0.500000 0.000000 0.957085
O O14 0.500000 0.500000 0.803367
#
# Coordination Sequence:
#
# PCOD9354020 Si02
#       6
#     8   8   8   8   8   8
#     4   9  19  37  63  89 117 163 209 258 323 379
#     4  10  20  39  62  90 120 163 210 261 328 376
#     4   9  18  35  63  85 120 163 208 257 320 389
#     4  10  20  36  60  90 120 163 211 255 324 382
#     4  12  24  37  61  95 127 165 215 267 327 384
#     4  10  23  38  60  93 126 162 215 263 319 388
#
# _framework density 19.807818999999999
#
# number of rings (size 3 to 8) (size 9 to 14) (size 15 to 20)
#    0.000    2.000    3.333    0.000    2.333    2.000 
#    0.000    4.167    0.000    5.000    0.000    0.000 
#    0.000    0.000    0.000    0.000    0.000    0.000 
#
# Total GULP energy -133972.374314 kJ/mol
# GULP energy per Si atom -5582.182263 kJ/mol
# Density = 1.976274 g / cm^3
# Si number density = 19.807819 Si / 1000 Ang^3
#
#
#
# Elastic Constant Matrix: (Units=GPa)
#
#
# Indices 1 2 3 4 5 6 
#
# 1 98.9877 13.4939 15.8720 0.0000 0.0000 0.0000
# 2 13.4939 67.3216 21.1443 0.0000 0.0000 0.0000
# 3 15.8720 21.1443 73.3243 0.0000 0.0000 0.0000
# 4 0.0000 0.0000 0.0000 51.3123 0.0000 0.0000
# 5 0.0000 0.0000 0.0000 0.0000 22.9011 0.0000
# 6 0.0000 0.0000 0.0000 0.0000 0.0000 17.8512
#
#
#
# Elastic Compliance Matrix: (Units=1/GPa)
#
#
# Indices 1 2 3 4 5 6 
#
# 1 0.010610 -0.001545 -0.001851 0.000000 0.000000 0.000000
# 2 -0.001545 0.016558 -0.004440 0.000000 0.000000 0.000000
# 3 -0.001851 -0.004440 0.015319 0.000000 0.000000 0.000000
# 4 0.000000 0.000000 0.000000 0.019488 0.000000 0.000000
# 5 0.000000 0.000000 0.000000 0.000000 0.043666 0.000000
# 6 0.000000 0.000000 0.000000 0.000000 0.000000 0.056019
#
#
# Mechanical properties :
#
#
# Convention : Reuss Voigt Hill
#
# Bulk Modulus (GPa) = 37.29397 37.85046 37.57221
# Shear Modulus (GPa) = 26.84246 31.02114 28.93180
#
# Velocity S-wave (km/s) = 3.68522 3.96170 3.82596
# Velocity P-wave (km/s) = 6.08084 6.33065 6.20700
#
# Compressibility (1/GPa) = 0.02681399
#
# Stress axis : x y z
#
# Youngs Moduli (GPa) = 94.25329 60.39218 65.27763
#
# Poissons Ratio (x) = 0.09332 0.12083
# Poissons Ratio (y) = 0.14564 0.28986
# Poissons Ratio (z) = 0.17446 0.26817
#
# Static dielectric constant tensor:
#      x y z
#    x 1.735430 0.000000 0.000000 
#    y 0.000000 1.694480 0.000000 
#    z 0.000000 0.000000 1.641100 
# 
# From -- ./inp_files/10578.got.cif
#   From: 2010.05.17/outbox.cif.g08.bks.cpg/sg37_6_cif.got.tgz:10578.got - 2010.06.03 17:53:42.
