data_PCOD9354655
_publ_section_title
;
Structure prediction by ZEFSAII (Michael W. Deem and Ramdas Pophale) SiO2 
 PCOD9354655
Probable space group: C C C 2
;
_chemical_formula_sum "Si O2"
_cell_formula_units_Z 32
_cell_length_a 11.467869
_cell_length_b 8.192059
_cell_length_c 14.982314
_cell_angle_alpha 90.000000
_cell_angle_beta 90.000000
_cell_angle_gamma 90.000000
_cell_volume 1407.520372
_symmetry_space_group_name_H-M "C C C 2"
_symmetry_group_IT_number 37
_symmetry_cell_setting 'orthorhombic'
loop_
_space_group_symop_operation_xyz
x,y,z
-x,-y,z
-x,y,1/2+z
x,-y,1/2+z
1/2+x,1/2+y,z
1/2-x,1/2-y,z
1/2-x,1/2+y,1/2+z
1/2+x,1/2-y,1/2+z
loop_
_atom_site_type_symbol
_atom_site_label
_atom_site_fract_x
_atom_site_fract_y
_atom_site_fract_z
Si Si1 0.500000 0.500000 0.838250
Si Si2 0.528151 0.166344 0.444965
Si Si3 0.250000 0.750000 0.548270
Si Si4 0.585428 0.146301 0.133983
Si Si5 0.161445 0.987903 0.182330
O O1 0.478476 0.336809 0.894628
O O2 0.384170 0.537594 0.779147
O O3 0.657550 0.156769 0.487231
O O4 0.436952 0.162866 0.527698
O O5 0.500000 0.000000 0.391734
O O6 0.328419 0.633825 0.611066
O O7 0.709555 0.085997 0.170457
O O8 0.575986 0.333885 0.164315
O O9 0.500000 0.000000 0.162516
#
# Coordination Sequence:
#
# PCOD9354655 Si02
#       5
#     4   8   4   8   8
#     4  12  28  46  70 122 160 186 248 338 402 426
#     4  11  24  49  74 107 152 201 254 315 380 460
#     4  12  22  48  80 106 142 216 274 292 376 492
#     4  10  21  47  79 103 142 214 264 297 372 480
#     4  11  24  43  75 111 149 198 257 321 376 459
#
# _framework density 22.735019000000001
#
# number of rings (size 3 to 8) (size 9 to 14) (size 15 to 20)
#    0.000    1.000    5.000    3.000    0.000    3.000 
#    9.000    0.000    0.000    0.000    0.000    0.000 
#    0.000    0.000    0.000    0.000    0.000    0.000 
#
# Total GULP energy -89241.973231 kJ/mol
# GULP energy per Si atom -5577.623327 kJ/mol
# Density = 2.268327 g / cm^3
# Si number density = 22.735019 Si / 1000 Ang^3
#
#
#
# Elastic Constant Matrix: (Units=GPa)
#
#
# Indices 1 2 3 4 5 6 
#
# 1 139.3936 54.0973 55.9216 0.0000 0.0000 0.0000
# 2 54.0973 171.1194 36.1851 0.0000 0.0000 0.0000
# 3 55.9216 36.1851 76.6346 0.0000 0.0000 0.0000
# 4 0.0000 0.0000 0.0000 -766.5483 0.0000 0.0000
# 5 0.0000 0.0000 0.0000 0.0000 73.4994 0.0000
# 6 0.0000 0.0000 0.0000 0.0000 0.0000 41.6546
#
#
#
# Elastic Compliance Matrix: (Units=1/GPa)
#
#
# Indices 1 2 3 4 5 6 
#
# 1 0.010683 -0.001921 -0.006889 0.000000 0.000000 0.000000
# 2 -0.001921 0.006837 -0.001827 0.000000 0.000000 0.000000
# 3 -0.006889 -0.001827 0.018938 0.000000 0.000000 0.000000
# 4 0.000000 0.000000 0.000000 -0.001305 0.000000 0.000000
# 5 0.000000 0.000000 0.000000 0.000000 0.013606 0.000000
# 6 0.000000 0.000000 0.000000 0.000000 0.000000 0.024007
#
#
# Mechanical properties :
#
#
# Convention : Reuss Voigt Hill
#
# Bulk Modulus (GPa) = 65.84911 75.50619 70.67765
# Shear Modulus (GPa) = 50.45367 -114.21594 -31.88114
#
# Velocity S-wave (km/s) = 4.71595 -7.09556 -3.74878
# Velocity P-wave (km/s) = 7.66030 5.81771 3.52381
#
# Compressibility (1/GPa) = 0.01518623
#
# Stress axis : x y z
#
# Youngs Moduli (GPa) = 93.60815 146.25500 52.80302
#
# Poissons Ratio (x) = 0.28089 0.36374
# Poissons Ratio (y) = 0.17978 0.09647
# Poissons Ratio (z) = 0.64483 0.26720
#
# Static dielectric constant tensor:
#      x y z
#    x 1.869990 0.000000 0.000000 
#    y 0.000000 2.966790 0.000000 
#    z 0.000000 0.000000 1.866540 
# 
# From -- ./inp_files/10122.got.cif
#   From: 2010.05.17/outbox.cif.g08.bks.cpg/sg37_6_cif.got.tgz:10122.got - 2010.06.03 17:53:42.
