data_PCOD9354630
_publ_section_title
;
Structure prediction by ZEFSAII (Michael W. Deem and Ramdas Pophale) SiO2 
 PCOD9354630
Probable space group: C C C 2
;
_chemical_formula_sum "Si O2"
_cell_formula_units_Z 64
_cell_length_a 8.161819
_cell_length_b 24.434206
_cell_length_c 15.130736
_cell_angle_alpha 90.000000
_cell_angle_beta 90.000000
_cell_angle_gamma 90.000000
_cell_volume 3017.485864
_symmetry_space_group_name_H-M "C C C 2"
_symmetry_group_IT_number 37
_symmetry_cell_setting 'orthorhombic'
loop_
_space_group_symop_operation_xyz
x,y,z
-x,-y,z
-x,y,1/2+z
x,-y,1/2+z
1/2+x,1/2+y,z
1/2-x,1/2-y,z
1/2-x,1/2+y,1/2+z
1/2+x,1/2-y,1/2+z
loop_
_atom_site_type_symbol
_atom_site_label
_atom_site_fract_x
_atom_site_fract_y
_atom_site_fract_z
Si Si1 0.160668 0.301615 0.375000
Si Si2 0.424869 0.222388 0.736086
Si Si3 0.654202 0.104815 0.014418
Si Si4 0.616123 0.677702 0.201989
Si Si5 0.305049 0.506557 0.443996
Si Si6 0.299972 0.088033 0.094549
Si Si7 0.198451 0.997198 0.236799
Si Si8 0.224347 0.874714 0.184592
O O1 0.250000 0.250000 0.420117
O O2 0.133664 0.354268 0.433535
O O3 0.268209 0.318137 0.288310
O O4 0.993127 0.278144 0.334905
O O5 0.250000 0.250000 0.725827
O O6 0.552796 0.260321 0.682174
O O7 0.380692 0.160265 0.714407
O O8 0.486660 0.099263 0.068645
O O9 0.787804 0.131911 0.079313
O O10 0.715138 0.045406 0.986318
O O11 0.707400 0.642964 0.126817
O O12 0.447186 0.645468 0.225685
O O13 0.500000 0.500000 0.446909
O O14 0.267687 0.558951 0.505295
O O15 0.257132 0.504810 0.340546
O O16 0.273616 0.045226 0.176148
O O17 0.248760 0.938353 0.200491
O O18 0.000000 0.000000 0.229331
#
# Coordination Sequence:
#
# PCOD9354630 Si02
#       8
#     8   8   8   8   8   8   8   8
#     4  10  23  45  69  98 136 179 234 293 356 426
#     4   9  21  42  68 100 131 180 241 286 357 428
#     4  12  26  42  63 102 144 175 228 296 352 422
#     4  10  21  43  72  92 133 183 229 297 353 425
#     4  11  25  43  66 100 138 182 237 285 352 430
#     4  12  23  44  65 104 143 182 232 291 359 425
#     4  11  23  42  70  98 141 192 236 283 357 427
#     4  11  22  40  67  95 133 182 235 283 351 424
#
# _framework density 21.209710000000001
#
# number of rings (size 3 to 8) (size 9 to 14) (size 15 to 20)
#    0.000    1.250    2.500    3.000    3.500    1.500 
#    2.250    2.500    0.000    0.000    0.000    0.000 
#    0.000    0.000    0.000    0.000    0.000    0.000 
#
# Total GULP energy -178611.706026 kJ/mol
# GULP energy per Si atom -5581.615813 kJ/mol
# Density = 2.116144 g / cm^3
# Si number density = 21.209710 Si / 1000 Ang^3
#
#
#
# Elastic Constant Matrix: (Units=GPa)
#
#
# Indices 1 2 3 4 5 6 
#
# 1 86.3008 50.4927 43.2293 0.0000 0.0000 0.0000
# 2 50.4927 124.5108 34.8625 0.0000 0.0000 0.0000
# 3 43.2293 34.8625 92.2877 0.0000 0.0000 0.0000
# 4 0.0000 0.0000 0.0000 29.9544 0.0000 0.0000
# 5 0.0000 0.0000 0.0000 0.0000 25.5963 0.0000
# 6 0.0000 0.0000 0.0000 0.0000 0.0000 37.0102
#
#
#
# Elastic Compliance Matrix: (Units=1/GPa)
#
#
# Indices 1 2 3 4 5 6 
#
# 1 0.017995 -0.005522 -0.006344 0.000000 0.000000 0.000000
# 2 -0.005522 0.010676 -0.001446 0.000000 0.000000 0.000000
# 3 -0.006344 -0.001446 0.014354 0.000000 0.000000 0.000000
# 4 0.000000 0.000000 0.000000 0.033384 0.000000 0.000000
# 5 0.000000 0.000000 0.000000 0.000000 0.039068 0.000000
# 6 0.000000 0.000000 0.000000 0.000000 0.000000 0.027020
#
#
# Mechanical properties :
#
#
# Convention : Reuss Voigt Hill
#
# Bulk Modulus (GPa) = 60.96998 62.25202 61.61100
# Shear Modulus (GPa) = 28.63908 30.14651 29.39279
#
# Velocity S-wave (km/s) = 3.67860 3.77418 3.72670
# Velocity P-wave (km/s) = 6.84482 6.95751 6.90139
#
# Compressibility (1/GPa) = 0.01640151
#
# Stress axis : x y z
#
# Youngs Moduli (GPa) = 55.56946 93.67193 69.66918
#
# Poissons Ratio (x) = 0.51721 0.44196
# Poissons Ratio (y) = 0.30683 0.10077
# Poissons Ratio (z) = 0.35251 0.13549
#
# Static dielectric constant tensor:
#      x y z
#    x 1.792730 0.000000 0.000000 
#    y 0.000000 1.815230 0.000000 
#    z 0.000000 0.000000 1.801890 
# 
# From -- ./inp_files/10978.got.cif
#   From: 2010.05.17/outbox.cif.g08.bks.cpg/sg37_6_cif.got.tgz:10978.got - 2010.06.03 17:53:42.
