data_PCOD9354804
_publ_section_title
;
Structure prediction by ZEFSAII (Michael W. Deem and Ramdas Pophale) SiO2 
 PCOD9354804
Probable space group: C C C 2
;
_chemical_formula_sum "Si O2"
_cell_formula_units_Z 36
_cell_length_a 5.556192
_cell_length_b 14.217152
_cell_length_c 19.051610
_cell_angle_alpha 90.000000
_cell_angle_beta 90.000000
_cell_angle_gamma 90.000000
_cell_volume 1504.948138
_symmetry_space_group_name_H-M "C C C 2"
_symmetry_group_IT_number 37
_symmetry_cell_setting 'orthorhombic'
loop_
_space_group_symop_operation_xyz
x,y,z
-x,-y,z
-x,y,1/2+z
x,-y,1/2+z
1/2+x,1/2+y,z
1/2-x,1/2-y,z
1/2-x,1/2+y,1/2+z
1/2+x,1/2-y,1/2+z
loop_
_atom_site_type_symbol
_atom_site_label
_atom_site_fract_x
_atom_site_fract_y
_atom_site_fract_z
Si Si1 0.122853 0.647896 0.844810
Si Si2 0.428803 0.610024 0.547049
Si Si3 0.933042 0.603009 0.498314
Si Si4 0.250000 0.750000 0.273298
Si Si5 0.604361 0.395106 0.706669
O O1 0.250000 0.750000 0.854036
O O2 0.147119 0.594149 0.917164
O O3 0.217151 0.603725 0.772693
O O4 0.850993 0.671036 0.825147
O O5 0.500000 0.500000 0.532994
O O6 0.701180 0.648938 0.536121
O O7 0.327681 0.621471 0.625968
O O8 0.203360 0.645884 0.500956
O O9 0.000000 0.500000 0.528798
O O10 0.435913 0.693776 0.225487
O O11 0.500000 0.500000 0.705520
#
# Coordination Sequence:
#
# PCOD9354804 Si02
#       5
#     8   8   8   4   8
#     4  10  24  42  60  95 132 173 221 278 326 405
#     4   9  21  41  63  98 129 168 220 279 327 406
#     4  10  22  40  67  94 131 169 222 270 335 401
#     4  10  24  42  60  96 138 166 230 288 322 412
#     4  10  23  42  70  95 130 176 227 278 345 396
#
# _framework density 23.92109
#
# number of rings (size 3 to 8) (size 9 to 14) (size 15 to 20)
#    0.000    2.222    0.000    0.000   12.444    0.889 
#    2.000    0.000    0.000    0.000    0.000    0.000 
#    0.000    0.000    0.000    0.000    0.000    0.000 
#
# Total GULP energy -100213.454076 kJ/mol
# GULP energy per Si atom -5567.414115 kJ/mol
# Density = 2.386664 g / cm^3
# Si number density = 23.921090 Si / 1000 Ang^3
#
#
#
# Elastic Constant Matrix: (Units=GPa)
#
#
# Indices 1 2 3 4 5 6 
#
# 1 120.5319 -2.3075 42.2813 0.0000 0.0000 0.0000
# 2 -2.3075 63.1322 -4.0291 0.0000 0.0000 0.0000
# 3 42.2813 -4.0291 151.9591 0.0000 0.0000 0.0000
# 4 0.0000 0.0000 0.0000 40.9368 0.0000 0.0000
# 5 0.0000 0.0000 0.0000 0.0000 37.8429 0.0000
# 6 0.0000 0.0000 0.0000 0.0000 0.0000 2.6987
#
#
#
# Elastic Compliance Matrix: (Units=1/GPa)
#
#
# Indices 1 2 3 4 5 6 
#
# 1 0.009196 0.000173 -0.002554 0.000000 0.000000 0.000000
# 2 0.000173 0.015870 0.000373 0.000000 0.000000 0.000000
# 3 -0.002554 0.000373 0.007301 0.000000 0.000000 0.000000
# 4 0.000000 0.000000 0.000000 0.024428 0.000000 0.000000
# 5 0.000000 0.000000 0.000000 0.000000 0.026425 0.000000
# 6 0.000000 0.000000 0.000000 0.000000 0.000000 0.370545
#
#
# Mechanical properties :
#
#
# Convention : Reuss Voigt Hill
#
# Bulk Modulus (GPa) = 35.27306 45.27918 40.27612
# Shear Modulus (GPa) = 10.70134 36.27428 23.48781
#
# Velocity S-wave (km/s) = 2.11738 3.89834 3.13691
# Velocity P-wave (km/s) = 4.55580 6.26358 5.47667
#
# Compressibility (1/GPa) = 0.02835025
#
# Stress axis : x y z
#
# Youngs Moduli (GPa) = 108.74523 63.01247 136.96301
#
# Poissons Ratio (x) = -0.01091 0.34981
# Poissons Ratio (y) = -0.01882 -0.05103
# Poissons Ratio (z) = 0.27774 -0.02348
#
# Static dielectric constant tensor:
#      x y z
#    x 2.155540 0.000000 0.000000 
#    y 0.000000 1.896770 0.000000 
#    z 0.000000 0.000000 1.913530 
# 
# From -- ./inp_files/13725.got.cif
#   From: 2010.05.17/outbox.cif.g08.bks.cpg/sg37_7_cif.got.tgz:13725.got - 2010.06.03 17:53:42.
