data_PCOD9354914
_publ_section_title
;
Structure prediction by ZEFSAII (Michael W. Deem and Ramdas Pophale) SiO2 
 PCOD9354914
Probable space group: C C C 2
;
_chemical_formula_sum "Si O2"
_cell_formula_units_Z 64
_cell_length_a 15.797033
_cell_length_b 8.826355
_cell_length_c 22.431581
_cell_angle_alpha 90.000000
_cell_angle_beta 90.000000
_cell_angle_gamma 90.000000
_cell_volume 3127.640301
_symmetry_space_group_name_H-M "C C C 2"
_symmetry_group_IT_number 37
_symmetry_cell_setting 'orthorhombic'
loop_
_space_group_symop_operation_xyz
x,y,z
-x,-y,z
-x,y,1/2+z
x,-y,1/2+z
1/2+x,1/2+y,z
1/2-x,1/2-y,z
1/2-x,1/2+y,1/2+z
1/2+x,1/2-y,1/2+z
loop_
_atom_site_type_symbol
_atom_site_label
_atom_site_fract_x
_atom_site_fract_y
_atom_site_fract_z
Si Si1 0.087333 0.097435 0.667870
Si Si2 0.072869 0.623325 0.260103
Si Si3 0.328774 0.638785 0.744888
Si Si4 0.251931 0.573668 0.949583
Si Si5 0.579989 0.390252 0.029392
Si Si6 0.567674 0.128394 0.948418
Si Si7 0.736609 0.075852 0.325234
Si Si8 0.969785 0.175136 0.833974
O O1 0.087784 0.251511 0.707697
O O2 0.101560 0.130487 0.598610
O O3 0.155615 0.975161 0.690704
O O4 0.000000 0.000000 0.674362
O O5 0.154783 0.534680 0.285279
O O6 0.000000 0.500000 0.246037
O O7 0.051007 0.724105 0.318428
O O8 0.250000 0.750000 0.735281
O O9 0.308700 0.528666 0.799484
O O10 0.415870 0.701680 0.772858
O O11 0.250000 0.750000 0.928400
O O12 0.156025 0.560553 0.973238
O O13 0.244629 0.459787 0.894639
O O14 0.334690 0.562093 0.991974
O O15 0.500000 0.500000 0.024190
O O16 0.542567 0.237581 0.001617
O O17 0.573194 0.241290 0.890473
O O18 0.500000 0.000000 0.934521
O O19 0.750000 0.250000 0.313163
O O20 0.000000 0.000000 0.842784
#
# Coordination Sequence:
#
# PCOD9354914 Si02
#       8
#     8   8   8   8   8   8   8   8
#     4  11  23  47  67  92 127 177 243 278 339 436
#     4  12  23  39  63 100 134 173 211 281 354 413
#     4  12  22  39  62  92 132 176 215 268 340 408
#     4  10  22  43  63  93 134 179 219 277 338 411
#     4  10  24  46  70  87 123 187 240 283 336 411
#     4  11  23  40  65 105 134 174 224 282 352 413
#     4  12  23  37  59 101 138 162 209 274 339 407
#     4  12  21  40  68  95 137 179 216 262 339 422
#
# _framework density 20.462710999999999
#
# number of rings (size 3 to 8) (size 9 to 14) (size 15 to 20)
#    0.000    0.750    3.750    5.625    0.000    2.500 
#    6.750    3.125    0.000    0.000    0.000    0.000 
#    0.000    0.000    0.000    0.000    0.000    0.000 
#
# Total GULP energy -178181.006677 kJ/mol
# GULP energy per Si atom -5568.156459 kJ/mol
# Density = 2.041614 g / cm^3
# Si number density = 20.462711 Si / 1000 Ang^3
#
#
#
# Elastic Constant Matrix: (Units=GPa)
#
#
# Indices 1 2 3 4 5 6 
#
# 1 85.8456 32.9791 30.3533 0.0000 0.0000 0.0000
# 2 32.9791 89.8418 50.3503 0.0000 0.0000 0.0000
# 3 30.3533 50.3503 114.5430 0.0000 0.0000 0.0000
# 4 0.0000 0.0000 0.0000 18.4659 0.0000 0.0000
# 5 0.0000 0.0000 0.0000 0.0000 34.2117 0.0000
# 6 0.0000 0.0000 0.0000 0.0000 0.0000 30.3507
#
#
#
# Elastic Compliance Matrix: (Units=1/GPa)
#
#
# Indices 1 2 3 4 5 6 
#
# 1 0.013868 -0.004022 -0.001907 0.000000 0.000000 0.000000
# 2 -0.004022 0.015936 -0.005939 0.000000 0.000000 0.000000
# 3 -0.001907 -0.005939 0.011846 0.000000 0.000000 0.000000
# 4 0.000000 0.000000 0.000000 0.054154 0.000000 0.000000
# 5 0.000000 0.000000 0.000000 0.000000 0.029230 0.000000
# 6 0.000000 0.000000 0.000000 0.000000 0.000000 0.032948
#
#
# Mechanical properties :
#
#
# Convention : Reuss Voigt Hill
#
# Bulk Modulus (GPa) = 55.82244 57.51066 56.66655
# Shear Modulus (GPa) = 26.63977 28.37551 27.50764
#
# Velocity S-wave (km/s) = 3.61206 3.72787 3.67042
# Velocity P-wave (km/s) = 6.68844 6.83341 6.76131
#
# Compressibility (1/GPa) = 0.01791394
#
# Stress axis : x y z
#
# Youngs Moduli (GPa) = 72.10729 62.75296 84.41399
#
# Poissons Ratio (x) = 0.25239 0.16098
# Poissons Ratio (y) = 0.29001 0.50134
# Poissons Ratio (z) = 0.13751 0.37269
#
# Static dielectric constant tensor:
#      x y z
#    x 1.842120 0.000000 0.000000 
#    y 0.000000 1.737920 0.000000 
#    z 0.000000 0.000000 1.731040 
# 
# From -- ./inp_files/18912.got.cif
#   From: 2010.05.17/outbox.cif.g08.bks.cpg/sg37_10_cif.got.tgz:18912.got - 2010.06.03 17:53:42.
