data_PCOD9354824
_publ_section_title
;
Structure prediction by ZEFSAII (Michael W. Deem and Ramdas Pophale) SiO2 
 PCOD9354824
Probable space group: C C C 2
;
_chemical_formula_sum "Si O2"
_cell_formula_units_Z 60
_cell_length_a 10.822908
_cell_length_b 30.094028
_cell_length_c 8.718851
_cell_angle_alpha 90.000000
_cell_angle_beta 90.000000
_cell_angle_gamma 90.000000
_cell_volume 2839.772462
_symmetry_space_group_name_H-M "C C C 2"
_symmetry_group_IT_number 37
_symmetry_cell_setting 'orthorhombic'
loop_
_space_group_symop_operation_xyz
x,y,z
-x,-y,z
-x,y,1/2+z
x,-y,1/2+z
1/2+x,1/2+y,z
1/2-x,1/2-y,z
1/2-x,1/2+y,1/2+z
1/2+x,1/2-y,1/2+z
loop_
_atom_site_type_symbol
_atom_site_label
_atom_site_fract_x
_atom_site_fract_y
_atom_site_fract_z
Si Si1 0.881929 0.441515 0.291230
Si Si2 0.254332 0.299736 0.840739
Si Si3 0.500000 0.000000 0.529255
Si Si4 0.786487 0.879056 0.625016
Si Si5 0.063569 0.311996 0.106770
Si Si6 0.610053 0.733815 0.312798
Si Si7 0.515424 0.677987 0.046378
Si Si8 0.909809 0.629370 0.382020
O O1 0.893068 0.479407 0.420858
O O2 0.752704 0.419011 0.240859
O O3 0.942733 0.462836 0.139700
O O4 0.977371 0.404339 0.353609
O O5 0.250000 0.250000 0.776241
O O6 0.228071 0.336139 0.712347
O O7 0.164511 0.295732 0.986255
O O8 0.380105 0.319935 0.914872
O O9 0.925595 0.863785 0.580214
O O10 0.710463 0.888203 0.468955
O O11 0.034401 0.273154 0.228331
O O12 0.117316 0.350424 0.216014
O O13 0.961325 0.332965 0.996976
O O14 0.750000 0.750000 0.312006
O O15 0.585432 0.692415 0.200300
O O16 0.572231 0.717480 0.480392
#
# Coordination Sequence:
#
# PCOD9354824 Si02
#       8
#     8   8   4   8   8   8   8   8
#     4  11  21  43  65 112 137 169 201 267 342 444
#     4  12  25  43  61  87 132 190 251 299 333 380
#     4  10  22  40  78 100 152 162 198 264 352 442
#     4  12  26  40  65  96 138 179 226 283 354 402
#     4  12  21  37  61  86 130 183 228 297 334 383
#     4  12  24  41  58  84 125 179 249 295 340 374
#     4  12  25  43  58  85 126 176 244 297 338 395
#     4  12  23  36  62  99 135 167 218 268 354 417
#
# _framework density 21.128451999999999
#
# number of rings (size 3 to 8) (size 9 to 14) (size 15 to 20)
#    0.000    0.267    8.000    1.600    1.867    1.600 
#    0.000    0.000    0.000    0.000    0.000    2.800 
#    0.000    0.000    0.000    0.000    0.000    0.000 
#
# Total GULP energy -167399.331156 kJ/mol
# GULP energy per Si atom -5579.977705 kJ/mol
# Density = 2.108036 g / cm^3
# Si number density = 21.128452 Si / 1000 Ang^3
#
#
#
# Elastic Constant Matrix: (Units=GPa)
#
#
# Indices 1 2 3 4 5 6 
#
# 1 98.4727 23.1157 28.5858 0.0000 0.0000 0.0000
# 2 23.1157 54.0703 17.8713 0.0000 0.0000 0.0000
# 3 28.5858 17.8713 94.4501 0.0000 0.0000 0.0000
# 4 0.0000 0.0000 0.0000 32.4429 0.0000 0.0000
# 5 0.0000 0.0000 0.0000 0.0000 32.2288 0.0000
# 6 0.0000 0.0000 0.0000 0.0000 0.0000 30.7657
#
#
#
# Elastic Compliance Matrix: (Units=1/GPa)
#
#
# Indices 1 2 3 4 5 6 
#
# 1 0.011957 -0.004177 -0.002828 0.000000 0.000000 0.000000
# 2 -0.004177 0.021187 -0.002745 0.000000 0.000000 0.000000
# 3 -0.002828 -0.002745 0.011963 0.000000 0.000000 0.000000
# 4 0.000000 0.000000 0.000000 0.030823 0.000000 0.000000
# 5 0.000000 0.000000 0.000000 0.000000 0.031028 0.000000
# 6 0.000000 0.000000 0.000000 0.000000 0.000000 0.032504
#
#
# Mechanical properties :
#
#
# Convention : Reuss Voigt Hill
#
# Bulk Modulus (GPa) = 39.05200 42.90431 40.97815
# Shear Modulus (GPa) = 29.85114 30.91551 30.38332
#
# Velocity S-wave (km/s) = 3.76286 3.82935 3.79625
# Velocity P-wave (km/s) = 6.11572 6.31684 6.21709
#
# Compressibility (1/GPa) = 0.02560689
#
# Stress axis : x y z
#
# Youngs Moduli (GPa) = 83.63557 47.19815 83.59105
#
# Poissons Ratio (x) = 0.19714 0.23643
# Poissons Ratio (y) = 0.34933 0.22944
# Poissons Ratio (z) = 0.23656 0.12955
#
# Static dielectric constant tensor:
#      x y z
#    x 1.855830 0.000000 0.000000 
#    y 0.000000 1.807620 0.000000 
#    z 0.000000 0.000000 1.782980 
# 
# From -- ./inp_files/3103.got.cif
#   From: 2010.05.17/outbox.cif.g08.bks.cpg/sg37_2_cif.got.tgz:3103.got - 2010.06.03 17:53:42.
