data_PCOD9354836
_publ_section_title
;
Structure prediction by ZEFSAII (Michael W. Deem and Ramdas Pophale) SiO2 
 PCOD9354836
Probable space group: C C C 2
;
_chemical_formula_sum "Si O2"
_cell_formula_units_Z 60
_cell_length_a 18.846665
_cell_length_b 5.939190
_cell_length_c 27.673518
_cell_angle_alpha 90.000000
_cell_angle_beta 90.000000
_cell_angle_gamma 90.000000
_cell_volume 3097.605469
_symmetry_space_group_name_H-M "C C C 2"
_symmetry_group_IT_number 37
_symmetry_cell_setting 'orthorhombic'
loop_
_space_group_symop_operation_xyz
x,y,z
-x,-y,z
-x,y,1/2+z
x,-y,1/2+z
1/2+x,1/2+y,z
1/2-x,1/2-y,z
1/2-x,1/2+y,1/2+z
1/2+x,1/2-y,1/2+z
loop_
_atom_site_type_symbol
_atom_site_label
_atom_site_fract_x
_atom_site_fract_y
_atom_site_fract_z
Si Si1 0.676452 0.657031 0.053990
Si Si2 0.038212 0.251679 0.309308
Si Si3 0.819108 0.125373 0.969978
Si Si4 0.931012 0.848427 0.199460
Si Si5 0.079969 0.516133 0.608854
Si Si6 0.671269 0.854635 0.374585
Si Si7 0.750000 0.750000 0.901710
Si Si8 0.321969 0.373151 0.648948
O O1 0.750000 0.750000 0.033028
O O2 0.625529 0.858457 0.068453
O O3 0.695912 0.538109 0.104531
O O4 0.642517 0.485527 0.015366
O O5 0.058208 0.248603 0.252585
O O6 0.110121 0.264326 0.340513
O O7 0.000000 0.500000 0.318390
O O8 0.000000 0.000000 0.317682
O O9 0.750000 0.250000 0.991374
O O10 0.850521 0.296561 0.930351
O O11 0.790900 0.926386 0.935429
O O12 0.924832 0.664210 0.157694
O O13 0.860734 0.999169 0.192512
O O14 0.000000 0.000000 0.188973
O O15 0.120081 0.292967 0.625450
O O16 0.000000 0.500000 0.591109
O O17 0.750000 0.750000 0.365295
O O18 0.690061 0.118325 0.371687
O O19 0.250000 0.250000 0.663593
#
# Coordination Sequence:
#
# PCOD9354836 Si02
#       8
#     8   8   8   8   8   8   4   8
#     4  11  21  33  59  92 121 161 220 265 314 386
#     4  11  26  45  72  98 132 176 226 273 338 407
#     4   9  18  33  61  89 120 164 212 261 324 385
#     4  10  22  41  65  89 120 175 217 257 323 408
#     4  11  22  38  61  83 128 172 203 265 325 391
#     4   9  21  40  66  96 127 165 219 271 337 394
#     4   8  16  34  66  86 124 160 208 262 330 388
#     4  11  22  38  61  90 126 159 214 269 320 370
#
# _framework density 19.369802
#
# number of rings (size 3 to 8) (size 9 to 14) (size 15 to 20)
#    0.000    2.133    3.333    0.800    5.600    0.000 
#    2.400    0.000    5.867    0.000    0.000    0.000 
#    0.000    0.000    0.000    0.000    0.000    0.000 
#
# Total GULP energy -167055.347121 kJ/mol
# GULP energy per Si atom -5568.511571 kJ/mol
# Density = 1.932572 g / cm^3
# Si number density = 19.369802 Si / 1000 Ang^3
#
#
#
# Elastic Constant Matrix: (Units=GPa)
#
#
# Indices 1 2 3 4 5 6 
#
# 1 100.3318 33.5209 30.7404 0.0000 0.0000 0.0000
# 2 33.5209 83.3158 18.6507 0.0000 0.0000 0.0000
# 3 30.7404 18.6507 61.3603 0.0000 0.0000 0.0000
# 4 0.0000 0.0000 0.0000 6.6393 0.0000 0.0000
# 5 0.0000 0.0000 0.0000 0.0000 11.2295 0.0000
# 6 0.0000 0.0000 0.0000 0.0000 0.0000 29.8961
#
#
#
# Elastic Compliance Matrix: (Units=1/GPa)
#
#
# Indices 1 2 3 4 5 6 
#
# 1 0.012919 -0.004023 -0.005250 0.000000 0.000000 0.000000
# 2 -0.004023 0.014131 -0.002280 0.000000 0.000000 0.000000
# 3 -0.005250 -0.002280 0.019620 0.000000 0.000000 0.000000
# 4 0.000000 0.000000 0.000000 0.150618 0.000000 0.000000
# 5 0.000000 0.000000 0.000000 0.000000 0.089051 0.000000
# 6 0.000000 0.000000 0.000000 0.000000 0.000000 0.033449
#
#
# Mechanical properties :
#
#
# Convention : Reuss Voigt Hill
#
# Bulk Modulus (GPa) = 42.43363 45.64798 44.04080
# Shear Modulus (GPa) = 14.25519 20.35938 17.30729
#
# Velocity S-wave (km/s) = 2.71578 3.24557 2.99242
# Velocity P-wave (km/s) = 5.63814 6.13699 5.89285
#
# Compressibility (1/GPa) = 0.02356622
#
# Stress axis : x y z
#
# Youngs Moduli (GPa) = 77.40322 70.76441 50.96800
#
# Poissons Ratio (x) = 0.28467 0.26756
# Poissons Ratio (y) = 0.31137 0.11620
# Poissons Ratio (z) = 0.40634 0.16134
#
# Static dielectric constant tensor:
#      x y z
#    x 1.658230 0.000000 0.000000 
#    y 0.000000 1.799480 0.000000 
#    z 0.000000 0.000000 1.654290 
# 
# From -- ./inp_files/20000.got.cif
#   From: 2010.05.17/outbox.cif.g08.bks.cpg/sg37_10_cif.got.tgz:20000.got - 2010.06.03 17:53:42.
