data_PCOD9354634
_publ_section_title
;
Structure prediction by ZEFSAII (Michael W. Deem and Ramdas Pophale) SiO2 
 PCOD9354634
Probable space group: C C C 2
;
_chemical_formula_sum "Si O2"
_cell_formula_units_Z 32
_cell_length_a 8.137289
_cell_length_b 16.570046
_cell_length_c 8.994585
_cell_angle_alpha 90.000000
_cell_angle_beta 90.000000
_cell_angle_gamma 90.000000
_cell_volume 1212.787145
_symmetry_space_group_name_H-M "C C C 2"
_symmetry_group_IT_number 37
_symmetry_cell_setting 'orthorhombic'
loop_
_space_group_symop_operation_xyz
x,y,z
-x,-y,z
-x,y,1/2+z
x,-y,1/2+z
1/2+x,1/2+y,z
1/2-x,1/2-y,z
1/2-x,1/2+y,1/2+z
1/2+x,1/2-y,1/2+z
loop_
_atom_site_type_symbol
_atom_site_label
_atom_site_fract_x
_atom_site_fract_y
_atom_site_fract_z
Si Si1 0.147647 0.896625 0.810980
Si Si2 0.845908 0.445094 0.308426
Si Si3 0.577082 0.848923 0.093274
Si Si4 0.896579 0.808690 0.613492
O O1 0.295068 0.850078 0.728039
O O2 0.981679 0.863213 0.737333
O O3 0.198412 0.990427 0.790992
O O4 0.146115 0.867615 0.979130
O O5 0.834004 0.387465 0.450838
O O6 0.000000 0.500000 0.354907
O O7 0.921906 0.400202 0.162696
O O8 0.522435 0.759225 0.055255
O O9 0.750000 0.750000 0.666864
#
# Coordination Sequence:
#
# PCOD9354634 Si02
#       4
#     8   8   8   8
#     4  11  26  47  73 107 144 192 249 302 365 439
#     4  10  21  43  74 108 141 187 242 302 368 437
#     4  11  23  47  78 106 143 193 244 300 369 441
#     4  12  25  45  71 107 147 190 242 304 368 437
#
# _framework density 26.385503
#
# number of rings (size 3 to 8) (size 9 to 14) (size 15 to 20)
#    0.000    1.000    0.000    9.000    0.000    4.000 
#    0.000   12.500    0.000    0.000    0.000    0.000 
#    0.000    0.000    0.000    0.000    0.000    0.000 
#
# Total GULP energy -89620.890700 kJ/mol
# GULP energy per Si atom -5601.305669 kJ/mol
# Density = 2.632545 g / cm^3
# Si number density = 26.385503 Si / 1000 Ang^3
#
#
#
# Elastic Constant Matrix: (Units=GPa)
#
#
# Indices 1 2 3 4 5 6 
#
# 1 132.6387 79.9467 85.5171 0.0000 0.0000 0.0000
# 2 79.9467 162.6251 42.7750 0.0000 0.0000 0.0000
# 3 85.5171 42.7750 135.3987 0.0000 0.0000 0.0000
# 4 0.0000 0.0000 0.0000 20.9756 0.0000 0.0000
# 5 0.0000 0.0000 0.0000 0.0000 56.1989 0.0000
# 6 0.0000 0.0000 0.0000 0.0000 0.0000 61.9076
#
#
#
# Elastic Compliance Matrix: (Units=1/GPa)
#
#
# Indices 1 2 3 4 5 6 
#
# 1 0.016712 -0.005932 -0.008681 0.000000 0.000000 0.000000
# 2 -0.005932 0.008812 0.000963 0.000000 0.000000 0.000000
# 3 -0.008681 0.000963 0.012564 0.000000 0.000000 0.000000
# 4 0.000000 0.000000 0.000000 0.047674 0.000000 0.000000
# 5 0.000000 0.000000 0.000000 0.000000 0.017794 0.000000
# 6 0.000000 0.000000 0.000000 0.000000 0.000000 0.016153
#
#
# Mechanical properties :
#
#
# Convention : Reuss Voigt Hill
#
# Bulk Modulus (GPa) = 92.69989 94.12667 93.41328
# Shear Modulus (GPa) = 33.19916 42.64467 37.92192
#
# Velocity S-wave (km/s) = 3.55101 4.02458 3.79519
# Velocity P-wave (km/s) = 7.21263 7.57281 7.39491
#
# Compressibility (1/GPa) = 0.01078750
#
# Stress axis : x y z
#
# Youngs Moduli (GPa) = 59.83800 113.47987 79.59075
#
# Poissons Ratio (x) = 0.67318 0.69093
# Poissons Ratio (y) = 0.35497 -0.07663
# Poissons Ratio (z) = 0.51945 -0.10926
#
# Static dielectric constant tensor:
#      x y z
#    x 2.220160 0.000000 0.000000 
#    y 0.000000 2.063060 0.000000 
#    z 0.000000 0.000000 1.933260 
# 
# From -- ./inp_files/2095.got.cif
#   From: 2010.05.17/outbox.cif.g08.bks.cpg/sg37_2_cif.got.tgz:2095.got - 2010.06.03 17:53:42.
