data_PCOD9354781
_publ_section_title
;
Structure prediction by ZEFSAII (Michael W. Deem and Ramdas Pophale) SiO2 
 PCOD9354781
Probable space group: C C C 2
;
_chemical_formula_sum "Si O2"
_cell_formula_units_Z 48
_cell_length_a 5.178586
_cell_length_b 15.978501
_cell_length_c 24.122622
_cell_angle_alpha 90.000000
_cell_angle_beta 90.000000
_cell_angle_gamma 90.000000
_cell_volume 1996.051483
_symmetry_space_group_name_H-M "C C C 2"
_symmetry_group_IT_number 37
_symmetry_cell_setting 'orthorhombic'
loop_
_space_group_symop_operation_xyz
x,y,z
-x,-y,z
-x,y,1/2+z
x,-y,1/2+z
1/2+x,1/2+y,z
1/2-x,1/2-y,z
1/2-x,1/2+y,1/2+z
1/2+x,1/2-y,1/2+z
loop_
_atom_site_type_symbol
_atom_site_label
_atom_site_fract_x
_atom_site_fract_y
_atom_site_fract_z
Si Si1 0.246093 0.946486 0.677060
Si Si2 0.744357 0.948070 0.966454
Si Si3 0.506002 0.714487 0.139165
Si Si4 0.762438 0.850745 0.856016
Si Si5 0.737651 0.148858 0.789415
Si Si6 0.005675 0.706760 0.516383
O O1 0.092673 0.881948 0.634904
O O2 0.329094 0.895958 0.731731
O O3 0.500000 0.000000 0.657556
O O4 0.000000 0.000000 0.694827
O O5 0.831589 0.893011 0.914236
O O6 0.589279 0.889369 0.011041
O O7 0.500000 0.000000 0.945151
O O8 0.000000 0.000000 0.985864
O O9 0.750000 0.750000 0.170274
O O10 0.250000 0.750000 0.167869
O O11 0.497859 0.762822 0.080227
O O12 0.750000 0.750000 0.860887
O O13 0.481446 0.875586 0.833569
O O14 0.980163 0.875592 0.811673
O O15 0.750000 0.250000 0.786890
O O16 0.750000 0.750000 0.491596
O O17 0.250000 0.750000 0.489588
#
# Coordination Sequence:
#
# PCOD9354781 Si02
#       6
#     8   8   8   8   8   8
#     4  12  25  40  65 102 139 171 216 283 349 396
#     4  12  25  40  65 102 139 171 216 283 349 396
#     4  10  22  44  70  92 122 174 227 274 333 411
#     4  10  22  40  63  92 130 180 228 263 312 399
#     4  10  22  40  63  92 130 180 228 263 312 399
#     4  10  22  44  70  92 122 174 227 274 333 411
#
# _framework density 24.047478000000002
#
# number of rings (size 3 to 8) (size 9 to 14) (size 15 to 20)
#    0.000    1.333    0.000    5.000    0.000    8.000 
#    0.000   13.333    0.000    0.000    0.000    0.000 
#    0.000    0.000    0.000    0.000    0.000    0.000 
#
# Total GULP energy -133646.458804 kJ/mol
# GULP energy per Si atom -5568.602450 kJ/mol
# Density = 2.399275 g / cm^3
# Si number density = 24.047478 Si / 1000 Ang^3
#
#
#
# Elastic Constant Matrix: (Units=GPa)
#
#
# Indices 1 2 3 4 5 6 
#
# 1 209.3605 44.5902 3.9562 0.0000 0.0000 0.0000
# 2 44.5902 94.9561 33.0376 0.0000 0.0000 0.0000
# 3 3.9562 33.0376 72.1112 0.0000 0.0000 0.0000
# 4 0.0000 0.0000 0.0000 26.4511 0.0000 0.0000
# 5 0.0000 0.0000 0.0000 0.0000 4.1013 0.0000
# 6 0.0000 0.0000 0.0000 0.0000 0.0000 29.8337
#
#
#
# Elastic Compliance Matrix: (Units=1/GPa)
#
#
# Indices 1 2 3 4 5 6 
#
# 1 0.005370 -0.002878 0.001024 0.000000 0.000000 0.000000
# 2 -0.002878 0.014071 -0.006289 0.000000 0.000000 0.000000
# 3 0.001024 -0.006289 0.016692 0.000000 0.000000 0.000000
# 4 0.000000 0.000000 0.000000 0.037806 0.000000 0.000000
# 5 0.000000 0.000000 0.000000 0.000000 0.243827 0.000000
# 6 0.000000 0.000000 0.000000 0.000000 0.000000 0.033519
#
#
# Mechanical properties :
#
#
# Convention : Reuss Voigt Hill
#
# Bulk Modulus (GPa) = 50.38321 59.95511 55.16916
# Shear Modulus (GPa) = 13.36236 31.73347 22.54791
#
# Velocity S-wave (km/s) = 2.35981 3.63659 3.06542
# Velocity P-wave (km/s) = 5.33123 6.52834 5.95992
#
# Compressibility (1/GPa) = 0.01984788
#
# Stress axis : x y z
#
# Youngs Moduli (GPa) = 186.21781 71.07036 59.90759
#
# Poissons Ratio (x) = 0.20454 -0.06134
# Poissons Ratio (y) = 0.53593 0.37673
# Poissons Ratio (z) = -0.19067 0.44693
#
# Static dielectric constant tensor:
#      x y z
#    x 1.915450 0.000000 0.000000 
#    y 0.000000 2.187800 0.000000 
#    z 0.000000 0.000000 2.093960 
# 
# From -- ./inp_files/19325.got.cif
#   From: 2010.05.17/outbox.cif.g08.bks.cpg/sg37_10_cif.got.tgz:19325.got - 2010.06.03 17:53:42.
