data_PCOD9354987
_publ_section_title
;
Structure prediction by ZEFSAII (Michael W. Deem and Ramdas Pophale) SiO2 
 PCOD9354987
Probable space group: C C C 2
;
_chemical_formula_sum "Si O2"
_cell_formula_units_Z 32
_cell_length_a 5.648547
_cell_length_b 13.191633
_cell_length_c 18.096481
_cell_angle_alpha 90.000000
_cell_angle_beta 90.000000
_cell_angle_gamma 90.000000
_cell_volume 1348.433205
_symmetry_space_group_name_H-M "C C C 2"
_symmetry_group_IT_number 37
_symmetry_cell_setting 'orthorhombic'
loop_
_space_group_symop_operation_xyz
x,y,z
-x,-y,z
-x,y,1/2+z
x,-y,1/2+z
1/2+x,1/2+y,z
1/2-x,1/2-y,z
1/2-x,1/2+y,1/2+z
1/2+x,1/2-y,1/2+z
loop_
_atom_site_type_symbol
_atom_site_label
_atom_site_fract_x
_atom_site_fract_y
_atom_site_fract_z
Si Si1 0.750000 0.250000 0.940730
Si Si2 0.849358 0.637625 0.910900
Si Si3 0.921335 0.115679 0.546019
Si Si4 0.500000 0.500000 0.820936
Si Si5 0.008587 0.191770 0.212706
O O1 0.620046 0.162865 0.894208
O O2 0.581766 0.315520 0.993027
O O3 0.750000 0.750000 0.890595
O O4 0.709509 0.546928 0.872728
O O5 0.824428 0.621426 0.999852
O O6 0.947229 0.158548 0.627658
O O7 0.000000 0.000000 0.546971
O O8 0.481163 0.594213 0.764917
O O9 0.250000 0.250000 0.232119
O O10 0.750000 0.250000 0.217687
#
# Coordination Sequence:
#
# PCOD9354987 Si02
#       5
#     4   8   8   4   8
#     4  10  22  44  76 106 152 190 256 340 376 464
#     4  10  23  48  74 114 150 198 258 326 392 466
#     4  11  22  46  77 110 145 196 262 321 389 458
#     4  12  26  54  72 112 162 210 260 316 402 494
#     4  12  28  54  77 112 157 206 264 327 397 469
#
# _framework density 23.731245999999999
#
# number of rings (size 3 to 8) (size 9 to 14) (size 15 to 20)
#    0.000    1.000    3.750    3.000    0.000    2.000 
#   29.250    0.000    0.000    0.000    0.000    0.000 
#    0.000    0.000    0.000    0.000    0.000    0.000 
#
# Total GULP energy -89235.619769 kJ/mol
# GULP energy per Si atom -5577.226236 kJ/mol
# Density = 2.367723 g / cm^3
# Si number density = 23.731246 Si / 1000 Ang^3
#
#
#
# Elastic Constant Matrix: (Units=GPa)
#
#
# Indices 1 2 3 4 5 6 
#
# 1 134.2797 99.6716 70.9065 0.0000 0.0000 0.0000
# 2 99.6716 230.0697 71.8692 0.0000 0.0000 0.0000
# 3 70.9065 71.8692 165.2850 0.0000 0.0000 0.0000
# 4 0.0000 0.0000 0.0000 38.8044 0.0000 0.0000
# 5 0.0000 0.0000 0.0000 0.0000 4.4925 0.0000
# 6 0.0000 0.0000 0.0000 0.0000 0.0000 49.0972
#
#
#
# Elastic Compliance Matrix: (Units=1/GPa)
#
#
# Indices 1 2 3 4 5 6 
#
# 1 0.012496 -0.004327 -0.003479 0.000000 0.000000 0.000000
# 2 -0.004327 0.006528 -0.000982 0.000000 0.000000 0.000000
# 3 -0.003479 -0.000982 0.007970 0.000000 0.000000 0.000000
# 4 0.000000 0.000000 0.000000 0.025770 0.000000 0.000000
# 5 0.000000 0.000000 0.000000 0.000000 0.222594 0.000000
# 6 0.000000 0.000000 0.000000 0.000000 0.000000 0.020368
#
#
# Mechanical properties :
#
#
# Convention : Reuss Voigt Hill
#
# Bulk Modulus (GPa) = 106.19118 112.72545 109.45832
# Shear Modulus (GPa) = 15.80072 37.62460 26.71266
#
# Velocity S-wave (km/s) = 2.58315 3.98609 3.35868
# Velocity P-wave (km/s) = 7.33085 8.29392 7.82721
#
# Compressibility (1/GPa) = 0.00941698
#
# Stress axis : x y z
#
# Youngs Moduli (GPa) = 80.02563 153.19171 125.47172
#
# Poissons Ratio (x) = 0.66281 0.43657
# Poissons Ratio (y) = 0.34624 0.12325
# Poissons Ratio (z) = 0.27844 0.15048
#
# Static dielectric constant tensor:
#      x y z
#    x 2.556980 0.000000 0.000000 
#    y 0.000000 1.928300 0.000000 
#    z 0.000000 0.000000 1.907730 
# 
# From -- ./inp_files/13658.got.cif
#   From: 2010.05.17/outbox.cif.g08.bks.cpg/sg37_7_cif.got.tgz:13658.got - 2010.06.03 17:53:42.
