data_PCOD9354892
_publ_section_title
;
Structure prediction by ZEFSAII (Michael W. Deem and Ramdas Pophale) SiO2 
 PCOD9354892
Probable space group: C C C 2
;
_chemical_formula_sum "Si O2"
_cell_formula_units_Z 60
_cell_length_a 26.671628
_cell_length_b 11.982659
_cell_length_c 8.898855
_cell_angle_alpha 90.000000
_cell_angle_beta 90.000000
_cell_angle_gamma 90.000000
_cell_volume 2844.047569
_symmetry_space_group_name_H-M "C C C 2"
_symmetry_group_IT_number 37
_symmetry_cell_setting 'orthorhombic'
loop_
_space_group_symop_operation_xyz
x,y,z
-x,-y,z
-x,y,1/2+z
x,-y,1/2+z
1/2+x,1/2+y,z
1/2-x,1/2-y,z
1/2-x,1/2+y,1/2+z
1/2+x,1/2-y,1/2+z
loop_
_atom_site_type_symbol
_atom_site_label
_atom_site_fract_x
_atom_site_fract_y
_atom_site_fract_z
Si Si1 0.384725 0.485555 0.116200
Si Si2 0.750000 0.250000 0.220147
Si Si3 0.148205 0.641494 0.176786
Si Si4 0.758891 0.618560 0.260497
Si Si5 0.683740 0.560681 0.865249
Si Si6 0.434845 0.695987 0.045686
Si Si7 0.679336 0.039556 0.476944
Si Si8 0.521107 0.379909 0.768472
O O1 0.362936 0.559418 0.251947
O O2 0.405517 0.581091 0.006686
O O3 0.430033 0.408592 0.168331
O O4 0.339256 0.426685 0.029482
O O5 0.796839 0.306025 0.135362
O O6 0.723417 0.346649 0.315661
O O7 0.104055 0.716855 0.112647
O O8 0.154150 0.625019 0.357964
O O9 0.143185 0.523216 0.093012
O O10 0.750000 0.750000 0.270855
O O11 0.709946 0.556920 0.328222
O O12 0.799758 0.557575 0.366850
O O13 0.777520 0.587518 0.090191
O O14 0.476236 0.665154 0.167730
O O15 0.464125 0.712726 0.890693
O O16 0.500000 0.500000 0.830888
#
# Coordination Sequence:
#
# PCOD9354892 Si02
#       8
#     8   4   8   8   8   8   8   8
#     4  11  23  39  63 100 142 180 226 282 351 434
#     4  12  24  38  66  94 150 186 242 284 338 420
#     4  11  25  43  68  95 133 188 232 282 351 417
#     4  11  25  40  64  95 138 195 245 286 342 407
#     4  12  24  39  61 102 144 195 238 278 348 420
#     4  11  23  42  71 100 130 180 220 289 366 432
#     4  10  23  44  62  94 138 183 234 299 334 406
#     4  10  22  42  70 106 140 168 223 301 371 434
#
# _framework density 21.096692999999998
#
# number of rings (size 3 to 8) (size 9 to 14) (size 15 to 20)
#    0.000    1.067    5.333    2.000    5.600    0.000 
#    0.000    4.000    0.000    2.400    0.000    0.000 
#    0.000    0.000    0.000    0.000    0.000    0.000 
#
# Total GULP energy -167326.716931 kJ/mol
# GULP energy per Si atom -5577.557231 kJ/mol
# Density = 2.104868 g / cm^3
# Si number density = 21.096693 Si / 1000 Ang^3
#
#
#
# Elastic Constant Matrix: (Units=GPa)
#
#
# Indices 1 2 3 4 5 6 
#
# 1 123.5503 45.6718 41.8375 0.0000 0.0000 0.0000
# 2 45.6718 100.3420 30.6243 0.0000 0.0000 0.0000
# 3 41.8375 30.6243 96.5536 0.0000 0.0000 0.0000
# 4 0.0000 0.0000 0.0000 25.0729 0.0000 0.0000
# 5 0.0000 0.0000 0.0000 0.0000 35.2878 0.0000
# 6 0.0000 0.0000 0.0000 0.0000 0.0000 40.0015
#
#
#
# Elastic Compliance Matrix: (Units=1/GPa)
#
#
# Indices 1 2 3 4 5 6 
#
# 1 0.010657 -0.003810 -0.003409 0.000000 0.000000 0.000000
# 2 -0.003810 0.012396 -0.002281 0.000000 0.000000 0.000000
# 3 -0.003409 -0.002281 0.012558 0.000000 0.000000 0.000000
# 4 0.000000 0.000000 0.000000 0.039884 0.000000 0.000000
# 5 0.000000 0.000000 0.000000 0.000000 0.028338 0.000000
# 6 0.000000 0.000000 0.000000 0.000000 0.000000 0.024999
#
#
# Mechanical properties :
#
#
# Convention : Reuss Voigt Hill
#
# Bulk Modulus (GPa) = 60.20334 61.85703 61.03019
# Shear Modulus (GPa) = 32.60118 33.55993 33.08056
#
# Velocity S-wave (km/s) = 3.93532 3.99277 3.96415
# Velocity P-wave (km/s) = 7.01768 7.11622 7.06712
#
# Compressibility (1/GPa) = 0.01661037
#
# Stress axis : x y z
#
# Youngs Moduli (GPa) = 93.83718 80.66980 79.63304
#
# Poissons Ratio (x) = 0.30736 0.27149
# Poissons Ratio (y) = 0.35752 0.18163
# Poissons Ratio (z) = 0.31991 0.18399
#
# Static dielectric constant tensor:
#      x y z
#    x 1.829880 0.000000 0.000000 
#    y 0.000000 1.795170 0.000000 
#    z 0.000000 0.000000 1.863220 
# 
# From -- ./inp_files/4794.got.cif
#   From: 2010.05.17/outbox.cif.g08.bks.cpg/sg37_3_cif.got.tgz:4794.got - 2010.06.03 17:53:42.
