data_PCOD9354621
_publ_section_title
;
Structure prediction by ZEFSAII (Michael W. Deem and Ramdas Pophale) SiO2 
 PCOD9354621
Probable space group: C C C 2
;
_chemical_formula_sum "Si O2"
_cell_formula_units_Z 40
_cell_length_a 7.679209
_cell_length_b 15.746257
_cell_length_c 14.573330
_cell_angle_alpha 90.000000
_cell_angle_beta 90.000000
_cell_angle_gamma 90.000000
_cell_volume 1762.189553
_symmetry_space_group_name_H-M "C C C 2"
_symmetry_group_IT_number 37
_symmetry_cell_setting 'orthorhombic'
loop_
_space_group_symop_operation_xyz
x,y,z
-x,-y,z
-x,y,1/2+z
x,-y,1/2+z
1/2+x,1/2+y,z
1/2-x,1/2-y,z
1/2-x,1/2+y,1/2+z
1/2+x,1/2-y,1/2+z
loop_
_atom_site_type_symbol
_atom_site_label
_atom_site_fract_x
_atom_site_fract_y
_atom_site_fract_z
Si Si1 0.859674 0.065253 0.768770
Si Si2 0.492145 0.897754 0.698928
Si Si3 0.178694 0.583655 0.385990
Si Si4 0.111490 0.353973 0.505354
Si Si5 0.475817 0.668026 0.932568
O O1 0.714963 0.111283 0.708653
O O2 0.944923 0.140090 0.827424
O O3 0.763084 0.001842 0.842149
O O4 0.000000 0.000000 0.724869
O O5 0.595029 0.876014 0.792633
O O6 0.573034 0.851582 0.612612
O O7 0.500000 0.000000 0.685361
O O8 0.329286 0.633347 0.442003
O O9 0.018780 0.582328 0.455608
O O10 0.314989 0.373426 0.488746
O O11 0.055934 0.265503 0.457060
#
# Coordination Sequence:
#
# PCOD9354621 Si02
#       5
#     8   8   8   8   8
#     4   9  19  41  71  96 124 176 230 277 336 398
#     4  10  22  40  69  99 131 176 223 288 332 398
#     4  10  21  43  69  90 129 176 225 276 337 394
#     4  11  23  41  62  97 137 170 220 272 346 409
#     4  10  22  42  62  93 131 176 218 270 338 408
#
# _framework density 22.699034999999999
#
# number of rings (size 3 to 8) (size 9 to 14) (size 15 to 20)
#    0.000    2.000    2.000    0.600    2.800    0.000 
#   18.000    2.000    0.000    0.000    0.000    0.000 
#    0.000    0.000    0.000    0.000    0.000    0.000 
#
# Total GULP energy -111430.848624 kJ/mol
# GULP energy per Si atom -5571.542431 kJ/mol
# Density = 2.264737 g / cm^3
# Si number density = 22.699035 Si / 1000 Ang^3
#
#
#
# Elastic Constant Matrix: (Units=GPa)
#
#
# Indices 1 2 3 4 5 6 
#
# 1 168.6660 29.9078 42.2625 0.0000 0.0000 0.0000
# 2 29.9078 55.2641 25.2068 0.0000 0.0000 0.0000
# 3 42.2625 25.2068 94.7139 0.0000 0.0000 0.0000
# 4 0.0000 0.0000 0.0000 1.9266 0.0000 0.0000
# 5 0.0000 0.0000 0.0000 0.0000 -3.5006 0.0000
# 6 0.0000 0.0000 0.0000 0.0000 0.0000 21.6036
#
#
#
# Elastic Compliance Matrix: (Units=1/GPa)
#
#
# Indices 1 2 3 4 5 6 
#
# 1 0.007011 -0.002694 -0.002411 0.000000 0.000000 0.000000
# 2 -0.002694 0.021630 -0.004554 0.000000 0.000000 0.000000
# 3 -0.002411 -0.004554 0.012846 0.000000 0.000000 0.000000
# 4 0.000000 0.000000 0.000000 0.519036 0.000000 0.000000
# 5 0.000000 0.000000 0.000000 0.000000 -0.285669 0.000000
# 6 0.000000 0.000000 0.000000 0.000000 0.000000 0.046289
#
#
# Mechanical properties :
#
#
# Convention : Reuss Voigt Hill
#
# Bulk Modulus (GPa) = 45.11130 57.04425 51.07777
# Shear Modulus (GPa) = 14.37390 18.75706 16.56548
#
# Velocity S-wave (km/s) = 2.51915 2.87773 2.70439
# Velocity P-wave (km/s) = 5.32713 6.01889 5.68354
#
# Compressibility (1/GPa) = 0.02216740
#
# Stress axis : x y z
#
# Youngs Moduli (GPa) = 142.63674 46.23134 77.84443
#
# Poissons Ratio (x) = 0.12456 0.18770
# Poissons Ratio (y) = 0.38431 0.35453
# Poissons Ratio (z) = 0.34393 0.21056
#
# Static dielectric constant tensor:
#      x y z
#    x 2.060430 0.000000 0.000000 
#    y 0.000000 2.091770 0.000000 
#    z 0.000000 0.000000 1.807480 
# 
# From -- ./inp_files/6123.got.cif
#   From: 2010.05.17/outbox.cif.g08.bks.cpg/sg37_4_cif.got.tgz:6123.got - 2010.06.03 17:53:42.
