data_PCOD9354827
_publ_section_title
;
Structure prediction by ZEFSAII (Michael W. Deem and Ramdas Pophale) SiO2 
 PCOD9354827
Probable space group: C C C 2
;
_chemical_formula_sum "Si O2"
_cell_formula_units_Z 52
_cell_length_a 14.030547
_cell_length_b 8.808838
_cell_length_c 21.954647
_cell_angle_alpha 90.000000
_cell_angle_beta 90.000000
_cell_angle_gamma 90.000000
_cell_volume 2713.436638
_symmetry_space_group_name_H-M "C C C 2"
_symmetry_group_IT_number 37
_symmetry_cell_setting 'orthorhombic'
loop_
_space_group_symop_operation_xyz
x,y,z
-x,-y,z
-x,y,1/2+z
x,-y,1/2+z
1/2+x,1/2+y,z
1/2-x,1/2-y,z
1/2-x,1/2+y,1/2+z
1/2+x,1/2-y,1/2+z
loop_
_atom_site_type_symbol
_atom_site_label
_atom_site_fract_x
_atom_site_fract_y
_atom_site_fract_z
Si Si1 0.730332 0.427368 0.407380
Si Si2 0.420178 0.115088 0.414748
Si Si3 0.342517 0.660280 0.691703
Si Si4 0.979398 0.677340 0.280727
Si Si5 0.000000 0.000000 0.609479
Si Si6 0.833223 0.875025 0.776759
Si Si7 0.907891 0.090276 0.991296
O O1 0.750000 0.250000 0.415683
O O2 0.827696 0.518280 0.397575
O O3 0.669085 0.442970 0.345377
O O4 0.680500 0.494526 0.466944
O O5 0.459466 0.188208 0.352677
O O6 0.399366 0.244535 0.463053
O O7 0.500000 0.000000 0.438518
O O8 0.250000 0.750000 0.666017
O O9 0.389584 0.769590 0.742021
O O10 0.428798 0.608604 0.647021
O O11 0.315734 0.506193 0.727733
O O12 0.000000 0.500000 0.268640
O O13 0.067836 0.787342 0.265823
O O14 0.930281 0.909001 0.563030
O O15 0.750000 0.750000 0.774849
O O16 0.000000 0.000000 0.965468
#
# Coordination Sequence:
#
# PCOD9354827 Si02
#       7
#     8   8   8   8   4   8   8
#     4  11  21  36  63  97 129 163 201 255 332 399
#     4  11  21  37  61 100 128 161 201 252 330 399
#     4  12  23  44  68  91 127 172 216 273 324 387
#     4  11  21  37  65 100 136 162 203 258 333 399
#     4  10  26  46  62  90 120 172 240 266 320 374
#     4  11  21  37  63 102 135 164 205 260 332 403
#     4  10  22  41  62  80 126 158 215 266 309 365
#
# _framework density 19.163889000000001
#
# number of rings (size 3 to 8) (size 9 to 14) (size 15 to 20)
#    0.462    0.615    1.538    8.769    0.000    0.615 
#    0.000    2.308    0.000    0.000    0.000    0.000 
#    0.000    0.000    0.000    0.000    0.000    0.000 
#
# Total GULP energy -145126.801587 kJ/mol
# GULP energy per Si atom -5581.800061 kJ/mol
# Density = 1.912027 g / cm^3
# Si number density = 19.163889 Si / 1000 Ang^3
#
#
#
# Elastic Constant Matrix: (Units=GPa)
#
#
# Indices 1 2 3 4 5 6 
#
# 1 78.8812 22.6025 10.4971 0.0000 0.0000 0.0000
# 2 22.6025 96.3361 46.0587 0.0000 0.0000 0.0000
# 3 10.4971 46.0587 66.2879 0.0000 0.0000 0.0000
# 4 0.0000 0.0000 0.0000 -20.6632 0.0000 0.0000
# 5 0.0000 0.0000 0.0000 0.0000 35.8854 0.0000
# 6 0.0000 0.0000 0.0000 0.0000 0.0000 42.2642
#
#
#
# Elastic Compliance Matrix: (Units=1/GPa)
#
#
# Indices 1 2 3 4 5 6 
#
# 1 0.013591 -0.003234 0.000095 0.000000 0.000000 0.000000
# 2 -0.003234 0.016314 -0.010823 0.000000 0.000000 0.000000
# 3 0.000095 -0.010823 0.022591 0.000000 0.000000 0.000000
# 4 0.000000 0.000000 0.000000 -0.048395 0.000000 0.000000
# 5 0.000000 0.000000 0.000000 0.000000 0.027866 0.000000
# 6 0.000000 0.000000 0.000000 0.000000 0.000000 0.023661
#
#
# Mechanical properties :
#
#
# Convention : Reuss Voigt Hill
#
# Bulk Modulus (GPa) = 40.69797 44.42465 42.56131
# Shear Modulus (GPa) = 54.50016 22.32041 38.41029
#
# Velocity S-wave (km/s) = 5.33861 3.41649 4.48180
# Velocity P-wave (km/s) = 7.69960 6.22856 7.00282
#
# Compressibility (1/GPa) = 0.02457125
#
# Stress axis : x y z
#
# Youngs Moduli (GPa) = 73.57598 61.29822 44.26578
#
# Poissons Ratio (x) = 0.19825 -0.00420
# Poissons Ratio (y) = 0.23796 0.47909
# Poissons Ratio (z) = -0.00699 0.66343
#
# Static dielectric constant tensor:
#      x y z
#    x 1.684420 0.000000 0.000000 
#    y 0.000000 1.650700 0.000000 
#    z 0.000000 0.000000 1.653490 
# 
# From -- ./inp_files/18842.got.cif
#   From: 2010.05.17/outbox.cif.g08.bks.cpg/sg37_10_cif.got.tgz:18842.got - 2010.06.03 17:53:42.
