data_PCOD9354609
_publ_section_title
;
Structure prediction by ZEFSAII (Michael W. Deem and Ramdas Pophale) SiO2 
 PCOD9354609
Probable space group: C C C 2
;
_chemical_formula_sum "Si O2"
_cell_formula_units_Z 40
_cell_length_a 7.172295
_cell_length_b 14.021676
_cell_length_c 16.938312
_cell_angle_alpha 90.000000
_cell_angle_beta 90.000000
_cell_angle_gamma 90.000000
_cell_volume 1703.445329
_symmetry_space_group_name_H-M "C C C 2"
_symmetry_group_IT_number 37
_symmetry_cell_setting 'orthorhombic'
loop_
_space_group_symop_operation_xyz
x,y,z
-x,-y,z
-x,y,1/2+z
x,-y,1/2+z
1/2+x,1/2+y,z
1/2-x,1/2-y,z
1/2-x,1/2+y,1/2+z
1/2+x,1/2-y,1/2+z
loop_
_atom_site_type_symbol
_atom_site_label
_atom_site_fract_x
_atom_site_fract_y
_atom_site_fract_z
Si Si1 0.529666 0.226137 0.456090
Si Si2 0.024781 0.387477 0.103354
Si Si3 0.998278 0.104335 0.245946
Si Si4 0.750000 0.750000 0.318234
Si Si5 0.750000 0.750000 0.708452
Si Si6 0.539643 0.396844 0.567067
O O1 0.750000 0.250000 0.447269
O O2 0.476802 0.136420 0.511964
O O3 0.417442 0.221440 0.375835
O O4 0.466768 0.316693 0.509211
O O5 0.248662 0.374965 0.094474
O O6 0.000000 0.500000 0.124816
O O7 0.912252 0.308819 0.157586
O O8 0.832070 0.172187 0.268675
O O9 0.184540 0.161299 0.265630
O O10 0.945764 0.098544 0.152843
O O11 0.000000 0.000000 0.280181
O O12 0.500000 0.500000 0.530492
#
# Coordination Sequence:
#
# PCOD9354609 Si02
#       6
#     8   8   8   4   4   8
#     4  10  24  44  68 105 142 188 242 295 363 432
#     4  11  22  38  69 109 135 178 235 300 363 421
#     4  11  25  45  71 104 141 189 239 293 365 427
#     4  12  27  46  74  97 156 198 226 306 373 430
#     4  12  23  42  76 105 144 178 242 300 357 434
#     4  10  21  42  73 103 138 182 243 306 354 430
#
# _framework density 23.481824
#
# number of rings (size 3 to 8) (size 9 to 14) (size 15 to 20)
#    0.000    1.200    2.000    4.200    5.600    0.800 
#    3.600    0.000    0.000    0.000    0.000    0.000 
#    0.000    0.000    0.000    0.000    0.000    0.000 
#
# Total GULP energy -111445.733432 kJ/mol
# GULP energy per Si atom -5572.286672 kJ/mol
# Density = 2.342838 g / cm^3
# Si number density = 23.481824 Si / 1000 Ang^3
#
#
#
# Elastic Constant Matrix: (Units=GPa)
#
#
# Indices 1 2 3 4 5 6 
#
# 1 107.0075 36.1360 -0.0563 0.0000 0.0000 0.0000
# 2 36.1360 191.8706 27.3303 0.0000 0.0000 0.0000
# 3 -0.0563 27.3303 57.5474 0.0000 0.0000 0.0000
# 4 0.0000 0.0000 0.0000 22.5240 0.0000 0.0000
# 5 0.0000 0.0000 0.0000 0.0000 44.0319 0.0000
# 6 0.0000 0.0000 0.0000 0.0000 0.0000 37.1570
#
#
#
# Elastic Compliance Matrix: (Units=1/GPa)
#
#
# Indices 1 2 3 4 5 6 
#
# 1 0.010030 -0.002028 0.000973 0.000000 0.000000 0.000000
# 2 -0.002028 0.006000 -0.002851 0.000000 0.000000 0.000000
# 3 0.000973 -0.002851 0.018732 0.000000 0.000000 0.000000
# 4 0.000000 0.000000 0.000000 0.044397 0.000000 0.000000
# 5 0.000000 0.000000 0.000000 0.000000 0.022711 0.000000
# 6 0.000000 0.000000 0.000000 0.000000 0.000000 0.026913
#
#
# Mechanical properties :
#
#
# Convention : Reuss Voigt Hill
#
# Bulk Modulus (GPa) = 37.10603 53.69393 45.39998
# Shear Modulus (GPa) = 34.34562 40.27695 37.31128
#
# Velocity S-wave (km/s) = 3.82861 4.14604 3.99048
# Velocity P-wave (km/s) = 5.94816 6.77018 6.37244
#
# Compressibility (1/GPa) = 0.02694980
#
# Stress axis : x y z
#
# Youngs Moduli (GPa) = 99.69717 166.66992 53.38418
#
# Poissons Ratio (x) = 0.33795 -0.05193
# Poissons Ratio (y) = 0.20215 0.15222
# Poissons Ratio (z) = -0.09698 0.47525
#
# Static dielectric constant tensor:
#      x y z
#    x 1.952150 0.000000 0.000000 
#    y 0.000000 2.155610 0.000000 
#    z 0.000000 0.000000 1.911330 
# 
# From -- ./inp_files/14361.got.cif
#   From: 2010.05.17/outbox.cif.g08.bks.cpg/sg37_8_cif.got.tgz:14361.got - 2010.06.03 17:53:42.
