data_PCOD9354516
_publ_section_title
;
Structure prediction by ZEFSAII (Michael W. Deem and Ramdas Pophale) SiO2 
 PCOD9354516
Probable space group: C C C 2
;
_chemical_formula_sum "Si O2"
_cell_formula_units_Z 64
_cell_length_a 11.882567
_cell_length_b 16.877971
_cell_length_c 13.644157
_cell_angle_alpha 90.000000
_cell_angle_beta 90.000000
_cell_angle_gamma 90.000000
_cell_volume 2736.385095
_symmetry_space_group_name_H-M "C C C 2"
_symmetry_group_IT_number 37
_symmetry_cell_setting 'orthorhombic'
loop_
_space_group_symop_operation_xyz
x,y,z
-x,-y,z
-x,y,1/2+z
x,-y,1/2+z
1/2+x,1/2+y,z
1/2-x,1/2-y,z
1/2-x,1/2+y,1/2+z
1/2+x,1/2-y,1/2+z
loop_
_atom_site_type_symbol
_atom_site_label
_atom_site_fract_x
_atom_site_fract_y
_atom_site_fract_z
Si Si1 0.105546 0.941530 0.851130
Si Si2 0.879233 0.774638 0.936991
Si Si3 0.338939 0.941066 0.585821
Si Si4 0.024454 0.390823 0.902654
Si Si5 0.459279 0.337772 0.738870
Si Si6 0.845884 0.502528 0.296021
Si Si7 0.630562 0.760270 0.151532
Si Si8 0.883870 0.049077 0.069037
O O1 0.216724 0.986293 0.819521
O O2 0.076642 0.882008 0.763685
O O3 0.117777 0.909259 0.961785
O O4 0.000000 0.000000 0.853643
O O5 0.750000 0.750000 0.921999
O O6 0.966635 0.701489 0.924931
O O7 0.904971 0.832376 0.846774
O O8 0.882004 0.794873 0.052845
O O9 0.422119 0.938365 0.494187
O O10 0.375846 0.983276 0.684399
O O11 0.345393 0.848447 0.613146
O O12 0.220007 0.986031 0.565263
O O13 0.115517 0.414533 0.821094
O O14 0.911756 0.430387 0.860419
O O15 0.511007 0.253740 0.703615
O O16 0.389213 0.386840 0.657883
O O17 0.750000 0.750000 0.207733
O O18 0.000000 0.000000 0.077830
#
# Coordination Sequence:
#
# PCOD9354516 Si02
#       8
#     8   8   8   8   8   8   8   8
#     4  11  24  40  68  99 136 168 217 286 348 402
#     4  10  24  41  64  90 130 181 223 268 325 414
#     4  11  22  41  67  94 135 180 228 281 338 415
#     4  10  24  42  63  94 132 174 227 272 329 397
#     4  12  23  40  65 102 133 171 223 284 350 399
#     4  11  22  41  67  99 127 173 222 280 337 401
#     4  10  21  40  64  92 130 180 225 268 333 422
#     4  11  23  40  65 102 139 172 223 291 345 403
#
# _framework density 23.388522999999999
#
# number of rings (size 3 to 8) (size 9 to 14) (size 15 to 20)
#    0.000    1.250    1.250    4.875    3.500    4.000 
#    0.000    2.500    0.000    1.500    0.000    0.000 
#    0.000    0.000    0.000    0.000    0.000    0.000 
#
# Total GULP energy -178405.200624 kJ/mol
# GULP energy per Si atom -5575.162519 kJ/mol
# Density = 2.333529 g / cm^3
# Si number density = 23.388523 Si / 1000 Ang^3
#
#
#
# Elastic Constant Matrix: (Units=GPa)
#
#
# Indices 1 2 3 4 5 6 
#
# 1 102.1890 5.9097 10.2894 0.0000 0.0000 0.0000
# 2 5.9097 40.8789 6.1728 0.0000 0.0000 0.0000
# 3 10.2894 6.1728 127.5189 0.0000 0.0000 0.0000
# 4 0.0000 0.0000 0.0000 27.6659 0.0000 0.0000
# 5 0.0000 0.0000 0.0000 0.0000 27.1007 0.0000
# 6 0.0000 0.0000 0.0000 0.0000 0.0000 26.5046
#
#
#
# Elastic Compliance Matrix: (Units=1/GPa)
#
#
# Indices 1 2 3 4 5 6 
#
# 1 0.009937 -0.001325 -0.000738 0.000000 0.000000 0.000000
# 2 -0.001325 0.024819 -0.001094 0.000000 0.000000 0.000000
# 3 -0.000738 -0.001094 0.007954 0.000000 0.000000 0.000000
# 4 0.000000 0.000000 0.000000 0.036146 0.000000 0.000000
# 5 0.000000 0.000000 0.000000 0.000000 0.036899 0.000000
# 6 0.000000 0.000000 0.000000 0.000000 0.000000 0.037729
#
#
# Mechanical properties :
#
#
# Convention : Reuss Voigt Hill
#
# Bulk Modulus (GPa) = 27.47558 35.03675 31.25616
# Shear Modulus (GPa) = 29.08137 32.80190 30.94163
#
# Velocity S-wave (km/s) = 3.53002 3.74903 3.64117
# Velocity P-wave (km/s) = 5.32801 5.80975 5.57408
#
# Compressibility (1/GPa) = 0.03639596
#
# Stress axis : x y z
#
# Youngs Moduli (GPa) = 100.63709 40.29116 125.71543
#
# Poissons Ratio (x) = 0.05339 0.09273
# Poissons Ratio (y) = 0.13336 0.13760
# Poissons Ratio (z) = 0.07423 0.04410
#
# Static dielectric constant tensor:
#      x y z
#    x 1.901020 0.000000 0.000000 
#    y 0.000000 2.000560 0.000000 
#    z 0.000000 0.000000 1.980240 
# 
# From -- ./inp_files/11786.got.cif
#   From: 2010.05.17/outbox.cif.g08.bks.cpg/sg37_6_cif.got.tgz:11786.got - 2010.06.03 17:53:42.
