data_PCOD9354337
_publ_section_title
;
Structure prediction by ZEFSAII (Michael W. Deem and Ramdas Pophale) SiO2 
 PCOD9354337
Probable space group: C C C 2
;
_chemical_formula_sum "Si O2"
_cell_formula_units_Z 44
_cell_length_a 8.249075
_cell_length_b 22.789949
_cell_length_c 9.186421
_cell_angle_alpha 90.000000
_cell_angle_beta 90.000000
_cell_angle_gamma 90.000000
_cell_volume 1727.010389
_symmetry_space_group_name_H-M "C C C 2"
_symmetry_group_IT_number 37
_symmetry_cell_setting 'orthorhombic'
loop_
_space_group_symop_operation_xyz
x,y,z
-x,-y,z
-x,y,1/2+z
x,-y,1/2+z
1/2+x,1/2+y,z
1/2-x,1/2-y,z
1/2-x,1/2+y,1/2+z
1/2+x,1/2-y,1/2+z
loop_
_atom_site_type_symbol
_atom_site_label
_atom_site_fract_x
_atom_site_fract_y
_atom_site_fract_z
Si Si1 1.000000 0.924315 0.192450
Si Si2 0.428900 0.151527 0.442450
Si Si3 0.750000 0.750000 0.942450
Si Si4 0.500000 0.771580 0.692450
Si Si5 0.734441 0.467517 0.942450
Si Si6 0.227130 0.103118 0.942450
O O1 0.878956 0.957720 0.302709
O O2 0.117597 0.890902 0.301400
O O3 0.882402 0.890902 0.083501
O O4 0.121044 0.957720 0.082190
O O5 0.388834 0.185627 0.589532
O O6 0.388834 0.185627 0.295368
O O7 0.361969 0.085517 0.442450
O O8 0.627221 0.148706 0.442450
O O9 0.609673 0.739846 0.811911
O O10 0.609673 0.739847 0.072988
O O11 0.790298 0.535111 0.942450
#
# Coordination Sequence:
#
# PCOD9354337 Si02
#       6
#     8   8   4   8   8   8
#     4  10  21  34  53  77 120 182 240 271 303 364
#     4  11  23  39  63  99 136 167 221 283 332 397
#     4  10  24  50  80 100 130 170 210 274 368 426
#     4  10  24  48  72 101 132 168 219 287 353 434
#     4  11  20  36  56  85 132 185 224 265 318 376
#     4  11  20  36  57  88 132 187 228 265 316 376
#
# _framework density 25.477553
#
# number of rings (size 3 to 8) (size 9 to 14) (size 15 to 20)
#    0.000    1.455    0.000    7.091    0.000    2.909 
#    0.000   32.727    0.000    0.000    0.000    0.000 
#    0.000    0.000    0.000    0.000    0.000    0.000 
#
# Total GULP energy -122595.819433 kJ/mol
# GULP energy per Si atom -5572.537247 kJ/mol
# Density = 2.541956 g / cm^3
# Si number density = 25.477553 Si / 1000 Ang^3
#
#
#
# Elastic Constant Matrix: (Units=GPa)
#
#
# Indices 1 2 3 4 5 6 
#
# 1 89.2406 -8.5263 75.2733 0.0000 0.0000 0.0000
# 2 -8.5263 99.5252 50.6756 0.0000 0.0000 0.0000
# 3 75.2733 50.6756 271.4612 0.0000 0.0000 0.0000
# 4 0.0000 0.0000 0.0000 13.3156 0.0000 0.0000
# 5 0.0000 0.0000 0.0000 0.0000 60.0903 0.0000
# 6 0.0000 0.0000 0.0000 0.0000 0.0000 14.5514
#
#
#
# Elastic Compliance Matrix: (Units=1/GPa)
#
#
# Indices 1 2 3 4 5 6 
#
# 1 0.015947 0.003998 -0.005168 0.000000 0.000000 0.000000
# 2 0.003998 0.012105 -0.003368 0.000000 0.000000 0.000000
# 3 -0.005168 -0.003368 0.005746 0.000000 0.000000 0.000000
# 4 0.000000 0.000000 0.000000 0.075100 0.000000 0.000000
# 5 0.000000 0.000000 0.000000 0.000000 0.016642 0.000000
# 6 0.000000 0.000000 0.000000 0.000000 0.000000 0.068722
#
#
# Mechanical properties :
#
#
# Convention : Reuss Voigt Hill
#
# Bulk Modulus (GPa) = 40.45279 77.23025 58.84152
# Shear Modulus (GPa) = 23.63187 40.44510 32.03848
#
# Velocity S-wave (km/s) = 3.04889 3.98864 3.55000
# Velocity P-wave (km/s) = 5.32039 7.18270 6.32051
#
# Compressibility (1/GPa) = 0.02472017
#
# Stress axis : x y z
#
# Youngs Moduli (GPa) = 62.70811 82.60897 174.04530
#
# Poissons Ratio (x) = -0.33024 0.89950
# Poissons Ratio (y) = -0.25069 0.58623
# Poissons Ratio (z) = 0.32409 0.27825
#
# Static dielectric constant tensor:
#      x y z
#    x 4.388300 0.000000 0.000000 
#    y 0.000000 3.030870 0.000000 
#    z 0.000000 0.000000 1.980710 
# 
# From -- ./inp_files/2352.got.cif
#   From: 2010.05.17/outbox.cif.g08.bks.cpg/sg37_2_cif.got.tgz:2352.got - 2010.06.03 17:53:42.
