data_PCOD9354345
_publ_section_title
;
Structure prediction by ZEFSAII (Michael W. Deem and Ramdas Pophale) SiO2 
 PCOD9354345
Probable space group: C C C 2
;
_chemical_formula_sum "Si O2"
_cell_formula_units_Z 56
_cell_length_a 14.436335
_cell_length_b 5.106075
_cell_length_c 35.608069
_cell_angle_alpha 90.000000
_cell_angle_beta 90.000000
_cell_angle_gamma 90.000000
_cell_volume 2624.777919
_symmetry_space_group_name_H-M "C C C 2"
_symmetry_group_IT_number 37
_symmetry_cell_setting 'orthorhombic'
loop_
_space_group_symop_operation_xyz
x,y,z
-x,-y,z
-x,y,1/2+z
x,-y,1/2+z
1/2+x,1/2+y,z
1/2-x,1/2-y,z
1/2-x,1/2+y,1/2+z
1/2+x,1/2-y,1/2+z
loop_
_atom_site_type_symbol
_atom_site_label
_atom_site_fract_x
_atom_site_fract_y
_atom_site_fract_z
Si Si1 0.184138 0.998513 0.578670
Si Si2 0.109309 0.011705 0.741656
Si Si3 0.750000 0.750000 0.845771
Si Si4 0.390691 0.488295 0.496666
Si Si5 0.387525 0.993348 0.451776
Si Si6 0.750000 0.750000 0.392551
Si Si7 0.112475 0.493348 0.286546
Si Si8 0.184138 0.998513 0.659652
O O1 0.250000 0.750000 0.580646
O O2 0.129569 0.965800 0.540127
O O3 0.250000 0.250000 0.575553
O O4 0.133095 0.018136 0.619161
O O5 0.142768 0.791176 0.771175
O O6 0.137188 0.302718 0.753404
O O7 0.129569 0.965800 0.698195
O O8 0.000000 0.000000 0.746236
O O9 0.711608 0.500000 0.869161
O O10 0.830805 0.611090 0.821341
O O11 0.500000 0.500000 0.492086
O O12 0.362812 0.197282 0.484918
O O13 0.357232 0.708824 0.467147
O O14 0.330805 0.111090 0.416981
O O15 0.500000 0.000000 0.445403
O O16 0.000000 0.500000 0.292919
O O17 0.250000 0.250000 0.662769
O O18 0.250000 0.750000 0.657676
#
# Coordination Sequence:
#
# PCOD9354345 Si02
#       8
#     8   8   4   8   8   4   8   8
#     4  10  21  35  54  87 124 162 207 256 307 355
#     4  10  21  38  61  89 121 164 209 251 309 363
#     4  12  26  44  68 100 125 164 213 250 324 406
#     4  10  21  38  61  89 121 164 209 251 309 363
#     4  10  23  42  64  95 127 160 206 261 309 372
#     4  12  26  44  68 100 125 164 213 250 324 406
#     4  10  23  42  64  95 127 160 206 261 309 372
#     4  10  21  35  54  87 124 162 207 256 307 355
#
# _framework density 21.335139000000002
#
# number of rings (size 3 to 8) (size 9 to 14) (size 15 to 20)
#    0.000    1.714    0.000    3.429    6.000    1.143 
#    0.000    1.429    0.000   10.286    0.000    0.000 
#    0.000    0.000    0.000    0.000    0.000    0.000 
#
# Total GULP energy -156219.661268 kJ/mol
# GULP energy per Si atom -5579.273617 kJ/mol
# Density = 2.128658 g / cm^3
# Si number density = 21.335139 Si / 1000 Ang^3
#
#
#
# Elastic Constant Matrix: (Units=GPa)
#
#
# Indices 1 2 3 4 5 6 
#
# 1 74.6097 19.2820 35.5618 0.0000 0.0000 0.0000
# 2 19.2820 137.0212 34.6120 0.0000 0.0000 0.0000
# 3 35.5618 34.6120 126.0146 0.0000 0.0000 0.0000
# 4 0.0000 0.0000 0.0000 84.6811 0.0000 0.0000
# 5 0.0000 0.0000 0.0000 0.0000 155.0996 0.0000
# 6 0.0000 0.0000 0.0000 0.0000 0.0000 13.8663
#
#
#
# Elastic Compliance Matrix: (Units=1/GPa)
#
#
# Indices 1 2 3 4 5 6 
#
# 1 0.015658 -0.001168 -0.004098 0.000000 0.000000 0.000000
# 2 -0.001168 0.007929 -0.001848 0.000000 0.000000 0.000000
# 3 -0.004098 -0.001848 0.009600 0.000000 0.000000 0.000000
# 4 0.000000 0.000000 0.000000 0.011809 0.000000 0.000000
# 5 0.000000 0.000000 0.000000 0.000000 0.006447 0.000000
# 6 0.000000 0.000000 0.000000 0.000000 0.000000 0.072117
#
#
# Mechanical properties :
#
#
# Convention : Reuss Voigt Hill
#
# Bulk Modulus (GPa) = 52.74711 57.39525 55.07118
# Shear Modulus (GPa) = 34.69580 67.27537 50.98559
#
# Velocity S-wave (km/s) = 4.03703 5.62149 4.89381
# Velocity P-wave (km/s) = 6.81960 8.31234 7.60269
#
# Compressibility (1/GPa) = 0.01895839
#
# Stress axis : x y z
#
# Youngs Moduli (GPa) = 63.86408 126.11261 104.17003
#
# Poissons Ratio (x) = 0.14734 0.42688
# Poissons Ratio (y) = 0.07461 0.19253
# Poissons Ratio (z) = 0.26171 0.23309
#
# Static dielectric constant tensor:
#      x y z
#    x 1.780330 0.000000 0.000000 
#    y 0.000000 1.799280 0.000000 
#    z 0.000000 0.000000 1.831190 
# 
# From -- ./inp_files/20559.got.cif
#   From: 2010.05.17/outbox.cif.g08.bks.cpg/sg37_11_cif.got.tgz:20559.got - 2010.06.03 17:53:42.
