data_PCOD9354626
_publ_section_title
;
Structure prediction by ZEFSAII (Michael W. Deem and Ramdas Pophale) SiO2 
 PCOD9354626
Probable space group: C C C 2
;
_chemical_formula_sum "Si O2"
_cell_formula_units_Z 64
_cell_length_a 8.941372
_cell_length_b 18.075084
_cell_length_c 20.941770
_cell_angle_alpha 90.000000
_cell_angle_beta 90.000000
_cell_angle_gamma 90.000000
_cell_volume 3384.526147
_symmetry_space_group_name_H-M "C C C 2"
_symmetry_group_IT_number 37
_symmetry_cell_setting 'orthorhombic'
loop_
_space_group_symop_operation_xyz
x,y,z
-x,-y,z
-x,y,1/2+z
x,-y,1/2+z
1/2+x,1/2+y,z
1/2-x,1/2-y,z
1/2-x,1/2+y,1/2+z
1/2+x,1/2-y,1/2+z
loop_
_atom_site_type_symbol
_atom_site_label
_atom_site_fract_x
_atom_site_fract_y
_atom_site_fract_z
Si Si1 0.925531 0.268005 0.072600
Si Si2 0.344425 0.457204 0.822807
Si Si3 0.124836 0.563515 0.067182
Si Si4 0.158688 0.961056 0.949211
Si Si5 0.092678 0.789120 0.326723
Si Si6 0.396951 0.928045 0.211997
Si Si7 0.092889 0.791053 0.943309
Si Si8 0.073933 0.270880 0.207677
O O1 0.750000 0.250000 0.085158
O O2 0.936029 0.354152 0.052121
O O3 0.017061 0.253949 0.136525
O O4 0.978769 0.219318 0.012943
O O5 0.500000 0.500000 0.805519
O O6 0.278884 0.499201 0.885171
O O7 0.385430 0.374473 0.842672
O O8 0.228182 0.442857 0.765537
O O9 0.176645 0.573960 0.141019
O O10 0.000000 0.500000 0.067766
O O11 0.242239 0.540222 0.013049
O O12 0.129578 0.876132 0.932249
O O13 0.000000 0.000000 0.961875
O O14 0.250000 0.750000 0.318939
O O15 0.002564 0.756754 0.386432
O O16 0.003398 0.778896 0.261477
O O17 0.503561 0.854545 0.219828
O O18 0.500000 0.000000 0.213562
O O19 0.250000 0.750000 0.946594
O O20 0.250000 0.250000 0.211419
#
# Coordination Sequence:
#
# PCOD9354626 Si02
#       8
#     8   8   8   8   8   8   8   8
#     4  10  21  43  70  95 130 177 217 273 333 399
#     4  11  24  42  66  93 135 172 216 274 334 400
#     4  10  22  43  66  95 133 167 216 269 328 393
#     4  11  22  43  64  95 131 170 215 269 327 398
#     4  12  24  42  65  98 131 171 223 279 329 397
#     4  10  24  45  65  97 133 173 225 273 332 404
#     4  11  22  42  68  95 130 172 222 267 331 403
#     4  11  25  43  68  98 134 176 224 282 336 399
#
# _framework density 18.909589
#
# number of rings (size 3 to 8) (size 9 to 14) (size 15 to 20)
#    0.000    1.250    6.250    0.750    3.500    3.500 
#    6.750    0.000    0.000    0.000    0.000    0.000 
#    0.000    0.000    0.000    0.000    0.000    0.000 
#
# Total GULP energy -178358.227761 kJ/mol
# GULP energy per Si atom -5573.694618 kJ/mol
# Density = 1.886655 g / cm^3
# Si number density = 18.909589 Si / 1000 Ang^3
#
#
#
# Elastic Constant Matrix: (Units=GPa)
#
#
# Indices 1 2 3 4 5 6 
#
# 1 92.8387 20.6805 58.9190 0.0000 0.0000 0.0000
# 2 20.6805 102.4255 31.6919 0.0000 0.0000 0.0000
# 3 58.9190 31.6919 147.4317 0.0000 0.0000 0.0000
# 4 0.0000 0.0000 0.0000 40.6807 0.0000 0.0000
# 5 0.0000 0.0000 0.0000 0.0000 39.0941 0.0000
# 6 0.0000 0.0000 0.0000 0.0000 0.0000 27.0201
#
#
#
# Elastic Compliance Matrix: (Units=1/GPa)
#
#
# Indices 1 2 3 4 5 6 
#
# 1 0.014573 -0.001222 -0.005561 0.000000 0.000000 0.000000
# 2 -0.001222 0.010561 -0.001782 0.000000 0.000000 0.000000
# 3 -0.005561 -0.001782 0.009388 0.000000 0.000000 0.000000
# 4 0.000000 0.000000 0.000000 0.024582 0.000000 0.000000
# 5 0.000000 0.000000 0.000000 0.000000 0.025579 0.000000
# 6 0.000000 0.000000 0.000000 0.000000 0.000000 0.037010
#
#
# Mechanical properties :
#
#
# Convention : Reuss Voigt Hill
#
# Bulk Modulus (GPa) = 57.49565 62.80872 60.15219
# Shear Modulus (GPa) = 34.57328 36.78593 35.67960
#
# Velocity S-wave (km/s) = 4.28056 4.41541 4.34850
# Velocity P-wave (km/s) = 7.40962 7.69947 7.55593
#
# Compressibility (1/GPa) = 0.01739262
#
# Stress axis : x y z
#
# Youngs Moduli (GPa) = 68.62063 94.68586 106.51515
#
# Poissons Ratio (x) = 0.11567 0.59236
# Poissons Ratio (y) = 0.08383 0.18981
# Poissons Ratio (z) = 0.38162 0.16873
#
# Static dielectric constant tensor:
#      x y z
#    x 1.654240 0.000000 0.000000 
#    y 0.000000 1.655890 0.000000 
#    z 0.000000 0.000000 1.719970 
# 
# From -- ./inp_files/16567.got.cif
#   From: 2010.05.17/outbox.cif.g08.bks.cpg/sg37_9_cif.got.tgz:16567.got - 2010.06.03 17:53:42.
