data_PCOD9354177
_publ_section_title
;
Structure prediction by ZEFSAII (Michael W. Deem and Ramdas Pophale) SiO2 
 PCOD9354177
Probable space group: C C C 2
;
_chemical_formula_sum "Si O2"
_cell_formula_units_Z 64
_cell_length_a 25.099383
_cell_length_b 13.221281
_cell_length_c 8.477531
_cell_angle_alpha 90.000000
_cell_angle_beta 90.000000
_cell_angle_gamma 90.000000
_cell_volume 2813.234715
_symmetry_space_group_name_H-M "C C C 2"
_symmetry_group_IT_number 37
_symmetry_cell_setting 'orthorhombic'
loop_
_space_group_symop_operation_xyz
x,y,z
-x,-y,z
-x,y,1/2+z
x,-y,1/2+z
1/2+x,1/2+y,z
1/2-x,1/2-y,z
1/2-x,1/2+y,1/2+z
1/2+x,1/2-y,1/2+z
loop_
_atom_site_type_symbol
_atom_site_label
_atom_site_fract_x
_atom_site_fract_y
_atom_site_fract_z
Si Si1 0.682631 0.970865 0.412360
Si Si2 0.950365 0.923916 0.182495
Si Si3 0.376177 0.121830 0.123115
Si Si4 0.805974 0.356343 0.201304
Si Si5 0.606812 0.413604 0.357768
Si Si6 0.576098 0.791142 0.681488
Si Si7 0.693953 0.710971 0.956360
Si Si8 0.030921 0.703463 0.826028
O O1 0.661869 0.903894 0.270353
O O2 0.712779 0.899839 0.535915
O O3 0.634781 0.030657 0.501852
O O4 0.713666 0.064858 0.334257
O O5 0.963684 0.818522 0.264362
O O6 0.902158 0.980580 0.271384
O O7 0.934833 0.907526 0.001565
O O8 0.000000 0.000000 0.191559
O O9 0.432792 0.139494 0.204110
O O10 0.352473 0.221125 0.037681
O O11 0.870657 0.357554 0.188598
O O12 0.799904 0.246386 0.273845
O O13 0.592229 0.322992 0.235141
O O14 0.664904 0.395954 0.436903
O O15 0.530593 0.826304 0.803424
O O16 0.552195 0.797915 0.504941
O O17 0.750000 0.750000 0.029932
#
# Coordination Sequence:
#
# PCOD9354177 Si02
#       8
#     8   8   8   8   8   8   8   8
#     4   9  18  37  62  87 112 163 203 256 309 369
#     4  12  23  37  61  94 130 172 212 256 311 387
#     4  10  20  39  65  86 124 160 214 258 320 376
#     4   9  19  37  62  84 120 155 209 256 315 374
#     4  11  23  40  59  90 128 167 212 258 311 385
#     4  11  23  36  56  89 123 168 214 245 308 379
#     4  10  22  42  66  91 124 161 207 274 333 377
#     4  12  23  37  60  90 129 175 210 250 316 384
#
# _framework density 22.749614000000001
#
# number of rings (size 3 to 8) (size 9 to 14) (size 15 to 20)
#    0.000    1.500    3.750    1.875    3.500    0.000 
#    0.000    9.375    0.000    0.000    0.000    0.000 
#    0.000    0.000    0.000    0.000    0.000    0.000 
#
# Total GULP energy -178421.583507 kJ/mol
# GULP energy per Si atom -5575.674485 kJ/mol
# Density = 2.269784 g / cm^3
# Si number density = 22.749614 Si / 1000 Ang^3
#
#
#
# Elastic Constant Matrix: (Units=GPa)
#
#
# Indices 1 2 3 4 5 6 
#
# 1 74.9827 -17.1876 -2.9266 0.0000 0.0000 0.0000
# 2 -17.1876 32.1241 2.6520 0.0000 0.0000 0.0000
# 3 -2.9266 2.6520 111.2708 0.0000 0.0000 0.0000
# 4 0.0000 0.0000 0.0000 36.6843 0.0000 0.0000
# 5 0.0000 0.0000 0.0000 0.0000 18.2578 0.0000
# 6 0.0000 0.0000 0.0000 0.0000 0.0000 -5.4768
#
#
#
# Elastic Compliance Matrix: (Units=1/GPa)
#
#
# Indices 1 2 3 4 5 6 
#
# 1 0.015205 0.008118 0.000206 0.000000 0.000000 0.000000
# 2 0.008118 0.035525 -0.000633 0.000000 0.000000 0.000000
# 3 0.000206 -0.000633 0.009008 0.000000 0.000000 0.000000
# 4 0.000000 0.000000 0.000000 0.027260 0.000000 0.000000
# 5 0.000000 0.000000 0.000000 0.000000 0.054771 0.000000
# 6 0.000000 0.000000 0.000000 0.000000 0.000000 -0.182587
#
#
# Mechanical properties :
#
#
# Convention : Reuss Voigt Hill
#
# Bulk Modulus (GPa) = 13.31177 20.38369 16.84773
# Shear Modulus (GPa) = -160.45678 25.61570 -67.42054
#
# Velocity S-wave (km/s) = -8.40742 3.35921 -5.44979
# Velocity P-wave (km/s) = 9.40118 4.90155 5.67261
#
# Compressibility (1/GPa) = 0.07512149
#
# Stress axis : x y z
#
# Youngs Moduli (GPa) = 65.76619 28.14903 111.01728
#
# Poissons Ratio (x) = -0.22853 -0.02292
# Poissons Ratio (y) = -0.53392 0.07029
# Poissons Ratio (z) = -0.01358 0.01782
#
# Static dielectric constant tensor:
#      x y z
#    x 1.965330 0.000000 0.000000 
#    y 0.000000 1.867230 0.000000 
#    z 0.000000 0.000000 1.854550 
# 
# From -- ./inp_files/4655.got.cif
#   From: 2010.05.17/outbox.cif.g08.bks.cpg/sg37_3_cif.got.tgz:4655.got - 2010.06.03 17:53:42.
