data_PCOD9354888
_publ_section_title
;
Structure prediction by ZEFSAII (Michael W. Deem and Ramdas Pophale) SiO2 
 PCOD9354888
Probable space group: C C C 2
;
_chemical_formula_sum "Si O2"
_cell_formula_units_Z 56
_cell_length_a 7.638130
_cell_length_b 15.294464
_cell_length_c 20.858877
_cell_angle_alpha 90.000000
_cell_angle_beta 90.000000
_cell_angle_gamma 90.000000
_cell_volume 2436.757046
_symmetry_space_group_name_H-M "C C C 2"
_symmetry_group_IT_number 37
_symmetry_cell_setting 'orthorhombic'
loop_
_space_group_symop_operation_xyz
x,y,z
-x,-y,z
-x,y,1/2+z
x,-y,1/2+z
1/2+x,1/2+y,z
1/2-x,1/2-y,z
1/2-x,1/2+y,1/2+z
1/2+x,1/2-y,1/2+z
loop_
_atom_site_type_symbol
_atom_site_label
_atom_site_fract_x
_atom_site_fract_y
_atom_site_fract_z
Si Si1 0.597749 0.141927 0.431000
Si Si2 0.553147 0.090822 0.796771
Si Si3 0.555761 0.402961 0.755561
Si Si4 0.015247 0.098336 0.984096
Si Si5 0.955450 0.735700 0.693601
Si Si6 0.928511 0.192230 0.870382
Si Si7 0.043920 0.728001 0.552625
O O1 0.526357 0.092609 0.368139
O O2 0.788058 0.108538 0.453725
O O3 0.560299 0.240163 0.404798
O O4 0.499348 0.154343 0.499746
O O5 0.761395 0.090593 0.792583
O O6 0.499832 0.172100 0.752359
O O7 0.500000 0.000000 0.764639
O O8 0.500000 0.500000 0.737678
O O9 0.553624 0.329430 0.701185
O O10 0.458203 0.351858 0.813116
O O11 0.891223 0.118124 0.923127
O O12 0.968049 0.176340 0.033633
O O13 0.000000 0.000000 0.009085
O O14 0.750000 0.750000 0.694549
O O15 0.003093 0.699069 0.624134
O O16 0.750000 0.250000 0.856936
O O17 0.250000 0.750000 0.547831
#
# Coordination Sequence:
#
# PCOD9354888 Si02
#       7
#     8   8   8   8   8   8   8
#     4  10  22  42  69 100 135 180 226 284 344 411
#     4  12  26  45  69 108 141 180 235 292 353 423
#     4  12  25  43  68 102 137 185 230 292 352 413
#     4  10  23  39  67 102 139 182 227 290 344 416
#     4  12  26  46  72 101 140 189 235 291 353 421
#     4  11  20  37  62  96 135 178 222 278 347 408
#     4   9  21  44  70  96 135 189 235 280 349 415
#
# _framework density 22.981363999999999
#
# number of rings (size 3 to 8) (size 9 to 14) (size 15 to 20)
#    0.000    1.143    2.857    3.857    6.000    3.429 
#    0.000    3.571    0.000    0.000    0.000    0.000 
#    0.000    0.000    0.000    0.000    0.000    0.000 
#
# Total GULP energy -156020.166175 kJ/mol
# GULP energy per Si atom -5572.148792 kJ/mol
# Density = 2.292906 g / cm^3
# Si number density = 22.981364 Si / 1000 Ang^3
#
#
#
# Elastic Constant Matrix: (Units=GPa)
#
#
# Indices 1 2 3 4 5 6 
#
# 1 69.0791 5.3510 21.7094 0.0000 0.0000 0.0000
# 2 5.3510 126.0357 30.3661 0.0000 0.0000 0.0000
# 3 21.7094 30.3661 129.5940 0.0000 0.0000 0.0000
# 4 0.0000 0.0000 0.0000 -1.9226 0.0000 0.0000
# 5 0.0000 0.0000 0.0000 0.0000 24.7477 0.0000
# 6 0.0000 0.0000 0.0000 0.0000 0.0000 22.1735
#
#
#
# Elastic Compliance Matrix: (Units=1/GPa)
#
#
# Indices 1 2 3 4 5 6 
#
# 1 0.015281 -0.000034 -0.002552 0.000000 0.000000 0.000000
# 2 -0.000034 0.008409 -0.001965 0.000000 0.000000 0.000000
# 3 -0.002552 -0.001965 0.008604 0.000000 0.000000 0.000000
# 4 0.000000 0.000000 0.000000 -0.520136 0.000000 0.000000
# 5 0.000000 0.000000 0.000000 0.000000 0.040408 0.000000
# 6 0.000000 0.000000 0.000000 0.000000 0.000000 0.045099
#
#
# Mechanical properties :
#
#
# Convention : Reuss Voigt Hill
#
# Bulk Modulus (GPa) = 43.11632 48.84020 45.97826
# Shear Modulus (GPa) = -12.97007 26.81855 6.92424
#
# Velocity S-wave (km/s) = -2.37823 3.41980 1.73768
# Velocity P-wave (km/s) = 3.35572 6.07385 4.90675
#
# Compressibility (1/GPa) = 0.02319307
#
# Stress axis : x y z
#
# Youngs Moduli (GPa) = 65.44180 118.91933 116.22151
#
# Poissons Ratio (x) = 0.00404 0.29658
# Poissons Ratio (y) = 0.00222 0.22834
# Poissons Ratio (z) = 0.16700 0.23364
#
# Static dielectric constant tensor:
#      x y z
#    x 2.782400 0.000000 0.000000 
#    y 0.000000 2.455250 0.000000 
#    z 0.000000 0.000000 1.905690 
# 
# From -- ./inp_files/16419.got.cif
#   From: 2010.05.17/outbox.cif.g08.bks.cpg/sg37_9_cif.got.tgz:16419.got - 2010.06.03 17:53:42.
