data_PCOD9354731
_publ_section_title
;
Structure prediction by ZEFSAII (Michael W. Deem and Ramdas Pophale) SiO2 
 PCOD9354731
Probable space group: C C C 2
;
_chemical_formula_sum "Si O2"
_cell_formula_units_Z 40
_cell_length_a 9.075269
_cell_length_b 14.337582
_cell_length_c 15.407430
_cell_angle_alpha 90.000000
_cell_angle_beta 90.000000
_cell_angle_gamma 90.000000
_cell_volume 2004.774940
_symmetry_space_group_name_H-M "C C C 2"
_symmetry_group_IT_number 37
_symmetry_cell_setting 'orthorhombic'
loop_
_space_group_symop_operation_xyz
x,y,z
-x,-y,z
-x,y,1/2+z
x,-y,1/2+z
1/2+x,1/2+y,z
1/2-x,1/2-y,z
1/2-x,1/2+y,1/2+z
1/2+x,1/2-y,1/2+z
loop_
_atom_site_type_symbol
_atom_site_label
_atom_site_fract_x
_atom_site_fract_y
_atom_site_fract_z
Si Si1 0.846998 0.342087 0.681320
Si Si2 0.424017 0.101653 0.823889
Si Si3 0.011369 0.683481 0.001755
Si Si4 0.342095 0.475088 0.724084
Si Si5 0.815861 0.158077 0.067099
O O1 0.750000 0.250000 0.692447
O O2 0.915643 0.343326 0.585163
O O3 0.747037 0.432078 0.698986
O O4 0.980122 0.347217 0.749909
O O5 0.434906 0.156953 0.913151
O O6 0.500000 0.000000 0.836435
O O7 0.261408 0.083404 0.787977
O O8 0.056832 0.792862 0.010823
O O9 0.172025 0.631872 0.010298
O O10 0.500000 0.500000 0.762256
O O11 0.364978 0.417148 0.635325
O O12 0.750000 0.250000 0.116760
#
# Coordination Sequence:
#
# PCOD9354731 Si02
#       5
#     8   8   8   8   8
#     4  11  23  40  63  95 128 173 221 268 325 395
#     4  10  22  38  66  97 129 175 216 273 328 398
#     4   9  20  38  64  90 128 165 219 256 338 379
#     4  11  22  40  65  95 132 174 218 268 335 389
#     4   8  19  36  66  91 122 170 212 269 322 379
#
# _framework density 19.952362999999998
#
# number of rings (size 3 to 8) (size 9 to 14) (size 15 to 20)
#    1.200    0.800    2.000    1.200    5.600    0.000 
#    0.000    6.000    0.000    0.000    0.000    0.000 
#    0.000    0.000    0.000    0.000    0.000    0.000 
#
# Total GULP energy -111526.067659 kJ/mol
# GULP energy per Si atom -5576.303383 kJ/mol
# Density = 1.990695 g / cm^3
# Si number density = 19.952363 Si / 1000 Ang^3
#
#
#
# Elastic Constant Matrix: (Units=GPa)
#
#
# Indices 1 2 3 4 5 6 
#
# 1 145.2196 41.2582 86.6292 0.0000 0.0000 0.0000
# 2 41.2582 62.9193 64.8511 0.0000 0.0000 0.0000
# 3 86.6292 64.8511 152.9378 0.0000 0.0000 0.0000
# 4 0.0000 0.0000 0.0000 2.9529 0.0000 0.0000
# 5 0.0000 0.0000 0.0000 0.0000 -1.5939 0.0000
# 6 0.0000 0.0000 0.0000 0.0000 0.0000 15.2878
#
#
#
# Elastic Compliance Matrix: (Units=1/GPa)
#
#
# Indices 1 2 3 4 5 6 
#
# 1 0.010463 -0.001337 -0.005360 0.000000 0.000000 0.000000
# 2 -0.001337 0.028403 -0.011287 0.000000 0.000000 0.000000
# 3 -0.005360 -0.011287 0.014361 0.000000 0.000000 0.000000
# 4 0.000000 0.000000 0.000000 0.338651 0.000000 0.000000
# 5 0.000000 0.000000 0.000000 0.000000 -0.627409 0.000000
# 6 0.000000 0.000000 0.000000 0.000000 0.000000 0.065412
#
#
# Mechanical properties :
#
#
# Convention : Reuss Voigt Hill
#
# Bulk Modulus (GPa) = 57.93630 82.95039 70.44334
# Shear Modulus (GPa) = -38.94131 14.55191 -12.19470
#
# Velocity S-wave (km/s) = -4.42261 2.70355 -2.47491
# Velocity P-wave (km/s) = 1.73810 7.17008 5.21685
#
# Compressibility (1/GPa) = 0.01726034
#
# Stress axis : x y z
#
# Youngs Moduli (GPa) = 95.57196 35.20726 69.63410
#
# Poissons Ratio (x) = 0.04706 0.37324
# Poissons Ratio (y) = 0.12773 0.78596
# Poissons Ratio (z) = 0.51227 0.39738
#
# Static dielectric constant tensor:
#      x y z
#    x 1.752410 0.000000 0.000000 
#    y 0.000000 1.729300 0.000000 
#    z 0.000000 0.000000 1.660250 
# 
# From -- ./inp_files/10333.got.cif
#   From: 2010.05.17/outbox.cif.g08.bks.cpg/sg37_6_cif.got.tgz:10333.got - 2010.06.03 17:53:42.
