data_PCOD9354379
_publ_section_title
;
Structure prediction by ZEFSAII (Michael W. Deem and Ramdas Pophale) SiO2 
 PCOD9354379
Probable space group: C C C 2
;
_chemical_formula_sum "Si O2"
_cell_formula_units_Z 64
_cell_length_a 8.830756
_cell_length_b 16.920129
_cell_length_c 21.591839
_cell_angle_alpha 90.000000
_cell_angle_beta 90.000000
_cell_angle_gamma 90.000000
_cell_volume 3226.199266
_symmetry_space_group_name_H-M "C C C 2"
_symmetry_group_IT_number 37
_symmetry_cell_setting 'orthorhombic'
loop_
_space_group_symop_operation_xyz
x,y,z
-x,-y,z
-x,y,1/2+z
x,-y,1/2+z
1/2+x,1/2+y,z
1/2-x,1/2-y,z
1/2-x,1/2+y,1/2+z
1/2+x,1/2-y,1/2+z
loop_
_atom_site_type_symbol
_atom_site_label
_atom_site_fract_x
_atom_site_fract_y
_atom_site_fract_z
Si Si1 0.509395 0.905028 0.420550
Si Si2 0.442474 0.420870 0.396527
Si Si3 0.757736 0.156814 0.355763
Si Si4 0.932040 0.380188 0.238939
Si Si5 0.190758 0.158644 0.643243
Si Si6 0.288692 0.103887 0.303514
Si Si7 0.099478 0.214867 0.212772
Si Si8 0.256049 0.655806 0.004366
O O1 0.343545 0.869009 0.414216
O O2 0.604506 0.869064 0.361604
O O3 0.595950 0.881037 0.482775
O O4 0.500000 0.000000 0.413391
O O5 0.500000 0.500000 0.427566
O O6 0.573366 0.370729 0.365653
O O7 0.327518 0.449053 0.342360
O O8 0.364930 0.370223 0.449240
O O9 0.750000 0.250000 0.346487
O O10 0.680030 0.115791 0.296989
O O11 0.820945 0.388744 0.180698
O O12 0.088143 0.427242 0.254055
O O13 0.003252 0.290746 0.235625
O O14 0.250000 0.250000 0.643504
O O15 0.189707 0.130891 0.572365
O O16 0.024342 0.162957 0.675305
O O17 0.180682 0.166207 0.268187
O O18 0.250000 0.250000 0.177798
O O19 0.250000 0.750000 0.004382
#
# Coordination Sequence:
#
# PCOD9354379 Si02
#       8
#     8   8   8   8   8   8   8   8
#     4  10  21  37  55  77 111 149 183 224 284 343
#     4  11  22  36  54  79 114 149 179 226 291 344
#     4  11  19  30  53  83 108 133 177 230 276 333
#     4   9  17  29  51  82 113 142 176 226 287 338
#     4   9  17  32  53  79 112 149 189 234 284 332
#     4   9  18  31  53  78 104 140 179 216 272 350
#     4   9  16  29  52  84 117 144 175 229 294 343
#     4  10  21  38  59  80 107 148 198 241 272 323
#
# _framework density 19.837584
#
# number of rings (size 3 to 8) (size 9 to 14) (size 15 to 20)
#    0.000    2.250    0.000    4.875    0.000    8.000 
#    0.000    5.625    0.000   12.000    0.000    0.000 
#    0.000    0.000    0.000    0.000    0.000    0.000 
#
# Total GULP energy -178168.239363 kJ/mol
# GULP energy per Si atom -5567.757480 kJ/mol
# Density = 1.979243 g / cm^3
# Si number density = 19.837584 Si / 1000 Ang^3
#
#
#
# Elastic Constant Matrix: (Units=GPa)
#
#
# Indices 1 2 3 4 5 6 
#
# 1 139.9764 25.3371 66.8254 0.0000 0.0000 0.0000
# 2 25.3371 39.6100 21.5774 0.0000 0.0000 0.0000
# 3 66.8254 21.5774 98.2056 0.0000 0.0000 0.0000
# 4 0.0000 0.0000 0.0000 1.1215 0.0000 0.0000
# 5 0.0000 0.0000 0.0000 0.0000 19.4766 0.0000
# 6 0.0000 0.0000 0.0000 0.0000 0.0000 20.7764
#
#
#
# Elastic Compliance Matrix: (Units=1/GPa)
#
#
# Indices 1 2 3 4 5 6 
#
# 1 0.010959 -0.003349 -0.006722 0.000000 0.000000 0.000000
# 2 -0.003349 0.029702 -0.004247 0.000000 0.000000 0.000000
# 3 -0.006722 -0.004247 0.015690 0.000000 0.000000 0.000000
# 4 0.000000 0.000000 0.000000 0.891648 0.000000 0.000000
# 5 0.000000 0.000000 0.000000 0.000000 0.051344 0.000000
# 6 0.000000 0.000000 0.000000 0.000000 0.000000 0.048132
#
#
# Mechanical properties :
#
#
# Convention : Reuss Voigt Hill
#
# Bulk Modulus (GPa) = 36.08073 56.14130 46.11102
# Shear Modulus (GPa) = 4.60682 19.21172 11.90927
#
# Velocity S-wave (km/s) = 1.52555 3.11537 2.45284
# Velocity P-wave (km/s) = 4.61851 6.42671 5.59613
#
# Compressibility (1/GPa) = 0.02771562
#
# Stress axis : x y z
#
# Youngs Moduli (GPa) = 91.24859 33.66793 63.73615
#
# Poissons Ratio (x) = 0.11274 0.42840
# Poissons Ratio (y) = 0.30556 0.27071
# Poissons Ratio (z) = 0.61333 0.14300
#
# Static dielectric constant tensor:
#      x y z
#    x 1.763490 0.000000 0.000000 
#    y 0.000000 1.727640 0.000000 
#    z 0.000000 0.000000 1.703340 
# 
# From -- ./inp_files/16536.got.cif
#   From: 2010.05.17/outbox.cif.g08.bks.cpg/sg37_9_cif.got.tgz:16536.got - 2010.06.03 17:53:42.
