data_PCOD9354922
_publ_section_title
;
Structure prediction by ZEFSAII (Michael W. Deem and Ramdas Pophale) SiO2 
 PCOD9354922
Probable space group: C C C 2
;
_chemical_formula_sum "Si O2"
_cell_formula_units_Z 28
_cell_length_a 4.945984
_cell_length_b 19.963497
_cell_length_c 13.544307
_cell_angle_alpha 90.000000
_cell_angle_beta 90.000000
_cell_angle_gamma 90.000000
_cell_volume 1337.353181
_symmetry_space_group_name_H-M "C C C 2"
_symmetry_group_IT_number 37
_symmetry_cell_setting 'orthorhombic'
loop_
_space_group_symop_operation_xyz
x,y,z
-x,-y,z
-x,y,1/2+z
x,-y,1/2+z
1/2+x,1/2+y,z
1/2-x,1/2-y,z
1/2-x,1/2+y,1/2+z
1/2+x,1/2-y,1/2+z
loop_
_atom_site_type_symbol
_atom_site_label
_atom_site_fract_x
_atom_site_fract_y
_atom_site_fract_z
Si Si1 0.508968 0.621144 0.031840
Si Si2 0.250000 0.750000 0.090189
Si Si3 0.976239 0.616873 0.655189
Si Si4 0.246009 0.545217 0.347905
O O1 0.442624 0.700711 0.027547
O O2 0.224932 0.590705 0.068554
O O3 0.719974 0.607557 0.119934
O O4 0.631781 0.592643 0.932428
O O5 0.084013 0.696643 0.154477
O O6 0.885906 0.584553 0.756632
O O7 0.500000 0.500000 0.314746
O O8 0.000000 0.500000 0.387127
#
# Coordination Sequence:
#
# PCOD9354922 Si02
#       4
#     8   4   8   8
#     4  10  22  43  68  98 131 174 224 285 331 400
#     4   8  22  44  68  92 132 162 242 270 364 362
#     4  10  22  43  66  97 134 172 222 285 334 395
#     4  12  26  42  65 103 138 183 229 266 347 409
#
# _framework density 20.936879000000001
#
# number of rings (size 3 to 8) (size 9 to 14) (size 15 to 20)
#    1.714    0.000    0.000    4.286    0.000    6.857 
#    5.143    0.000    0.000    0.000    0.000    0.000 
#    0.000    0.000    0.000    0.000    0.000    0.000 
#
# Total GULP energy -78054.162419 kJ/mol
# GULP energy per Si atom -5575.297316 kJ/mol
# Density = 2.088923 g / cm^3
# Si number density = 20.936879 Si / 1000 Ang^3
#
#
#
# Elastic Constant Matrix: (Units=GPa)
#
#
# Indices 1 2 3 4 5 6 
#
# 1 106.6965 42.7663 19.2727 0.0000 0.0000 0.0000
# 2 42.7663 112.2907 72.0733 0.0000 0.0000 0.0000
# 3 19.2727 72.0733 104.8405 0.0000 0.0000 0.0000
# 4 0.0000 0.0000 0.0000 57.5268 0.0000 0.0000
# 5 0.0000 0.0000 0.0000 0.0000 30.3559 0.0000
# 6 0.0000 0.0000 0.0000 0.0000 0.0000 36.9141
#
#
#
# Elastic Compliance Matrix: (Units=1/GPa)
#
#
# Indices 1 2 3 4 5 6 
#
# 1 0.011202 -0.005270 0.001564 0.000000 0.000000 0.000000
# 2 -0.005270 0.018417 -0.011692 0.000000 0.000000 0.000000
# 3 0.001564 -0.011692 0.017289 0.000000 0.000000 0.000000
# 4 0.000000 0.000000 0.000000 0.017383 0.000000 0.000000
# 5 0.000000 0.000000 0.000000 0.000000 0.032942 0.000000
# 6 0.000000 0.000000 0.000000 0.000000 0.000000 0.027090
#
#
# Mechanical properties :
#
#
# Convention : Reuss Voigt Hill
#
# Bulk Modulus (GPa) = 62.06963 65.78359 63.92661
# Shear Modulus (GPa) = 31.15431 37.60705 34.38068
#
# Velocity S-wave (km/s) = 3.86166 4.24277 4.05669
# Velocity P-wave (km/s) = 7.04228 7.44914 7.24856
#
# Compressibility (1/GPa) = 0.01611094
#
# Stress axis : x y z
#
# Youngs Moduli (GPa) = 89.26752 54.29716 57.84104
#
# Poissons Ratio (x) = 0.28615 -0.09044
# Poissons Ratio (y) = 0.47044 0.67629
# Poissons Ratio (z) = -0.13958 0.63485
#
# Static dielectric constant tensor:
#      x y z
#    x 1.760110 0.000000 0.000000 
#    y 0.000000 1.778130 0.000000 
#    z 0.000000 0.000000 1.715060 
# 
# From -- ./inp_files/5275.got.cif
#   From: 2010.05.17/outbox.cif.g08.bks.cpg/sg37_3_cif.got.tgz:5275.got - 2010.06.03 17:53:42.
