data_PCOD9354942
_publ_section_title
;
Structure prediction by ZEFSAII (Michael W. Deem and Ramdas Pophale) SiO2 
 PCOD9354942
Probable space group: C C C 2
;
_chemical_formula_sum "Si O2"
_cell_formula_units_Z 48
_cell_length_a 21.438756
_cell_length_b 9.648163
_cell_length_c 11.032426
_cell_angle_alpha 90.000000
_cell_angle_beta 90.000000
_cell_angle_gamma 90.000000
_cell_volume 2281.997880
_symmetry_space_group_name_H-M "C C C 2"
_symmetry_group_IT_number 37
_symmetry_cell_setting 'orthorhombic'
loop_
_space_group_symop_operation_xyz
x,y,z
-x,-y,z
-x,y,1/2+z
x,-y,1/2+z
1/2+x,1/2+y,z
1/2-x,1/2-y,z
1/2-x,1/2+y,1/2+z
1/2+x,1/2-y,1/2+z
loop_
_atom_site_type_symbol
_atom_site_label
_atom_site_fract_x
_atom_site_fract_y
_atom_site_fract_z
Si Si1 0.625455 0.997861 0.661160
Si Si2 0.169329 0.095100 0.365068
Si Si3 0.975719 0.355495 0.303534
Si Si4 0.557315 0.409160 0.438124
Si Si5 0.312134 0.921007 0.911253
Si Si6 0.584425 0.702379 0.178228
O O1 0.562404 0.908882 0.685022
O O2 0.666977 0.948499 0.549073
O O3 0.653146 0.003841 0.798517
O O4 0.613727 0.157390 0.626004
O O5 0.239568 0.046614 0.386175
O O6 0.173106 0.257708 0.397057
O O7 0.138130 0.104207 0.231497
O O8 0.119824 0.999955 0.433810
O O9 0.935848 0.239178 0.372226
O O10 0.000000 0.500000 0.364120
O O11 0.038078 0.268638 0.276257
O O12 0.500000 0.500000 0.388043
O O13 0.544543 0.372758 0.577140
#
# Coordination Sequence:
#
# PCOD9354942 Si02
#       6
#     8   8   8   8   8   8
#     4  10  22  43  71  95 132 183 238 275 342 419
#     4  10  24  44  63  94 143 181 228 283 357 410
#     4  10  23  43  66 100 140 177 229 288 352 427
#     4  12  25  39  68 101 139 179 230 289 351 417
#     4  10  23  45  68  97 135 192 230 286 341 418
#     4  10  23  40  63  97 135 182 221 292 350 413
#
# _framework density 21.034199999999998
#
# number of rings (size 3 to 8) (size 9 to 14) (size 15 to 20)
#    0.000    1.667    1.667    1.000    7.000    2.000 
#    3.000    1.667    0.000    0.000    0.000    0.000 
#    0.000    0.000    0.000    0.000    0.000    0.000 
#
# Total GULP energy -133632.547471 kJ/mol
# GULP energy per Si atom -5568.022811 kJ/mol
# Density = 2.098632 g / cm^3
# Si number density = 21.034200 Si / 1000 Ang^3
#
#
#
# Elastic Constant Matrix: (Units=GPa)
#
#
# Indices 1 2 3 4 5 6 
#
# 1 114.0172 25.9218 23.2567 0.0000 0.0000 0.0000
# 2 25.9218 70.7515 29.1284 0.0000 0.0000 0.0000
# 3 23.2567 29.1284 68.3284 0.0000 0.0000 0.0000
# 4 0.0000 0.0000 0.0000 3.5303 0.0000 0.0000
# 5 0.0000 0.0000 0.0000 0.0000 15.3356 0.0000
# 6 0.0000 0.0000 0.0000 0.0000 0.0000 29.5091
#
#
#
# Elastic Compliance Matrix: (Units=1/GPa)
#
#
# Indices 1 2 3 4 5 6 
#
# 1 0.009832 -0.002698 -0.002196 0.000000 0.000000 0.000000
# 2 -0.002698 0.017883 -0.006705 0.000000 0.000000 0.000000
# 3 -0.002196 -0.006705 0.018241 0.000000 0.000000 0.000000
# 4 0.000000 0.000000 0.000000 0.283258 0.000000 0.000000
# 5 0.000000 0.000000 0.000000 0.000000 0.065208 0.000000
# 6 0.000000 0.000000 0.000000 0.000000 0.000000 0.033888
#
#
# Mechanical properties :
#
#
# Convention : Reuss Voigt Hill
#
# Bulk Modulus (GPa) = 43.94229 45.52341 44.73285
# Shear Modulus (GPa) = 10.89100 21.32769 16.10934
#
# Velocity S-wave (km/s) = 2.27794 3.18772 2.77043
# Velocity P-wave (km/s) = 5.27777 5.93618 5.61663
#
# Compressibility (1/GPa) = 0.02275712
#
# Stress axis : x y z
#
# Youngs Moduli (GPa) = 101.70878 55.91902 54.82096
#
# Poissons Ratio (x) = 0.15087 0.12040
# Poissons Ratio (y) = 0.27441 0.36759
# Poissons Ratio (z) = 0.22339 0.37495
#
# Static dielectric constant tensor:
#      x y z
#    x 1.824560 0.000000 0.000000 
#    y 0.000000 1.765650 0.000000 
#    z 0.000000 0.000000 1.793060 
# 
# From -- ./inp_files/8841.got.cif
#   From: 2010.05.17/outbox.cif.g08.bks.cpg/sg37_5_cif.got.tgz:8841.got - 2010.06.03 17:53:42.
