data_PCOD9354196
_publ_section_title
;
Structure prediction by ZEFSAII (Michael W. Deem and Ramdas Pophale) SiO2 
 PCOD9354196
Probable space group: C C C 2
;
_chemical_formula_sum "Si O2"
_cell_formula_units_Z 40
_cell_length_a 9.320793
_cell_length_b 10.929203
_cell_length_c 16.531403
_cell_angle_alpha 90.000000
_cell_angle_beta 90.000000
_cell_angle_gamma 90.000000
_cell_volume 1684.034828
_symmetry_space_group_name_H-M "C C C 2"
_symmetry_group_IT_number 37
_symmetry_cell_setting 'orthorhombic'
loop_
_space_group_symop_operation_xyz
x,y,z
-x,-y,z
-x,y,1/2+z
x,-y,1/2+z
1/2+x,1/2+y,z
1/2-x,1/2-y,z
1/2-x,1/2+y,1/2+z
1/2+x,1/2-y,1/2+z
loop_
_atom_site_type_symbol
_atom_site_label
_atom_site_fract_x
_atom_site_fract_y
_atom_site_fract_z
Si Si1 0.871880 0.094965 0.862690
Si Si2 0.250000 0.250000 0.501767
Si Si3 0.719418 0.056699 0.241630
Si Si4 0.496134 0.276552 0.714364
Si Si5 0.250000 0.250000 0.084805
Si Si6 0.663047 0.004259 0.570787
O O1 0.855151 0.181036 0.939727
O O2 0.905195 0.183394 0.788130
O O3 0.741335 0.012259 0.826665
O O4 0.000000 0.000000 0.876427
O O5 0.290927 0.134883 0.556321
O O6 0.594090 0.156550 0.238343
O O7 0.871533 0.118747 0.215371
O O8 0.682946 0.970054 0.166376
O O9 0.599657 0.266611 0.636102
O O10 0.236749 0.375981 0.033676
O O11 0.500000 0.000000 0.545304
#
# Coordination Sequence:
#
# PCOD9354196 Si02
#       6
#     8   4   8   8   4   8
#     4  10  23  44  70 105 137 193 243 295 365 434
#     4  12  29  48  66 101 160 198 232 300 375 446
#     4  10  21  42  73 106 141 179 244 301 360 424
#     4  10  20  39  72 108 139 175 237 307 352 419
#     4  12  23  40  72 111 142 180 242 298 363 422
#     4  12  27  45  69 109 147 195 243 304 370 430
#
# _framework density 23.752479000000001
#
# number of rings (size 3 to 8) (size 9 to 14) (size 15 to 20)
#    0.000    1.200    4.000    1.800    0.000    3.200 
#    0.000    2.000    0.000    0.000    0.000    0.000 
#    0.000    0.000    0.000    0.000    0.000    0.000 
#
# Total GULP energy -111610.854542 kJ/mol
# GULP energy per Si atom -5580.542727 kJ/mol
# Density = 2.369842 g / cm^3
# Si number density = 23.752479 Si / 1000 Ang^3
#
#
#
# Elastic Constant Matrix: (Units=GPa)
#
#
# Indices 1 2 3 4 5 6 
#
# 1 95.8195 54.3756 13.3720 0.0000 0.0000 0.0000
# 2 54.3756 182.3281 24.6933 0.0000 0.0000 0.0000
# 3 13.3720 24.6933 52.8997 0.0000 0.0000 0.0000
# 4 0.0000 0.0000 0.0000 68.9304 0.0000 0.0000
# 5 0.0000 0.0000 0.0000 0.0000 28.4174 0.0000
# 6 0.0000 0.0000 0.0000 0.0000 0.0000 47.9346
#
#
#
# Elastic Compliance Matrix: (Units=1/GPa)
#
#
# Indices 1 2 3 4 5 6 
#
# 1 0.012678 -0.003573 -0.001537 0.000000 0.000000 0.000000
# 2 -0.003573 0.006862 -0.002300 0.000000 0.000000 0.000000
# 3 -0.001537 -0.002300 0.020366 0.000000 0.000000 0.000000
# 4 0.000000 0.000000 0.000000 0.014507 0.000000 0.000000
# 5 0.000000 0.000000 0.000000 0.000000 0.035190 0.000000
# 6 0.000000 0.000000 0.000000 0.000000 0.000000 0.020862
#
#
# Mechanical properties :
#
#
# Convention : Reuss Voigt Hill
#
# Bulk Modulus (GPa) = 39.86244 57.32545 48.59395
# Shear Modulus (GPa) = 37.41225 44.96359 41.18792
#
# Velocity S-wave (km/s) = 3.97304 4.35559 4.16871
# Velocity P-wave (km/s) = 6.15351 7.03433 6.60861
#
# Compressibility (1/GPa) = 0.02508627
#
# Stress axis : x y z
#
# Youngs Moduli (GPa) = 78.87478 145.73796 49.10205
#
# Poissons Ratio (x) = 0.52071 0.07547
# Poissons Ratio (y) = 0.28181 0.11293
# Poissons Ratio (z) = 0.12123 0.33517
#
# Static dielectric constant tensor:
#      x y z
#    x 1.934970 0.000000 0.000000 
#    y 0.000000 2.037920 0.000000 
#    z 0.000000 0.000000 1.950840 
# 
# From -- ./inp_files/14252.got.cif
#   From: 2010.05.17/outbox.cif.g08.bks.cpg/sg37_8_cif.got.tgz:14252.got - 2010.06.03 17:53:42.
