data_PCOD9354363
_publ_section_title
;
Structure prediction by ZEFSAII (Michael W. Deem and Ramdas Pophale) SiO2 
 PCOD9354363
Probable space group: C C C 2
;
_chemical_formula_sum "Si O2"
_cell_formula_units_Z 56
_cell_length_a 5.135087
_cell_length_b 17.855844
_cell_length_c 25.694616
_cell_angle_alpha 90.000000
_cell_angle_beta 90.000000
_cell_angle_gamma 90.000000
_cell_volume 2355.973063
_symmetry_space_group_name_H-M "C C C 2"
_symmetry_group_IT_number 37
_symmetry_cell_setting 'orthorhombic'
loop_
_space_group_symop_operation_xyz
x,y,z
-x,-y,z
-x,y,1/2+z
x,-y,1/2+z
1/2+x,1/2+y,z
1/2-x,1/2-y,z
1/2-x,1/2+y,1/2+z
1/2+x,1/2-y,1/2+z
loop_
_atom_site_type_symbol
_atom_site_label
_atom_site_fract_x
_atom_site_fract_y
_atom_site_fract_z
Si Si1 0.237157 0.838739 0.016550
Si Si2 0.239109 0.658548 0.455911
Si Si3 0.498282 0.767054 0.699229
Si Si4 0.007048 0.201481 0.811324
Si Si5 0.919894 0.921845 0.616581
Si Si6 0.756663 0.946763 0.859752
Si Si7 0.421364 0.074564 0.189064
O O1 0.250000 0.750000 0.016056
O O2 0.117124 0.863547 0.071176
O O3 0.529022 0.861907 0.000717
O O4 0.030191 0.863096 0.972966
O O5 0.250000 0.750000 0.448721
O O6 0.166950 0.608874 0.406052
O O7 0.750000 0.750000 0.667072
O O8 0.500112 0.712931 0.748600
O O9 0.482194 0.850605 0.719859
O O10 0.250000 0.750000 0.665343
O O11 0.250000 0.250000 0.830319
O O12 0.089721 0.115396 0.822498
O O13 0.750000 0.250000 0.829528
O O14 0.639246 0.926911 0.643911
O O15 0.138859 0.916853 0.662384
O O16 0.000000 0.000000 0.590416
O O17 0.500000 0.000000 0.845728
O O18 0.000000 0.000000 0.874479
O O19 0.500000 0.000000 0.219681
#
# Coordination Sequence:
#
# PCOD9354363 Si02
#       7
#     8   8   8   8   8   8   8
#     4  10  21  37  58  88 121 162 213 260 308 374
#     4  10  22  40  61  86 124 168 211 260 317 380
#     4  10  21  39  62  90 119 159 209 259 320 387
#     4  10  22  43  67  92 127 170 215 265 331 402
#     4  10  21  36  57  86 123 163 200 254 320 372
#     4  12  25  41  65  99 130 166 217 274 329 393
#     4  10  21  38  59  87 121 160 208 258 313 376
#
# _framework density 23.769371
#
# number of rings (size 3 to 8) (size 9 to 14) (size 15 to 20)
#    0.000    1.714    0.000    3.857    0.000    5.143 
#    0.000    8.571    0.000    0.000    0.000    0.000 
#    0.000    0.000    0.000    0.000    0.000    0.000 
#
# Total GULP energy -155899.044840 kJ/mol
# GULP energy per Si atom -5567.823030 kJ/mol
# Density = 2.371527 g / cm^3
# Si number density = 23.769371 Si / 1000 Ang^3
#
#
#
# Elastic Constant Matrix: (Units=GPa)
#
#
# Indices 1 2 3 4 5 6 
#
# 1 195.3079 49.3268 18.5841 0.0000 0.0000 0.0000
# 2 49.3268 126.8999 30.3992 0.0000 0.0000 0.0000
# 3 18.5841 30.3992 58.2899 0.0000 0.0000 0.0000
# 4 0.0000 0.0000 0.0000 27.7847 0.0000 0.0000
# 5 0.0000 0.0000 0.0000 0.0000 7.7250 0.0000
# 6 0.0000 0.0000 0.0000 0.0000 0.0000 35.6054
#
#
#
# Elastic Compliance Matrix: (Units=1/GPa)
#
#
# Indices 1 2 3 4 5 6 
#
# 1 0.005707 -0.002037 -0.000757 0.000000 0.000000 0.000000
# 2 -0.002037 0.009732 -0.004426 0.000000 0.000000 0.000000
# 3 -0.000757 -0.004426 0.019705 0.000000 0.000000 0.000000
# 4 0.000000 0.000000 0.000000 0.035991 0.000000 0.000000
# 5 0.000000 0.000000 0.000000 0.000000 0.129450 0.000000
# 6 0.000000 0.000000 0.000000 0.000000 0.000000 0.028086
#
#
# Mechanical properties :
#
#
# Convention : Reuss Voigt Hill
#
# Bulk Modulus (GPa) = 48.29997 64.12420 56.21208
# Shear Modulus (GPa) = 19.99900 33.03552 26.51726
#
# Velocity S-wave (km/s) = 2.90380 3.73209 3.34369
# Velocity P-wave (km/s) = 5.62202 6.75334 6.21348
#
# Compressibility (1/GPa) = 0.02070395
#
# Stress axis : x y z
#
# Youngs Moduli (GPa) = 175.23630 102.75125 50.74764
#
# Poissons Ratio (x) = 0.20928 0.03842
# Poissons Ratio (y) = 0.35692 0.22462
# Poissons Ratio (z) = 0.13268 0.45479
#
# Static dielectric constant tensor:
#      x y z
#    x 2.139790 0.000000 0.000000 
#    y 0.000000 2.129230 0.000000 
#    z 0.000000 0.000000 1.871140 
# 
# From -- ./inp_files/20156.got.cif
#   From: 2010.05.17/outbox.cif.g08.bks.cpg/sg37_11_cif.got.tgz:20156.got - 2010.06.03 17:53:42.
