data_PCOD9354640
_publ_section_title
;
Structure prediction by ZEFSAII (Michael W. Deem and Ramdas Pophale) SiO2 
 PCOD9354640
Probable space group: C C C 2
;
_chemical_formula_sum "Si O2"
_cell_formula_units_Z 32
_cell_length_a 21.912644
_cell_length_b 7.812659
_cell_length_c 8.751196
_cell_angle_alpha 90.000000
_cell_angle_beta 90.000000
_cell_angle_gamma 90.000000
_cell_volume 1498.169885
_symmetry_space_group_name_H-M "C C C 2"
_symmetry_group_IT_number 37
_symmetry_cell_setting 'orthorhombic'
loop_
_space_group_symop_operation_xyz
x,y,z
-x,-y,z
-x,y,1/2+z
x,-y,1/2+z
1/2+x,1/2+y,z
1/2-x,1/2-y,z
1/2-x,1/2+y,1/2+z
1/2+x,1/2-y,1/2+z
loop_
_atom_site_type_symbol
_atom_site_label
_atom_site_fract_x
_atom_site_fract_y
_atom_site_fract_z
Si Si1 0.137694 0.357641 0.147700
Si Si2 0.464130 0.675380 0.819921
Si Si3 0.931084 0.309656 0.142807
Si Si4 0.814227 0.329277 0.318615
O O1 0.098052 0.210403 0.226897
O O2 0.088781 0.500833 0.090043
O O3 0.177430 0.470580 0.268097
O O4 0.175199 0.306834 0.998965
O O5 0.500000 0.500000 0.793250
O O6 0.514214 0.810735 0.762232
O O7 0.449580 0.701214 0.996756
O O8 0.870574 0.242920 0.228857
O O9 0.750000 0.250000 0.272798
#
# Coordination Sequence:
#
# PCOD9354640 Si02
#       4
#     8   8   8   8
#     4  10  21  44  70 102 130 193 238 289 360 426
#     4  12  23  41  68 108 147 179 230 309 369 432
#     4  10  22  41  67 102 139 188 236 281 366 432
#     4  10  22  45  71 100 137 188 251 288 343 432
#
# _framework density 21.359394000000002
#
# number of rings (size 3 to 8) (size 9 to 14) (size 15 to 20)
#    1.500    0.000    2.500    3.000    0.000    2.000 
#    9.000    3.750    0.000    0.000    0.000    0.000 
#    0.000    0.000    0.000    0.000    0.000    0.000 
#
# Total GULP energy -89246.079087 kJ/mol
# GULP energy per Si atom -5577.879943 kJ/mol
# Density = 2.131078 g / cm^3
# Si number density = 21.359394 Si / 1000 Ang^3
#
#
#
# Elastic Constant Matrix: (Units=GPa)
#
#
# Indices 1 2 3 4 5 6 
#
# 1 129.5057 29.1658 59.0985 0.0000 0.0000 0.0000
# 2 29.1658 82.3928 17.9821 0.0000 0.0000 0.0000
# 3 59.0985 17.9821 129.9853 0.0000 0.0000 0.0000
# 4 0.0000 0.0000 0.0000 8.8799 0.0000 0.0000
# 5 0.0000 0.0000 0.0000 0.0000 33.9989 0.0000
# 6 0.0000 0.0000 0.0000 0.0000 0.0000 29.7210
#
#
#
# Elastic Compliance Matrix: (Units=1/GPa)
#
#
# Indices 1 2 3 4 5 6 
#
# 1 0.010296 -0.002705 -0.004307 0.000000 0.000000 0.000000
# 2 -0.002705 0.013225 -0.000600 0.000000 0.000000 0.000000
# 3 -0.004307 -0.000600 0.009734 0.000000 0.000000 0.000000
# 4 0.000000 0.000000 0.000000 0.112614 0.000000 0.000000
# 5 0.000000 0.000000 0.000000 0.000000 0.029413 0.000000
# 6 0.000000 0.000000 0.000000 0.000000 0.000000 0.033646
#
#
# Mechanical properties :
#
#
# Convention : Reuss Voigt Hill
#
# Bulk Modulus (GPa) = 55.45491 61.59741 58.52616
# Shear Modulus (GPa) = 21.72375 30.22913 25.97644
#
# Velocity S-wave (km/s) = 3.19260 3.76608 3.49113
# Velocity P-wave (km/s) = 6.29360 6.91464 6.61142
#
# Compressibility (1/GPa) = 0.01803267
#
# Stress axis : x y z
#
# Youngs Moduli (GPa) = 97.12237 75.61244 102.72838
#
# Poissons Ratio (x) = 0.20451 0.44246
# Poissons Ratio (y) = 0.26269 0.06162
# Poissons Ratio (z) = 0.41832 0.04536
#
# Static dielectric constant tensor:
#      x y z
#    x 1.756280 0.000000 0.000000 
#    y 0.000000 1.878510 0.000000 
#    z 0.000000 0.000000 1.742990 
# 
# From -- ./inp_files/4232.got.cif
#   From: 2010.05.17/outbox.cif.g08.bks.cpg/sg37_3_cif.got.tgz:4232.got - 2010.06.03 17:53:42.
