data_PCOD9354805
_publ_section_title
;
Structure prediction by ZEFSAII (Michael W. Deem and Ramdas Pophale) SiO2 
 PCOD9354805
Probable space group: C C C 2
;
_chemical_formula_sum "Si O2"
_cell_formula_units_Z 40
_cell_length_a 8.051504
_cell_length_b 18.632434
_cell_length_c 9.549725
_cell_angle_alpha 90.000000
_cell_angle_beta 90.000000
_cell_angle_gamma 90.000000
_cell_volume 1432.641311
_symmetry_space_group_name_H-M "C C C 2"
_symmetry_group_IT_number 37
_symmetry_cell_setting 'orthorhombic'
loop_
_space_group_symop_operation_xyz
x,y,z
-x,-y,z
-x,y,1/2+z
x,-y,1/2+z
1/2+x,1/2+y,z
1/2-x,1/2-y,z
1/2-x,1/2+y,1/2+z
1/2+x,1/2-y,1/2+z
loop_
_atom_site_type_symbol
_atom_site_label
_atom_site_fract_x
_atom_site_fract_y
_atom_site_fract_z
Si Si1 0.132812 0.343480 0.109810
Si Si2 0.855920 0.449933 0.080231
Si Si3 0.829163 0.047936 0.795689
Si Si4 0.319994 0.330460 0.837271
Si Si5 0.081308 0.793516 0.055712
O O1 0.270730 0.378890 0.210881
O O2 0.066305 0.260986 0.110997
O O3 0.193184 0.361496 0.951121
O O4 0.959034 0.382596 0.135334
O O5 0.729151 0.440626 0.954019
O O6 0.000000 0.500000 0.016457
O O7 0.784548 0.492248 0.210608
O O8 0.000000 0.000000 0.798505
O O9 0.250000 0.250000 0.816767
O O10 0.370054 0.348717 0.679177
O O11 0.490855 0.328289 0.924005
O O12 0.250000 0.750000 0.016037
#
# Coordination Sequence:
#
# PCOD9354805 Si02
#       5
#     8   8   8   8   8
#     4  10  23  42  70  99 138 196 223 285 361 411
#     4  10  22  44  71  98 140 180 236 287 358 425
#     4  11  24  44  69 107 140 175 237 297 347 428
#     4   9  21  42  61  98 137 175 236 284 329 418
#     4  10  22  40  67  96 138 181 232 285 334 413
#
# _framework density 27.920456999999999
#
# number of rings (size 3 to 8) (size 9 to 14) (size 15 to 20)
#    0.000    2.000    0.000    2.400    8.400    4.000 
#   10.800    0.000    4.400    0.000    0.000    0.000 
#    0.000    0.000    0.000    0.000    0.000    0.000 
#
# Total GULP energy -111831.226900 kJ/mol
# GULP energy per Si atom -5591.561345 kJ/mol
# Density = 2.785691 g / cm^3
# Si number density = 27.920457 Si / 1000 Ang^3
#
#
#
# Elastic Constant Matrix: (Units=GPa)
#
#
# Indices 1 2 3 4 5 6 
#
# 1 198.3092 21.4833 50.1826 0.0000 0.0000 0.0000
# 2 21.4833 72.1830 18.1834 0.0000 0.0000 0.0000
# 3 50.1826 18.1834 206.5306 0.0000 0.0000 0.0000
# 4 0.0000 0.0000 0.0000 32.1671 0.0000 0.0000
# 5 0.0000 0.0000 0.0000 0.0000 52.2092 0.0000
# 6 0.0000 0.0000 0.0000 0.0000 0.0000 57.8236
#
#
#
# Elastic Compliance Matrix: (Units=1/GPa)
#
#
# Indices 1 2 3 4 5 6 
#
# 1 0.005495 -0.001329 -0.001218 0.000000 0.000000 0.000000
# 2 -0.001329 0.014489 -0.000953 0.000000 0.000000 0.000000
# 3 -0.001218 -0.000953 0.005222 0.000000 0.000000 0.000000
# 4 0.000000 0.000000 0.000000 0.031088 0.000000 0.000000
# 5 0.000000 0.000000 0.000000 0.000000 0.019154 0.000000
# 6 0.000000 0.000000 0.000000 0.000000 0.000000 0.017294
#
#
# Mechanical properties :
#
#
# Convention : Reuss Voigt Hill
#
# Bulk Modulus (GPa) = 54.92500 72.96902 63.94701
# Shear Modulus (GPa) = 47.25495 54.25153 50.75324
#
# Velocity S-wave (km/s) = 4.11845 4.41281 4.26817
# Velocity P-wave (km/s) = 6.50616 7.22186 6.87333
#
# Compressibility (1/GPa) = 0.01820664
#
# Stress axis : x y z
#
# Youngs Moduli (GPa) = 181.98991 69.01737 191.50576
#
# Poissons Ratio (x) = 0.09169 0.23328
# Poissons Ratio (y) = 0.24178 0.18248
# Poissons Ratio (z) = 0.22169 0.06576
#
# Static dielectric constant tensor:
#      x y z
#    x 2.366870 0.000000 0.000000 
#    y 0.000000 2.362080 0.000000 
#    z 0.000000 0.000000 2.093950 
# 
# From -- ./inp_files/2213.got.cif
#   From: 2010.05.17/outbox.cif.g08.bks.cpg/sg37_2_cif.got.tgz:2213.got - 2010.06.03 17:53:42.
