data_PCOD9354047
_publ_section_title
;
Structure prediction by ZEFSAII (Michael W. Deem and Ramdas Pophale) SiO2 
 PCOD9354047
Probable space group: C C C 2
;
_chemical_formula_sum "Si O2"
_cell_formula_units_Z 64
_cell_length_a 8.610943
_cell_length_b 23.067792
_cell_length_c 15.008059
_cell_angle_alpha 90.000000
_cell_angle_beta 90.000000
_cell_angle_gamma 90.000000
_cell_volume 2981.132434
_symmetry_space_group_name_H-M "C C C 2"
_symmetry_group_IT_number 37
_symmetry_cell_setting 'orthorhombic'
loop_
_space_group_symop_operation_xyz
x,y,z
-x,-y,z
-x,y,1/2+z
x,-y,1/2+z
1/2+x,1/2+y,z
1/2-x,1/2-y,z
1/2-x,1/2+y,1/2+z
1/2+x,1/2-y,1/2+z
loop_
_atom_site_type_symbol
_atom_site_label
_atom_site_fract_x
_atom_site_fract_y
_atom_site_fract_z
Si Si1 0.382419 0.331582 0.470590
Si Si2 0.728294 0.412035 0.705834
Si Si3 0.860861 0.044992 0.886040
Si Si4 0.153115 0.696414 0.286621
Si Si5 0.389071 0.204206 0.150642
Si Si6 0.024483 0.297329 0.454113
Si Si7 0.687929 0.490983 0.072064
Si Si8 0.620717 0.375951 0.165175
O O1 0.423611 0.392118 0.421941
O O2 0.198450 0.321712 0.460114
O O3 0.460911 0.272375 0.437239
O O4 0.412499 0.338045 0.576372
O O5 0.742775 0.443683 0.799978
O O6 0.829300 0.355458 0.693062
O O7 0.757507 0.455286 0.624031
O O8 0.546264 0.393931 0.702778
O O9 0.768365 0.018768 0.970038
O O10 0.000000 0.000000 0.864268
O O11 0.250000 0.750000 0.322795
O O12 0.270192 0.653939 0.236759
O O13 0.035212 0.720883 0.211689
O O14 0.061133 0.673007 0.371534
O O15 0.250000 0.250000 0.155535
O O16 0.440648 0.195456 0.048758
O O17 0.500000 0.500000 0.069431
O O18 0.708785 0.432492 0.127661
#
# Coordination Sequence:
#
# PCOD9354047 Si02
#       8
#     8   8   8   8   8   8   8   8
#     4  10  21  41  68  92 135 180 218 284 337 401
#     4  11  22  41  67 104 133 172 225 281 331 400
#     4  10  20  36  66 102 128 167 226 279 328 388
#     4  12  25  40  63  95 129 177 223 270 331 404
#     4  12  26  43  65  98 139 178 221 279 339 409
#     4  11  24  42  62 100 136 174 225 276 346 406
#     4   8  18  38  62  96 127 169 216 270 322 390
#     4  10  20  40  66  90 131 171 221 268 336 386
#
# _framework density 21.468350000000001
#
# number of rings (size 3 to 8) (size 9 to 14) (size 15 to 20)
#    0.000    1.500    1.250    5.250    5.250    0.000 
#    9.000    0.625    0.000    0.000    0.000    0.000 
#    0.000    0.000    0.000    0.000    0.000    0.000 
#
# Total GULP energy -178933.778884 kJ/mol
# GULP energy per Si atom -5591.680590 kJ/mol
# Density = 2.141949 g / cm^3
# Si number density = 21.468350 Si / 1000 Ang^3
#
#
#
# Elastic Constant Matrix: (Units=GPa)
#
#
# Indices 1 2 3 4 5 6 
#
# 1 44.0035 18.8529 21.7745 0.0000 0.0000 0.0000
# 2 18.8529 91.8645 22.8642 0.0000 0.0000 0.0000
# 3 21.7745 22.8642 120.5004 0.0000 0.0000 0.0000
# 4 0.0000 0.0000 0.0000 25.0996 0.0000 0.0000
# 5 0.0000 0.0000 0.0000 0.0000 27.7227 0.0000
# 6 0.0000 0.0000 0.0000 0.0000 0.0000 28.5569
#
#
#
# Elastic Compliance Matrix: (Units=1/GPa)
#
#
# Indices 1 2 3 4 5 6 
#
# 1 0.026601 -0.004474 -0.003958 0.000000 0.000000 0.000000
# 2 -0.004474 0.012178 -0.001502 0.000000 0.000000 0.000000
# 3 -0.003958 -0.001502 0.009299 0.000000 0.000000 0.000000
# 4 0.000000 0.000000 0.000000 0.039841 0.000000 0.000000
# 5 0.000000 0.000000 0.000000 0.000000 0.036071 0.000000
# 6 0.000000 0.000000 0.000000 0.000000 0.000000 0.035018
#
#
# Mechanical properties :
#
#
# Convention : Reuss Voigt Hill
#
# Bulk Modulus (GPa) = 35.44941 42.59463 39.02202
# Shear Modulus (GPa) = 26.55628 29.13429 27.84528
#
# Velocity S-wave (km/s) = 3.52091 3.68785 3.60535
# Velocity P-wave (km/s) = 5.75129 6.16583 5.96216
#
# Compressibility (1/GPa) = 0.02820921
#
# Stress axis : x y z
#
# Youngs Moduli (GPa) = 37.59280 82.11753 107.53909
#
# Poissons Ratio (x) = 0.36740 0.42562
# Poissons Ratio (y) = 0.16819 0.16154
# Poissons Ratio (z) = 0.14879 0.12335
#
# Static dielectric constant tensor:
#      x y z
#    x 1.745900 0.000000 0.000000 
#    y 0.000000 1.813790 0.000000 
#    z 0.000000 0.000000 1.776710 
# 
# From -- ./inp_files/11025.got.cif
#   From: 2010.05.17/outbox.cif.g08.bks.cpg/sg37_6_cif.got.tgz:11025.got - 2010.06.03 17:53:42.
