data_PCOD9354508
_publ_section_title
;
Structure prediction by ZEFSAII (Michael W. Deem and Ramdas Pophale) SiO2 
 PCOD9354508
Probable space group: C C C 2
;
_chemical_formula_sum "Si O2"
_cell_formula_units_Z 60
_cell_length_a 12.624010
_cell_length_b 7.611007
_cell_length_c 27.789810
_cell_angle_alpha 90.000000
_cell_angle_beta 90.000000
_cell_angle_gamma 90.000000
_cell_volume 2670.084642
_symmetry_space_group_name_H-M "C C C 2"
_symmetry_group_IT_number 37
_symmetry_cell_setting 'orthorhombic'
loop_
_space_group_symop_operation_xyz
x,y,z
-x,-y,z
-x,y,1/2+z
x,-y,1/2+z
1/2+x,1/2+y,z
1/2-x,1/2-y,z
1/2-x,1/2+y,1/2+z
1/2+x,1/2-y,1/2+z
loop_
_atom_site_type_symbol
_atom_site_label
_atom_site_fract_x
_atom_site_fract_y
_atom_site_fract_z
Si Si1 0.386693 0.016918 0.279250
Si Si2 0.404986 0.625872 0.841165
Si Si3 0.577364 0.230387 0.596734
Si Si4 0.372766 0.195826 0.438995
Si Si5 0.210327 0.557278 0.682611
Si Si6 0.659830 0.383391 0.103829
Si Si7 0.697056 0.916209 0.868566
Si Si8 0.500000 0.000000 0.016419
O O1 0.387507 0.205771 0.306698
O O2 0.312527 0.980516 0.234802
O O3 0.500000 0.000000 0.255457
O O4 0.376080 0.879097 0.322909
O O5 0.500000 0.500000 0.825493
O O6 0.422023 0.680076 0.897559
O O7 0.292163 0.528355 0.845102
O O8 0.622912 0.116907 0.641893
O O9 0.454543 0.288846 0.604786
O O10 0.639437 0.414422 0.585710
O O11 0.580342 0.102649 0.551130
O O12 0.250000 0.250000 0.449061
O O13 0.364221 0.016180 0.409209
O O14 0.441616 0.149228 0.484955
O O15 0.250000 0.750000 0.695838
O O16 0.294298 0.434260 0.656091
O O17 0.750000 0.250000 0.082696
O O18 0.750000 0.750000 0.891223
#
# Coordination Sequence:
#
# PCOD9354508 Si02
#       8
#     8   8   8   8   8   8   8   4
#     4  11  23  37  62  98 134 173 223 271 327 408
#     4  10  21  41  66  93 135 177 213 276 337 403
#     4  10  24  44  65 102 128 178 226 285 346 410
#     4   9  23  43  66  98 128 169 220 282 335 410
#     4  10  22  43  66  91 134 176 221 280 334 402
#     4  10  22  43  70  90 131 176 221 279 344 406
#     4  10  21  40  63  93 134 170 218 270 337 403
#     4  12  24  42  74  92 138 170 232 288 354 418
#
# _framework density 22.471198000000001
#
# number of rings (size 3 to 8) (size 9 to 14) (size 15 to 20)
#    0.000    1.867    0.000    3.600    8.400    2.133 
#    9.600    3.333    0.000    0.000    0.000    0.000 
#    0.000    0.000    0.000    0.000    0.000    0.000 
#
# Total GULP energy -167217.970599 kJ/mol
# GULP energy per Si atom -5573.932353 kJ/mol
# Density = 2.242005 g / cm^3
# Si number density = 22.471198 Si / 1000 Ang^3
#
#
#
# Elastic Constant Matrix: (Units=GPa)
#
#
# Indices 1 2 3 4 5 6 
#
# 1 59.1145 4.8175 12.5181 0.0000 0.0000 0.0000
# 2 4.8175 59.7663 2.2645 0.0000 0.0000 0.0000
# 3 12.5181 2.2645 92.0297 0.0000 0.0000 0.0000
# 4 0.0000 0.0000 0.0000 -40.1572 0.0000 0.0000
# 5 0.0000 0.0000 0.0000 0.0000 -90.2136 0.0000
# 6 0.0000 0.0000 0.0000 0.0000 0.0000 43.4740
#
#
#
# Elastic Compliance Matrix: (Units=1/GPa)
#
#
# Indices 1 2 3 4 5 6 
#
# 1 0.017522 -0.001323 -0.002351 0.000000 0.000000 0.000000
# 2 -0.001323 0.016847 -0.000235 0.000000 0.000000 0.000000
# 3 -0.002351 -0.000235 0.011192 0.000000 0.000000 0.000000
# 4 0.000000 0.000000 0.000000 -0.024902 0.000000 0.000000
# 5 0.000000 0.000000 0.000000 0.000000 -0.011085 0.000000
# 6 0.000000 0.000000 0.000000 0.000000 0.000000 0.023002
#
#
# Mechanical properties :
#
#
# Convention : Reuss Voigt Hill
#
# Bulk Modulus (GPa) = 26.49456 27.79009 27.14232
# Shear Modulus (GPa) = 94.38434 -4.62534 44.87950
#
# Velocity S-wave (km/s) = 6.48795 -1.43625 4.47385
# Velocity P-wave (km/s) = 8.24262 3.10538 6.22833
#
# Compressibility (1/GPa) = 0.03774360
#
# Stress axis : x y z
#
# Youngs Moduli (GPa) = 57.07116 59.35633 89.35278
#
# Poissons Ratio (x) = 0.07855 0.21005
# Poissons Ratio (y) = 0.07552 0.02096
# Poissons Ratio (z) = 0.13416 0.01392
#
# Static dielectric constant tensor:
#      x y z
#    x 1.944440 0.000000 0.000000 
#    y 0.000000 2.071910 0.000000 
#    z 0.000000 0.000000 1.802570 
# 
# From -- ./inp_files/19778.got.cif
#   From: 2010.05.17/outbox.cif.g08.bks.cpg/sg37_10_cif.got.tgz:19778.got - 2010.06.03 17:53:42.
