data_PCOD9354172
_publ_section_title
;
Structure prediction by ZEFSAII (Michael W. Deem and Ramdas Pophale) SiO2 
 PCOD9354172
Probable space group: C C C 2
;
_chemical_formula_sum "Si O2"
_cell_formula_units_Z 64
_cell_length_a 23.732610
_cell_length_b 13.204241
_cell_length_c 7.958098
_cell_angle_alpha 90.000000
_cell_angle_beta 90.000000
_cell_angle_gamma 90.000000
_cell_volume 2493.837940
_symmetry_space_group_name_H-M "C C C 2"
_symmetry_group_IT_number 37
_symmetry_cell_setting 'orthorhombic'
loop_
_space_group_symop_operation_xyz
x,y,z
-x,-y,z
-x,y,1/2+z
x,-y,1/2+z
1/2+x,1/2+y,z
1/2-x,1/2-y,z
1/2-x,1/2+y,1/2+z
1/2+x,1/2-y,1/2+z
loop_
_atom_site_type_symbol
_atom_site_label
_atom_site_fract_x
_atom_site_fract_y
_atom_site_fract_z
Si Si1 0.561004 0.041181 0.378950
Si Si2 0.774865 0.579844 0.097157
Si Si3 0.732517 0.362990 0.970711
Si Si4 0.077369 0.240308 0.781360
Si Si5 0.896938 0.372599 0.703647
Si Si6 0.868496 0.079788 0.780759
Si Si7 0.674883 0.633080 0.907302
Si Si8 0.535977 0.320275 0.654242
O O1 0.571993 0.139533 0.267655
O O2 0.561628 0.078733 0.568172
O O3 0.500000 0.000000 0.345583
O O4 0.606007 0.952027 0.353845
O O5 0.754657 0.616242 0.280895
O O6 0.838350 0.621682 0.103993
O O7 0.740944 0.631403 0.943622
O O8 0.758484 0.459859 0.072314
O O9 0.750000 0.250000 0.024141
O O10 0.664597 0.365608 0.934343
O O11 0.031066 0.190578 0.661071
O O12 0.143238 0.217392 0.801299
O O13 0.053569 0.199055 0.961663
O O14 0.927555 0.268815 0.749187
O O15 0.846933 0.122419 0.600650
O O16 0.935584 0.084571 0.748802
O O17 0.846821 0.966931 0.812037
#
# Coordination Sequence:
#
# PCOD9354172 Si02
#       8
#     8   8   8   8   8   8   8   8
#     4  11  22  38  58  86 125 164 204 261 323 388
#     4  10  21  40  63  94 127 170 229 288 346 422
#     4  10  20  39  64  89 131 176 225 292 356 417
#     4  10  22  38  58  86 121 162 208 257 326 393
#     4  11  22  36  61  90 122 163 213 263 327 392
#     4   9  19  36  59  83 114 161 206 260 330 383
#     4   9  20  39  60  85 120 161 208 267 328 391
#     4  10  21  37  57  86 119 157 209 257 317 401
#
# _framework density 25.663256000000001
#
# number of rings (size 3 to 8) (size 9 to 14) (size 15 to 20)
#    0.000    2.000    1.250    1.875    1.750    2.500 
#    0.000    8.125    0.000    0.000    0.000    0.000 
#    0.000    0.000    0.000    0.000    0.000    0.000 
#
# Total GULP energy -178511.553344 kJ/mol
# GULP energy per Si atom -5578.486042 kJ/mol
# Density = 2.560484 g / cm^3
# Si number density = 25.663256 Si / 1000 Ang^3
#
#
#
# Elastic Constant Matrix: (Units=GPa)
#
#
# Indices 1 2 3 4 5 6 
#
# 1 116.4719 32.4096 19.8712 0.0000 0.0000 0.0000
# 2 32.4096 82.8295 4.8954 0.0000 0.0000 0.0000
# 3 19.8712 4.8954 63.2911 0.0000 0.0000 0.0000
# 4 0.0000 0.0000 0.0000 28.1879 0.0000 0.0000
# 5 0.0000 0.0000 0.0000 0.0000 11.6956 0.0000
# 6 0.0000 0.0000 0.0000 0.0000 0.0000 30.9482
#
#
#
# Elastic Compliance Matrix: (Units=1/GPa)
#
#
# Indices 1 2 3 4 5 6 
#
# 1 0.010134 -0.003795 -0.002888 0.000000 0.000000 0.000000
# 2 -0.003795 0.013549 0.000143 0.000000 0.000000 0.000000
# 3 -0.002888 0.000143 0.016696 0.000000 0.000000 0.000000
# 4 0.000000 0.000000 0.000000 0.035476 0.000000 0.000000
# 5 0.000000 0.000000 0.000000 0.000000 0.085502 0.000000
# 6 0.000000 0.000000 0.000000 0.000000 0.000000 0.032312
#
#
# Mechanical properties :
#
#
# Convention : Reuss Voigt Hill
#
# Bulk Modulus (GPa) = 36.62975 41.88277 39.25626
# Shear Modulus (GPa) = 23.16429 27.86075 25.51252
#
# Velocity S-wave (km/s) = 3.00763 3.29846 3.15640
# Velocity P-wave (km/s) = 5.13472 5.55536 5.34918
#
# Compressibility (1/GPa) = 0.02730021
#
# Stress axis : x y z
#
# Youngs Moduli (GPa) = 98.67320 73.80441 59.89544
#
# Poissons Ratio (x) = 0.28007 0.17300
# Poissons Ratio (y) = 0.37444 -0.00859
# Poissons Ratio (z) = 0.28500 -0.01058
#
# Static dielectric constant tensor:
#      x y z
#    x 2.191300 0.000000 0.000000 
#    y 0.000000 2.205550 0.000000 
#    z 0.000000 0.000000 2.020350 
# 
# From -- ./inp_files/4649.got.cif
#   From: 2010.05.17/outbox.cif.g08.bks.cpg/sg37_3_cif.got.tgz:4649.got - 2010.06.03 17:53:42.
