data_PCOD9354583
_publ_section_title
;
Structure prediction by ZEFSAII (Michael W. Deem and Ramdas Pophale) SiO2 
 PCOD9354583
Probable space group: C C C 2
;
_chemical_formula_sum "Si O2"
_cell_formula_units_Z 40
_cell_length_a 11.749942
_cell_length_b 8.875259
_cell_length_c 13.992145
_cell_angle_alpha 90.000000
_cell_angle_beta 90.000000
_cell_angle_gamma 90.000000
_cell_volume 1459.153750
_symmetry_space_group_name_H-M "C C C 2"
_symmetry_group_IT_number 37
_symmetry_cell_setting 'orthorhombic'
loop_
_space_group_symop_operation_xyz
x,y,z
-x,-y,z
-x,y,1/2+z
x,-y,1/2+z
1/2+x,1/2+y,z
1/2-x,1/2-y,z
1/2-x,1/2+y,1/2+z
1/2+x,1/2-y,1/2+z
loop_
_atom_site_type_symbol
_atom_site_label
_atom_site_fract_x
_atom_site_fract_y
_atom_site_fract_z
Si Si1 0.573451 0.138557 0.118910
Si Si2 0.055477 0.689180 0.821375
Si Si3 0.283027 0.516501 0.826628
Si Si4 0.919355 0.143514 0.470944
Si Si5 0.333305 0.450195 0.620137
O O1 0.515588 0.171156 0.222966
O O2 0.595207 0.308520 0.077933
O O3 0.700318 0.074720 0.105727
O O4 0.500000 0.000000 0.079210
O O5 0.150018 0.557102 0.822465
O O6 0.141313 0.831928 0.825745
O O7 0.974175 0.717304 0.913364
O O8 0.306221 0.408585 0.914454
O O9 0.335908 0.437237 0.733718
O O10 0.876440 0.109994 0.579728
O O11 0.000000 0.000000 0.449152
#
# Coordination Sequence:
#
# PCOD9354583 Si02
#       5
#     8   8   8   8   8
#     4  11  23  42  73 106 156 203 252 327 410 480
#     4  10  21  41  74  98 148 201 257 319 396 470
#     4  10  21  42  73 105 144 201 265 322 382 490
#     4  10  23  41  72 111 144 201 266 323 397 481
#     4  11  24  41  76 107 151 206 264 322 405 491
#
# _framework density 27.413150999999999
#
# number of rings (size 3 to 8) (size 9 to 14) (size 15 to 20)
#    0.000    1.600    4.000    0.000    2.800    6.400 
#    0.000    0.000   30.800    0.000    0.000    0.000 
#    0.000    0.000    0.000    0.000    0.000    0.000 
#
# Total GULP energy -111573.948600 kJ/mol
# GULP energy per Si atom -5578.697430 kJ/mol
# Density = 2.735076 g / cm^3
# Si number density = 27.413151 Si / 1000 Ang^3
#
#
#
# Elastic Constant Matrix: (Units=GPa)
#
#
# Indices 1 2 3 4 5 6 
#
# 1 184.9720 84.3028 42.5238 0.0000 0.0000 0.0000
# 2 84.3028 112.4072 32.0377 0.0000 0.0000 0.0000
# 3 42.5238 32.0377 97.5881 0.0000 0.0000 0.0000
# 4 0.0000 0.0000 0.0000 39.9304 0.0000 0.0000
# 5 0.0000 0.0000 0.0000 0.0000 -63.4803 0.0000
# 6 0.0000 0.0000 0.0000 0.0000 0.0000 57.1353
#
#
#
# Elastic Compliance Matrix: (Units=1/GPa)
#
#
# Indices 1 2 3 4 5 6 
#
# 1 0.008483 -0.005857 -0.001774 0.000000 0.000000 0.000000
# 2 -0.005857 0.013858 -0.001997 0.000000 0.000000 0.000000
# 3 -0.001774 -0.001997 0.011676 0.000000 0.000000 0.000000
# 4 0.000000 0.000000 0.000000 0.025044 0.000000 0.000000
# 5 0.000000 0.000000 0.000000 0.000000 -0.015753 0.000000
# 6 0.000000 0.000000 0.000000 0.000000 0.000000 0.017502
#
#
# Mechanical properties :
#
#
# Convention : Reuss Voigt Hill
#
# Bulk Modulus (GPa) = 67.74572 79.18842 73.46707
# Shear Modulus (GPa) = 58.83305 22.45729 40.64517
#
# Velocity S-wave (km/s) = 4.63769 2.86530 3.85475
# Velocity P-wave (km/s) = 7.31055 6.31635 6.83156
#
# Compressibility (1/GPa) = 0.01476108
#
# Stress axis : x y z
#
# Youngs Moduli (GPa) = 117.87927 72.16103 85.64685
#
# Poissons Ratio (x) = 0.42262 0.15192
# Poissons Ratio (y) = 0.69038 0.17107
# Poissons Ratio (z) = 0.20910 0.14414
#
# Static dielectric constant tensor:
#      x y z
#    x 2.164960 0.000000 0.000000 
#    y 0.000000 2.185110 0.000000 
#    z 0.000000 0.000000 2.281740 
# 
# From -- ./inp_files/11321.got.cif
#   From: 2010.05.17/outbox.cif.g08.bks.cpg/sg37_6_cif.got.tgz:11321.got - 2010.06.03 17:53:42.
