data_PCOD9354834
_publ_section_title
;
Structure prediction by ZEFSAII (Michael W. Deem and Ramdas Pophale) SiO2 
 PCOD9354834
Probable space group: C C C 2
;
_chemical_formula_sum "Si O2"
_cell_formula_units_Z 52
_cell_length_a 19.275576
_cell_length_b 14.953342
_cell_length_c 9.315677
_cell_angle_alpha 90.000000
_cell_angle_beta 90.000000
_cell_angle_gamma 90.000000
_cell_volume 2685.097454
_symmetry_space_group_name_H-M "C C C 2"
_symmetry_group_IT_number 37
_symmetry_cell_setting 'orthorhombic'
loop_
_space_group_symop_operation_xyz
x,y,z
-x,-y,z
-x,y,1/2+z
x,-y,1/2+z
1/2+x,1/2+y,z
1/2-x,1/2-y,z
1/2-x,1/2+y,1/2+z
1/2+x,1/2-y,1/2+z
loop_
_atom_site_type_symbol
_atom_site_label
_atom_site_fract_x
_atom_site_fract_y
_atom_site_fract_z
Si Si1 0.636839 0.264063 0.158500
Si Si2 0.766478 0.603532 0.608322
Si Si3 0.032644 0.118011 0.528827
Si Si4 0.250000 0.750000 0.609848
Si Si5 0.383094 0.334632 0.954431
Si Si6 0.595013 0.508148 0.280558
Si Si7 0.743207 0.425760 0.773511
O O1 0.700566 0.335510 0.154888
O O2 0.668285 0.168170 0.127767
O O3 0.582883 0.297756 0.041117
O O4 0.601130 0.274702 0.313234
O O5 0.773271 0.515006 0.702756
O O6 0.753693 0.577617 0.443516
O O7 0.044873 0.070263 0.376085
O O8 0.953606 0.150327 0.545118
O O9 0.061588 0.048201 0.649535
O O10 0.314876 0.711517 0.519348
O O11 0.227943 0.665722 0.706746
O O12 0.372462 0.434078 0.889151
O O13 0.661017 0.567153 0.236033
#
# Coordination Sequence:
#
# PCOD9354834 Si02
#       7
#     8   8   8   4   8   8   8
#     4  10  22  41  64  94 136 176 222 268 332 403
#     4  11  22  42  66  95 132 175 220 278 329 403
#     4  11  23  40  63  94 139 175 212 267 338 409
#     4  12  26  38  60  98 130 164 234 276 326 410
#     4  11  24  39  63  95 130 181 215 274 333 408
#     4  11  22  42  62 100 136 170 211 264 342 420
#     4  12  23  39  66  97 131 172 217 275 339 401
#
# _framework density 19.366150000000001
#
# number of rings (size 3 to 8) (size 9 to 14) (size 15 to 20)
#    0.000    0.923    4.615    4.154    2.154    8.615 
#    0.000    0.000    0.000    0.923    0.000    0.000 
#    0.000    0.000    0.000    0.000    0.000    0.000 
#
# Total GULP energy -145256.563687 kJ/mol
# GULP energy per Si atom -5586.790911 kJ/mol
# Density = 1.932207 g / cm^3
# Si number density = 19.366150 Si / 1000 Ang^3
#
#
#
# Elastic Constant Matrix: (Units=GPa)
#
#
# Indices 1 2 3 4 5 6 
#
# 1 98.2986 49.1327 27.6899 0.0000 0.0000 0.0000
# 2 49.1327 125.4040 42.5963 0.0000 0.0000 0.0000
# 3 27.6899 42.5963 100.1517 0.0000 0.0000 0.0000
# 4 0.0000 0.0000 0.0000 30.9799 0.0000 0.0000
# 5 0.0000 0.0000 0.0000 0.0000 32.1262 0.0000
# 6 0.0000 0.0000 0.0000 0.0000 0.0000 47.8381
#
#
#
# Elastic Compliance Matrix: (Units=1/GPa)
#
#
# Indices 1 2 3 4 5 6 
#
# 1 0.012881 -0.004485 -0.001654 0.000000 0.000000 0.000000
# 2 -0.004485 0.010882 -0.003388 0.000000 0.000000 0.000000
# 3 -0.001654 -0.003388 0.011883 0.000000 0.000000 0.000000
# 4 0.000000 0.000000 0.000000 0.032279 0.000000 0.000000
# 5 0.000000 0.000000 0.000000 0.000000 0.031127 0.000000
# 6 0.000000 0.000000 0.000000 0.000000 0.000000 0.020904
#
#
# Mechanical properties :
#
#
# Convention : Reuss Voigt Hill
#
# Bulk Modulus (GPa) = 60.26974 62.52135 61.39555
# Shear Modulus (GPa) = 34.59222 35.81784 35.20503
#
# Velocity S-wave (km/s) = 4.23096 4.30526 4.26827
# Velocity P-wave (km/s) = 7.42002 7.55431 7.48747
#
# Compressibility (1/GPa) = 0.01659207
#
# Stress axis : x y z
#
# Youngs Moduli (GPa) = 77.63623 91.89206 84.15193
#
# Poissons Ratio (x) = 0.41212 0.13917
# Poissons Ratio (y) = 0.34818 0.28515
# Poissons Ratio (z) = 0.12839 0.31138
#
# Static dielectric constant tensor:
#      x y z
#    x 1.725930 0.000000 0.000000 
#    y 0.000000 1.666720 0.000000 
#    z 0.000000 0.000000 1.751510 
# 
# From -- ./inp_files/4364.got.cif
#   From: 2010.05.17/outbox.cif.g08.bks.cpg/sg37_3_cif.got.tgz:4364.got - 2010.06.03 17:53:42.
