data_PCOD9354424
_publ_section_title
;
Structure prediction by ZEFSAII (Michael W. Deem and Ramdas Pophale) SiO2 
 PCOD9354424
Probable space group: C C C 2
;
_chemical_formula_sum "Si O2"
_cell_formula_units_Z 48
_cell_length_a 5.297518
_cell_length_b 25.073692
_cell_length_c 14.255332
_cell_angle_alpha 90.000000
_cell_angle_beta 90.000000
_cell_angle_gamma 90.000000
_cell_volume 1893.512010
_symmetry_space_group_name_H-M "C C C 2"
_symmetry_group_IT_number 37
_symmetry_cell_setting 'orthorhombic'
loop_
_space_group_symop_operation_xyz
x,y,z
-x,-y,z
-x,y,1/2+z
x,-y,1/2+z
1/2+x,1/2+y,z
1/2-x,1/2-y,z
1/2-x,1/2+y,1/2+z
1/2+x,1/2-y,1/2+z
loop_
_atom_site_type_symbol
_atom_site_label
_atom_site_fract_x
_atom_site_fract_y
_atom_site_fract_z
Si Si1 0.406872 0.160897 0.076270
Si Si2 0.999516 0.808129 0.338628
Si Si3 0.077276 0.390562 0.408408
Si Si4 0.750000 0.250000 0.689835
Si Si5 0.238588 0.965980 0.070018
Si Si6 0.175649 0.599956 0.236990
Si Si7 0.750000 0.750000 0.499956
O O1 0.211497 0.199619 0.123854
O O2 0.479385 0.120293 0.158030
O O3 0.639803 0.201209 0.058640
O O4 0.359836 0.135731 0.975029
O O5 0.186719 0.850245 0.288065
O O6 0.750576 0.846006 0.358055
O O7 0.970939 0.759878 0.264003
O O8 0.976138 0.773583 0.434635
O O9 0.226491 0.422212 0.488203
O O10 0.964186 0.425965 0.325648
O O11 0.168617 0.939380 0.170739
O O12 0.500000 0.000000 0.077070
O O13 0.000000 0.000000 0.041011
#
# Coordination Sequence:
#
# PCOD9354424 Si02
#       7
#     8   8   8   4   8   8   4
#     4  10  21  38  61  96 141 189 231 289 343 413
#     4  10  22  39  65  96 140 193 239 289 349 419
#     4  10  24  46  67 107 142 181 240 295 375 427
#     4  11  20  36  61  98 146 194 251 278 337 416
#     4  11  29  53  79 111 143 185 245 312 386 464
#     4  11  24  45  73  98 145 189 238 300 379 430
#     4   9  20  38  55 102 136 184 249 278 329 422
#
# _framework density 25.349723000000001
#
# number of rings (size 3 to 8) (size 9 to 14) (size 15 to 20)
#    0.000    1.667    1.667    1.000    7.000    0.667 
#    0.000    0.000    0.000    0.000    0.000    0.000 
#    0.000    0.000    0.000    0.000    0.000    0.000 
#
# Total GULP energy -133800.625932 kJ/mol
# GULP energy per Si atom -5575.026081 kJ/mol
# Density = 2.529203 g / cm^3
# Si number density = 25.349723 Si / 1000 Ang^3
#
#
#
# Elastic Constant Matrix: (Units=GPa)
#
#
# Indices 1 2 3 4 5 6 
#
# 1 62.7575 14.4985 21.2362 0.0000 0.0000 0.0000
# 2 14.4985 74.0248 24.6542 0.0000 0.0000 0.0000
# 3 21.2362 24.6542 186.0243 0.0000 0.0000 0.0000
# 4 0.0000 0.0000 0.0000 25.7524 0.0000 0.0000
# 5 0.0000 0.0000 0.0000 0.0000 14.2907 0.0000
# 6 0.0000 0.0000 0.0000 0.0000 0.0000 44.8189
#
#
#
# Elastic Compliance Matrix: (Units=1/GPa)
#
#
# Indices 1 2 3 4 5 6 
#
# 1 0.017122 -0.002827 -0.001580 0.000000 0.000000 0.000000
# 2 -0.002827 0.014600 -0.001612 0.000000 0.000000 0.000000
# 3 -0.001580 -0.001612 0.005770 0.000000 0.000000 0.000000
# 4 0.000000 0.000000 0.000000 0.038831 0.000000 0.000000
# 5 0.000000 0.000000 0.000000 0.000000 0.069976 0.000000
# 6 0.000000 0.000000 0.000000 0.000000 0.000000 0.022312
#
#
# Mechanical properties :
#
#
# Convention : Reuss Voigt Hill
#
# Bulk Modulus (GPa) = 39.28866 49.28716 44.28791
# Shear Modulus (GPa) = 26.43632 34.46690 30.45161
#
# Velocity S-wave (km/s) = 3.23284 3.69135 3.46968
# Velocity P-wave (km/s) = 5.42838 6.13622 5.79312
#
# Compressibility (1/GPa) = 0.02545264
#
# Stress axis : x y z
#
# Youngs Moduli (GPa) = 58.40381 68.49463 173.32027
#
# Poissons Ratio (x) = 0.19366 0.27383
# Poissons Ratio (y) = 0.16513 0.27942
# Poissons Ratio (z) = 0.09227 0.11042
#
# Static dielectric constant tensor:
#      x y z
#    x 2.123720 0.000000 0.000000 
#    y 0.000000 2.129940 0.000000 
#    z 0.000000 0.000000 1.994460 
# 
# From -- ./inp_files/9786.got.cif
#   From: 2010.05.17/outbox.cif.g08.bks.cpg/sg37_5_cif.got.tgz:9786.got - 2010.06.03 17:53:42.
