data_PCOD9354713
_publ_section_title
;
Structure prediction by ZEFSAII (Michael W. Deem and Ramdas Pophale) SiO2 
 PCOD9354713
Probable space group: C C C 2
;
_chemical_formula_sum "Si O2"
_cell_formula_units_Z 56
_cell_length_a 19.892267
_cell_length_b 14.804401
_cell_length_c 9.160076
_cell_angle_alpha 90.000000
_cell_angle_beta 90.000000
_cell_angle_gamma 90.000000
_cell_volume 2697.579154
_symmetry_space_group_name_H-M "C C C 2"
_symmetry_group_IT_number 37
_symmetry_cell_setting 'orthorhombic'
loop_
_space_group_symop_operation_xyz
x,y,z
-x,-y,z
-x,y,1/2+z
x,-y,1/2+z
1/2+x,1/2+y,z
1/2-x,1/2-y,z
1/2-x,1/2+y,1/2+z
1/2+x,1/2-y,1/2+z
loop_
_atom_site_type_symbol
_atom_site_label
_atom_site_fract_x
_atom_site_fract_y
_atom_site_fract_z
Si Si1 0.940253 0.563857 0.438280
Si Si2 0.791489 0.392347 0.470687
Si Si3 0.015061 0.734476 0.753690
Si Si4 0.935238 0.066126 0.834390
Si Si5 0.645607 0.034970 0.195156
Si Si6 0.361281 0.554646 0.541195
Si Si7 0.095155 0.247097 0.957836
O O1 0.958102 0.651054 0.346427
O O2 0.904524 0.500096 0.319444
O O3 0.893399 0.591476 0.573100
O O4 0.000000 0.500000 0.497617
O O5 0.799206 0.419822 0.299463
O O6 0.828733 0.453256 0.593607
O O7 0.714852 0.416008 0.510175
O O8 0.833192 0.297666 0.479657
O O9 0.041837 0.830356 0.816478
O O10 0.043603 0.724661 0.589243
O O11 0.936667 0.732873 0.799776
O O12 0.879931 0.051419 0.709507
O O13 0.000000 0.000000 0.816604
O O14 0.894404 0.035907 0.976886
O O15 0.400367 0.639942 0.473409
#
# Coordination Sequence:
#
# PCOD9354713 Si02
#       7
#     8   8   8   8   8   8   8
#     4  11  22  37  59  97 129 168 209 257 324 375
#     4  11  22  43  62  93 129 172 216 254 331 396
#     4  11  24  39  65  95 134 166 214 271 332 374
#     4  11  23  44  67  99 127 163 220 276 329 384
#     4  10  22  38  61  86 129 164 207 256 303 386
#     4  11  24  42  68  92 125 173 211 272 326 387
#     4  11  24  40  63  95 129 170 214 274 319 398
#
# _framework density 20.759352
#
# number of rings (size 3 to 8) (size 9 to 14) (size 15 to 20)
#    0.000    1.143    2.857    3.857    6.000    0.000 
#    0.000    0.000    0.000    0.000    0.000    0.000 
#    0.000    0.000    0.000    0.000    0.000    0.000 
#
# Total GULP energy -156006.893898 kJ/mol
# GULP energy per Si atom -5571.674782 kJ/mol
# Density = 2.071210 g / cm^3
# Si number density = 20.759352 Si / 1000 Ang^3
#
#
#
# Elastic Constant Matrix: (Units=GPa)
#
#
# Indices 1 2 3 4 5 6 
#
# 1 75.0889 -8.7978 13.4805 0.0000 0.0000 0.0000
# 2 -8.7978 55.8388 -2.7397 0.0000 0.0000 0.0000
# 3 13.4805 -2.7397 63.1999 0.0000 0.0000 0.0000
# 4 0.0000 0.0000 0.0000 21.0226 0.0000 0.0000
# 5 0.0000 0.0000 0.0000 0.0000 23.5923 0.0000
# 6 0.0000 0.0000 0.0000 0.0000 0.0000 8.1545
#
#
#
# Elastic Compliance Matrix: (Units=1/GPa)
#
#
# Indices 1 2 3 4 5 6 
#
# 1 0.014084 0.002076 -0.002914 0.000000 0.000000 0.000000
# 2 0.002076 0.018253 0.000348 0.000000 0.000000 0.000000
# 3 -0.002914 0.000348 0.016459 0.000000 0.000000 0.000000
# 4 0.000000 0.000000 0.000000 0.047568 0.000000 0.000000
# 5 0.000000 0.000000 0.000000 0.000000 0.042387 0.000000
# 6 0.000000 0.000000 0.000000 0.000000 0.000000 0.122632
#
#
# Mechanical properties :
#
#
# Convention : Reuss Voigt Hill
#
# Bulk Modulus (GPa) = 20.91304 22.00153 21.45728
# Shear Modulus (GPa) = 17.96615 23.36620 20.66618
#
# Velocity S-wave (km/s) = 2.94504 3.35860 3.15860
# Velocity P-wave (km/s) = 4.65406 5.06573 4.86425
#
# Compressibility (1/GPa) = 0.04781706
#
# Stress axis : x y z
#
# Youngs Moduli (GPa) = 71.00284 54.78588 60.75525
#
# Poissons Ratio (x) = -0.11374 0.17705
# Poissons Ratio (y) = -0.14741 -0.02117
# Poissons Ratio (z) = 0.20691 -0.01909
#
# Static dielectric constant tensor:
#      x y z
#    x 1.833110 0.000000 0.000000 
#    y 0.000000 1.803250 0.000000 
#    z 0.000000 0.000000 1.726390 
# 
# From -- ./inp_files/3662.got.cif
#   From: 2010.05.17/outbox.cif.g08.bks.cpg/sg37_2_cif.got.tgz:3662.got - 2010.06.03 17:53:42.
