data_PCOD9354068
_publ_section_title
;
Structure prediction by ZEFSAII (Michael W. Deem and Ramdas Pophale) SiO2 
 PCOD9354068
Probable space group: C C C 2
;
_chemical_formula_sum "Si O2"
_cell_formula_units_Z 64
_cell_length_a 17.589934
_cell_length_b 8.808970
_cell_length_c 22.102296
_cell_angle_alpha 90.000000
_cell_angle_beta 90.000000
_cell_angle_gamma 90.000000
_cell_volume 3424.733103
_symmetry_space_group_name_H-M "C C C 2"
_symmetry_group_IT_number 37
_symmetry_cell_setting 'orthorhombic'
loop_
_space_group_symop_operation_xyz
x,y,z
-x,-y,z
-x,y,1/2+z
x,-y,1/2+z
1/2+x,1/2+y,z
1/2-x,1/2-y,z
1/2-x,1/2+y,1/2+z
1/2+x,1/2-y,1/2+z
loop_
_atom_site_type_symbol
_atom_site_label
_atom_site_fract_x
_atom_site_fract_y
_atom_site_fract_z
Si Si1 0.972660 0.168592 0.484200
Si Si2 0.168563 0.672173 0.271352
Si Si3 0.804466 0.635456 0.592269
Si Si4 0.335035 0.179548 0.914766
Si Si5 0.803913 0.609543 0.184079
Si Si6 0.916694 0.574852 0.488196
Si Si7 0.594902 0.345868 0.174339
Si Si8 0.431429 0.313936 0.126408
O O1 0.902111 0.214278 0.441637
O O2 0.941906 0.186037 0.553721
O O3 0.050988 0.260986 0.471317
O O4 0.000000 0.000000 0.476802
O O5 0.250000 0.750000 0.261606
O O6 0.157917 0.658730 0.342911
O O7 0.171804 0.509274 0.236591
O O8 0.109035 0.792790 0.242880
O O9 0.750000 0.750000 0.555622
O O10 0.769615 0.495862 0.630014
O O11 0.871847 0.578413 0.550564
O O12 0.840560 0.751558 0.640125
O O13 0.250000 0.250000 0.927994
O O14 0.360038 0.018460 0.944791
O O15 0.750000 0.750000 0.203299
O O16 0.875085 0.689137 0.152111
O O17 0.000000 0.500000 0.494691
O O18 0.514513 0.283728 0.152581
O O19 0.593447 0.521390 0.153792
#
# Coordination Sequence:
#
# PCOD9354068 Si02
#       8
#     8   8   8   8   8   8   8   8
#     4  11  21  41  65  91 132 165 199 262 318 369
#     4  10  22  44  62  80 124 166 205 259 307 354
#     4  11  21  33  57  88 122 158 197 245 319 374
#     4  10  24  44  64  88 119 172 220 260 303 364
#     4  11  22  35  58  90 121 156 204 253 313 372
#     4  10  21  39  60  85 123 161 204 254 309 368
#     4  10  20  37  59  89 125 158 194 249 313 374
#     4  11  20  36  62  93 124 155 199 248 316 382
#
# _framework density 18.687587000000001
#
# number of rings (size 3 to 8) (size 9 to 14) (size 15 to 20)
#    0.000    1.500    2.500    4.500    0.000    5.500 
#    9.000    3.125    0.000    0.000    0.000    0.000 
#    0.000    0.000    0.000    0.000    0.000    0.000 
#
# Total GULP energy -178154.594972 kJ/mol
# GULP energy per Si atom -5567.331093 kJ/mol
# Density = 1.864505 g / cm^3
# Si number density = 18.687587 Si / 1000 Ang^3
#
#
#
# Elastic Constant Matrix: (Units=GPa)
#
#
# Indices 1 2 3 4 5 6 
#
# 1 76.4213 48.7573 48.0509 0.0000 0.0000 0.0000
# 2 48.7573 127.3475 59.1820 0.0000 0.0000 0.0000
# 3 48.0509 59.1820 106.7586 0.0000 0.0000 0.0000
# 4 0.0000 0.0000 0.0000 12.8346 0.0000 0.0000
# 5 0.0000 0.0000 0.0000 0.0000 23.1696 0.0000
# 6 0.0000 0.0000 0.0000 0.0000 0.0000 16.6494
#
#
#
# Elastic Compliance Matrix: (Units=1/GPa)
#
#
# Indices 1 2 3 4 5 6 
#
# 1 0.020154 -0.004716 -0.006457 0.000000 0.000000 0.000000
# 2 -0.004716 0.011681 -0.004353 0.000000 0.000000 0.000000
# 3 -0.006457 -0.004353 0.014686 0.000000 0.000000 0.000000
# 4 0.000000 0.000000 0.000000 0.077914 0.000000 0.000000
# 5 0.000000 0.000000 0.000000 0.000000 0.043160 0.000000
# 6 0.000000 0.000000 0.000000 0.000000 0.000000 0.060062
#
#
# Mechanical properties :
#
#
# Convention : Reuss Voigt Hill
#
# Bulk Modulus (GPa) = 64.64096 69.16755 66.90425
# Shear Modulus (GPa) = 18.94910 20.83320 19.89115
#
# Velocity S-wave (km/s) = 3.18778 3.34251 3.26606
# Velocity P-wave (km/s) = 6.94368 7.21037 7.07828
#
# Compressibility (1/GPa) = 0.01547007
#
# Stress axis : x y z
#
# Youngs Moduli (GPa) = 49.61855 85.60999 68.09124
#
# Poissons Ratio (x) = 0.40370 0.43966
# Poissons Ratio (y) = 0.23398 0.29640
# Poissons Ratio (z) = 0.32038 0.37265
#
# Static dielectric constant tensor:
#      x y z
#    x 1.703370 0.000000 0.000000 
#    y 0.000000 1.776040 0.000000 
#    z 0.000000 0.000000 1.652130 
# 
# From -- ./inp_files/16560.got.cif
#   From: 2010.05.17/outbox.cif.g08.bks.cpg/sg37_9_cif.got.tgz:16560.got - 2010.06.03 17:53:42.
