data_PCOD9354431
_publ_section_title
;
Structure prediction by ZEFSAII (Michael W. Deem and Ramdas Pophale) SiO2 
 PCOD9354431
Probable space group: C C C 2
;
_chemical_formula_sum "Si O2"
_cell_formula_units_Z 48
_cell_length_a 15.496967
_cell_length_b 9.590669
_cell_length_c 14.892756
_cell_angle_alpha 90.000000
_cell_angle_beta 90.000000
_cell_angle_gamma 90.000000
_cell_volume 2213.454938
_symmetry_space_group_name_H-M "C C C 2"
_symmetry_group_IT_number 37
_symmetry_cell_setting 'orthorhombic'
loop_
_space_group_symop_operation_xyz
x,y,z
-x,-y,z
-x,y,1/2+z
x,-y,1/2+z
1/2+x,1/2+y,z
1/2-x,1/2-y,z
1/2-x,1/2+y,1/2+z
1/2+x,1/2-y,1/2+z
loop_
_atom_site_type_symbol
_atom_site_label
_atom_site_fract_x
_atom_site_fract_y
_atom_site_fract_z
Si Si1 0.237962 0.974283 0.372920
Si Si2 0.890698 0.717828 0.912956
Si Si3 0.676005 0.347833 0.034081
Si Si4 0.502402 0.272284 0.246093
Si Si5 0.509783 0.840991 0.558129
Si Si6 0.358246 0.484158 0.202976
O O1 0.171193 0.848141 0.392857
O O2 0.332362 0.917980 0.396258
O O3 0.223950 0.006804 0.268197
O O4 0.208665 0.097527 0.438398
O O5 0.971487 0.719207 0.844093
O O6 0.926838 0.729961 0.012971
O O7 0.750000 0.250000 0.075866
O O8 0.591459 0.251441 0.027771
O O9 0.662723 0.480150 0.100009
O O10 0.511352 0.163813 0.165573
O O11 0.410619 0.346392 0.230941
O O12 0.574499 0.391186 0.226351
O O13 0.500000 0.000000 0.527211
#
# Coordination Sequence:
#
# PCOD9354431 Si02
#       6
#     8   8   8   8   8   8
#     4  10  21  38  64  93 125 164 209 262 317 389
#     4  10  21  38  63  91 127 162 205 259 324 379
#     4  11  23  38  64  91 128 168 218 266 322 383
#     4   9  19  36  59  91 119 162 210 257 313 379
#     4  11  23  38  59  86 126 167 210 262 321 376
#     4   9  19  35  63  90 120 161 212 260 311 378
#
# _framework density 21.685555000000001
#
# number of rings (size 3 to 8) (size 9 to 14) (size 15 to 20)
#    0.000    2.000    0.000    3.000    7.000    4.000 
#    0.000    1.667    3.667    0.000    0.000    0.000 
#    0.000    0.000    0.000    0.000    0.000    0.000 
#
# Total GULP energy -133906.446867 kJ/mol
# GULP energy per Si atom -5579.435286 kJ/mol
# Density = 2.163620 g / cm^3
# Si number density = 21.685555 Si / 1000 Ang^3
#
#
#
# Elastic Constant Matrix: (Units=GPa)
#
#
# Indices 1 2 3 4 5 6 
#
# 1 82.0604 31.7358 22.8128 0.0000 0.0000 0.0000
# 2 31.7358 80.3634 26.6183 0.0000 0.0000 0.0000
# 3 22.8128 26.6183 88.7155 0.0000 0.0000 0.0000
# 4 0.0000 0.0000 0.0000 20.3884 0.0000 0.0000
# 5 0.0000 0.0000 0.0000 0.0000 17.0815 0.0000
# 6 0.0000 0.0000 0.0000 0.0000 0.0000 28.5200
#
#
#
# Elastic Compliance Matrix: (Units=1/GPa)
#
#
# Indices 1 2 3 4 5 6 
#
# 1 0.014785 -0.005085 -0.002276 0.000000 0.000000 0.000000
# 2 -0.005085 0.015565 -0.003363 0.000000 0.000000 0.000000
# 3 -0.002276 -0.003363 0.012866 0.000000 0.000000 0.000000
# 4 0.000000 0.000000 0.000000 0.049047 0.000000 0.000000
# 5 0.000000 0.000000 0.000000 0.000000 0.058543 0.000000
# 6 0.000000 0.000000 0.000000 0.000000 0.000000 0.035063
#
#
# Mechanical properties :
#
#
# Convention : Reuss Voigt Hill
#
# Bulk Modulus (GPa) = 45.93629 45.94145 45.93887
# Shear Modulus (GPa) = 23.30189 24.52946 23.91568
#
# Velocity S-wave (km/s) = 3.28157 3.36690 3.32450
# Velocity P-wave (km/s) = 5.96549 6.02876 5.99721
#
# Compressibility (1/GPa) = 0.02176928
#
# Stress axis : x y z
#
# Youngs Moduli (GPa) = 67.63397 64.24541 77.72250
#
# Poissons Ratio (x) = 0.32668 0.17692
# Poissons Ratio (y) = 0.34391 0.26136
# Poissons Ratio (z) = 0.15396 0.21604
#
# Static dielectric constant tensor:
#      x y z
#    x 1.784610 0.000000 0.000000 
#    y 0.000000 1.834700 0.000000 
#    z 0.000000 0.000000 1.781410 
# 
# From -- ./inp_files/15229.got.cif
#   From: 2010.05.17/outbox.cif.g08.bks.cpg/sg37_8_cif.got.tgz:15229.got - 2010.06.03 17:53:42.
