data_PCOD9354487
_publ_section_title
;
Structure prediction by ZEFSAII (Michael W. Deem and Ramdas Pophale) SiO2 
 PCOD9354487
Probable space group: C C C 2
;
_chemical_formula_sum "Si O2"
_cell_formula_units_Z 48
_cell_length_a 14.541004
_cell_length_b 8.248686
_cell_length_c 17.580099
_cell_angle_alpha 90.000000
_cell_angle_beta 90.000000
_cell_angle_gamma 90.000000
_cell_volume 2108.630491
_symmetry_space_group_name_H-M "C C C 2"
_symmetry_group_IT_number 37
_symmetry_cell_setting 'orthorhombic'
loop_
_space_group_symop_operation_xyz
x,y,z
-x,-y,z
-x,y,1/2+z
x,-y,1/2+z
1/2+x,1/2+y,z
1/2-x,1/2-y,z
1/2-x,1/2+y,1/2+z
1/2+x,1/2-y,1/2+z
loop_
_atom_site_type_symbol
_atom_site_label
_atom_site_fract_x
_atom_site_fract_y
_atom_site_fract_z
Si Si1 0.658468 0.146320 0.234580
Si Si2 0.665350 0.147461 0.413065
Si Si3 0.853935 0.292161 0.928886
Si Si4 0.646723 0.205028 0.654749
Si Si5 0.969005 0.180355 0.784912
Si Si6 0.512864 0.195491 0.515919
O O1 0.750000 0.250000 0.209772
O O2 0.676529 0.110958 0.324029
O O3 0.558503 0.235331 0.244786
O O4 0.645781 0.981676 0.186106
O O5 0.750000 0.250000 0.439064
O O6 0.573898 0.234815 0.440984
O O7 0.660741 0.976855 0.452634
O O8 0.750000 0.250000 0.910515
O O9 0.918741 0.272350 0.854899
O O10 0.914084 0.222296 0.999148
O O11 0.750000 0.250000 0.632599
O O12 0.612007 0.319855 0.722797
O O13 0.573984 0.235347 0.587953
O O14 0.000000 0.000000 0.807029
O O15 0.500000 0.000000 0.520437
#
# Coordination Sequence:
#
# PCOD9354487 Si02
#       6
#     8   8   8   8   8   8
#     4  11  23  41  71 103 139 181 232 283 342 413
#     4  10  21  39  67 100 133 178 227 279 342 408
#     4  11  24  41  68 102 139 178 236 290 339 410
#     4  12  25  45  72 103 141 184 229 288 356 415
#     4  12  25  42  66 104 144 185 238 287 344 410
#     4  10  22  44  68 100 136 186 224 276 352 418
#
# _framework density 22.763590000000001
#
# number of rings (size 3 to 8) (size 9 to 14) (size 15 to 20)
#    0.000    1.000    3.333    3.500    4.667    0.000 
#    0.000   13.333    0.000    2.000    0.000    0.000 
#    0.000    0.000    0.000    0.000    0.000    0.000 
#
# Total GULP energy -133707.928127 kJ/mol
# GULP energy per Si atom -5571.163672 kJ/mol
# Density = 2.271178 g / cm^3
# Si number density = 22.763590 Si / 1000 Ang^3
#
#
#
# Elastic Constant Matrix: (Units=GPa)
#
#
# Indices 1 2 3 4 5 6 
#
# 1 155.5857 24.7334 63.3057 0.0000 0.0000 0.0000
# 2 24.7334 63.3092 6.4609 0.0000 0.0000 0.0000
# 3 63.3057 6.4609 76.9971 0.0000 0.0000 0.0000
# 4 0.0000 0.0000 0.0000 8.3954 0.0000 0.0000
# 5 0.0000 0.0000 0.0000 0.0000 63.1412 0.0000
# 6 0.0000 0.0000 0.0000 0.0000 0.0000 37.1925
#
#
#
# Elastic Compliance Matrix: (Units=1/GPa)
#
#
# Indices 1 2 3 4 5 6 
#
# 1 0.010254 -0.003173 -0.008164 0.000000 0.000000 0.000000
# 2 -0.003173 0.016914 0.001189 0.000000 0.000000 0.000000
# 3 -0.008164 0.001189 0.019600 0.000000 0.000000 0.000000
# 4 0.000000 0.000000 0.000000 0.119112 0.000000 0.000000
# 5 0.000000 0.000000 0.000000 0.000000 0.015838 0.000000
# 6 0.000000 0.000000 0.000000 0.000000 0.000000 0.026887
#
#
# Mechanical properties :
#
#
# Convention : Reuss Voigt Hill
#
# Bulk Modulus (GPa) = 37.77536 53.87690 45.82613
# Shear Modulus (GPa) = 21.03287 35.17196 28.10242
#
# Velocity S-wave (km/s) = 3.04299 3.93504 3.51740
# Velocity P-wave (km/s) = 5.38303 6.66074 6.05568
#
# Compressibility (1/GPa) = 0.02647229
#
# Stress axis : x y z
#
# Youngs Moduli (GPa) = 97.52750 59.12401 51.02029
#
# Poissons Ratio (x) = 0.18758 0.41653
# Poissons Ratio (y) = 0.30942 -0.06068
# Poissons Ratio (z) = 0.79622 -0.07031
#
# Static dielectric constant tensor:
#      x y z
#    x 1.637890 0.000000 0.000000 
#    y 0.000000 1.859980 0.000000 
#    z 0.000000 0.000000 1.887890 
# 
# From -- ./inp_files/15235.got.cif
#   From: 2010.05.17/outbox.cif.g08.bks.cpg/sg37_8_cif.got.tgz:15235.got - 2010.06.03 17:53:42.
