data_PCOD9354153
_publ_section_title
;
Structure prediction by ZEFSAII (Michael W. Deem and Ramdas Pophale) SiO2 
 PCOD9354153
Probable space group: C C C 2
;
_chemical_formula_sum "Si O2"
_cell_formula_units_Z 40
_cell_length_a 18.910042
_cell_length_b 10.272627
_cell_length_c 8.752171
_cell_angle_alpha 90.000000
_cell_angle_beta 90.000000
_cell_angle_gamma 90.000000
_cell_volume 1700.160050
_symmetry_space_group_name_H-M "C C C 2"
_symmetry_group_IT_number 37
_symmetry_cell_setting 'orthorhombic'
loop_
_space_group_symop_operation_xyz
x,y,z
-x,-y,z
-x,y,1/2+z
x,-y,1/2+z
1/2+x,1/2+y,z
1/2-x,1/2-y,z
1/2-x,1/2+y,1/2+z
1/2+x,1/2-y,1/2+z
loop_
_atom_site_type_symbol
_atom_site_label
_atom_site_fract_x
_atom_site_fract_y
_atom_site_fract_z
Si Si1 0.368960 0.163187 0.016080
Si Si2 0.500000 0.500000 0.664605
Si Si3 0.347905 0.091533 0.681684
Si Si4 0.123635 0.151632 0.264693
Si Si5 0.472317 0.223363 0.505488
Si Si6 0.250000 0.750000 0.956671
O O1 0.357717 0.303090 0.093247
O O2 0.453045 0.154045 0.985439
O O3 0.346980 0.060710 0.145571
O O4 0.333762 0.130037 0.855664
O O5 0.426693 0.525232 0.756356
O O6 0.487396 0.368802 0.569154
O O7 0.423250 0.148216 0.625106
O O8 0.293668 0.157039 0.566697
O O9 0.070855 0.255281 0.348635
O O10 0.195372 0.162329 0.359387
#
# Coordination Sequence:
#
# PCOD9354153 Si02
#       6
#     8   4   8   8   8   4
#     4  11  22  40  69  94 130 172 226 281 348 401
#     4  10  20  38  68 102 132 180 228 284 344 406
#     4  11  23  41  63  98 133 176 222 279 343 413
#     4  10  22  43  68  97 140 174 231 280 346 414
#     4  10  21  38  64 100 136 169 223 282 335 403
#     4  10  24  46  62  98 140 180 230 282 344 432
#
# _framework density 23.527194999999999
#
# number of rings (size 3 to 8) (size 9 to 14) (size 15 to 20)
#    0.000    1.600    0.000    6.000    0.000    4.000 
#   14.400    0.000    0.000    0.000    0.000    0.000 
#    0.000    0.000    0.000    0.000    0.000    0.000 
#
# Total GULP energy -111838.299980 kJ/mol
# GULP energy per Si atom -5591.914999 kJ/mol
# Density = 2.347365 g / cm^3
# Si number density = 23.527195 Si / 1000 Ang^3
#
#
#
# Elastic Constant Matrix: (Units=GPa)
#
#
# Indices 1 2 3 4 5 6 
#
# 1 120.2019 24.0775 45.0787 0.0000 0.0000 0.0000
# 2 24.0775 60.1616 15.6045 0.0000 0.0000 0.0000
# 3 45.0787 15.6045 138.7990 0.0000 0.0000 0.0000
# 4 0.0000 0.0000 0.0000 22.1066 0.0000 0.0000
# 5 0.0000 0.0000 0.0000 0.0000 19.9383 0.0000
# 6 0.0000 0.0000 0.0000 0.0000 0.0000 22.1679
#
#
#
# Elastic Compliance Matrix: (Units=1/GPa)
#
#
# Indices 1 2 3 4 5 6 
#
# 1 0.010063 -0.003275 -0.002900 0.000000 0.000000 0.000000
# 2 -0.003275 0.018187 -0.000981 0.000000 0.000000 0.000000
# 3 -0.002900 -0.000981 0.008257 0.000000 0.000000 0.000000
# 4 0.000000 0.000000 0.000000 0.045235 0.000000 0.000000
# 5 0.000000 0.000000 0.000000 0.000000 0.050155 0.000000
# 6 0.000000 0.000000 0.000000 0.000000 0.000000 0.045110
#
#
# Mechanical properties :
#
#
# Convention : Reuss Voigt Hill
#
# Bulk Modulus (GPa) = 45.05604 54.29820 49.67712
# Shear Modulus (GPa) = 25.16133 28.46936 26.81534
#
# Velocity S-wave (km/s) = 3.27380 3.48237 3.37969
# Velocity P-wave (km/s) = 5.78641 6.26883 6.03244
#
# Compressibility (1/GPa) = 0.02219458
#
# Stress axis : x y z
#
# Youngs Moduli (GPa) = 99.37454 54.98399 121.11222
#
# Poissons Ratio (x) = 0.18008 0.35123
# Poissons Ratio (y) = 0.32546 0.11881
# Poissons Ratio (z) = 0.28819 0.05394
#
# Static dielectric constant tensor:
#      x y z
#    x 1.911050 0.000000 0.000000 
#    y 0.000000 1.920950 0.000000 
#    z 0.000000 0.000000 1.919590 
# 
# From -- ./inp_files/2857.got.cif
#   From: 2010.05.17/outbox.cif.g08.bks.cpg/sg37_2_cif.got.tgz:2857.got - 2010.06.03 17:53:42.
