data_PCOD9354327
_publ_section_title
;
Structure prediction by ZEFSAII (Michael W. Deem and Ramdas Pophale) SiO2 
 PCOD9354327
Probable space group: C C C 2
;
_chemical_formula_sum "Si O2"
_cell_formula_units_Z 36
_cell_length_a 24.414974
_cell_length_b 5.974416
_cell_length_c 10.283203
_cell_angle_alpha 90.000000
_cell_angle_beta 90.000000
_cell_angle_gamma 90.000000
_cell_volume 1499.961578
_symmetry_space_group_name_H-M "C C C 2"
_symmetry_group_IT_number 37
_symmetry_cell_setting 'orthorhombic'
loop_
_space_group_symop_operation_xyz
x,y,z
-x,-y,z
-x,y,1/2+z
x,-y,1/2+z
1/2+x,1/2+y,z
1/2-x,1/2-y,z
1/2-x,1/2+y,1/2+z
1/2+x,1/2-y,1/2+z
loop_
_atom_site_type_symbol
_atom_site_label
_atom_site_fract_x
_atom_site_fract_y
_atom_site_fract_z
Si Si1 0.800771 0.864606 0.592990
Si Si2 0.250000 0.250000 0.275544
Si Si3 0.557822 0.383481 0.696024
Si Si4 0.112206 0.117956 0.933667
Si Si5 0.363905 0.001768 0.264192
O O1 0.750000 0.750000 0.516781
O O2 0.839599 0.678155 0.659435
O O3 0.771722 0.023903 0.698431
O O4 0.832717 0.027383 0.497595
O O5 0.187932 0.346936 0.303642
O O6 0.500000 0.500000 0.727736
O O7 0.597213 0.500149 0.800137
O O8 0.568361 0.431545 0.544985
O O9 0.581709 0.129896 0.712020
O O10 0.118262 0.373902 0.894466
#
# Coordination Sequence:
#
# PCOD9354327 Si02
#       5
#     8   4   8   8   8
#     4  10  23  47  75 117 163 216 260 323 409 495
#     4  10  20  48  70 116 168 210 256 324 402 500
#     4  12  29  53  81 111 158 212 281 348 408 491
#     4  12  25  52  76 120 162 205 280 335 411 490
#     4  11  24  47  80 117 162 212 268 338 410 500
#
# _framework density 24.000613000000001
#
# number of rings (size 3 to 8) (size 9 to 14) (size 15 to 20)
#    0.000    0.889    4.444    0.667    3.111    0.889 
#   26.000    2.222    0.000    0.000    0.000    0.000 
#    0.000    0.000    0.000    0.000    0.000    0.000 
#
# Total GULP energy -100328.977849 kJ/mol
# GULP energy per Si atom -5573.832103 kJ/mol
# Density = 2.394599 g / cm^3
# Si number density = 24.000613 Si / 1000 Ang^3
#
#
#
# Elastic Constant Matrix: (Units=GPa)
#
#
# Indices 1 2 3 4 5 6 
#
# 1 130.2585 40.7351 17.8399 0.0000 0.0000 0.0000
# 2 40.7351 77.0638 1.1042 0.0000 0.0000 0.0000
# 3 17.8399 1.1042 31.2343 0.0000 0.0000 0.0000
# 4 0.0000 0.0000 0.0000 49.4017 0.0000 0.0000
# 5 0.0000 0.0000 0.0000 0.0000 45.1525 0.0000
# 6 0.0000 0.0000 0.0000 0.0000 0.0000 37.0720
#
#
#
# Elastic Compliance Matrix: (Units=1/GPa)
#
#
# Indices 1 2 3 4 5 6 
#
# 1 0.010082 -0.005249 -0.005573 0.000000 0.000000 0.000000
# 2 -0.005249 0.015716 0.002443 0.000000 0.000000 0.000000
# 3 -0.005573 0.002443 0.035113 0.000000 0.000000 0.000000
# 4 0.000000 0.000000 0.000000 0.020242 0.000000 0.000000
# 5 0.000000 0.000000 0.000000 0.000000 0.022147 0.000000
# 6 0.000000 0.000000 0.000000 0.000000 0.000000 0.026975
#
#
# Mechanical properties :
#
#
# Convention : Reuss Voigt Hill
#
# Bulk Modulus (GPa) = 22.64926 39.76833 31.20879
# Shear Modulus (GPa) = 30.91177 38.25040 34.58108
#
# Velocity S-wave (km/s) = 3.59271 3.99648 3.79996
# Velocity P-wave (km/s) = 5.16406 6.15642 5.68194
#
# Compressibility (1/GPa) = 0.04415156
#
# Stress axis : x y z
#
# Youngs Moduli (GPa) = 99.18785 63.62945 28.47972
#
# Poissons Ratio (x) = 0.33401 0.15871
# Poissons Ratio (y) = 0.52067 -0.06957
# Poissons Ratio (z) = 0.55276 -0.15542
#
# Static dielectric constant tensor:
#      x y z
#    x 1.962560 0.000000 0.000000 
#    y 0.000000 2.039850 0.000000 
#    z 0.000000 0.000000 2.033590 
# 
# From -- ./inp_files/8762.got.cif
#   From: 2010.05.17/outbox.cif.g08.bks.cpg/sg37_5_cif.got.tgz:8762.got - 2010.06.03 17:53:42.
