data_PCOD9354318
_publ_section_title
;
Structure prediction by ZEFSAII (Michael W. Deem and Ramdas Pophale) SiO2 
 PCOD9354318
Probable space group: C C C 2
;
_chemical_formula_sum "Si O2"
_cell_formula_units_Z 44
_cell_length_a 6.076794
_cell_length_b 12.711294
_cell_length_c 23.992631
_cell_angle_alpha 90.000000
_cell_angle_beta 90.000000
_cell_angle_gamma 90.000000
_cell_volume 1853.284752
_symmetry_space_group_name_H-M "C C C 2"
_symmetry_group_IT_number 37
_symmetry_cell_setting 'orthorhombic'
loop_
_space_group_symop_operation_xyz
x,y,z
-x,-y,z
-x,y,1/2+z
x,-y,1/2+z
1/2+x,1/2+y,z
1/2-x,1/2-y,z
1/2-x,1/2+y,1/2+z
1/2+x,1/2-y,1/2+z
loop_
_atom_site_type_symbol
_atom_site_label
_atom_site_fract_x
_atom_site_fract_y
_atom_site_fract_z
Si Si1 0.000000 0.500000 0.587920
Si Si2 0.884051 0.884649 0.535733
Si Si3 0.130457 0.852601 0.642939
Si Si4 0.500000 0.500000 0.730638
Si Si5 0.000000 0.500000 0.404545
Si Si6 0.814723 0.134976 0.825314
Si Si7 0.094583 0.883440 0.426221
O O1 0.865237 0.583748 0.549956
O O2 0.820155 0.436816 0.624931
O O3 0.993263 0.825821 0.587551
O O4 0.962440 0.832957 0.477659
O O5 0.000000 0.000000 0.535848
O O6 0.250000 0.750000 0.664883
O O7 0.965356 0.904590 0.687420
O O8 0.336381 0.554581 0.774226
O O9 0.144771 0.422918 0.366177
O O10 0.152136 0.585849 0.436395
O O11 0.750000 0.250000 0.805735
O O12 0.031569 0.156307 0.864705
O O13 0.000000 0.000000 0.423477
#
# Coordination Sequence:
#
# PCOD9354318 Si02
#       7
#     4   8   8   4   4   8   8
#     4  10  20  44  70  94 138 181 219 284 350 412
#     4   9  19  39  65  99 135 173 224 282 350 420
#     4  11  24  43  66 100 134 179 236 284 344 413
#     4  12  22  50  64  94 148 176 240 300 322 410
#     4  10  20  44  70  94 138 181 219 284 350 412
#     4  11  24  43  66 100 134 179 236 284 344 413
#     4   9  19  39  65  99 135 173 224 282 350 420
#
# _framework density 23.741629
#
# number of rings (size 3 to 8) (size 9 to 14) (size 15 to 20)
#    0.000    1.818    5.455    0.545    0.000   13.818 
#    6.545    1.818    0.000    0.000    0.000    0.000 
#    0.000    0.000    0.000    0.000    0.000    0.000 
#
# Total GULP energy -122499.802094 kJ/mol
# GULP energy per Si atom -5568.172822 kJ/mol
# Density = 2.368759 g / cm^3
# Si number density = 23.741629 Si / 1000 Ang^3
#
#
#
# Elastic Constant Matrix: (Units=GPa)
#
#
# Indices 1 2 3 4 5 6 
#
# 1 98.4334 31.1689 40.0409 0.0000 0.0000 0.0000
# 2 31.1689 100.0818 32.6862 0.0000 0.0000 0.0000
# 3 40.0409 32.6862 124.8094 0.0000 0.0000 0.0000
# 4 0.0000 0.0000 0.0000 -2.3288 0.0000 0.0000
# 5 0.0000 0.0000 0.0000 0.0000 445.2249 0.0000
# 6 0.0000 0.0000 0.0000 0.0000 0.0000 29.4737
#
#
#
# Elastic Compliance Matrix: (Units=1/GPa)
#
#
# Indices 1 2 3 4 5 6 
#
# 1 0.012359 -0.002793 -0.003233 0.000000 0.000000 0.000000
# 2 -0.002793 0.011558 -0.002131 0.000000 0.000000 0.000000
# 3 -0.003233 -0.002131 0.009608 0.000000 0.000000 0.000000
# 4 0.000000 0.000000 0.000000 -0.429404 0.000000 0.000000
# 5 0.000000 0.000000 0.000000 0.000000 0.002246 0.000000
# 6 0.000000 0.000000 0.000000 0.000000 0.000000 0.033929
#
#
# Mechanical properties :
#
#
# Convention : Reuss Voigt Hill
#
# Bulk Modulus (GPa) = 58.10706 59.01296 58.56001
# Shear Modulus (GPa) = -14.80803 109.10255 47.14726
#
# Velocity S-wave (km/s) = -2.50014 6.78630 4.46112
# Velocity P-wave (km/s) = 4.02413 9.29061 7.15923
#
# Compressibility (1/GPa) = 0.01720961
#
# Stress axis : x y z
#
# Youngs Moduli (GPa) = 80.91366 86.52363 104.08430
#
# Poissons Ratio (x) = 0.24165 0.33655
# Poissons Ratio (y) = 0.22599 0.22178
# Poissons Ratio (z) = 0.26163 0.18436
#
# Static dielectric constant tensor:
#      x y z
#    x 1.945010 0.000000 0.000000 
#    y 0.000000 1.844990 0.000000 
#    z 0.000000 0.000000 2.002680 
# 
# From -- ./inp_files/19273.got.cif
#   From: 2010.05.17/outbox.cif.g08.bks.cpg/sg37_10_cif.got.tgz:19273.got - 2010.06.03 17:53:42.
