data_PCOD9354284
_publ_section_title
;
Structure prediction by ZEFSAII (Michael W. Deem and Ramdas Pophale) SiO2 
 PCOD9354284
Probable space group: C C C 2
;
_chemical_formula_sum "Si O2"
_cell_formula_units_Z 44
_cell_length_a 7.449712
_cell_length_b 19.882938
_cell_length_c 12.786595
_cell_angle_alpha 90.000000
_cell_angle_beta 90.000000
_cell_angle_gamma 90.000000
_cell_volume 1893.978094
_symmetry_space_group_name_H-M "C C C 2"
_symmetry_group_IT_number 37
_symmetry_cell_setting 'orthorhombic'
loop_
_space_group_symop_operation_xyz
x,y,z
-x,-y,z
-x,y,1/2+z
x,-y,1/2+z
1/2+x,1/2+y,z
1/2-x,1/2-y,z
1/2-x,1/2+y,1/2+z
1/2+x,1/2-y,1/2+z
loop_
_atom_site_type_symbol
_atom_site_label
_atom_site_fract_x
_atom_site_fract_y
_atom_site_fract_z
Si Si1 0.630615 0.382187 0.659610
Si Si2 0.231379 0.071808 0.942911
Si Si3 0.895006 0.689418 0.805012
Si Si4 0.304964 0.577871 0.895169
Si Si5 0.250000 0.250000 0.246519
Si Si6 0.756460 0.667964 0.587683
O O1 0.732382 0.419103 0.567100
O O2 0.693707 0.408899 0.771736
O O3 0.682956 0.305540 0.667680
O O4 0.418045 0.372815 0.635522
O O5 0.338917 0.129212 0.881232
O O6 0.019300 0.080004 0.916989
O O7 0.275649 0.995619 0.914223
O O8 0.750000 0.750000 0.813062
O O9 0.892678 0.662610 0.685069
O O10 0.086249 0.724816 0.816941
O O11 0.218545 0.629897 0.977776
O O12 0.750000 0.750000 0.571574
#
# Coordination Sequence:
#
# PCOD9354284 Si02
#       6
#     8   8   8   8   4   8
#     4  11  23  42  66 107 144 194 252 296 382 445
#     4  10  23  40  72 106 152 200 246 315 363 464
#     4  11  22  46  72 107 140 190 251 319 380 436
#     4  10  22  39  73 109 146 206 247 301 383 463
#     4  12  24  44  76 102 140 192 246 322 368 456
#     4  10  20  42  68 102 146 190 249 314 370 439
#
# _framework density 23.231525000000001
#
# number of rings (size 3 to 8) (size 9 to 14) (size 15 to 20)
#    0.000    1.455    5.455    0.000    5.091    1.455 
#    3.273    0.909    0.000    0.000    0.000    0.000 
#    0.000    0.000    0.000    0.000    0.000    0.000 
#
# Total GULP energy -122832.432868 kJ/mol
# GULP energy per Si atom -5583.292403 kJ/mol
# Density = 2.317865 g / cm^3
# Si number density = 23.231525 Si / 1000 Ang^3
#
#
#
# Elastic Constant Matrix: (Units=GPa)
#
#
# Indices 1 2 3 4 5 6 
#
# 1 113.7329 30.5103 33.8054 0.0000 0.0000 0.0000
# 2 30.5103 111.0587 81.0654 0.0000 0.0000 0.0000
# 3 33.8054 81.0654 207.0040 0.0000 0.0000 0.0000
# 4 0.0000 0.0000 0.0000 78.1474 0.0000 0.0000
# 5 0.0000 0.0000 0.0000 0.0000 17.2883 0.0000
# 6 0.0000 0.0000 0.0000 0.0000 0.0000 20.2657
#
#
#
# Elastic Compliance Matrix: (Units=1/GPa)
#
#
# Indices 1 2 3 4 5 6 
#
# 1 0.009574 -0.002085 -0.000747 0.000000 0.000000 0.000000
# 2 -0.002085 0.013062 -0.004775 0.000000 0.000000 0.000000
# 3 -0.000747 -0.004775 0.006823 0.000000 0.000000 0.000000
# 4 0.000000 0.000000 0.000000 0.012796 0.000000 0.000000
# 5 0.000000 0.000000 0.000000 0.000000 0.057843 0.000000
# 6 0.000000 0.000000 0.000000 0.000000 0.000000 0.049345
#
#
# Mechanical properties :
#
#
# Convention : Reuss Voigt Hill
#
# Bulk Modulus (GPa) = 70.19835 80.28418 75.24127
# Shear Modulus (GPa) = 29.51515 42.23459 35.87487
#
# Velocity S-wave (km/s) = 3.56824 4.26841 3.93394
# Velocity P-wave (km/s) = 6.87451 7.67631 7.28645
#
# Compressibility (1/GPa) = 0.01424535
#
# Stress axis : x y z
#
# Youngs Moduli (GPa) = 104.45100 76.55582 146.56885
#
# Poissons Ratio (x) = 0.15961 0.10949
# Poissons Ratio (y) = 0.21777 0.69985
# Poissons Ratio (z) = 0.07803 0.36555
#
# Static dielectric constant tensor:
#      x y z
#    x 1.957860 0.000000 0.000000 
#    y 0.000000 1.878900 0.000000 
#    z 0.000000 0.000000 1.902480 
# 
# From -- ./inp_files/11458.got.cif
#   From: 2010.05.17/outbox.cif.g08.bks.cpg/sg37_6_cif.got.tgz:11458.got - 2010.06.03 17:53:42.
