data_PCOD9354684
_publ_section_title
;
Structure prediction by ZEFSAII (Michael W. Deem and Ramdas Pophale) SiO2 
 PCOD9354684
Probable space group: C C C 2
;
_chemical_formula_sum "Si O2"
_cell_formula_units_Z 44
_cell_length_a 7.750319
_cell_length_b 12.408687
_cell_length_c 19.390529
_cell_angle_alpha 90.000000
_cell_angle_beta 90.000000
_cell_angle_gamma 90.000000
_cell_volume 1864.812045
_symmetry_space_group_name_H-M "C C C 2"
_symmetry_group_IT_number 37
_symmetry_cell_setting 'orthorhombic'
loop_
_space_group_symop_operation_xyz
x,y,z
-x,-y,z
-x,y,1/2+z
x,-y,1/2+z
1/2+x,1/2+y,z
1/2-x,1/2-y,z
1/2-x,1/2+y,1/2+z
1/2+x,1/2-y,1/2+z
loop_
_atom_site_type_symbol
_atom_site_label
_atom_site_fract_x
_atom_site_fract_y
_atom_site_fract_z
Si Si1 0.742149 0.988052 0.025180
Si Si2 0.500000 0.500000 0.648694
Si Si3 0.454068 0.734576 0.852769
Si Si4 0.984664 0.688895 0.000406
Si Si5 0.750000 0.250000 0.093540
Si Si6 0.500000 0.500000 0.400223
Si Si7 0.542401 0.738527 0.198539
O O1 0.688433 0.862118 0.030108
O O2 0.839656 0.009893 0.096293
O O3 0.605849 0.084637 0.015946
O O4 0.842870 0.993909 0.953538
O O5 0.489639 0.610305 0.690491
O O6 0.250000 0.750000 0.862986
O O7 0.493180 0.608143 0.856668
O O8 0.495233 0.776277 0.776593
O O9 0.537416 0.789100 0.919781
O O10 0.097452 0.782152 0.036560
O O11 0.601618 0.208294 0.148098
O O12 0.750000 0.750000 0.185599
#
# Coordination Sequence:
#
# PCOD9354684 Si02
#       7
#     8   4   8   8   4   4   8
#     4  10  22  36  69 101 129 175 235 298 349 412
#     4  11  21  46  62 102 138 178 240 292 346 434
#     4  11  23  43  65  96 143 182 225 296 349 434
#     4  11  21  41  66 100 135 174 231 296 350 417
#     4  12  22  44  66  96 136 180 230 292 348 424
#     4  11  21  40  64  98 130 186 228 278 374 412
#     4  11  26  43  68  98 139 189 232 285 366 421
#
# _framework density 23.594871000000001
#
# number of rings (size 3 to 8) (size 9 to 14) (size 15 to 20)
#    0.000    1.091    4.545    1.636    2.545    2.182 
#    0.000    0.000    0.000    0.000    0.000    0.000 
#    0.000    0.000    0.000    0.000    0.000    0.000 
#
# Total GULP energy -122547.742411 kJ/mol
# GULP energy per Si atom -5570.351928 kJ/mol
# Density = 2.354117 g / cm^3
# Si number density = 23.594871 Si / 1000 Ang^3
#
#
#
# Elastic Constant Matrix: (Units=GPa)
#
#
# Indices 1 2 3 4 5 6 
#
# 1 51.6818 15.7738 41.6603 0.0000 0.0000 0.0000
# 2 15.7738 101.1376 16.4729 0.0000 0.0000 0.0000
# 3 41.6603 16.4729 160.6635 0.0000 0.0000 0.0000
# 4 0.0000 0.0000 0.0000 49.4325 0.0000 0.0000
# 5 0.0000 0.0000 0.0000 0.0000 105.9652 0.0000
# 6 0.0000 0.0000 0.0000 0.0000 0.0000 44.0178
#
#
#
# Elastic Compliance Matrix: (Units=1/GPa)
#
#
# Indices 1 2 3 4 5 6 
#
# 1 0.025285 -0.002925 -0.006257 0.000000 0.000000 0.000000
# 2 -0.002925 0.010394 -0.000307 0.000000 0.000000 0.000000
# 3 -0.006257 -0.000307 0.007878 0.000000 0.000000 0.000000
# 4 0.000000 0.000000 0.000000 0.020230 0.000000 0.000000
# 5 0.000000 0.000000 0.000000 0.000000 0.009437 0.000000
# 6 0.000000 0.000000 0.000000 0.000000 0.000000 0.022718
#
#
# Mechanical properties :
#
#
# Convention : Reuss Voigt Hill
#
# Bulk Modulus (GPa) = 40.68352 51.25519 45.96936
# Shear Modulus (GPa) = 40.61341 55.85482 48.23412
#
# Velocity S-wave (km/s) = 4.15333 4.87071 4.52626
# Velocity P-wave (km/s) = 6.34667 7.30766 6.84405
#
# Compressibility (1/GPa) = 0.02457998
#
# Stress axis : x y z
#
# Youngs Moduli (GPa) = 39.54878 96.21214 126.93472
#
# Poissons Ratio (x) = 0.28137 0.79419
# Poissons Ratio (y) = 0.11566 0.03901
# Poissons Ratio (z) = 0.24744 0.02957
#
# Static dielectric constant tensor:
#      x y z
#    x 2.100130 0.000000 0.000000 
#    y 0.000000 2.374720 0.000000 
#    z 0.000000 0.000000 1.863220 
# 
# From -- ./inp_files/14458.got.cif
#   From: 2010.05.17/outbox.cif.g08.bks.cpg/sg37_8_cif.got.tgz:14458.got - 2010.06.03 17:53:42.
