data_PCOD9354375
_publ_section_title
;
Structure prediction by ZEFSAII (Michael W. Deem and Ramdas Pophale) SiO2 
 PCOD9354375
Probable space group: C C C 2
;
_chemical_formula_sum "Si O2"
_cell_formula_units_Z 60
_cell_length_a 20.341166
_cell_length_b 9.414894
_cell_length_c 16.243150
_cell_angle_alpha 90.000000
_cell_angle_beta 90.000000
_cell_angle_gamma 90.000000
_cell_volume 3110.724385
_symmetry_space_group_name_H-M "C C C 2"
_symmetry_group_IT_number 37
_symmetry_cell_setting 'orthorhombic'
loop_
_space_group_symop_operation_xyz
x,y,z
-x,-y,z
-x,y,1/2+z
x,-y,1/2+z
1/2+x,1/2+y,z
1/2-x,1/2-y,z
1/2-x,1/2+y,1/2+z
1/2+x,1/2-y,1/2+z
loop_
_atom_site_type_symbol
_atom_site_label
_atom_site_fract_x
_atom_site_fract_y
_atom_site_fract_z
Si Si1 0.140927 0.833496 0.147650
Si Si2 0.600729 0.690386 0.935561
Si Si3 0.023962 0.167580 0.528452
Si Si4 0.796034 0.038827 0.989356
Si Si5 0.750000 0.750000 0.765233
Si Si6 0.073523 0.011385 0.278001
Si Si7 0.686605 0.952846 0.886720
Si Si8 0.626469 0.257357 0.882123
O O1 0.185833 0.737982 0.207033
O O2 0.122647 0.960303 0.208621
O O3 0.070140 0.793251 0.106559
O O4 0.187454 0.882162 0.073239
O O5 0.544606 0.735947 0.000079
O O6 0.653729 0.591901 0.981372
O O7 0.575802 0.590974 0.859459
O O8 0.635252 0.826407 0.897250
O O9 0.072924 0.212403 0.454096
O O10 0.000000 0.000000 0.531179
O O11 0.812819 0.147789 0.915218
O O12 0.723377 0.984081 0.972952
O O13 0.742173 0.887310 0.825145
O O14 0.093894 0.167706 0.304536
O O15 0.000000 0.000000 0.245971
O O16 0.649774 0.098463 0.865597
#
# Coordination Sequence:
#
# PCOD9354375 Si02
#       8
#     8   8   8   8   4   8   8   8
#     4  11  24  36  69  93 129 171 214 280 334 387
#     4  11  19  40  65  92 126 166 223 267 316 398
#     4  11  19  41  65  98 122 162 227 270 323 395
#     4  10  21  39  63  94 121 169 225 266 316 392
#     4  12  24  44  62  96 144 176 214 266 360 408
#     4  11  19  39  65  92 121 166 216 267 325 390
#     4  12  23  41  65  96 130 177 219 266 333 405
#     4  10  21  36  67  94 120 161 222 269 305 397
#
# _framework density 19.288112999999999
#
# number of rings (size 3 to 8) (size 9 to 14) (size 15 to 20)
#    0.000    1.067    8.000    1.600    3.733    0.533 
#    0.000    2.667    0.000    1.600    0.000    0.000 
#    0.000    0.000    0.000    0.000    0.000    0.000 
#
# Total GULP energy -167068.672296 kJ/mol
# GULP energy per Si atom -5568.955743 kJ/mol
# Density = 1.924421 g / cm^3
# Si number density = 19.288113 Si / 1000 Ang^3
#
#
#
# Elastic Constant Matrix: (Units=GPa)
#
#
# Indices 1 2 3 4 5 6 
#
# 1 82.5145 27.4230 13.3673 0.0000 0.0000 0.0000
# 2 27.4230 88.9930 13.3030 0.0000 0.0000 0.0000
# 3 13.3673 13.3030 55.5766 0.0000 0.0000 0.0000
# 4 0.0000 0.0000 0.0000 2.6421 0.0000 0.0000
# 5 0.0000 0.0000 0.0000 0.0000 29.0862 0.0000
# 6 0.0000 0.0000 0.0000 0.0000 0.0000 29.5757
#
#
#
# Elastic Compliance Matrix: (Units=1/GPa)
#
#
# Indices 1 2 3 4 5 6 
#
# 1 0.013800 -0.003896 -0.002387 0.000000 0.000000 0.000000
# 2 -0.003896 0.012754 -0.002116 0.000000 0.000000 0.000000
# 3 -0.002387 -0.002116 0.019074 0.000000 0.000000 0.000000
# 4 0.000000 0.000000 0.000000 0.378489 0.000000 0.000000
# 5 0.000000 0.000000 0.000000 0.000000 0.034381 0.000000
# 6 0.000000 0.000000 0.000000 0.000000 0.000000 0.033812
#
#
# Mechanical properties :
#
#
# Convention : Reuss Voigt Hill
#
# Bulk Modulus (GPa) = 34.68473 37.25230 35.96852
# Shear Modulus (GPa) = 9.63919 23.79351 16.71635
#
# Velocity S-wave (km/s) = 2.23793 3.51605 2.94711
# Velocity P-wave (km/s) = 4.96983 5.98657 5.50174
#
# Compressibility (1/GPa) = 0.02883113
#
# Stress axis : x y z
#
# Youngs Moduli (GPa) = 72.46122 78.40927 52.42827
#
# Poissons Ratio (x) = 0.30547 0.12514
# Poissons Ratio (y) = 0.28230 0.11092
# Poissons Ratio (z) = 0.17295 0.16589
#
# Static dielectric constant tensor:
#      x y z
#    x 1.745560 0.000000 0.000000 
#    y 0.000000 1.686010 0.000000 
#    z 0.000000 0.000000 1.693590 
# 
# From -- ./inp_files/13143.got.cif
#   From: 2010.05.17/outbox.cif.g08.bks.cpg/sg37_7_cif.got.tgz:13143.got - 2010.06.03 17:53:42.
