data_PCOD9354778
_publ_section_title
;
Structure prediction by ZEFSAII (Michael W. Deem and Ramdas Pophale) SiO2 
 PCOD9354778
Probable space group: C C C 2
;
_chemical_formula_sum "Si O2"
_cell_formula_units_Z 52
_cell_length_a 12.441704
_cell_length_b 8.946449
_cell_length_c 20.491888
_cell_angle_alpha 90.000000
_cell_angle_beta 90.000000
_cell_angle_gamma 90.000000
_cell_volume 2280.933002
_symmetry_space_group_name_H-M "C C C 2"
_symmetry_group_IT_number 37
_symmetry_cell_setting 'orthorhombic'
loop_
_space_group_symop_operation_xyz
x,y,z
-x,-y,z
-x,y,1/2+z
x,-y,1/2+z
1/2+x,1/2+y,z
1/2-x,1/2-y,z
1/2-x,1/2+y,1/2+z
1/2+x,1/2-y,1/2+z
loop_
_atom_site_type_symbol
_atom_site_label
_atom_site_fract_x
_atom_site_fract_y
_atom_site_fract_z
Si Si1 0.378178 0.961275 0.179730
Si Si2 0.087934 0.873301 0.942528
Si Si3 0.691395 0.907489 0.822867
Si Si4 0.398957 0.612946 0.801317
Si Si5 0.296519 0.916134 0.464424
Si Si6 0.360861 0.833052 0.049108
Si Si7 0.750000 0.250000 0.699491
O O1 0.373208 0.917273 0.255846
O O2 0.363588 0.830755 0.126839
O O3 0.500000 0.000000 0.165598
O O4 0.290080 0.094312 0.166792
O O5 0.085878 0.800703 0.870047
O O6 0.195989 0.971245 0.952298
O O7 0.062329 0.761510 0.001636
O O8 0.000000 0.000000 0.939517
O O9 0.750000 0.750000 0.824384
O O10 0.641482 0.920599 0.894923
O O11 0.789862 0.021110 0.813795
O O12 0.500000 0.500000 0.789599
O O13 0.358464 0.713819 0.741697
O O14 0.250000 0.750000 0.477146
O O15 0.358988 0.996819 0.522975
O O16 0.250000 0.750000 0.033192
#
# Coordination Sequence:
#
# PCOD9354778 Si02
#       7
#     8   8   8   8   8   8   4
#     4  11  25  42  61  89 128 170 218 265 324 395
#     4   9  19  36  61  94 123 159 212 264 324 400
#     4   9  19  37  61  89 123 157 203 265 320 383
#     4   9  19  35  64  97 125 161 210 266 335 391
#     4   9  19  36  62  91 123 160 199 263 328 378
#     4  10  22  40  63  85 125 174 210 267 324 392
#     4  10  24  42  66  94 134 174 214 284 326 392
#
# _framework density 22.797688999999998
#
# number of rings (size 3 to 8) (size 9 to 14) (size 15 to 20)
#    0.000    2.462    0.000    0.462   10.769    1.231 
#    2.769    0.769    0.000    0.000    0.000    0.000 
#    0.000    0.000    0.000    0.000    0.000    0.000 
#
# Total GULP energy -144755.502494 kJ/mol
# GULP energy per Si atom -5567.519327 kJ/mol
# Density = 2.274580 g / cm^3
# Si number density = 22.797689 Si / 1000 Ang^3
#
#
#
# Elastic Constant Matrix: (Units=GPa)
#
#
# Indices 1 2 3 4 5 6 
#
# 1 47.4649 -8.7382 9.1137 0.0000 0.0000 0.0000
# 2 -8.7382 53.2431 28.0825 0.0000 0.0000 0.0000
# 3 9.1137 28.0825 87.5480 0.0000 0.0000 0.0000
# 4 0.0000 0.0000 0.0000 28.7088 0.0000 0.0000
# 5 0.0000 0.0000 0.0000 0.0000 3.0804 0.0000
# 6 0.0000 0.0000 0.0000 0.0000 0.0000 21.1319
#
#
#
# Elastic Compliance Matrix: (Units=1/GPa)
#
#
# Indices 1 2 3 4 5 6 
#
# 1 0.023019 0.006068 -0.004343 0.000000 0.000000 0.000000
# 2 0.006068 0.024206 -0.008396 0.000000 0.000000 0.000000
# 3 -0.004343 -0.008396 0.014568 0.000000 0.000000 0.000000
# 4 0.000000 0.000000 0.000000 0.034832 0.000000 0.000000
# 5 0.000000 0.000000 0.000000 0.000000 0.324633 0.000000
# 6 0.000000 0.000000 0.000000 0.000000 0.000000 0.047322
#
#
# Mechanical properties :
#
#
# Convention : Reuss Voigt Hill
#
# Bulk Modulus (GPa) = 20.63907 27.24134 23.94020
# Shear Modulus (GPa) = 10.03871 21.23743 15.63807
#
# Velocity S-wave (km/s) = 2.10070 3.05546 2.62191
# Velocity P-wave (km/s) = 3.86739 4.94195 4.43732
#
# Compressibility (1/GPa) = 0.04845181
#
# Stress axis : x y z
#
# Youngs Moduli (GPa) = 43.44193 41.31163 68.64533
#
# Poissons Ratio (x) = -0.25070 0.29812
# Poissons Ratio (y) = -0.26363 0.57637
# Poissons Ratio (z) = 0.18866 0.34686
#
# Static dielectric constant tensor:
#      x y z
#    x 1.874760 0.000000 0.000000 
#    y 0.000000 1.953660 0.000000 
#    z 0.000000 0.000000 1.976750 
# 
# From -- ./inp_files/17122.got.cif
#   From: 2010.05.17/outbox.cif.g08.bks.cpg/sg37_9_cif.got.tgz:17122.got - 2010.06.03 17:53:42.
