data_PCOD9354780
_publ_section_title
;
Structure prediction by ZEFSAII (Michael W. Deem and Ramdas Pophale) SiO2 
 PCOD9354780
Probable space group: C C C 2
;
_chemical_formula_sum "Si O2"
_cell_formula_units_Z 40
_cell_length_a 26.302420
_cell_length_b 7.845223
_cell_length_c 10.506720
_cell_angle_alpha 90.000000
_cell_angle_beta 90.000000
_cell_angle_gamma 90.000000
_cell_volume 2168.044339
_symmetry_space_group_name_H-M "C C C 2"
_symmetry_group_IT_number 37
_symmetry_cell_setting 'orthorhombic'
loop_
_space_group_symop_operation_xyz
x,y,z
-x,-y,z
-x,y,1/2+z
x,-y,1/2+z
1/2+x,1/2+y,z
1/2-x,1/2-y,z
1/2-x,1/2+y,1/2+z
1/2+x,1/2-y,1/2+z
loop_
_atom_site_type_symbol
_atom_site_label
_atom_site_fract_x
_atom_site_fract_y
_atom_site_fract_z
Si Si1 0.125829 0.804904 0.544400
Si Si2 0.353759 0.847895 0.811370
Si Si3 0.877165 0.810148 0.565720
Si Si4 0.940293 0.517630 0.465988
Si Si5 0.808939 0.285540 0.304966
O O1 0.147678 0.755682 0.682169
O O2 0.084834 0.660287 0.508329
O O3 0.168878 0.789818 0.436257
O O4 0.104830 0.996293 0.551308
O O5 0.410782 0.923307 0.837558
O O6 0.318000 0.011306 0.807514
O O7 0.345176 0.737921 0.938532
O O8 0.921906 0.668474 0.561757
O O9 0.842841 0.786810 0.689533
O O10 0.000000 0.500000 0.453570
O O11 0.750000 0.250000 0.288093
#
# Coordination Sequence:
#
# PCOD9354780 Si02
#       5
#     8   8   8   8   8
#     4  11  21  40  64  91 131 162 210 267 314 379
#     4   9  20  42  61  88 131 159 211 265 313 375
#     4  10  22  40  63  91 129 164 207 269 309 388
#     4   9  21  40  67  88 127 164 209 260 325 368
#     4  11  22  40  64  92 124 172 213 259 325 381
#
# _framework density 18.449805999999999
#
# number of rings (size 3 to 8) (size 9 to 14) (size 15 to 20)
#    1.200    0.800    2.000    1.200    0.000    4.800 
#    0.000    3.000    4.400    0.000    0.000    0.000 
#    0.000    0.000    0.000    0.000    0.000    0.000 
#
# Total GULP energy -111433.599073 kJ/mol
# GULP energy per Si atom -5571.679954 kJ/mol
# Density = 1.840781 g / cm^3
# Si number density = 18.449806 Si / 1000 Ang^3
#
#
#
# Elastic Constant Matrix: (Units=GPa)
#
#
# Indices 1 2 3 4 5 6 
#
# 1 106.1308 35.8026 27.2741 0.0000 0.0000 0.0000
# 2 35.8026 152.2525 28.4847 0.0000 0.0000 0.0000
# 3 27.2741 28.4847 133.7958 0.0000 0.0000 0.0000
# 4 0.0000 0.0000 0.0000 16.3767 0.0000 0.0000
# 5 0.0000 0.0000 0.0000 0.0000 8.0893 0.0000
# 6 0.0000 0.0000 0.0000 0.0000 0.0000 -1.6806
#
#
#
# Elastic Compliance Matrix: (Units=1/GPa)
#
#
# Indices 1 2 3 4 5 6 
#
# 1 0.010591 -0.002173 -0.001696 0.000000 0.000000 0.000000
# 2 -0.002173 0.007286 -0.001108 0.000000 0.000000 0.000000
# 3 -0.001696 -0.001108 0.008056 0.000000 0.000000 0.000000
# 4 0.000000 0.000000 0.000000 0.061062 0.000000 0.000000
# 5 0.000000 0.000000 0.000000 0.000000 0.123619 0.000000
# 6 0.000000 0.000000 0.000000 0.000000 0.000000 -0.595010
#
#
# Mechanical properties :
#
#
# Convention : Reuss Voigt Hill
#
# Bulk Modulus (GPa) = 62.58624 63.92245 63.25435
# Shear Modulus (GPa) = -13.54598 24.59827 5.52614
#
# Velocity S-wave (km/s) = -2.71257 3.65534 1.73255
# Velocity P-wave (km/s) = 4.91787 7.24825 6.19365
#
# Compressibility (1/GPa) = 0.01597795
#
# Stress axis : x y z
#
# Youngs Moduli (GPa) = 94.41619 137.24165 124.13386
#
# Poissons Ratio (x) = 0.29826 0.21058
# Poissons Ratio (y) = 0.20519 0.13757
# Poissons Ratio (z) = 0.16016 0.15210
#
# Static dielectric constant tensor:
#      x y z
#    x 1.596160 0.000000 0.000000 
#    y 0.000000 1.648410 0.000000 
#    z 0.000000 0.000000 1.654360 
# 
# From -- ./inp_files/4745.got.cif
#   From: 2010.05.17/outbox.cif.g08.bks.cpg/sg37_3_cif.got.tgz:4745.got - 2010.06.03 17:53:42.
