data_PCOD9354339
_publ_section_title
;
Structure prediction by ZEFSAII (Michael W. Deem and Ramdas Pophale) SiO2 
 PCOD9354339
Probable space group: C C C 2
;
_chemical_formula_sum "Si O2"
_cell_formula_units_Z 60
_cell_length_a 23.390005
_cell_length_b 22.467979
_cell_length_c 5.554407
_cell_angle_alpha 90.000000
_cell_angle_beta 90.000000
_cell_angle_gamma 90.000000
_cell_volume 2918.986077
_symmetry_space_group_name_H-M "C C C 2"
_symmetry_group_IT_number 37
_symmetry_cell_setting 'orthorhombic'
loop_
_space_group_symop_operation_xyz
x,y,z
-x,-y,z
-x,y,1/2+z
x,-y,1/2+z
1/2+x,1/2+y,z
1/2-x,1/2-y,z
1/2-x,1/2+y,1/2+z
1/2+x,1/2-y,1/2+z
loop_
_atom_site_type_symbol
_atom_site_label
_atom_site_fract_x
_atom_site_fract_y
_atom_site_fract_z
Si Si1 0.471961 0.281130 0.809190
Si Si2 0.740711 0.644743 0.062635
Si Si3 0.027840 0.636563 0.356837
Si Si4 0.831662 0.473255 0.995034
Si Si5 0.340783 0.278090 0.728177
Si Si6 0.797829 0.017890 0.591247
Si Si7 0.750000 0.750000 0.354790
Si Si8 0.154474 0.635523 0.254001
O O1 0.509562 0.301408 0.578053
O O2 0.476646 0.208909 0.833521
O O3 0.406546 0.296286 0.740993
O O4 0.694691 0.686420 0.928374
O O5 0.710036 0.586977 0.166065
O O6 0.788398 0.616317 0.890277
O O7 0.775141 0.694075 0.213360
O O8 0.094628 0.622242 0.379469
O O9 0.995344 0.615531 0.596544
O O10 0.854758 0.499170 0.745624
O O11 0.763988 0.487992 0.026955
O O12 0.843363 0.402847 0.010465
O O13 0.300401 0.284024 0.495862
O O14 0.341179 0.206380 0.741789
O O15 0.825448 0.985690 0.823145
#
# Coordination Sequence:
#
# PCOD9354339 Si02
#       8
#     8   8   8   8   8   8   4   8
#     4   9  20  38  60  78 113 160 207 241 284 357
#     4  12  23  37  54  90 125 158 194 244 309 381
#     4   9  20  36  53  79 101 145 203 251 287 342
#     4  10  21  34  54  80 100 148 206 238 280 350
#     4  11  24  37  54  93 126 160 195 246 315 368
#     4  10  22  38  57  78 113 156 205 237 281 354
#     4  12  24  32  58  84 136 162 186 242 318 372
#     4  11  20  38  57  77 119 155 194 242 304 361
#
# _framework density 20.555081000000001
#
# number of rings (size 3 to 8) (size 9 to 14) (size 15 to 20)
#    0.000    1.600    5.333    0.000    7.467    4.267 
#    0.000    0.000    0.000    2.400    0.000    0.000 
#    0.000    3.200    0.000    0.000    0.000    0.000 
#
# Total GULP energy -167023.141891 kJ/mol
# GULP energy per Si atom -5567.438063 kJ/mol
# Density = 2.050830 g / cm^3
# Si number density = 20.555081 Si / 1000 Ang^3
#
#
#
# Elastic Constant Matrix: (Units=GPa)
#
#
# Indices 1 2 3 4 5 6 
#
# 1 63.3394 10.2624 7.2689 0.0000 0.0000 0.0000
# 2 10.2624 85.0970 32.8897 0.0000 0.0000 0.0000
# 3 7.2689 32.8897 89.3647 0.0000 0.0000 0.0000
# 4 0.0000 0.0000 0.0000 41.6974 0.0000 0.0000
# 5 0.0000 0.0000 0.0000 0.0000 72.5437 0.0000
# 6 0.0000 0.0000 0.0000 0.0000 0.0000 4.8380
#
#
#
# Elastic Compliance Matrix: (Units=1/GPa)
#
#
# Indices 1 2 3 4 5 6 
#
# 1 0.016140 -0.001678 -0.000695 0.000000 0.000000 0.000000
# 2 -0.001678 0.013874 -0.004970 0.000000 0.000000 0.000000
# 3 -0.000695 -0.004970 0.013076 0.000000 0.000000 0.000000
# 4 0.000000 0.000000 0.000000 0.023982 0.000000 0.000000
# 5 0.000000 0.000000 0.000000 0.000000 0.013785 0.000000
# 6 0.000000 0.000000 0.000000 0.000000 0.000000 0.206696
#
#
# Mechanical properties :
#
#
# Convention : Reuss Voigt Hill
#
# Bulk Modulus (GPa) = 35.20623 37.62702 36.41662
# Shear Modulus (GPa) = 16.04072 36.30782 26.17427
#
# Velocity S-wave (km/s) = 2.79655 4.20738 3.57231
# Velocity P-wave (km/s) = 5.25286 6.47672 5.89663
#
# Compressibility (1/GPa) = 0.02840407
#
# Stress axis : x y z
#
# Youngs Moduli (GPa) = 61.95950 72.07488 76.47736
#
# Poissons Ratio (x) = 0.12091 0.05318
# Poissons Ratio (y) = 0.10394 0.38008
# Poissons Ratio (z) = 0.04308 0.35820
#
# Static dielectric constant tensor:
#      x y z
#    x 1.669360 0.000000 0.000000 
#    y 0.000000 1.732660 0.000000 
#    z 0.000000 0.000000 1.928400 
# 
# From -- ./inp_files/1058.got.cif
#   From: 2010.05.17/outbox.cif.g08.bks.cpg/sg37_1_cif.got.tgz:1058.got - 2010.06.03 17:53:42.
