data_PCOD9354446
_publ_section_title
;
Structure prediction by ZEFSAII (Michael W. Deem and Ramdas Pophale) SiO2 
 PCOD9354446
Probable space group: C C C 2
;
_chemical_formula_sum "Si O2"
_cell_formula_units_Z 56
_cell_length_a 14.420043
_cell_length_b 11.740421
_cell_length_c 16.001927
_cell_angle_alpha 90.000000
_cell_angle_beta 90.000000
_cell_angle_gamma 90.000000
_cell_volume 2709.084247
_symmetry_space_group_name_H-M "C C C 2"
_symmetry_group_IT_number 37
_symmetry_cell_setting 'orthorhombic'
loop_
_space_group_symop_operation_xyz
x,y,z
-x,-y,z
-x,y,1/2+z
x,-y,1/2+z
1/2+x,1/2+y,z
1/2-x,1/2-y,z
1/2-x,1/2+y,1/2+z
1/2+x,1/2-y,1/2+z
loop_
_atom_site_type_symbol
_atom_site_label
_atom_site_fract_x
_atom_site_fract_y
_atom_site_fract_z
Si Si1 0.430998 0.192281 0.620520
Si Si2 0.207882 0.534162 0.026988
Si Si3 0.219053 0.622695 0.847783
Si Si4 0.596909 0.459005 0.106509
Si Si5 0.474465 0.174261 0.295540
Si Si6 0.589431 0.564497 0.290000
Si Si7 0.944975 0.380618 0.471773
O O1 0.350065 0.103291 0.596673
O O2 0.400554 0.323825 0.625452
O O3 0.475834 0.154455 0.707871
O O4 0.505398 0.190647 0.544481
O O5 0.312515 0.513964 0.053653
O O6 0.202996 0.615811 0.946390
O O7 0.157366 0.417586 0.999561
O O8 0.250000 0.750000 0.823510
O O9 0.119243 0.598714 0.806491
O O10 0.308976 0.546392 0.829071
O O11 0.500000 0.500000 0.066129
O O12 0.599411 0.525439 0.194269
O O13 0.438360 0.303795 0.294297
O O14 0.538521 0.162582 0.377886
O O15 0.500000 0.500000 0.326811
O O16 0.000000 0.500000 0.474185
#
# Coordination Sequence:
#
# PCOD9354446 Si02
#       7
#     8   8   8   8   8   8   8
#     4  11  22  42  72  98 137 181 221 284 343 405
#     4  11  24  43  66 102 137 172 235 279 340 417
#     4  10  21  38  66  97 130 181 225 277 346 409
#     4  11  23  44  66  98 135 181 231 276 341 421
#     4  11  21  42  72  95 142 173 228 290 337 411
#     4  10  22  42  63  99 134 177 235 274 341 417
#     4  10  23  42  65 103 136 170 231 278 342 412
#
# _framework density 20.671191
#
# number of rings (size 3 to 8) (size 9 to 14) (size 15 to 20)
#    0.000    1.429    5.714    1.286    4.000    3.429 
#    0.000    0.714    0.000    0.000    0.000    0.000 
#    0.000    0.000    0.000    0.000    0.000    0.000 
#
# Total GULP energy -156260.522680 kJ/mol
# GULP energy per Si atom -5580.732953 kJ/mol
# Density = 2.062414 g / cm^3
# Si number density = 20.671191 Si / 1000 Ang^3
#
#
#
# Elastic Constant Matrix: (Units=GPa)
#
#
# Indices 1 2 3 4 5 6 
#
# 1 184.2741 27.6004 77.2864 0.0000 0.0000 0.0000
# 2 27.6004 55.5128 15.7863 0.0000 0.0000 0.0000
# 3 77.2864 15.7863 107.0988 0.0000 0.0000 0.0000
# 4 0.0000 0.0000 0.0000 -6.4394 0.0000 0.0000
# 5 0.0000 0.0000 0.0000 0.0000 36.1720 0.0000
# 6 0.0000 0.0000 0.0000 0.0000 0.0000 26.8110
#
#
#
# Elastic Compliance Matrix: (Units=1/GPa)
#
#
# Indices 1 2 3 4 5 6 
#
# 1 0.008093 -0.002466 -0.005477 0.000000 0.000000 0.000000
# 2 -0.002466 0.019554 -0.001102 0.000000 0.000000 0.000000
# 3 -0.005477 -0.001102 0.013452 0.000000 0.000000 0.000000
# 4 0.000000 0.000000 0.000000 -0.155294 0.000000 0.000000
# 5 0.000000 0.000000 0.000000 0.000000 0.027646 0.000000
# 6 0.000000 0.000000 0.000000 0.000000 0.000000 0.037298
#
#
# Mechanical properties :
#
#
# Convention : Reuss Voigt Hill
#
# Bulk Modulus (GPa) = 43.46384 65.35908 54.41146
# Shear Modulus (GPa) = -212.84804 26.38955 -93.22924
#
# Velocity S-wave (km/s) = -10.15835 3.57688 -6.72302
# Velocity P-wave (km/s) = 10.79432 6.98182 5.82115
#
# Compressibility (1/GPa) = 0.02300763
#
# Stress axis : x y z
#
# Youngs Moduli (GPa) = 123.56188 51.14151 74.33905
#
# Poissons Ratio (x) = 0.12613 0.40714
# Poissons Ratio (y) = 0.30475 0.08195
# Poissons Ratio (z) = 0.67672 0.05638
#
# Static dielectric constant tensor:
#      x y z
#    x 1.815860 0.000000 0.000000 
#    y 0.000000 1.757900 0.000000 
#    z 0.000000 0.000000 1.736270 
# 
# From -- ./inp_files/11622.got.cif
#   From: 2010.05.17/outbox.cif.g08.bks.cpg/sg37_6_cif.got.tgz:11622.got - 2010.06.03 17:53:42.
