data_PCOD9354082
_publ_section_title
;
Structure prediction by ZEFSAII (Michael W. Deem and Ramdas Pophale) SiO2 
 PCOD9354082
Probable space group: C C C 2
;
_chemical_formula_sum "Si O2"
_cell_formula_units_Z 64
_cell_length_a 9.953251
_cell_length_b 21.477835
_cell_length_c 14.513089
_cell_angle_alpha 90.000000
_cell_angle_beta 90.000000
_cell_angle_gamma 90.000000
_cell_volume 3102.525191
_symmetry_space_group_name_H-M "C C C 2"
_symmetry_group_IT_number 37
_symmetry_cell_setting 'orthorhombic'
loop_
_space_group_symop_operation_xyz
x,y,z
-x,-y,z
-x,y,1/2+z
x,-y,1/2+z
1/2+x,1/2+y,z
1/2-x,1/2-y,z
1/2-x,1/2+y,1/2+z
1/2+x,1/2-y,1/2+z
loop_
_atom_site_type_symbol
_atom_site_label
_atom_site_fract_x
_atom_site_fract_y
_atom_site_fract_z
Si Si1 0.039948 0.327615 0.985090
Si Si2 0.202090 0.559118 0.184884
Si Si3 0.564229 0.135523 0.686317
Si Si4 0.101773 0.267767 0.801475
Si Si5 0.794299 0.932972 0.279575
Si Si6 0.615958 0.709867 0.554846
Si Si7 0.232870 0.402819 0.476667
Si Si8 0.056920 0.858394 0.241679
O O1 0.115574 0.311578 0.891114
O O2 0.915853 0.373834 0.963760
O O3 0.103455 0.354097 0.079300
O O4 0.982024 0.260313 0.012619
O O5 0.243097 0.492866 0.224543
O O6 0.297662 0.608552 0.237658
O O7 0.047371 0.580577 0.193841
O O8 0.233764 0.563625 0.075702
O O9 0.485127 0.194843 0.726855
O O10 0.693015 0.121490 0.747480
O O11 0.250000 0.250000 0.769579
O O12 0.039522 0.198579 0.813201
O O13 0.774936 0.942305 0.388623
O O14 0.943738 0.910352 0.256089
O O15 0.750000 0.750000 0.577807
O O16 0.667821 0.655898 0.487309
O O17 0.551108 0.675482 0.642194
#
# Coordination Sequence:
#
# PCOD9354082 Si02
#       8
#     8   8   8   8   8   8   8   8
#     4  10  20  37  61  94 130 158 211 259 320 380
#     4  10  23  46  66  86 124 181 220 253 314 396
#     4  11  23  43  66  93 126 172 206 263 322 384
#     4  12  22  39  66  96 129 172 210 261 324 395
#     4  12  24  42  64  98 129 163 219 277 311 368
#     4   9  17  35  63  89 126 176 205 245 317 412
#     4   9  20  39  65  88 120 174 219 245 318 396
#     4  11  22  38  65  95 129 166 211 264 322 374
#
# _framework density 20.628357999999999
#
# number of rings (size 3 to 8) (size 9 to 14) (size 15 to 20)
#    0.000    1.500    3.750    2.625    0.000    1.500 
#    2.250    7.500    0.000    0.000    0.000    0.000 
#    0.000    0.000    0.000    0.000    0.000    0.000 
#
# Total GULP energy -178580.947301 kJ/mol
# GULP energy per Si atom -5580.654603 kJ/mol
# Density = 2.058141 g / cm^3
# Si number density = 20.628358 Si / 1000 Ang^3
#
#
#
# Elastic Constant Matrix: (Units=GPa)
#
#
# Indices 1 2 3 4 5 6 
#
# 1 37.9071 -1.1462 16.1700 0.0000 0.0000 0.0000
# 2 -1.1462 69.3999 17.5604 0.0000 0.0000 0.0000
# 3 16.1700 17.5604 98.3888 0.0000 0.0000 0.0000
# 4 0.0000 0.0000 0.0000 30.0929 0.0000 0.0000
# 5 0.0000 0.0000 0.0000 0.0000 12.3935 0.0000
# 6 0.0000 0.0000 0.0000 0.0000 0.0000 24.2618
#
#
#
# Elastic Compliance Matrix: (Units=1/GPa)
#
#
# Indices 1 2 3 4 5 6 
#
# 1 0.028568 0.001738 -0.005005 0.000000 0.000000 0.000000
# 2 0.001738 0.015197 -0.002998 0.000000 0.000000 0.000000
# 3 -0.005005 -0.002998 0.011521 0.000000 0.000000 0.000000
# 4 0.000000 0.000000 0.000000 0.033230 0.000000 0.000000
# 5 0.000000 0.000000 0.000000 0.000000 0.080687 0.000000
# 6 0.000000 0.000000 0.000000 0.000000 0.000000 0.041217
#
#
# Mechanical properties :
#
#
# Convention : Reuss Voigt Hill
#
# Bulk Modulus (GPa) = 23.38850 30.09602 26.74226
# Shear Modulus (GPa) = 21.07901 24.89042 22.98471
#
# Velocity S-wave (km/s) = 3.20010 3.47740 3.34163
# Velocity P-wave (km/s) = 5.00168 5.54476 5.28021
#
# Compressibility (1/GPa) = 0.04275605
#
# Stress axis : x y z
#
# Youngs Moduli (GPa) = 35.00420 65.80442 86.79460
#
# Poissons Ratio (x) = -0.11439 0.43444
# Poissons Ratio (y) = -0.06085 0.26021
# Poissons Ratio (z) = 0.17521 0.19728
#
# Static dielectric constant tensor:
#      x y z
#    x 1.731650 0.000000 0.000000 
#    y 0.000000 1.760800 0.000000 
#    z 0.000000 0.000000 1.760640 
# 
# From -- ./inp_files/10988.got.cif
#   From: 2010.05.17/outbox.cif.g08.bks.cpg/sg37_6_cif.got.tgz:10988.got - 2010.06.03 17:53:42.
