data_PCOD9354407
_publ_section_title
;
Structure prediction by ZEFSAII (Michael W. Deem and Ramdas Pophale) SiO2 
 PCOD9354407
Probable space group: C C C 2
;
_chemical_formula_sum "Si O2"
_cell_formula_units_Z 56
_cell_length_a 10.718276
_cell_length_b 11.930370
_cell_length_c 21.103764
_cell_angle_alpha 90.000000
_cell_angle_beta 90.000000
_cell_angle_gamma 90.000000
_cell_volume 2698.601581
_symmetry_space_group_name_H-M "C C C 2"
_symmetry_group_IT_number 37
_symmetry_cell_setting 'orthorhombic'
loop_
_space_group_symop_operation_xyz
x,y,z
-x,-y,z
-x,y,1/2+z
x,-y,1/2+z
1/2+x,1/2+y,z
1/2-x,1/2-y,z
1/2-x,1/2+y,1/2+z
1/2+x,1/2-y,1/2+z
loop_
_atom_site_type_symbol
_atom_site_label
_atom_site_fract_x
_atom_site_fract_y
_atom_site_fract_z
Si Si1 0.993992 0.366325 0.810490
Si Si2 0.750000 0.250000 0.855764
Si Si3 0.993037 0.635765 0.172222
Si Si4 0.219301 0.935415 0.527690
Si Si5 0.563441 0.185250 0.451086
Si Si6 0.250000 0.750000 0.624625
Si Si7 0.433604 0.405691 0.434981
Si Si8 0.147075 0.653280 0.050528
O O1 0.853309 0.319420 0.817686
O O2 0.042353 0.328878 0.741710
O O3 0.000000 0.500000 0.810920
O O4 0.060548 0.331040 0.875694
O O5 0.671141 0.335880 0.898962
O O6 0.853210 0.682897 0.163835
O O7 0.000000 0.500000 0.169577
O O8 0.067649 0.683991 0.112296
O O9 0.315214 0.870700 0.480826
O O10 0.182483 0.841558 0.578860
O O11 0.128569 0.019433 0.489592
O O12 0.297809 0.031165 0.564289
O O13 0.536626 0.317425 0.459445
O O14 0.443156 0.137950 0.489344
O O15 0.500000 0.500000 0.392065
O O16 0.250000 0.750000 0.038661
#
# Coordination Sequence:
#
# PCOD9354407 Si02
#       8
#     8   4   8   8   8   4   8   8
#     4  10  21  37  68  93 124 171 217 259 326 393
#     4  10  21  42  64  92 130 173 210 270 327 392
#     4  11  23  43  64  93 129 174 220 268 325 397
#     4  12  22  38  63  96 131 169 215 273 326 385
#     4  11  21  39  65  99 130 163 216 271 328 389
#     4  12  23  38  64  94 128 173 216 272 325 388
#     4  11  23  37  61  99 135 166 211 268 331 387
#     4  12  22  40  68  92 133 173 219 275 332 389
#
# _framework density 20.75149
#
# number of rings (size 3 to 8) (size 9 to 14) (size 15 to 20)
#    0.000    0.857    4.286    5.143    1.000    0.000 
#    0.000    0.000   20.429    0.000    0.000    0.000 
#    0.000    0.000    0.000    0.000    0.000    0.000 
#
# Total GULP energy -156216.844771 kJ/mol
# GULP energy per Si atom -5579.173028 kJ/mol
# Density = 2.070426 g / cm^3
# Si number density = 20.751490 Si / 1000 Ang^3
#
#
#
# Elastic Constant Matrix: (Units=GPa)
#
#
# Indices 1 2 3 4 5 6 
#
# 1 87.6516 35.2130 28.2010 0.0000 0.0000 0.0000
# 2 35.2130 129.5431 22.2806 0.0000 0.0000 0.0000
# 3 28.2010 22.2806 123.1239 0.0000 0.0000 0.0000
# 4 0.0000 0.0000 0.0000 24.9378 0.0000 0.0000
# 5 0.0000 0.0000 0.0000 0.0000 11.2106 0.0000
# 6 0.0000 0.0000 0.0000 0.0000 0.0000 49.2393
#
#
#
# Elastic Compliance Matrix: (Units=1/GPa)
#
#
# Indices 1 2 3 4 5 6 
#
# 1 0.013519 -0.003243 -0.002510 0.000000 0.000000 0.000000
# 2 -0.003243 0.008745 -0.000840 0.000000 0.000000 0.000000
# 3 -0.002510 -0.000840 0.008849 0.000000 0.000000 0.000000
# 4 0.000000 0.000000 0.000000 0.040100 0.000000 0.000000
# 5 0.000000 0.000000 0.000000 0.000000 0.089202 0.000000
# 6 0.000000 0.000000 0.000000 0.000000 0.000000 0.020309
#
#
# Mechanical properties :
#
#
# Convention : Reuss Voigt Hill
#
# Bulk Modulus (GPa) = 55.77811 56.85641 56.31726
# Shear Modulus (GPa) = 25.01441 34.05248 29.53344
#
# Velocity S-wave (km/s) = 3.47569 4.05528 3.77662
# Velocity P-wave (km/s) = 6.56085 7.02746 6.79816
#
# Compressibility (1/GPa) = 0.01792818
#
# Stress axis : x y z
#
# Youngs Moduli (GPa) = 73.96903 114.34512 113.01128
#
# Poissons Ratio (x) = 0.37084 0.28361
# Poissons Ratio (y) = 0.23990 0.09490
# Poissons Ratio (z) = 0.18563 0.09602
#
# Static dielectric constant tensor:
#      x y z
#    x 1.829590 0.000000 0.000000 
#    y 0.000000 1.768890 0.000000 
#    z 0.000000 0.000000 1.769340 
# 
# From -- ./inp_files/18706.got.cif
#   From: 2010.05.17/outbox.cif.g08.bks.cpg/sg37_10_cif.got.tgz:18706.got - 2010.06.03 17:53:42.
