data_PCOD9354085
_publ_section_title
;
Structure prediction by ZEFSAII (Michael W. Deem and Ramdas Pophale) SiO2 
 PCOD9354085
Probable space group: C C C 2
;
_chemical_formula_sum "Si O2"
_cell_formula_units_Z 48
_cell_length_a 8.897235
_cell_length_b 12.533417
_cell_length_c 18.065563
_cell_angle_alpha 90.000000
_cell_angle_beta 90.000000
_cell_angle_gamma 90.000000
_cell_volume 2014.540726
_symmetry_space_group_name_H-M "C C C 2"
_symmetry_group_IT_number 37
_symmetry_cell_setting 'orthorhombic'
loop_
_space_group_symop_operation_xyz
x,y,z
-x,-y,z
-x,y,1/2+z
x,-y,1/2+z
1/2+x,1/2+y,z
1/2-x,1/2-y,z
1/2-x,1/2+y,1/2+z
1/2+x,1/2-y,1/2+z
loop_
_atom_site_type_symbol
_atom_site_label
_atom_site_fract_x
_atom_site_fract_y
_atom_site_fract_z
Si Si1 0.177925 0.997273 0.550450
Si Si2 0.364887 0.840494 0.647374
Si Si3 0.683700 0.629384 0.899142
Si Si4 0.562487 0.877667 0.522894
Si Si5 0.416534 0.103524 0.777903
Si Si6 0.921008 0.754412 0.376059
O O1 0.253469 0.933455 0.618782
O O2 0.218145 0.940973 0.471359
O O3 0.264480 0.110326 0.547876
O O4 0.000000 0.000000 0.559105
O O5 0.250000 0.750000 0.676096
O O6 0.455600 0.805439 0.573926
O O7 0.503480 0.884883 0.697155
O O8 0.750000 0.750000 0.913738
O O9 0.754548 0.594779 0.819415
O O10 0.502152 0.636961 0.897794
O O11 0.561239 0.829496 0.442110
O O12 0.500000 0.000000 0.527143
O O13 0.478527 0.213324 0.809786
O O14 0.500000 0.000000 0.809453
O O15 0.750000 0.750000 0.354888
#
# Coordination Sequence:
#
# PCOD9354085 Si02
#       6
#     8   8   8   8   8   8
#     4  11  21  38  65 100 127 158 209 268 319 378
#     4  11  23  42  62  85 122 166 208 260 321 383
#     4  10  21  38  62  90 122 163 206 256 314 378
#     4  10  20  37  62  89 119 160 201 248 312 374
#     4  11  22  40  60  81 117 166 210 253 314 385
#     4  11  21  37  59  91 122 155 201 257 311 370
#
# _framework density 23.826771999999998
#
# number of rings (size 3 to 8) (size 9 to 14) (size 15 to 20)
#    0.000    1.333    0.000   10.000    0.000    0.000 
#    0.000   15.833    0.000    1.000    0.000    0.000 
#    0.000    0.000    0.000    0.000    0.000    0.000 
#
# Total GULP energy -133658.685542 kJ/mol
# GULP energy per Si atom -5569.111898 kJ/mol
# Density = 2.377254 g / cm^3
# Si number density = 23.826772 Si / 1000 Ang^3
#
#
#
# Elastic Constant Matrix: (Units=GPa)
#
#
# Indices 1 2 3 4 5 6 
#
# 1 157.1250 7.0838 30.6872 0.0000 0.0000 0.0000
# 2 7.0838 45.8174 8.7575 0.0000 0.0000 0.0000
# 3 30.6872 8.7575 91.2392 0.0000 0.0000 0.0000
# 4 0.0000 0.0000 0.0000 17.3041 0.0000 0.0000
# 5 0.0000 0.0000 0.0000 0.0000 26.2585 0.0000
# 6 0.0000 0.0000 0.0000 0.0000 0.0000 37.8348
#
#
#
# Elastic Compliance Matrix: (Units=1/GPa)
#
#
# Indices 1 2 3 4 5 6 
#
# 1 0.006830 -0.000628 -0.002237 0.000000 0.000000 0.000000
# 2 -0.000628 0.022292 -0.001928 0.000000 0.000000 0.000000
# 3 -0.002237 -0.001928 0.011898 0.000000 0.000000 0.000000
# 4 0.000000 0.000000 0.000000 0.057790 0.000000 0.000000
# 5 0.000000 0.000000 0.000000 0.000000 0.038083 0.000000
# 6 0.000000 0.000000 0.000000 0.000000 0.000000 0.026431
#
#
# Mechanical properties :
#
#
# Convention : Reuss Voigt Hill
#
# Bulk Modulus (GPa) = 31.81485 43.02650 37.42067
# Shear Modulus (GPa) = 27.26488 32.78968 30.02728
#
# Velocity S-wave (km/s) = 3.38641 3.71370 3.55383
# Velocity P-wave (km/s) = 5.35462 6.04037 5.70780
#
# Compressibility (1/GPa) = 0.03143187
#
# Stress axis : x y z
#
# Youngs Moduli (GPa) = 146.42290 44.86012 84.05068
#
# Poissons Ratio (x) = 0.02819 0.18800
# Poissons Ratio (y) = 0.09201 0.16207
# Poissons Ratio (z) = 0.32751 0.08650
#
# Static dielectric constant tensor:
#      x y z
#    x 2.090230 0.000000 0.000000 
#    y 0.000000 1.982710 0.000000 
#    z 0.000000 0.000000 2.016470 
# 
# From -- ./inp_files/14483.got.cif
#   From: 2010.05.17/outbox.cif.g08.bks.cpg/sg37_8_cif.got.tgz:14483.got - 2010.06.03 17:53:42.
