data_PCOD9354593
_publ_section_title
;
Structure prediction by ZEFSAII (Michael W. Deem and Ramdas Pophale) SiO2 
 PCOD9354593
Probable space group: C C C 2
;
_chemical_formula_sum "Si O2"
_cell_formula_units_Z 48
_cell_length_a 11.825965
_cell_length_b 10.515656
_cell_length_c 20.099237
_cell_angle_alpha 90.000000
_cell_angle_beta 90.000000
_cell_angle_gamma 90.000000
_cell_volume 2499.496489
_symmetry_space_group_name_H-M "C C C 2"
_symmetry_group_IT_number 37
_symmetry_cell_setting 'orthorhombic'
loop_
_space_group_symop_operation_xyz
x,y,z
-x,-y,z
-x,y,1/2+z
x,-y,1/2+z
1/2+x,1/2+y,z
1/2-x,1/2-y,z
1/2-x,1/2+y,1/2+z
1/2+x,1/2-y,1/2+z
loop_
_atom_site_type_symbol
_atom_site_label
_atom_site_fract_x
_atom_site_fract_y
_atom_site_fract_z
Si Si1 0.911498 0.110282 0.504400
Si Si2 0.750000 0.750000 0.646308
Si Si3 0.196344 0.466866 0.552132
Si Si4 0.123849 0.294482 0.125672
Si Si5 0.115491 0.277022 0.880542
Si Si6 0.500000 0.000000 0.460766
Si Si7 0.957898 0.649132 0.735575
O O1 0.920578 0.215107 0.562601
O O2 0.927248 0.169589 0.431639
O O3 0.785152 0.053283 0.511837
O O4 0.000000 0.000000 0.516288
O O5 0.731452 0.635157 0.593500
O O6 0.844941 0.686487 0.693600
O O7 0.132929 0.559727 0.603572
O O8 0.093144 0.423366 0.505010
O O9 0.250000 0.250000 0.138733
O O10 0.052053 0.281712 0.191467
O O11 0.250000 0.250000 0.874199
O O12 0.076873 0.406365 0.917289
O O13 0.060851 0.290629 0.808011
O O14 0.000000 0.500000 0.740928
#
# Coordination Sequence:
#
# PCOD9354593 Si02
#       7
#     8   4   8   8   8   4   8
#     4  11  23  42  65  98 134 177 227 287 354 414
#     4  12  24  38  68 106 138 168 232 294 342 424
#     4  11  22  38  68 101 131 173 226 289 348 407
#     4  10  21  42  67  95 137 173 219 288 350 410
#     4  12  24  45  64  94 134 184 224 283 350 413
#     4  12  22  40  70  96 132 174 234 286 344 412
#     4  12  24  42  66  99 134 177 233 277 345 425
#
# _framework density 19.203869000000001
#
# number of rings (size 3 to 8) (size 9 to 14) (size 15 to 20)
#    0.000    0.667    6.667    2.500    2.333    0.000 
#    0.000    7.500    0.000    0.000    0.000    0.000 
#    0.000    0.000    0.000    0.000    0.000    0.000 
#
# Total GULP energy -133768.628413 kJ/mol
# GULP energy per Si atom -5573.692851 kJ/mol
# Density = 1.916016 g / cm^3
# Si number density = 19.203869 Si / 1000 Ang^3
#
#
#
# Elastic Constant Matrix: (Units=GPa)
#
#
# Indices 1 2 3 4 5 6 
#
# 1 95.3229 40.8740 65.4349 0.0000 0.0000 0.0000
# 2 40.8740 95.0927 58.8618 0.0000 0.0000 0.0000
# 3 65.4349 58.8618 154.7057 0.0000 0.0000 0.0000
# 4 0.0000 0.0000 0.0000 48.3173 0.0000 0.0000
# 5 0.0000 0.0000 0.0000 0.0000 18.4252 0.0000
# 6 0.0000 0.0000 0.0000 0.0000 0.0000 37.2311
#
#
#
# Elastic Compliance Matrix: (Units=1/GPa)
#
#
# Indices 1 2 3 4 5 6 
#
# 1 0.015592 -0.003427 -0.005291 0.000000 0.000000 0.000000
# 2 -0.003427 0.014509 -0.004071 0.000000 0.000000 0.000000
# 3 -0.005291 -0.004071 0.010251 0.000000 0.000000 0.000000
# 4 0.000000 0.000000 0.000000 0.020697 0.000000 0.000000
# 5 0.000000 0.000000 0.000000 0.000000 0.054274 0.000000
# 6 0.000000 0.000000 0.000000 0.000000 0.000000 0.026859
#
#
# Mechanical properties :
#
#
# Convention : Reuss Voigt Hill
#
# Bulk Modulus (GPa) = 67.68588 75.05142 71.36865
# Shear Modulus (GPa) = 28.95473 32.79142 30.87307
#
# Velocity S-wave (km/s) = 3.88719 4.13672 4.01390
# Velocity P-wave (km/s) = 7.44779 7.87292 7.66330
#
# Compressibility (1/GPa) = 0.01477413
#
# Stress axis : x y z
#
# Youngs Moduli (GPa) = 64.13473 68.92337 97.55455
#
# Poissons Ratio (x) = 0.23619 0.51617
# Poissons Ratio (y) = 0.21978 0.39713
# Poissons Ratio (z) = 0.33934 0.28058
#
# Static dielectric constant tensor:
#      x y z
#    x 1.704980 0.000000 0.000000 
#    y 0.000000 1.598840 0.000000 
#    z 0.000000 0.000000 1.669660 
# 
# From -- ./inp_files/15012.got.cif
#   From: 2010.05.17/outbox.cif.g08.bks.cpg/sg37_8_cif.got.tgz:15012.got - 2010.06.03 17:53:42.
