data_PCOD9354821
_publ_section_title
;
Structure prediction by ZEFSAII (Michael W. Deem and Ramdas Pophale) SiO2 
 PCOD9354821
Probable space group: C C C 2
;
_chemical_formula_sum "Si O2"
_cell_formula_units_Z 44
_cell_length_a 11.192587
_cell_length_b 15.523375
_cell_length_c 9.461172
_cell_angle_alpha 90.000000
_cell_angle_beta 90.000000
_cell_angle_gamma 90.000000
_cell_volume 1643.847652
_symmetry_space_group_name_H-M "C C C 2"
_symmetry_group_IT_number 37
_symmetry_cell_setting 'orthorhombic'
loop_
_space_group_symop_operation_xyz
x,y,z
-x,-y,z
-x,y,1/2+z
x,-y,1/2+z
1/2+x,1/2+y,z
1/2-x,1/2-y,z
1/2-x,1/2+y,1/2+z
1/2+x,1/2-y,1/2+z
loop_
_atom_site_type_symbol
_atom_site_label
_atom_site_fract_x
_atom_site_fract_y
_atom_site_fract_z
Si Si1 0.250000 0.250000 0.812150
Si Si2 0.419471 0.071896 0.782186
Si Si3 0.515551 0.754345 0.359134
Si Si4 0.056696 0.083602 0.184763
Si Si5 0.717632 0.991563 0.024447
Si Si6 0.667041 0.657111 0.539016
O O1 0.374337 0.255979 0.897625
O O2 0.270572 0.325421 0.691440
O O3 0.499819 0.157590 0.771558
O O4 0.500000 0.000000 0.855853
O O5 0.375294 0.026428 0.640575
O O6 0.319701 0.075479 0.904816
O O7 0.558356 0.671784 0.271380
O O8 0.618614 0.748930 0.478232
O O9 0.178438 0.053772 0.114567
O O10 0.958146 0.108547 0.067920
O O11 0.000000 0.000000 0.262261
O O12 0.761716 0.082759 0.956820
#
# Coordination Sequence:
#
# PCOD9354821 Si02
#       6
#     4   8   8   8   8   8
#     4  10  22  42  70 104 146 190 250 322 398 448
#     4  12  28  46  73 109 159 210 255 311 394 475
#     4  11  24  44  73 107 147 198 258 320 379 468
#     4   9  22  42  69 108 143 186 248 323 381 450
#     4  11  24  48  74 111 155 205 259 319 391 465
#     4  10  22  40  73 101 144 192 256 319 382 452
#
# _framework density 26.766470000000002
#
# number of rings (size 3 to 8) (size 9 to 14) (size 15 to 20)
#    0.000    1.455    1.818    1.636    5.091    5.091 
#    0.000    1.818    0.000    0.000    0.000    0.000 
#    0.000    0.000    0.000    0.000    0.000    0.000 
#
# Total GULP energy -122726.159512 kJ/mol
# GULP energy per Si atom -5578.461796 kJ/mol
# Density = 2.670555 g / cm^3
# Si number density = 26.766470 Si / 1000 Ang^3
#
#
#
# Elastic Constant Matrix: (Units=GPa)
#
#
# Indices 1 2 3 4 5 6 
#
# 1 99.7946 44.0839 46.7535 0.0000 0.0000 0.0000
# 2 44.0839 191.8990 54.5044 0.0000 0.0000 0.0000
# 3 46.7535 54.5044 121.3232 0.0000 0.0000 0.0000
# 4 0.0000 0.0000 0.0000 38.3257 0.0000 0.0000
# 5 0.0000 0.0000 0.0000 0.0000 36.1598 0.0000
# 6 0.0000 0.0000 0.0000 0.0000 0.0000 54.2598
#
#
#
# Elastic Compliance Matrix: (Units=1/GPa)
#
#
# Indices 1 2 3 4 5 6 
#
# 1 0.012723 -0.001754 -0.004115 0.000000 0.000000 0.000000
# 2 -0.001754 0.006215 -0.002116 0.000000 0.000000 0.000000
# 3 -0.004115 -0.002116 0.010779 0.000000 0.000000 0.000000
# 4 0.000000 0.000000 0.000000 0.026092 0.000000 0.000000
# 5 0.000000 0.000000 0.000000 0.000000 0.027655 0.000000
# 6 0.000000 0.000000 0.000000 0.000000 0.000000 0.018430
#
#
# Mechanical properties :
#
#
# Convention : Reuss Voigt Hill
#
# Bulk Modulus (GPa) = 72.74473 78.18893 75.46683
# Shear Modulus (GPa) = 40.83389 43.59405 42.21397
#
# Velocity S-wave (km/s) = 3.91008 4.04007 3.97561
# Velocity P-wave (km/s) = 6.90084 7.14408 7.02351
#
# Compressibility (1/GPa) = 0.01374670
#
# Stress axis : x y z
#
# Youngs Moduli (GPa) = 78.59572 160.89908 92.77350
#
# Poissons Ratio (x) = 0.28223 0.38177
# Poissons Ratio (y) = 0.13786 0.19632
# Poissons Ratio (z) = 0.32343 0.34049
#
# Static dielectric constant tensor:
#      x y z
#    x 2.396550 0.000000 0.000000 
#    y 0.000000 2.267660 0.000000 
#    z 0.000000 0.000000 2.108640 
# 
# From -- ./inp_files/7140.got.cif
#   From: 2010.05.17/outbox.cif.g08.bks.cpg/sg37_4_cif.got.tgz:7140.got - 2010.06.03 17:53:42.
