data_PCOD9354761
_publ_section_title
;
Structure prediction by ZEFSAII (Michael W. Deem and Ramdas Pophale) SiO2 
 PCOD9354761
Probable space group: C C C 2
;
_chemical_formula_sum "Si O2"
_cell_formula_units_Z 56
_cell_length_a 12.786344
_cell_length_b 14.402938
_cell_length_c 14.669503
_cell_angle_alpha 90.000000
_cell_angle_beta 90.000000
_cell_angle_gamma 90.000000
_cell_volume 2701.549167
_symmetry_space_group_name_H-M "C C C 2"
_symmetry_group_IT_number 37
_symmetry_cell_setting 'orthorhombic'
loop_
_space_group_symop_operation_xyz
x,y,z
-x,-y,z
-x,y,1/2+z
x,-y,1/2+z
1/2+x,1/2+y,z
1/2-x,1/2-y,z
1/2-x,1/2+y,1/2+z
1/2+x,1/2-y,1/2+z
loop_
_atom_site_type_symbol
_atom_site_label
_atom_site_fract_x
_atom_site_fract_y
_atom_site_fract_z
Si Si1 0.574000 0.091569 0.438430
Si Si2 0.582824 0.577621 0.123732
Si Si3 0.760925 0.015972 0.007256
Si Si4 0.978103 0.391718 0.236266
Si Si5 0.372252 0.732200 0.776435
Si Si6 0.433736 0.643592 0.963689
Si Si7 0.897938 0.322089 0.052073
O O1 0.576900 0.117443 0.333309
O O2 0.511038 0.161353 0.503172
O O3 0.500000 0.000000 0.442249
O O4 0.689369 0.066025 0.469644
O O5 0.500000 0.500000 0.157616
O O6 0.688017 0.521478 0.099917
O O7 0.606590 0.659269 0.194832
O O8 0.532653 0.616472 0.027752
O O9 0.682412 0.102620 0.014238
O O10 0.860117 0.053641 0.951044
O O11 0.083162 0.332208 0.247456
O O12 0.000000 0.500000 0.215069
O O13 0.912477 0.344781 0.156995
O O14 0.250000 0.750000 0.797768
O O15 0.434434 0.693607 0.865446
O O16 0.372604 0.716900 0.028584
#
# Coordination Sequence:
#
# PCOD9354761 Si02
#       7
#     8   8   8   8   8   8   8
#     4   9  20  36  60  92 129 162 210 272 335 384
#     4  10  25  46  67  96 137 179 222 271 332 395
#     4  10  22  39  66  94 126 179 220 261 332 401
#     4  11  23  38  63  98 134 166 218 277 342 377
#     4  12  26  42  72 102 131 177 231 272 329 408
#     4  11  23  43  65  93 135 175 218 274 328 394
#     4  11  20  38  64  91 129 168 213 281 331 384
#
# _framework density 20.728847999999999
#
# number of rings (size 3 to 8) (size 9 to 14) (size 15 to 20)
#    0.000    1.429    2.857    2.571    8.000    1.714 
#    0.000    1.429    0.000    0.000    0.000    0.000 
#    0.000    0.000    0.000    0.000    0.000    0.000 
#
# Total GULP energy -156151.707249 kJ/mol
# GULP energy per Si atom -5576.846687 kJ/mol
# Density = 2.068167 g / cm^3
# Si number density = 20.728848 Si / 1000 Ang^3
#
#
#
# Elastic Constant Matrix: (Units=GPa)
#
#
# Indices 1 2 3 4 5 6 
#
# 1 38.2959 22.2442 15.6059 0.0000 0.0000 0.0000
# 2 22.2442 98.2348 19.6224 0.0000 0.0000 0.0000
# 3 15.6059 19.6224 40.0909 0.0000 0.0000 0.0000
# 4 0.0000 0.0000 0.0000 25.2389 0.0000 0.0000
# 5 0.0000 0.0000 0.0000 0.0000 13.0417 0.0000
# 6 0.0000 0.0000 0.0000 0.0000 0.0000 18.1768
#
#
#
# Elastic Compliance Matrix: (Units=1/GPa)
#
#
# Indices 1 2 3 4 5 6 
#
# 1 0.033541 -0.005527 -0.010351 0.000000 0.000000 0.000000
# 2 -0.005527 0.012194 -0.003817 0.000000 0.000000 0.000000
# 3 -0.010351 -0.003817 0.030841 0.000000 0.000000 0.000000
# 4 0.000000 0.000000 0.000000 0.039621 0.000000 0.000000
# 5 0.000000 0.000000 0.000000 0.000000 0.076677 0.000000
# 6 0.000000 0.000000 0.000000 0.000000 0.000000 0.055015
#
#
# Mechanical properties :
#
#
# Convention : Reuss Voigt Hill
#
# Bulk Modulus (GPa) = 26.89214 32.39629 29.64422
# Shear Modulus (GPa) = 16.68477 19.23473 17.95975
#
# Velocity S-wave (km/s) = 2.84016 3.04948 2.94668
# Velocity P-wave (km/s) = 4.87410 5.29733 5.09011
#
# Compressibility (1/GPa) = 0.03718558
#
# Stress axis : x y z
#
# Youngs Moduli (GPa) = 29.81407 82.00975 32.42479
#
# Poissons Ratio (x) = 0.45330 0.33563
# Poissons Ratio (y) = 0.16480 0.12375
# Poissons Ratio (z) = 0.30860 0.31299
#
# Static dielectric constant tensor:
#      x y z
#    x 1.747490 0.000000 0.000000 
#    y 0.000000 1.783530 0.000000 
#    z 0.000000 0.000000 1.733690 
# 
# From -- ./inp_files/11596.got.cif
#   From: 2010.05.17/outbox.cif.g08.bks.cpg/sg37_6_cif.got.tgz:11596.got - 2010.06.03 17:53:42.
