data_PCOD9354779
_publ_section_title
;
Structure prediction by ZEFSAII (Michael W. Deem and Ramdas Pophale) SiO2 
 PCOD9354779
Probable space group: C C C 2
;
_chemical_formula_sum "Si O2"
_cell_formula_units_Z 48
_cell_length_a 4.842391
_cell_length_b 16.558462
_cell_length_c 27.451991
_cell_angle_alpha 90.000000
_cell_angle_beta 90.000000
_cell_angle_gamma 90.000000
_cell_volume 2201.170569
_symmetry_space_group_name_H-M "C C C 2"
_symmetry_group_IT_number 37
_symmetry_cell_setting 'orthorhombic'
loop_
_space_group_symop_operation_xyz
x,y,z
-x,-y,z
-x,y,1/2+z
x,-y,1/2+z
1/2+x,1/2+y,z
1/2-x,1/2-y,z
1/2-x,1/2+y,1/2+z
1/2+x,1/2-y,1/2+z
loop_
_atom_site_type_symbol
_atom_site_label
_atom_site_fract_x
_atom_site_fract_y
_atom_site_fract_z
Si Si1 0.489917 0.192124 0.052280
Si Si2 0.489513 0.192086 0.942766
Si Si3 0.666482 0.160154 0.782370
Si Si4 0.381211 0.592628 0.228806
Si Si5 0.743762 0.942278 0.621709
Si Si6 0.254647 0.943370 0.873768
O O1 0.250000 0.250000 0.073815
O O2 0.607039 0.116651 0.082119
O O3 0.750000 0.250000 0.047215
O O4 0.395832 0.167568 0.997417
O O5 0.250000 0.250000 0.920557
O O6 0.603410 0.115870 0.913119
O O7 0.750000 0.250000 0.946401
O O8 0.750000 0.250000 0.799125
O O9 0.802970 0.107243 0.825478
O O10 0.855043 0.147983 0.735891
O O11 0.365094 0.126068 0.764761
O O12 0.500000 0.500000 0.237083
O O13 0.312997 0.601241 0.172042
O O14 0.500000 0.000000 0.637672
O O15 0.000000 0.000000 0.605346
O O16 0.500000 0.000000 0.857608
O O17 0.000000 0.000000 0.890069
#
# Coordination Sequence:
#
# PCOD9354779 Si02
#       6
#     8   8   8   8   8   8
#     4  10  22  40  63  91 125 164 205 257 314 370
#     4  10  22  42  64  89 126 166 206 257 315 372
#     4  12  25  41  63  91 123 164 209 260 315 378
#     4  11  23  42  62  87 124 165 208 258 315 374
#     4  11  23  39  62  90 122 162 204 254 313 372
#     4  12  25  40  64  94 124 163 209 260 317 380
#
# _framework density 21.806577999999998
#
# number of rings (size 3 to 8) (size 9 to 14) (size 15 to 20)
#    0.000    1.000    0.000    8.000    0.000    4.667 
#    0.000    0.000    0.000    0.000    0.000    0.000 
#    0.000    0.000    0.000    0.000    0.000    0.000 
#
# Total GULP energy -133691.744118 kJ/mol
# GULP energy per Si atom -5570.489338 kJ/mol
# Density = 2.175695 g / cm^3
# Si number density = 21.806578 Si / 1000 Ang^3
#
#
#
# Elastic Constant Matrix: (Units=GPa)
#
#
# Indices 1 2 3 4 5 6 
#
# 1 139.2732 35.3462 15.8844 0.0000 0.0000 0.0000
# 2 35.3462 93.9755 48.2121 0.0000 0.0000 0.0000
# 3 15.8844 48.2121 79.5706 0.0000 0.0000 0.0000
# 4 0.0000 0.0000 0.0000 -107.9085 0.0000 0.0000
# 5 0.0000 0.0000 0.0000 0.0000 24.2255 0.0000
# 6 0.0000 0.0000 0.0000 0.0000 0.0000 35.6799
#
#
#
# Elastic Compliance Matrix: (Units=1/GPa)
#
#
# Indices 1 2 3 4 5 6 
#
# 1 0.007944 -0.003155 0.000326 0.000000 0.000000 0.000000
# 2 -0.003155 0.016694 -0.009485 0.000000 0.000000 0.000000
# 3 0.000326 -0.009485 0.018249 0.000000 0.000000 0.000000
# 4 0.000000 0.000000 0.000000 -0.009267 0.000000 0.000000
# 5 0.000000 0.000000 0.000000 0.000000 0.041279 0.000000
# 6 0.000000 0.000000 0.000000 0.000000 0.000000 0.028027
#
#
# Mechanical properties :
#
#
# Convention : Reuss Voigt Hill
#
# Bulk Modulus (GPa) = 54.76867 56.85607 55.81237
# Shear Modulus (GPa) = 37.41394 4.62449 21.01922
#
# Velocity S-wave (km/s) = 4.14662 1.45784 3.10803
# Velocity P-wave (km/s) = 6.93513 5.38175 6.20723
#
# Compressibility (1/GPa) = 0.01825861
#
# Stress axis : x y z
#
# Youngs Moduli (GPa) = 125.88644 59.90255 54.79630
#
# Poissons Ratio (x) = 0.18899 -0.01785
# Poissons Ratio (y) = 0.39716 0.51974
# Poissons Ratio (z) = -0.04102 0.56818
#
# Static dielectric constant tensor:
#      x y z
#    x 1.923330 0.000000 0.000000 
#    y 0.000000 1.960720 0.000000 
#    z 0.000000 0.000000 1.853290 
# 
# From -- ./inp_files/19322.got.cif
#   From: 2010.05.17/outbox.cif.g08.bks.cpg/sg37_10_cif.got.tgz:19322.got - 2010.06.03 17:53:42.
