data_PCOD9354933
_publ_section_title
;
Structure prediction by ZEFSAII (Michael W. Deem and Ramdas Pophale) SiO2 
 PCOD9354933
Probable space group: C C C 2
;
_chemical_formula_sum "Si O2"
_cell_formula_units_Z 48
_cell_length_a 14.678609
_cell_length_b 5.908803
_cell_length_c 26.299617
_cell_angle_alpha 90.000000
_cell_angle_beta 90.000000
_cell_angle_gamma 90.000000
_cell_volume 2281.044915
_symmetry_space_group_name_H-M "C C C 2"
_symmetry_group_IT_number 37
_symmetry_cell_setting 'orthorhombic'
loop_
_space_group_symop_operation_xyz
x,y,z
-x,-y,z
-x,y,1/2+z
x,-y,1/2+z
1/2+x,1/2+y,z
1/2-x,1/2-y,z
1/2-x,1/2+y,1/2+z
1/2+x,1/2-y,1/2+z
loop_
_atom_site_type_symbol
_atom_site_label
_atom_site_fract_x
_atom_site_fract_y
_atom_site_fract_z
Si Si1 0.901156 0.897580 0.458980
Si Si2 0.500000 0.000000 0.129377
Si Si3 0.250000 0.250000 0.981369
Si Si4 0.350717 0.860869 0.861678
Si Si5 0.250000 0.250000 0.829877
Si Si6 0.658667 0.626948 0.261475
Si Si7 0.660811 0.885790 0.554057
Si Si8 0.500000 0.500000 0.185459
O O1 0.898900 0.724192 0.411810
O O2 0.885631 0.783566 0.513718
O O3 0.818987 0.079076 0.453084
O O4 0.000000 0.000000 0.458803
O O5 0.590883 0.019889 0.095183
O O6 0.502129 0.250617 0.157236
O O7 0.191984 0.409306 0.018357
O O8 0.250000 0.750000 0.864393
O O9 0.386459 0.785702 0.805879
O O10 0.328230 0.123859 0.861060
O O11 0.301468 0.421420 0.793538
O O12 0.750000 0.750000 0.240202
O O13 0.588722 0.534798 0.220683
O O14 0.750000 0.750000 0.574533
#
# Coordination Sequence:
#
# PCOD9354933 Si02
#       8
#     8   4   4   8   4   8   8   4
#     4  11  23  38  67 102 139 184 231 281 356 433
#     4  12  30  48  72 106 138 182 242 308 364 432
#     4  10  22  43  68  94 140 178 236 286 359 424
#     4   9  19  37  65  97 133 180 224 277 344 421
#     4   8  18  41  72  88 140 176 236 276 351 416
#     4   9  22  43  69  99 137 182 228 294 354 433
#     4  10  24  44  71  97 136 183 229 297 359 432
#     4  12  30  46  74 104 142 180 242 306 366 430
#
# _framework density 21.042987
#
# number of rings (size 3 to 8) (size 9 to 14) (size 15 to 20)
#    0.000    2.333    0.000    2.500   11.667    7.333 
#    0.000    0.000   11.000    0.000    0.000    0.000 
#    0.000    0.000    0.000    0.000    0.000    0.000 
#
# Total GULP energy -133787.604824 kJ/mol
# GULP energy per Si atom -5574.483534 kJ/mol
# Density = 2.099509 g / cm^3
# Si number density = 21.042987 Si / 1000 Ang^3
#
#
#
# Elastic Constant Matrix: (Units=GPa)
#
#
# Indices 1 2 3 4 5 6 
#
# 1 123.3027 65.0110 77.4264 0.0000 0.0000 0.0000
# 2 65.0110 150.7149 74.4528 0.0000 0.0000 0.0000
# 3 77.4264 74.4528 105.4535 0.0000 0.0000 0.0000
# 4 0.0000 0.0000 0.0000 39.0285 0.0000 0.0000
# 5 0.0000 0.0000 0.0000 0.0000 357.6370 0.0000
# 6 0.0000 0.0000 0.0000 0.0000 0.0000 22.1228
#
#
#
# Elastic Compliance Matrix: (Units=1/GPa)
#
#
# Indices 1 2 3 4 5 6 
#
# 1 0.015299 -0.001613 -0.010094 0.000000 0.000000 0.000000
# 2 -0.001613 0.010359 -0.006129 0.000000 0.000000 0.000000
# 3 -0.010094 -0.006129 0.021222 0.000000 0.000000 0.000000
# 4 0.000000 0.000000 0.000000 0.025622 0.000000 0.000000
# 5 0.000000 0.000000 0.000000 0.000000 0.002796 0.000000
# 6 0.000000 0.000000 0.000000 0.000000 0.000000 0.045202
#
#
# Mechanical properties :
#
#
# Convention : Reuss Voigt Hill
#
# Bulk Modulus (GPa) = 89.23212 90.36129 89.79671
# Shear Modulus (GPa) = 31.26795 94.59637 62.93216
#
# Velocity S-wave (km/s) = 3.85893 6.71204 5.47461
# Velocity P-wave (km/s) = 7.89632 10.15397 9.09547
#
# Compressibility (1/GPa) = 0.01120673
#
# Stress axis : x y z
#
# Youngs Moduli (GPa) = 65.36386 96.53866 47.12149
#
# Poissons Ratio (x) = 0.15569 0.47566
# Poissons Ratio (y) = 0.10541 0.28882
# Poissons Ratio (z) = 0.65980 0.59172
#
# Static dielectric constant tensor:
#      x y z
#    x 1.718780 0.000000 0.000000 
#    y 0.000000 1.862810 0.000000 
#    z 0.000000 0.000000 1.784810 
# 
# From -- ./inp_files/19923.got.cif
#   From: 2010.05.17/outbox.cif.g08.bks.cpg/sg37_10_cif.got.tgz:19923.got - 2010.06.03 17:53:42.
