data_PCOD9354214
_publ_section_title
;
Structure prediction by ZEFSAII (Michael W. Deem and Ramdas Pophale) SiO2 
 PCOD9354214
Probable space group: C C C 2
;
_chemical_formula_sum "Si O2"
_cell_formula_units_Z 40
_cell_length_a 6.368828
_cell_length_b 16.768118
_cell_length_c 14.222688
_cell_angle_alpha 90.000000
_cell_angle_beta 90.000000
_cell_angle_gamma 90.000000
_cell_volume 1518.887209
_symmetry_space_group_name_H-M "C C C 2"
_symmetry_group_IT_number 37
_symmetry_cell_setting 'orthorhombic'
loop_
_space_group_symop_operation_xyz
x,y,z
-x,-y,z
-x,y,1/2+z
x,-y,1/2+z
1/2+x,1/2+y,z
1/2-x,1/2-y,z
1/2-x,1/2+y,1/2+z
1/2+x,1/2-y,1/2+z
loop_
_atom_site_type_symbol
_atom_site_label
_atom_site_fract_x
_atom_site_fract_y
_atom_site_fract_z
Si Si1 0.750000 0.250000 0.741860
Si Si2 0.453878 0.086340 0.952637
Si Si3 0.211083 0.909386 0.643414
Si Si4 0.836848 0.169661 0.057058
Si Si5 0.583765 0.332128 0.376750
Si Si6 0.000000 0.000000 0.789827
O O1 0.687176 0.172815 0.680321
O O2 0.553480 0.281978 0.802935
O O3 0.309349 0.067450 0.044284
O O4 0.660319 0.124780 0.997687
O O5 0.500000 0.000000 0.907669
O O6 0.333253 0.151295 0.887883
O O7 0.033227 0.114281 0.626264
O O8 0.196824 0.976568 0.722598
O O9 0.750000 0.250000 0.102667
O O10 0.006418 0.195169 0.978711
O O11 0.521004 0.423291 0.354620
#
# Coordination Sequence:
#
# PCOD9354214 Si02
#       6
#     4   8   8   8   8   4
#     4  10  20  44  66 104 140 186 234 308 376 424
#     4  11  23  41  68 100 132 185 244 287 353 445
#     4  10  22  40  67  94 139 178 233 296 359 433
#     4  11  22  41  67  98 133 181 230 291 355 436
#     4  10  22  41  66  96 139 178 232 296 357 424
#     4  10  20  40  64  90 136 178 216 292 358 414
#
# _framework density 26.335070000000002
#
# number of rings (size 3 to 8) (size 9 to 14) (size 15 to 20)
#    0.000    1.600    1.000    3.600    0.000    5.600 
#    0.000   25.000    0.000    0.000    0.000    0.000 
#    0.000    0.000    0.000    0.000    0.000    0.000 
#
# Total GULP energy -111877.886188 kJ/mol
# GULP energy per Si atom -5593.894309 kJ/mol
# Density = 2.627513 g / cm^3
# Si number density = 26.335070 Si / 1000 Ang^3
#
#
#
# Elastic Constant Matrix: (Units=GPa)
#
#
# Indices 1 2 3 4 5 6 
#
# 1 123.6091 64.0196 18.4697 0.0000 0.0000 0.0000
# 2 64.0196 125.4798 29.9477 0.0000 0.0000 0.0000
# 3 18.4697 29.9477 78.9658 0.0000 0.0000 0.0000
# 4 0.0000 0.0000 0.0000 40.2105 0.0000 0.0000
# 5 0.0000 0.0000 0.0000 0.0000 39.7075 0.0000
# 6 0.0000 0.0000 0.0000 0.0000 0.0000 37.2254
#
#
#
# Elastic Compliance Matrix: (Units=1/GPa)
#
#
# Indices 1 2 3 4 5 6 
#
# 1 0.011013 -0.005502 -0.000489 0.000000 0.000000 0.000000
# 2 -0.005502 0.011511 -0.003079 0.000000 0.000000 0.000000
# 3 -0.000489 -0.003079 0.013946 0.000000 0.000000 0.000000
# 4 0.000000 0.000000 0.000000 0.024869 0.000000 0.000000
# 5 0.000000 0.000000 0.000000 0.000000 0.025184 0.000000
# 6 0.000000 0.000000 0.000000 0.000000 0.000000 0.026863
#
#
# Mechanical properties :
#
#
# Convention : Reuss Voigt Hill
#
# Bulk Modulus (GPa) = 54.55560 61.43652 57.99606
# Shear Modulus (GPa) = 36.32771 37.80320 37.06545
#
# Velocity S-wave (km/s) = 3.71811 3.79287 3.75568
# Velocity P-wave (km/s) = 6.26046 6.52385 6.39351
#
# Compressibility (1/GPa) = 0.01832992
#
# Stress axis : x y z
#
# Youngs Moduli (GPa) = 90.80471 86.87154 71.70636
#
# Poissons Ratio (x) = 0.47796 0.03508
# Poissons Ratio (y) = 0.49960 0.22077
# Poissons Ratio (z) = 0.04442 0.26746
#
# Static dielectric constant tensor:
#      x y z
#    x 2.164990 0.000000 0.000000 
#    y 0.000000 2.049570 0.000000 
#    z 0.000000 0.000000 2.002590 
# 
# From -- ./inp_files/10376.got.cif
#   From: 2010.05.17/outbox.cif.g08.bks.cpg/sg37_6_cif.got.tgz:10376.got - 2010.06.03 17:53:42.
