data_PCOD9354605
_publ_section_title
;
Structure prediction by ZEFSAII (Michael W. Deem and Ramdas Pophale) SiO2 
 PCOD9354605
Probable space group: C C C 2
;
_chemical_formula_sum "Si O2"
_cell_formula_units_Z 60
_cell_length_a 11.773931
_cell_length_b 11.841556
_cell_length_c 20.208160
_cell_angle_alpha 90.000000
_cell_angle_beta 90.000000
_cell_angle_gamma 90.000000
_cell_volume 2817.455279
_symmetry_space_group_name_H-M "C C C 2"
_symmetry_group_IT_number 37
_symmetry_cell_setting 'orthorhombic'
loop_
_space_group_symop_operation_xyz
x,y,z
-x,-y,z
-x,y,1/2+z
x,-y,1/2+z
1/2+x,1/2+y,z
1/2-x,1/2-y,z
1/2-x,1/2+y,1/2+z
1/2+x,1/2-y,1/2+z
loop_
_atom_site_type_symbol
_atom_site_label
_atom_site_fract_x
_atom_site_fract_y
_atom_site_fract_z
Si Si1 0.632321 0.307085 0.760380
Si Si2 0.250000 0.250000 0.959232
Si Si3 0.665900 0.353809 0.901153
Si Si4 0.787451 0.576420 0.847700
Si Si5 0.132393 0.769952 0.120650
Si Si6 0.047701 0.383019 0.727597
Si Si7 0.372821 0.540802 0.229921
Si Si8 0.478669 0.631041 0.516674
O O1 0.750000 0.250000 0.775506
O O2 0.593296 0.339311 0.833881
O O3 0.544551 0.216960 0.732902
O O4 0.674378 0.415167 0.718264
O O5 0.194593 0.338206 0.907644
O O6 0.352129 0.321679 0.996305
O O7 0.750000 0.250000 0.916048
O O8 0.747963 0.459762 0.882358
O O9 0.570390 0.366863 0.956879
O O10 0.893762 0.585485 0.797546
O O11 0.685863 0.597788 0.793722
O O12 0.250000 0.750000 0.082334
O O13 0.130461 0.667616 0.172831
O O14 0.130288 0.880146 0.167180
O O15 0.026894 0.784306 0.072329
O O16 0.000000 0.500000 0.701739
O O17 0.500000 0.500000 0.244579
O O18 0.500000 0.500000 0.540467
#
# Coordination Sequence:
#
# PCOD9354605 Si02
#       8
#     8   4   8   8   8   8   8   8
#     4  10  22  37  64 103 142 179 221 293 368 435
#     4  12  26  46  72 114 138 188 252 304 368 438
#     4  10  21  42  70 106 141 189 230 289 368 435
#     4  11  23  39  73 110 149 176 233 306 377 443
#     4  12  26  48  70  96 138 196 245 294 358 439
#     4  12  23  42  66 109 146 183 234 305 374 435
#     4  11  21  38  67 103 136 180 226 282 362 429
#     4  12  27  50  72 100 142 196 251 300 356 437
#
# _framework density 21.295812000000002
#
# number of rings (size 3 to 8) (size 9 to 14) (size 15 to 20)
#    0.000    0.800    4.000    4.800    3.733    0.000 
#    3.600    0.000    0.000    0.000    0.000    0.000 
#    0.000    0.000    0.000    0.000    0.000    0.000 
#
# Total GULP energy -167021.247800 kJ/mol
# GULP energy per Si atom -5567.374927 kJ/mol
# Density = 2.124734 g / cm^3
# Si number density = 21.295812 Si / 1000 Ang^3
#
#
#
# Elastic Constant Matrix: (Units=GPa)
#
#
# Indices 1 2 3 4 5 6 
#
# 1 89.6969 13.3900 32.0227 0.0000 0.0000 0.0000
# 2 13.3900 95.8585 31.0027 0.0000 0.0000 0.0000
# 3 32.0227 31.0027 65.7011 0.0000 0.0000 0.0000
# 4 0.0000 0.0000 0.0000 11.2302 0.0000 0.0000
# 5 0.0000 0.0000 0.0000 0.0000 29.2243 0.0000
# 6 0.0000 0.0000 0.0000 0.0000 0.0000 18.6226
#
#
#
# Elastic Compliance Matrix: (Units=1/GPa)
#
#
# Indices 1 2 3 4 5 6 
#
# 1 0.013504 0.000286 -0.006717 0.000000 0.000000 0.000000
# 2 0.000286 0.012317 -0.005951 0.000000 0.000000 0.000000
# 3 -0.006717 -0.005951 0.021303 0.000000 0.000000 0.000000
# 4 0.000000 0.000000 0.000000 0.089046 0.000000 0.000000
# 5 0.000000 0.000000 0.000000 0.000000 0.034218 0.000000
# 6 0.000000 0.000000 0.000000 0.000000 0.000000 0.053698
#
#
# Mechanical properties :
#
#
# Convention : Reuss Voigt Hill
#
# Bulk Modulus (GPa) = 44.72475 44.89860 44.81168
# Shear Modulus (GPa) = 19.50815 23.47147 21.48981
#
# Velocity S-wave (km/s) = 3.02992 3.32349 3.18009
# Velocity P-wave (km/s) = 5.76956 5.98803 5.87981
#
# Compressibility (1/GPa) = 0.02235898
#
# Stress axis : x y z
#
# Youngs Moduli (GPa) = 74.05255 81.18912 46.94268
#
# Poissons Ratio (x) = -0.02322 0.31530
# Poissons Ratio (y) = -0.02118 0.27938
# Poissons Ratio (z) = 0.49740 0.48319
#
# Static dielectric constant tensor:
#      x y z
#    x 1.820370 0.000000 0.000000 
#    y 0.000000 1.720020 0.000000 
#    z 0.000000 0.000000 1.793210 
# 
# From -- ./inp_files/16927.got.cif
#   From: 2010.05.17/outbox.cif.g08.bks.cpg/sg37_9_cif.got.tgz:16927.got - 2010.06.03 17:53:42.
