data_PCOD9354212
_publ_section_title
;
Structure prediction by ZEFSAII (Michael W. Deem and Ramdas Pophale) SiO2 
 PCOD9354212
Probable space group: C C C 2
;
_chemical_formula_sum "Si O2"
_cell_formula_units_Z 52
_cell_length_a 9.020772
_cell_length_b 13.381047
_cell_length_c 20.670787
_cell_angle_alpha 90.000000
_cell_angle_beta 90.000000
_cell_angle_gamma 90.000000
_cell_volume 2495.116420
_symmetry_space_group_name_H-M "C C C 2"
_symmetry_group_IT_number 37
_symmetry_cell_setting 'orthorhombic'
loop_
_space_group_symop_operation_xyz
x,y,z
-x,-y,z
-x,y,1/2+z
x,-y,1/2+z
1/2+x,1/2+y,z
1/2-x,1/2-y,z
1/2-x,1/2+y,1/2+z
1/2+x,1/2-y,1/2+z
loop_
_atom_site_type_symbol
_atom_site_label
_atom_site_fract_x
_atom_site_fract_y
_atom_site_fract_z
Si Si1 0.750000 0.250000 0.864640
Si Si2 0.377411 0.135580 0.469763
Si Si3 0.235401 0.937521 0.774241
Si Si4 0.672234 0.468487 0.399810
Si Si5 0.753773 0.562876 0.593893
Si Si6 0.500000 0.500000 0.172468
Si Si7 0.285247 0.139631 0.013439
Si Si8 0.000000 0.500000 0.191845
O O1 0.622894 0.222510 0.916442
O O2 0.787553 0.158209 0.818970
O O3 0.282797 0.138443 0.535636
O O4 0.543255 0.122597 0.494622
O O5 0.291397 0.046873 0.431230
O O6 0.214799 0.030762 0.824035
O O7 0.114582 0.943855 0.718535
O O8 0.393516 0.937523 0.739143
O O9 0.500000 0.500000 0.404642
O O10 0.694787 0.374547 0.446498
O O11 0.598204 0.574284 0.629424
O O12 0.747799 0.450833 0.562394
O O13 0.888756 0.561140 0.645101
O O14 0.250000 0.250000 0.039470
#
# Coordination Sequence:
#
# PCOD9354212 Si02
#       8
#     4   8   8   8   8   4   8   4
#     4  10  24  40  66  94 130 152 214 276 322 360
#     4  10  22  39  63  90 128 166 203 272 326 380
#     4  10  22  40  65  92 124 171 216 254 321 377
#     4  10  21  38  61  89 127 167 212 260 322 393
#     4  10  20  42  62  92 124 167 221 244 323 394
#     4  10  22  38  66  88 122 176 208 256 296 398
#     4  11  24  37  64  94 126 164 215 280 321 373
#     4  10  20  40  64  84 122 178 206 252 300 398
#
# _framework density 20.840710999999999
#
# number of rings (size 3 to 8) (size 9 to 14) (size 15 to 20)
#    0.000    1.846    2.308    1.385   12.923    0.000 
#    5.538    1.538    0.000    0.000    0.000    0.000 
#    0.000    0.000    0.000    0.000    0.000    0.000 
#
# Total GULP energy -144915.881564 kJ/mol
# GULP energy per Si atom -5573.687752 kJ/mol
# Density = 2.079328 g / cm^3
# Si number density = 20.840711 Si / 1000 Ang^3
#
#
#
# Elastic Constant Matrix: (Units=GPa)
#
#
# Indices 1 2 3 4 5 6 
#
# 1 115.3078 14.3104 49.2091 0.0000 0.0000 0.0000
# 2 14.3104 69.4348 27.4958 0.0000 0.0000 0.0000
# 3 49.2091 27.4958 127.3744 0.0000 0.0000 0.0000
# 4 0.0000 0.0000 0.0000 -62.9646 0.0000 0.0000
# 5 0.0000 0.0000 0.0000 0.0000 125.5245 0.0000
# 6 0.0000 0.0000 0.0000 0.0000 0.0000 10.7551
#
#
#
# Elastic Compliance Matrix: (Units=1/GPa)
#
#
# Indices 1 2 3 4 5 6 
#
# 1 0.010408 -0.000604 -0.003890 0.000000 0.000000 0.000000
# 2 -0.000604 0.015783 -0.003174 0.000000 0.000000 0.000000
# 3 -0.003890 -0.003174 0.010039 0.000000 0.000000 0.000000
# 4 0.000000 0.000000 0.000000 -0.015882 0.000000 0.000000
# 5 0.000000 0.000000 0.000000 0.000000 0.007967 0.000000
# 6 0.000000 0.000000 0.000000 0.000000 0.000000 0.092979
#
#
# Mechanical properties :
#
#
# Convention : Reuss Voigt Hill
#
# Bulk Modulus (GPa) = 47.86254 54.90528 51.38391
# Shear Modulus (GPa) = 34.82011 29.40311 32.11161
#
# Velocity S-wave (km/s) = 4.09194 3.76020 3.92958
# Velocity P-wave (km/s) = 6.73358 6.72715 6.73037
#
# Compressibility (1/GPa) = 0.02089317
#
# Stress axis : x y z
#
# Youngs Moduli (GPa) = 96.08242 63.35818 99.61226
#
# Poissons Ratio (x) = 0.03830 0.38753
# Poissons Ratio (y) = 0.05808 0.31612
# Poissons Ratio (z) = 0.37380 0.20107
#
# Static dielectric constant tensor:
#      x y z
#    x 1.747160 0.000000 0.000000 
#    y 0.000000 1.862000 0.000000 
#    z 0.000000 0.000000 1.759330 
# 
# From -- ./inp_files/18403.got.cif
#   From: 2010.05.17/outbox.cif.g08.bks.cpg/sg37_10_cif.got.tgz:18403.got - 2010.06.03 17:53:42.
