data_PCOD9354190
_publ_section_title
;
Structure prediction by ZEFSAII (Michael W. Deem and Ramdas Pophale) SiO2 
 PCOD9354190
Probable space group: C C C 2
;
_chemical_formula_sum "Si O2"
_cell_formula_units_Z 36
_cell_length_a 18.798407
_cell_length_b 5.604077
_cell_length_c 13.748013
_cell_angle_alpha 90.000000
_cell_angle_beta 90.000000
_cell_angle_gamma 90.000000
_cell_volume 1448.321828
_symmetry_space_group_name_H-M "C C C 2"
_symmetry_group_IT_number 37
_symmetry_cell_setting 'orthorhombic'
loop_
_space_group_symop_operation_xyz
x,y,z
-x,-y,z
-x,y,1/2+z
x,-y,1/2+z
1/2+x,1/2+y,z
1/2-x,1/2-y,z
1/2-x,1/2+y,1/2+z
1/2+x,1/2-y,1/2+z
loop_
_atom_site_type_symbol
_atom_site_label
_atom_site_fract_x
_atom_site_fract_y
_atom_site_fract_z
Si Si1 0.230544 0.498932 0.840280
Si Si2 0.000000 0.000000 0.285316
Si Si3 0.714838 0.497435 0.558105
Si Si4 0.925139 0.375071 0.904049
Si Si5 0.435796 0.651600 0.098594
O O1 0.250000 0.250000 0.790991
O O2 0.146946 0.507885 0.865960
O O3 0.250000 0.750000 0.791749
O O4 0.277588 0.500305 0.940006
O O5 0.060860 0.122423 0.349949
O O6 0.963822 0.186083 0.208035
O O7 0.750000 0.750000 0.585629
O O8 0.635211 0.498066 0.597385
O O9 0.750000 0.250000 0.586251
O O10 0.919141 0.357622 0.021614
O O11 0.000000 0.500000 0.885227
O O12 0.500000 0.500000 0.052195
#
# Coordination Sequence:
#
# PCOD9354190 Si02
#       5
#     8   4   8   8   8
#     4  10  22  39  70 108 137 182 244 301 368 449
#     4  10  26  46  68 108 156 186 264 304 386 452
#     4  10  20  39  68 103 134 181 240 296 363 442
#     4  12  25  43  77 104 145 201 252 314 380 456
#     4  10  23  44  73  99 144 196 246 303 375 448
#
# _framework density 24.856352999999999
#
# number of rings (size 3 to 8) (size 9 to 14) (size 15 to 20)
#    0.667    0.889    5.556    0.000    9.333    0.889 
#    4.000    1.111    0.000    0.000    0.000    0.000 
#    0.000    0.000    0.000    0.000    0.000    0.000 
#
# Total GULP energy -100509.141877 kJ/mol
# GULP energy per Si atom -5583.841215 kJ/mol
# Density = 2.479978 g / cm^3
# Si number density = 24.856353 Si / 1000 Ang^3
#
#
#
# Elastic Constant Matrix: (Units=GPa)
#
#
# Indices 1 2 3 4 5 6 
#
# 1 165.9290 55.2381 4.9457 0.0000 0.0000 0.0000
# 2 55.2381 164.7058 20.2125 0.0000 0.0000 0.0000
# 3 4.9457 20.2125 134.2109 0.0000 0.0000 0.0000
# 4 0.0000 0.0000 0.0000 -58.5397 0.0000 0.0000
# 5 0.0000 0.0000 0.0000 0.0000 5.6181 0.0000
# 6 0.0000 0.0000 0.0000 0.0000 0.0000 44.0537
#
#
#
# Elastic Compliance Matrix: (Units=1/GPa)
#
#
# Indices 1 2 3 4 5 6 
#
# 1 0.006785 -0.002287 0.000094 0.000000 0.000000 0.000000
# 2 -0.002287 0.006957 -0.000963 0.000000 0.000000 0.000000
# 3 0.000094 -0.000963 0.007593 0.000000 0.000000 0.000000
# 4 0.000000 0.000000 0.000000 -0.017082 0.000000 0.000000
# 5 0.000000 0.000000 0.000000 0.000000 0.177998 0.000000
# 6 0.000000 0.000000 0.000000 0.000000 0.000000 0.022700
#
#
# Mechanical properties :
#
#
# Convention : Reuss Voigt Hill
#
# Bulk Modulus (GPa) = 66.56818 69.51536 68.04177
# Shear Modulus (GPa) = 23.11936 23.85639 23.48787
#
# Velocity S-wave (km/s) = 3.05309 3.10138 3.07733
# Velocity P-wave (km/s) = 6.26640 6.39158 6.32930
#
# Compressibility (1/GPa) = 0.01502219
#
# Stress axis : x y z
#
# Youngs Moduli (GPa) = 147.37803 143.74573 131.70766
#
# Poissons Ratio (x) = 0.32877 -0.01244
# Poissons Ratio (y) = 0.33708 0.12689
# Poissons Ratio (z) = -0.01392 0.13849
#
# Static dielectric constant tensor:
#      x y z
#    x 1.908100 0.000000 0.000000 
#    y 0.000000 2.118400 0.000000 
#    z 0.000000 0.000000 1.938390 
# 
# From -- ./inp_files/12804.got.cif
#   From: 2010.05.17/outbox.cif.g08.bks.cpg/sg37_7_cif.got.tgz:12804.got - 2010.06.03 17:53:42.
