data_PCOD9354181
_publ_section_title
;
Structure prediction by ZEFSAII (Michael W. Deem and Ramdas Pophale) SiO2 
 PCOD9354181
Probable space group: C C C 2
;
_chemical_formula_sum "Si O2"
_cell_formula_units_Z 48
_cell_length_a 15.412207
_cell_length_b 5.385818
_cell_length_c 26.303337
_cell_angle_alpha 90.000000
_cell_angle_beta 90.000000
_cell_angle_gamma 90.000000
_cell_volume 2183.370087
_symmetry_space_group_name_H-M "C C C 2"
_symmetry_group_IT_number 37
_symmetry_cell_setting 'orthorhombic'
loop_
_space_group_symop_operation_xyz
x,y,z
-x,-y,z
-x,y,1/2+z
x,-y,1/2+z
1/2+x,1/2+y,z
1/2-x,1/2-y,z
1/2-x,1/2+y,1/2+z
1/2+x,1/2-y,1/2+z
loop_
_atom_site_type_symbol
_atom_site_label
_atom_site_fract_x
_atom_site_fract_y
_atom_site_fract_z
Si Si1 0.920932 0.187753 0.909260
Si Si2 0.445950 0.242671 0.296031
Si Si3 0.000000 0.500000 0.500373
Si Si4 0.853462 0.763304 0.193767
Si Si5 0.326443 0.063496 0.046383
Si Si6 0.850347 0.735431 0.645308
Si Si7 0.250000 0.750000 0.956783
O O1 0.915736 0.314068 0.853845
O O2 0.823004 0.117027 0.922849
O O3 0.949587 0.328372 0.960400
O O4 0.000000 0.000000 0.903061
O O5 0.500000 0.500000 0.295888
O O6 0.373919 0.283471 0.253152
O O7 0.500000 0.000000 0.280561
O O8 0.925394 0.355436 0.532478
O O9 0.750000 0.750000 0.186633
O O10 0.890451 0.505509 0.172003
O O11 0.887999 0.000903 0.162189
O O12 0.250000 0.250000 0.066484
O O13 0.343866 0.840054 0.086212
O O14 0.286211 0.957738 0.994811
O O15 0.750000 0.750000 0.662966
#
# Coordination Sequence:
#
# PCOD9354181 Si02
#       7
#     8   8   4   8   8   8   4
#     4  10  21  40  62  92 131 168 216 274 333 393
#     4  11  23  42  67  92 131 173 211 274 341 392
#     4  10  22  40  60  96 132 168 220 272 330 398
#     4  10  22  40  66  90 126 162 219 267 324 390
#     4  11  21  38  65  92 129 175 220 266 336 399
#     4  10  20  39  65  92 124 170 209 272 324 386
#     4  10  22  36  66  92 126 172 224 260 328 410
#
# _framework density 21.984362999999998
#
# number of rings (size 3 to 8) (size 9 to 14) (size 15 to 20)
#    0.000    1.667    1.667    3.500    1.167    0.000 
#    4.500    0.000    0.000    0.000    0.000    0.000 
#    0.000    0.000    0.000    0.000    0.000    0.000 
#
# Total GULP energy -133644.045021 kJ/mol
# GULP energy per Si atom -5568.501876 kJ/mol
# Density = 2.193433 g / cm^3
# Si number density = 21.984363 Si / 1000 Ang^3
#
#
#
# Elastic Constant Matrix: (Units=GPa)
#
#
# Indices 1 2 3 4 5 6 
#
# 1 98.4072 29.7700 50.2644 0.0000 0.0000 0.0000
# 2 29.7700 108.4517 38.8227 0.0000 0.0000 0.0000
# 3 50.2644 38.8227 113.0125 0.0000 0.0000 0.0000
# 4 0.0000 0.0000 0.0000 38.0308 0.0000 0.0000
# 5 0.0000 0.0000 0.0000 0.0000 32.1940 0.0000
# 6 0.0000 0.0000 0.0000 0.0000 0.0000 15.0799
#
#
#
# Elastic Compliance Matrix: (Units=1/GPa)
#
#
# Indices 1 2 3 4 5 6 
#
# 1 0.013439 -0.001767 -0.005371 0.000000 0.000000 0.000000
# 2 -0.001767 0.010746 -0.002906 0.000000 0.000000 0.000000
# 3 -0.005371 -0.002906 0.012235 0.000000 0.000000 0.000000
# 4 0.000000 0.000000 0.000000 0.026294 0.000000 0.000000
# 5 0.000000 0.000000 0.000000 0.000000 0.031062 0.000000
# 6 0.000000 0.000000 0.000000 0.000000 0.000000 0.066313
#
#
# Mechanical properties :
#
#
# Convention : Reuss Voigt Hill
#
# Bulk Modulus (GPa) = 61.21873 61.95396 61.58634
# Shear Modulus (GPa) = 26.93660 30.46191 28.69926
#
# Velocity S-wave (km/s) = 3.50417 3.72643 3.61701
# Velocity P-wave (km/s) = 6.65426 6.83792 6.74672
#
# Compressibility (1/GPa) = 0.01633487
#
# Stress axis : x y z
#
# Youngs Moduli (GPa) = 74.40769 93.05964 81.72988
#
# Poissons Ratio (x) = 0.16440 0.43894
# Poissons Ratio (y) = 0.13145 0.23748
# Poissons Ratio (z) = 0.39961 0.27041
#
# Static dielectric constant tensor:
#      x y z
#    x 2.411240 0.000000 0.000000 
#    y 0.000000 1.855400 0.000000 
#    z 0.000000 0.000000 1.807820 
# 
# From -- ./inp_files/19914.got.cif
#   From: 2010.05.17/outbox.cif.g08.bks.cpg/sg37_10_cif.got.tgz:19914.got - 2010.06.03 17:53:42.
