data_PCOD9354661
_publ_section_title
;
Structure prediction by ZEFSAII (Michael W. Deem and Ramdas Pophale) SiO2 
 PCOD9354661
Probable space group: C C C 2
;
_chemical_formula_sum "Si O2"
_cell_formula_units_Z 40
_cell_length_a 5.260716
_cell_length_b 19.081374
_cell_length_c 18.226056
_cell_angle_alpha 90.000000
_cell_angle_beta 90.000000
_cell_angle_gamma 90.000000
_cell_volume 1829.562294
_symmetry_space_group_name_H-M "C C C 2"
_symmetry_group_IT_number 37
_symmetry_cell_setting 'orthorhombic'
loop_
_space_group_symop_operation_xyz
x,y,z
-x,-y,z
-x,y,1/2+z
x,-y,1/2+z
1/2+x,1/2+y,z
1/2-x,1/2-y,z
1/2-x,1/2+y,1/2+z
1/2+x,1/2-y,1/2+z
loop_
_atom_site_type_symbol
_atom_site_label
_atom_site_fract_x
_atom_site_fract_y
_atom_site_fract_z
Si Si1 0.305996 0.441181 0.982970
Si Si2 0.508342 0.293861 0.954847
Si Si3 0.183273 0.941821 0.230564
Si Si4 0.500000 0.000000 0.615727
Si Si5 0.500000 0.000000 0.865443
Si Si6 0.492243 0.294352 0.280684
O O1 0.500000 0.500000 0.952612
O O2 0.454800 0.369061 0.989482
O O3 0.065896 0.438745 0.925847
O O4 0.204236 0.468133 0.060007
O O5 0.750000 0.250000 0.982424
O O6 0.549096 0.306748 0.867723
O O7 0.250000 0.250000 0.962991
O O8 0.405558 0.938916 0.170621
O O9 0.287363 0.977059 0.305701
O O10 0.042644 0.869561 0.245179
O O11 0.000000 0.000000 0.198190
O O12 0.750000 0.250000 0.272396
O O13 0.250000 0.250000 0.253649
#
# Coordination Sequence:
#
# PCOD9354661 Si02
#       6
#     8   8   8   4   4   8
#     4  11  23  41  69  97 136 182 235 295 346 431
#     4  10  23  39  66 104 140 170 216 286 361 417
#     4  11  23  41  69  97 136 182 235 295 346 431
#     4  10  26  42  68  92 136 186 256 282 354 414
#     4  10  22  34  68 106 132 170 236 286 364 404
#     4  10  23  39  66 104 140 170 216 286 361 417
#
# _framework density 21.863151999999999
#
# number of rings (size 3 to 8) (size 9 to 14) (size 15 to 20)
#    0.000    1.600    2.000    1.200   11.200    0.000 
#    0.000    0.000    8.800    0.000    0.000    0.000 
#    0.000    0.000    0.000    0.000    0.000    0.000 
#
# Total GULP energy -111508.215421 kJ/mol
# GULP energy per Si atom -5575.410771 kJ/mol
# Density = 2.181339 g / cm^3
# Si number density = 21.863152 Si / 1000 Ang^3
#
#
#
# Elastic Constant Matrix: (Units=GPa)
#
#
# Indices 1 2 3 4 5 6 
#
# 1 108.2352 66.6646 52.6682 0.0000 0.0000 0.0000
# 2 66.6646 157.6342 34.5665 0.0000 0.0000 0.0000
# 3 52.6682 34.5665 100.1715 0.0000 0.0000 0.0000
# 4 0.0000 0.0000 0.0000 6.8281 0.0000 0.0000
# 5 0.0000 0.0000 0.0000 0.0000 45.4873 0.0000
# 6 0.0000 0.0000 0.0000 0.0000 0.0000 41.8899
#
#
#
# Elastic Compliance Matrix: (Units=1/GPa)
#
#
# Indices 1 2 3 4 5 6 
#
# 1 0.015526 -0.005167 -0.006380 0.000000 0.000000 0.000000
# 2 -0.005167 0.008583 -0.000245 0.000000 0.000000 0.000000
# 3 -0.006380 -0.000245 0.013422 0.000000 0.000000 0.000000
# 4 0.000000 0.000000 0.000000 0.146454 0.000000 0.000000
# 5 0.000000 0.000000 0.000000 0.000000 0.021984 0.000000
# 6 0.000000 0.000000 0.000000 0.000000 0.000000 0.023872
#
#
# Mechanical properties :
#
#
# Convention : Reuss Voigt Hill
#
# Bulk Modulus (GPa) = 71.70351 74.87104 73.28728
# Shear Modulus (GPa) = 19.37417 32.98383 26.17900
#
# Velocity S-wave (km/s) = 2.98007 3.88835 3.46410
# Velocity P-wave (km/s) = 6.68646 7.38097 7.04228
#
# Compressibility (1/GPa) = 0.01394632
#
# Stress axis : x y z
#
# Youngs Moduli (GPa) = 64.40604 116.51323 74.50390
#
# Poissons Ratio (x) = 0.60204 0.47537
# Poissons Ratio (y) = 0.33279 0.01825
# Poissons Ratio (z) = 0.41094 0.02853
#
# Static dielectric constant tensor:
#      x y z
#    x 1.817300 0.000000 0.000000 
#    y 0.000000 1.763650 0.000000 
#    z 0.000000 0.000000 1.764100 
# 
# From -- ./inp_files/13752.got.cif
#   From: 2010.05.17/outbox.cif.g08.bks.cpg/sg37_7_cif.got.tgz:13752.got - 2010.06.03 17:53:42.
