data_PCOD9354530
_publ_section_title
;
Structure prediction by ZEFSAII (Michael W. Deem and Ramdas Pophale) SiO2 
 PCOD9354530
Probable space group: C C C 2
;
_chemical_formula_sum "Si O2"
_cell_formula_units_Z 64
_cell_length_a 9.072749
_cell_length_b 22.563285
_cell_length_c 14.276512
_cell_angle_alpha 90.000000
_cell_angle_beta 90.000000
_cell_angle_gamma 90.000000
_cell_volume 2922.559354
_symmetry_space_group_name_H-M "C C C 2"
_symmetry_group_IT_number 37
_symmetry_cell_setting 'orthorhombic'
loop_
_space_group_symop_operation_xyz
x,y,z
-x,-y,z
-x,y,1/2+z
x,-y,1/2+z
1/2+x,1/2+y,z
1/2-x,1/2-y,z
1/2-x,1/2+y,1/2+z
1/2+x,1/2-y,1/2+z
loop_
_atom_site_type_symbol
_atom_site_label
_atom_site_fract_x
_atom_site_fract_y
_atom_site_fract_z
Si Si1 0.821687 0.496689 0.256330
Si Si2 0.312536 0.896668 0.405573
Si Si3 0.112815 0.860530 0.578860
Si Si4 0.631507 0.828128 0.733308
Si Si5 0.189700 0.368906 0.254041
Si Si6 0.580049 0.245909 0.070890
Si Si7 0.315186 0.414589 0.609608
Si Si8 0.882582 0.364881 0.954152
O O1 0.770840 0.450810 0.337053
O O2 0.767518 0.563109 0.271490
O O3 0.753976 0.471161 0.160052
O O4 0.000000 0.500000 0.251668
O O5 0.212466 0.884832 0.494708
O O6 0.320984 0.837327 0.339964
O O7 0.482367 0.908395 0.432004
O O8 0.209574 0.845323 0.670621
O O9 0.021215 0.801647 0.550295
O O10 0.989663 0.909527 0.603970
O O11 0.481155 0.866004 0.722298
O O12 0.588523 0.767225 0.682835
O O13 0.757811 0.859040 0.672324
O O14 0.183546 0.339708 0.356988
O O15 0.750000 0.250000 0.039693
O O16 0.538840 0.185800 0.016864
O O17 0.241210 0.399857 0.510596
#
# Coordination Sequence:
#
# PCOD9354530 Si02
#       8
#     8   8   8   8   8   8   8   8
#     4  11  21  45  74  97 130 195 239 283 353 413
#     4  10  23  41  69 106 136 175 242 294 339 417
#     4  12  25  43  67 106 148 179 224 298 357 417
#     4   9  19  43  66  97 127 177 241 279 330 427
#     4  11  24  43  68 103 136 177 239 295 337 414
#     4  11  22  45  67  94 136 188 225 279 368 418
#     4  10  21  40  66  97 134 174 229 284 344 418
#     4  10  21  43  65 100 137 174 243 282 333 429
#
# _framework density 21.898614999999999
#
# number of rings (size 3 to 8) (size 9 to 14) (size 15 to 20)
#    0.000    1.500    6.250    1.500    0.000    5.500 
#    9.000    0.000    0.000    0.000    0.000    0.000 
#    0.000    0.000    0.000    0.000    0.000    0.000 
#
# Total GULP energy -178532.406284 kJ/mol
# GULP energy per Si atom -5579.137696 kJ/mol
# Density = 2.184877 g / cm^3
# Si number density = 21.898615 Si / 1000 Ang^3
#
#
#
# Elastic Constant Matrix: (Units=GPa)
#
#
# Indices 1 2 3 4 5 6 
#
# 1 103.4744 2.0903 62.3959 0.0000 0.0000 0.0000
# 2 2.0903 62.5186 13.1672 0.0000 0.0000 0.0000
# 3 62.3959 13.1672 130.4772 0.0000 0.0000 0.0000
# 4 0.0000 0.0000 0.0000 23.0776 0.0000 0.0000
# 5 0.0000 0.0000 0.0000 0.0000 2.0262 0.0000
# 6 0.0000 0.0000 0.0000 0.0000 0.0000 27.4483
#
#
#
# Elastic Compliance Matrix: (Units=1/GPa)
#
#
# Indices 1 2 3 4 5 6 
#
# 1 0.013634 0.000937 -0.006614 0.000000 0.000000 0.000000
# 2 0.000937 0.016407 -0.002104 0.000000 0.000000 0.000000
# 3 -0.006614 -0.002104 0.011040 0.000000 0.000000 0.000000
# 4 0.000000 0.000000 0.000000 0.043332 0.000000 0.000000
# 5 0.000000 0.000000 0.000000 0.000000 0.493547 0.000000
# 6 0.000000 0.000000 0.000000 0.000000 0.000000 0.036432
#
#
# Mechanical properties :
#
#
# Convention : Reuss Voigt Hill
#
# Bulk Modulus (GPa) = 39.18772 50.19742 44.69257
# Shear Modulus (GPa) = 7.83135 25.09820 16.46477
#
# Velocity S-wave (km/s) = 1.89313 3.38910 2.74499
# Velocity P-wave (km/s) = 4.76576 6.18765 5.52266
#
# Compressibility (1/GPa) = 0.02551820
#
# Stress axis : x y z
#
# Youngs Moduli (GPa) = 73.34671 60.94954 90.58280
#
# Poissons Ratio (x) = -0.05712 0.59916
# Poissons Ratio (y) = -0.06874 0.19058
# Poissons Ratio (z) = 0.48515 0.12823
#
# Static dielectric constant tensor:
#      x y z
#    x 1.799940 0.000000 0.000000 
#    y 0.000000 1.897660 0.000000 
#    z 0.000000 0.000000 1.842470 
# 
# From -- ./inp_files/11010.got.cif
#   From: 2010.05.17/outbox.cif.g08.bks.cpg/sg37_6_cif.got.tgz:11010.got - 2010.06.03 17:53:42.
