data_PCOD9354754
_publ_section_title
;
Structure prediction by ZEFSAII (Michael W. Deem and Ramdas Pophale) SiO2 
 PCOD9354754
Probable space group: C C C 2
;
_chemical_formula_sum "Si O2"
_cell_formula_units_Z 64
_cell_length_a 9.109844
_cell_length_b 14.929356
_cell_length_c 23.406631
_cell_angle_alpha 90.000000
_cell_angle_beta 90.000000
_cell_angle_gamma 90.000000
_cell_volume 3183.397881
_symmetry_space_group_name_H-M "C C C 2"
_symmetry_group_IT_number 37
_symmetry_cell_setting 'orthorhombic'
loop_
_space_group_symop_operation_xyz
x,y,z
-x,-y,z
-x,y,1/2+z
x,-y,1/2+z
1/2+x,1/2+y,z
1/2-x,1/2-y,z
1/2-x,1/2+y,1/2+z
1/2+x,1/2-y,1/2+z
loop_
_atom_site_type_symbol
_atom_site_label
_atom_site_fract_x
_atom_site_fract_y
_atom_site_fract_z
Si Si1 0.408279 0.907957 0.063070
Si Si2 0.074904 0.259820 0.135486
Si Si3 0.374571 0.815784 0.363390
Si Si4 0.416272 0.747034 0.762250
Si Si5 0.633569 0.542004 0.248833
Si Si6 0.825581 0.490056 0.847453
Si Si7 0.608089 0.427662 0.131767
Si Si8 0.338385 0.157222 0.436416
O O1 0.505938 0.830658 0.092148
O O2 0.261411 0.917432 0.100422
O O3 0.500000 0.000000 0.061526
O O4 0.358430 0.879818 0.999818
O O5 0.250000 0.250000 0.124506
O O6 0.067624 0.296005 0.201190
O O7 0.978971 0.167471 0.132068
O O8 0.250000 0.750000 0.383027
O O9 0.462276 0.780017 0.306965
O O10 0.284360 0.906908 0.352598
O O11 0.500516 0.826548 0.410187
O O12 0.250000 0.750000 0.786952
O O13 0.419141 0.643462 0.742233
O O14 0.500000 0.500000 0.285281
O O15 0.779934 0.542614 0.285209
O O16 0.642997 0.478950 0.192747
O O17 0.772031 0.419720 0.894690
O O18 0.000000 0.500000 0.852277
O O19 0.500000 0.500000 0.102562
O O20 0.250000 0.250000 0.435421
#
# Coordination Sequence:
#
# PCOD9354754 Si02
#       8
#     8   8   8   8   8   8   8   8
#     4  12  27  45  74  99 135 182 238 290 357 415
#     4  11  24  43  67 100 139 184 232 288 346 416
#     4  11  23  38  65 102 134 174 223 286 344 414
#     4  11  22  38  62  93 137 178 220 273 348 418
#     4  11  21  38  60  93 135 171 212 277 335 412
#     4  10  22  39  64  93 132 170 224 272 335 411
#     4  11  23  44  65 101 140 178 230 288 347 421
#     4  11  24  49  69  93 130 184 229 290 343 416
#
# _framework density 20.104303999999999
#
# number of rings (size 3 to 8) (size 9 to 14) (size 15 to 20)
#    0.000    1.000    2.500    6.375    3.500    1.000 
#    0.000    4.375    0.000    0.000    0.000    0.000 
#    0.000    0.000    0.000    0.000    0.000    0.000 
#
# Total GULP energy -178400.073880 kJ/mol
# GULP energy per Si atom -5575.002309 kJ/mol
# Density = 2.005855 g / cm^3
# Si number density = 20.104304 Si / 1000 Ang^3
#
#
#
# Elastic Constant Matrix: (Units=GPa)
#
#
# Indices 1 2 3 4 5 6 
#
# 1 90.5986 44.8194 50.7538 0.0000 0.0000 0.0000
# 2 44.8194 153.0377 64.9667 0.0000 0.0000 0.0000
# 3 50.7538 64.9667 125.0933 0.0000 0.0000 0.0000
# 4 0.0000 0.0000 0.0000 44.0704 0.0000 0.0000
# 5 0.0000 0.0000 0.0000 0.0000 -119.5835 0.0000
# 6 0.0000 0.0000 0.0000 0.0000 0.0000 36.6997
#
#
#
# Elastic Compliance Matrix: (Units=1/GPa)
#
#
# Indices 1 2 3 4 5 6 
#
# 1 0.014892 -0.002304 -0.004845 0.000000 0.000000 0.000000
# 2 -0.002304 0.008739 -0.003604 0.000000 0.000000 0.000000
# 3 -0.004845 -0.003604 0.011831 0.000000 0.000000 0.000000
# 4 0.000000 0.000000 0.000000 0.022691 0.000000 0.000000
# 5 0.000000 0.000000 0.000000 0.000000 -0.008362 0.000000
# 6 0.000000 0.000000 0.000000 0.000000 0.000000 0.027248
#
#
# Mechanical properties :
#
#
# Convention : Reuss Voigt Hill
#
# Bulk Modulus (GPa) = 71.65485 76.64548 74.15016
# Shear Modulus (GPa) = 48.45054 6.11663 27.28358
#
# Velocity S-wave (km/s) = 4.91446 1.74615 3.68788
# Velocity P-wave (km/s) = 8.24145 6.50170 7.42272
#
# Compressibility (1/GPa) = 0.01395579
#
# Stress axis : x y z
#
# Youngs Moduli (GPa) = 67.14967 114.42946 84.52065
#
# Poissons Ratio (x) = 0.26370 0.40953
# Poissons Ratio (y) = 0.15474 0.30458
# Poissons Ratio (z) = 0.32536 0.41236
#
# Static dielectric constant tensor:
#      x y z
#    x 1.739090 0.000000 0.000000 
#    y 0.000000 1.410550 0.000000 
#    z 0.000000 0.000000 1.717080 
# 
# From -- ./inp_files/18475.got.cif
#   From: 2010.05.17/outbox.cif.g08.bks.cpg/sg37_10_cif.got.tgz:18475.got - 2010.06.03 17:53:42.
