data_PCOD9354113
_publ_section_title
;
Structure prediction by ZEFSAII (Michael W. Deem and Ramdas Pophale) SiO2 
 PCOD9354113
Probable space group: C C C 2
;
_chemical_formula_sum "Si O2"
_cell_formula_units_Z 64
_cell_length_a 8.723181
_cell_length_b 14.880385
_cell_length_c 25.127013
_cell_angle_alpha 90.000000
_cell_angle_beta 90.000000
_cell_angle_gamma 90.000000
_cell_volume 3261.594125
_symmetry_space_group_name_H-M "C C C 2"
_symmetry_group_IT_number 37
_symmetry_cell_setting 'orthorhombic'
loop_
_space_group_symop_operation_xyz
x,y,z
-x,-y,z
-x,y,1/2+z
x,-y,1/2+z
1/2+x,1/2+y,z
1/2-x,1/2-y,z
1/2-x,1/2+y,1/2+z
1/2+x,1/2-y,1/2+z
loop_
_atom_site_type_symbol
_atom_site_label
_atom_site_fract_x
_atom_site_fract_y
_atom_site_fract_z
Si Si1 0.820713 0.650463 0.539690
Si Si2 0.377140 0.915930 0.665129
Si Si3 0.816204 0.006545 0.470090
Si Si4 0.683288 0.151772 0.157550
Si Si5 0.689803 0.648468 0.265149
Si Si6 0.178513 0.849760 0.264396
Si Si7 0.814953 0.649445 0.050924
Si Si8 0.313892 0.501405 0.348120
O O1 0.750000 0.750000 0.534011
O O2 0.754170 0.581605 0.497467
O O3 0.787002 0.612524 0.599295
O O4 0.004412 0.654914 0.537680
O O5 0.503269 0.836701 0.667980
O O6 0.262412 0.900637 0.713532
O O7 0.300996 0.902421 0.607552
O O8 0.500000 0.000000 0.666915
O O9 0.765364 0.092100 0.504800
O O10 0.762622 0.010063 0.408826
O O11 0.000000 0.000000 0.470864
O O12 0.750000 0.250000 0.153965
O O13 0.761871 0.108718 0.208673
O O14 0.750000 0.750000 0.268437
O O15 0.505273 0.651801 0.262490
O O16 0.734340 0.588365 0.316547
O O17 0.250000 0.750000 0.269366
O O18 0.231123 0.913215 0.312388
O O19 0.750000 0.750000 0.055677
O O20 0.500000 0.500000 0.348843
#
# Coordination Sequence:
#
# PCOD9354113 Si02
#       8
#     8   8   8   8   8   8   8   8
#     4  10  21  39  61  88 121 155 194 244 301 358
#     4  11  22  38  60  89 125 157 194 244 296 354
#     4  11  23  41  62  85 116 157 205 252 300 356
#     4   9  18  34  56  83 115 146 180 227 284 346
#     4  11  22  37  60  90 121 155 197 244 297 355
#     4  10  20  38  61  86 119 154 193 241 296 356
#     4  11  23  40  61  90 124 158 198 248 303 361
#     4   9  22  41  58  81 116 156 200 248 295 350
#
# _framework density 19.622305999999998
#
# number of rings (size 3 to 8) (size 9 to 14) (size 15 to 20)
#    0.000    1.750    0.000    5.250    0.000    5.000 
#    0.000   10.000    0.000    0.000    0.000    0.000 
#    0.000    0.000    0.000    0.000    0.000    0.000 
#
# Total GULP energy -178572.214806 kJ/mol
# GULP energy per Si atom -5580.381713 kJ/mol
# Density = 1.957764 g / cm^3
# Si number density = 19.622306 Si / 1000 Ang^3
#
#
#
# Elastic Constant Matrix: (Units=GPa)
#
#
# Indices 1 2 3 4 5 6 
#
# 1 72.2286 41.6566 61.2809 0.0000 0.0000 0.0000
# 2 41.6566 149.1901 86.5792 0.0000 0.0000 0.0000
# 3 61.2809 86.5792 196.9539 0.0000 0.0000 0.0000
# 4 0.0000 0.0000 0.0000 -37.1485 0.0000 0.0000
# 5 0.0000 0.0000 0.0000 0.0000 28.3527 0.0000
# 6 0.0000 0.0000 0.0000 0.0000 0.0000 34.0692
#
#
#
# Elastic Compliance Matrix: (Units=1/GPa)
#
#
# Indices 1 2 3 4 5 6 
#
# 1 0.019527 -0.002586 -0.004939 0.000000 0.000000 0.000000
# 2 -0.002586 0.009341 -0.003302 0.000000 0.000000 0.000000
# 3 -0.004939 -0.003302 0.008065 0.000000 0.000000 0.000000
# 4 0.000000 0.000000 0.000000 -0.026919 0.000000 0.000000
# 5 0.000000 0.000000 0.000000 0.000000 0.035270 0.000000
# 6 0.000000 0.000000 0.000000 0.000000 0.000000 0.029352
#
#
# Mechanical properties :
#
#
# Convention : Reuss Voigt Hill
#
# Bulk Modulus (GPa) = 65.44472 88.60068 77.02270
# Shear Modulus (GPa) = 49.31845 20.31175 34.81510
#
# Velocity S-wave (km/s) = 5.01881 3.22084 4.21677
# Velocity P-wave (km/s) = 8.18591 7.68654 7.94015
#
# Compressibility (1/GPa) = 0.01528007
#
# Stress axis : x y z
#
# Youngs Moduli (GPa) = 51.21224 107.05592 123.98770
#
# Poissons Ratio (x) = 0.27686 0.61234
# Poissons Ratio (y) = 0.13244 0.40935
# Poissons Ratio (z) = 0.25292 0.35345
#
# Static dielectric constant tensor:
#      x y z
#    x 1.691750 0.000000 0.000000 
#    y 0.000000 1.766110 0.000000 
#    z 0.000000 0.000000 1.708030 
# 
# From -- ./inp_files/18482.got.cif
#   From: 2010.05.17/outbox.cif.g08.bks.cpg/sg37_10_cif.got.tgz:18482.got - 2010.06.03 17:53:42.
