data_PCOD9354314
_publ_section_title
;
Structure prediction by ZEFSAII (Michael W. Deem and Ramdas Pophale) SiO2 
 PCOD9354314
Probable space group: C C C 2
;
_chemical_formula_sum "Si O2"
_cell_formula_units_Z 48
_cell_length_a 5.852812
_cell_length_b 13.957685
_cell_length_c 25.481759
_cell_angle_alpha 90.000000
_cell_angle_beta 90.000000
_cell_angle_gamma 90.000000
_cell_volume 2081.648371
_symmetry_space_group_name_H-M "C C C 2"
_symmetry_group_IT_number 37
_symmetry_cell_setting 'orthorhombic'
loop_
_space_group_symop_operation_xyz
x,y,z
-x,-y,z
-x,y,1/2+z
x,-y,1/2+z
1/2+x,1/2+y,z
1/2-x,1/2-y,z
1/2-x,1/2+y,1/2+z
1/2+x,1/2-y,1/2+z
loop_
_atom_site_type_symbol
_atom_site_label
_atom_site_fract_x
_atom_site_fract_y
_atom_site_fract_z
Si Si1 0.495797 0.697129 0.270820
Si Si2 0.750000 0.750000 0.941344
Si Si3 0.861242 0.354477 0.970574
Si Si4 0.000000 0.500000 0.651586
Si Si5 0.075926 0.894121 0.879350
Si Si6 0.141605 0.145136 0.164387
Si Si7 0.293895 0.365484 0.578973
O O1 0.250000 0.750000 0.282579
O O2 0.550567 0.624213 0.317874
O O3 0.464086 0.656070 0.212196
O O4 0.750000 0.750000 0.268243
O O5 0.625876 0.829943 0.976678
O O6 0.580412 0.688589 0.905240
O O7 0.750000 0.250000 0.973233
O O8 0.814740 0.387573 0.911232
O O9 0.744081 0.404470 0.019896
O O10 0.185747 0.562033 0.682256
O O11 0.114053 0.419899 0.615090
O O12 0.000000 0.000000 0.892138
O O13 0.250000 0.250000 0.157187
O O14 0.031617 0.117445 0.108724
O O15 0.250000 0.250000 0.580551
#
# Coordination Sequence:
#
# PCOD9354314 Si02
#       7
#     8   4   8   4   8   8   8
#     4  11  25  49  78 103 145 192 239 306 370 435
#     4  10  20  44  66  94 138 182 238 288 360 426
#     4   9  22  41  68  99 138 188 231 295 355 430
#     4  12  26  42  74 104 142 196 236 308 364 448
#     4  11  24  42  67 102 137 184 237 295 361 433
#     4  11  25  47  73 102 144 189 243 305 371 438
#     4  11  23  44  68 103 147 184 245 293 369 431
#
# _framework density 23.05865
#
# number of rings (size 3 to 8) (size 9 to 14) (size 15 to 20)
#    0.000    1.333    2.500    2.500    2.333    8.667 
#    1.500    0.000    0.000    0.000    0.000    0.000 
#    0.000    0.000    0.000    0.000    0.000    0.000 
#
# Total GULP energy -133667.004980 kJ/mol
# GULP energy per Si atom -5569.458541 kJ/mol
# Density = 2.300617 g / cm^3
# Si number density = 23.058650 Si / 1000 Ang^3
#
#
#
# Elastic Constant Matrix: (Units=GPa)
#
#
# Indices 1 2 3 4 5 6 
#
# 1 78.5444 21.9618 26.4477 0.0000 0.0000 0.0000
# 2 21.9618 89.0798 8.9554 0.0000 0.0000 0.0000
# 3 26.4477 8.9554 111.6340 0.0000 0.0000 0.0000
# 4 0.0000 0.0000 0.0000-1722.1369 0.0000 0.0000
# 5 0.0000 0.0000 0.0000 0.0000 -152.5541 0.0000
# 6 0.0000 0.0000 0.0000 0.0000 0.0000 30.5687
#
#
#
# Elastic Compliance Matrix: (Units=1/GPa)
#
#
# Indices 1 2 3 4 5 6 
#
# 1 0.014744 -0.003311 -0.003228 0.000000 0.000000 0.000000
# 2 -0.003311 0.012060 -0.000183 0.000000 0.000000 0.000000
# 3 -0.003228 -0.000183 0.009737 0.000000 0.000000 0.000000
# 4 0.000000 0.000000 0.000000 -0.000581 0.000000 0.000000
# 5 0.000000 0.000000 0.000000 0.000000 -0.006555 0.000000
# 6 0.000000 0.000000 0.000000 0.000000 0.000000 0.032713
#
#
# Mechanical properties :
#
#
# Convention : Reuss Voigt Hill
#
# Bulk Modulus (GPa) = 43.29143 43.77646 43.53394
# Shear Modulus (GPa) = 60.05174 -354.03157 -146.98991
#
# Velocity S-wave (km/s) = 5.10877 -12.40438 -7.99278
# Velocity P-wave (km/s) = 7.32220 13.64302 8.13994
#
# Compressibility (1/GPa) = 0.02309926
#
# Stress axis : x y z
#
# Youngs Moduli (GPa) = 67.82377 82.91538 102.69916
#
# Poissons Ratio (x) = 0.27450 0.33146
# Poissons Ratio (y) = 0.22453 0.01881
# Poissons Ratio (z) = 0.21890 0.01519
#
# Static dielectric constant tensor:
#      x y z
#    x 2.574860 0.000000 0.000000 
#    y 0.000000 3.250000 0.000000 
#    z 0.000000 0.000000 1.885820 
# 
# From -- ./inp_files/19351.got.cif
#   From: 2010.05.17/outbox.cif.g08.bks.cpg/sg37_10_cif.got.tgz:19351.got - 2010.06.03 17:53:42.
