data_PCOD9354397
_publ_section_title
;
Structure prediction by ZEFSAII (Michael W. Deem and Ramdas Pophale) SiO2 
 PCOD9354397
Probable space group: C C C 2
;
_chemical_formula_sum "Si O2"
_cell_formula_units_Z 64
_cell_length_a 16.111160
_cell_length_b 9.347275
_cell_length_c 19.419951
_cell_angle_alpha 90.000000
_cell_angle_beta 90.000000
_cell_angle_gamma 90.000000
_cell_volume 2924.556126
_symmetry_space_group_name_H-M "C C C 2"
_symmetry_group_IT_number 37
_symmetry_cell_setting 'orthorhombic'
loop_
_space_group_symop_operation_xyz
x,y,z
-x,-y,z
-x,y,1/2+z
x,-y,1/2+z
1/2+x,1/2+y,z
1/2-x,1/2-y,z
1/2-x,1/2+y,1/2+z
1/2+x,1/2-y,1/2+z
loop_
_atom_site_type_symbol
_atom_site_label
_atom_site_fract_x
_atom_site_fract_y
_atom_site_fract_z
Si Si1 0.626198 0.141671 0.662460
Si Si2 0.062381 0.699236 0.516916
Si Si3 0.580237 0.088699 0.811210
Si Si4 0.694572 0.536776 0.177585
Si Si5 0.130714 0.999596 0.041569
Si Si6 0.753179 0.915478 0.813029
Si Si7 0.781183 0.547695 0.962401
Si Si8 0.108629 0.276464 0.448659
O O1 0.577948 0.128521 0.591176
O O2 0.571987 0.128507 0.731332
O O3 0.663266 0.301784 0.667232
O O4 0.705773 0.036282 0.665000
O O5 0.138665 0.648752 0.468964
O O6 0.975275 0.664180 0.483006
O O7 0.067061 0.871020 0.529887
O O8 0.595691 0.216116 0.866017
O O9 0.500000 0.000000 0.833491
O O10 0.662742 0.990669 0.812876
O O11 0.641347 0.450081 0.120773
O O12 0.688310 0.491241 0.257241
O O13 0.122557 0.873177 0.986692
O O14 0.220536 0.070640 0.025973
O O15 0.750000 0.750000 0.793430
O O16 0.772720 0.926224 0.893862
O O17 0.817265 0.387377 0.962757
#
# Coordination Sequence:
#
# PCOD9354397 Si02
#       8
#     8   8   8   8   8   8   8   8
#     4   9  19  38  64  88 116 167 207 251 311 376
#     4  11  21  41  65  88 124 166 210 255 313 378
#     4  10  22  41  62  89 127 164 209 254 311 387
#     4   9  19  38  61  89 123 156 207 262 307 364
#     4  11  22  39  63  91 123 160 209 259 310 369
#     4  10  21  37  61  89 122 158 201 258 311 359
#     4  11  22  38  62  92 118 163 211 253 302 380
#     4  11  24  38  61  91 128 159 205 264 315 363
#
# _framework density 21.883662000000001
#
# number of rings (size 3 to 8) (size 9 to 14) (size 15 to 20)
#    0.000    1.750    1.250    3.750    1.750    2.000 
#    2.250    0.000    0.000    0.000    0.000    0.000 
#    0.000    0.000    0.000    0.000    0.000    0.000 
#
# Total GULP energy -178633.604026 kJ/mol
# GULP energy per Si atom -5582.300126 kJ/mol
# Density = 2.183385 g / cm^3
# Si number density = 21.883662 Si / 1000 Ang^3
#
#
#
# Elastic Constant Matrix: (Units=GPa)
#
#
# Indices 1 2 3 4 5 6 
#
# 1 43.6616 0.9333 17.5204 0.0000 0.0000 0.0000
# 2 0.9333 65.7743 26.7787 0.0000 0.0000 0.0000
# 3 17.5204 26.7787 156.1466 0.0000 0.0000 0.0000
# 4 0.0000 0.0000 0.0000 25.2192 0.0000 0.0000
# 5 0.0000 0.0000 0.0000 0.0000 22.0521 0.0000
# 6 0.0000 0.0000 0.0000 0.0000 0.0000 21.3598
#
#
#
# Elastic Compliance Matrix: (Units=1/GPa)
#
#
# Indices 1 2 3 4 5 6 
#
# 1 0.024024 0.000813 -0.002835 0.000000 0.000000 0.000000
# 2 0.000813 0.016372 -0.002899 0.000000 0.000000 0.000000
# 3 -0.002835 -0.002899 0.007220 0.000000 0.000000 0.000000
# 4 0.000000 0.000000 0.000000 0.039652 0.000000 0.000000
# 5 0.000000 0.000000 0.000000 0.000000 0.045347 0.000000
# 6 0.000000 0.000000 0.000000 0.000000 0.000000 0.046817
#
#
# Mechanical properties :
#
#
# Convention : Reuss Voigt Hill
#
# Bulk Modulus (GPa) = 26.47329 39.56081 33.01705
# Shear Modulus (GPa) = 24.76907 28.41623 26.59265
#
# Velocity S-wave (km/s) = 3.36795 3.60740 3.48973
# Velocity P-wave (km/s) = 5.21993 5.95551 5.59981
#
# Compressibility (1/GPa) = 0.03777392
#
# Stress axis : x y z
#
# Youngs Moduli (GPa) = 41.62556 61.07898 138.51328
#
# Poissons Ratio (x) = -0.04968 0.39269
# Poissons Ratio (y) = -0.03386 0.40156
# Poissons Ratio (z) = 0.11801 0.17707
#
# Static dielectric constant tensor:
#      x y z
#    x 1.784190 0.000000 0.000000 
#    y 0.000000 1.827490 0.000000 
#    z 0.000000 0.000000 1.839990 
# 
# From -- ./inp_files/17356.got.cif
#   From: 2010.05.17/outbox.cif.g08.bks.cpg/sg37_9_cif.got.tgz:17356.got - 2010.06.03 17:53:42.
