data_PCOD9354649
_publ_section_title
;
Structure prediction by ZEFSAII (Michael W. Deem and Ramdas Pophale) SiO2 
 PCOD9354649
Probable space group: C C C 2
;
_chemical_formula_sum "Si O2"
_cell_formula_units_Z 44
_cell_length_a 12.938735
_cell_length_b 11.618633
_cell_length_c 11.684091
_cell_angle_alpha 90.000000
_cell_angle_beta 90.000000
_cell_angle_gamma 90.000000
_cell_volume 1756.474231
_symmetry_space_group_name_H-M "C C C 2"
_symmetry_group_IT_number 37
_symmetry_cell_setting 'orthorhombic'
loop_
_space_group_symop_operation_xyz
x,y,z
-x,-y,z
-x,y,1/2+z
x,-y,1/2+z
1/2+x,1/2+y,z
1/2-x,1/2-y,z
1/2-x,1/2+y,1/2+z
1/2+x,1/2-y,1/2+z
loop_
_atom_site_type_symbol
_atom_site_label
_atom_site_fract_x
_atom_site_fract_y
_atom_site_fract_z
Si Si1 0.144077 0.199985 0.054380
Si Si2 0.500000 0.000000 0.790411
Si Si3 0.854744 0.325947 0.907747
Si Si4 0.176583 0.113078 0.302981
Si Si5 0.973051 0.113155 0.335975
Si Si6 0.062370 0.301154 0.648796
O O1 0.250000 0.250000 0.004164
O O2 0.182547 0.129275 0.166346
O O3 0.058434 0.288798 0.106164
O O4 0.078759 0.132118 0.960459
O O5 0.550086 0.095671 0.868301
O O6 0.426126 0.076310 0.709742
O O7 0.766872 0.431126 0.883597
O O8 0.916310 0.198912 0.856831
O O9 0.862578 0.296755 0.041233
O O10 0.250000 0.250000 0.339408
O O11 0.081129 0.017521 0.310966
O O12 0.926125 0.192653 0.234375
#
# Coordination Sequence:
#
# PCOD9354649 Si02
#       6
#     8   4   8   8   8   8
#     4  11  20  42  72  96 138 192 233 294 353 429
#     4  12  20  40  68 110 138 168 236 292 356 418
#     4  11  21  43  71  96 139 186 230 286 365 423
#     4  10  21  46  67  93 141 197 227 284 371 432
#     4  11  25  47  68 102 142 192 242 294 356 436
#     4  11  23  43  70 101 144 181 232 300 360 420
#
# _framework density 25.050183000000001
#
# number of rings (size 3 to 8) (size 9 to 14) (size 15 to 20)
#    0.000    1.091    7.273    0.545    0.000    2.909 
#   16.364    0.000    0.000    0.000    0.000    0.000 
#    0.000    0.000    0.000    0.000    0.000    0.000 
#
# Total GULP energy -122504.218367 kJ/mol
# GULP energy per Si atom -5568.373562 kJ/mol
# Density = 2.499317 g / cm^3
# Si number density = 25.050183 Si / 1000 Ang^3
#
#
#
# Elastic Constant Matrix: (Units=GPa)
#
#
# Indices 1 2 3 4 5 6 
#
# 1 123.7619 32.1604 51.6311 0.0000 0.0000 0.0000
# 2 32.1604 192.0823 63.4987 0.0000 0.0000 0.0000
# 3 51.6311 63.4987 188.1207 0.0000 0.0000 0.0000
# 4 0.0000 0.0000 0.0000 35.3936 0.0000 0.0000
# 5 0.0000 0.0000 0.0000 0.0000 32.6956 0.0000
# 6 0.0000 0.0000 0.0000 0.0000 0.0000 23.5287
#
#
#
# Elastic Compliance Matrix: (Units=1/GPa)
#
#
# Indices 1 2 3 4 5 6 
#
# 1 0.009232 -0.000797 -0.002265 0.000000 0.000000 0.000000
# 2 -0.000797 0.005929 -0.001782 0.000000 0.000000 0.000000
# 3 -0.002265 -0.001782 0.006539 0.000000 0.000000 0.000000
# 4 0.000000 0.000000 0.000000 0.028254 0.000000 0.000000
# 5 0.000000 0.000000 0.000000 0.000000 0.030585 0.000000
# 6 0.000000 0.000000 0.000000 0.000000 0.000000 0.042501
#
#
# Mechanical properties :
#
#
# Convention : Reuss Voigt Hill
#
# Bulk Modulus (GPa) = 83.25540 88.72727 85.99134
# Shear Modulus (GPa) = 36.56785 42.10188 39.33486
#
# Velocity S-wave (km/s) = 3.82486 4.10408 3.96693
# Velocity P-wave (km/s) = 7.26730 7.61280 7.44205
#
# Compressibility (1/GPa) = 0.01201123
#
# Stress axis : x y z
#
# Youngs Moduli (GPa) = 108.31948 168.66821 152.92929
#
# Poissons Ratio (x) = 0.13443 0.34635
# Poissons Ratio (y) = 0.08633 0.27259
# Poissons Ratio (z) = 0.24532 0.30065
#
# Static dielectric constant tensor:
#      x y z
#    x 2.134940 0.000000 0.000000 
#    y 0.000000 2.546640 0.000000 
#    z 0.000000 0.000000 1.885970 
# 
# From -- ./inp_files/7355.got.cif
#   From: 2010.05.17/outbox.cif.g08.bks.cpg/sg37_4_cif.got.tgz:7355.got - 2010.06.03 17:53:42.
