data_PCOD9354422
_publ_section_title
;
Structure prediction by ZEFSAII (Michael W. Deem and Ramdas Pophale) SiO2 
 PCOD9354422
Probable space group: C C C 2
;
_chemical_formula_sum "Si O2"
_cell_formula_units_Z 64
_cell_length_a 26.791376
_cell_length_b 6.826888
_cell_length_c 19.080553
_cell_angle_alpha 90.000000
_cell_angle_beta 90.000000
_cell_angle_gamma 90.000000
_cell_volume 3489.866026
_symmetry_space_group_name_H-M "C C C 2"
_symmetry_group_IT_number 37
_symmetry_cell_setting 'orthorhombic'
loop_
_space_group_symop_operation_xyz
x,y,z
-x,-y,z
-x,y,1/2+z
x,-y,1/2+z
1/2+x,1/2+y,z
1/2-x,1/2-y,z
1/2-x,1/2+y,1/2+z
1/2+x,1/2-y,1/2+z
loop_
_atom_site_type_symbol
_atom_site_label
_atom_site_fract_x
_atom_site_fract_y
_atom_site_fract_z
Si Si1 0.871240 0.171982 0.525490
Si Si2 0.056537 0.924465 0.281326
Si Si3 0.193400 0.177694 0.688898
Si Si4 0.306600 0.677694 0.026096
Si Si5 0.371240 0.328018 0.189504
Si Si6 0.880823 0.563640 0.778342
Si Si7 0.443463 0.424465 0.433668
Si Si8 0.380823 0.063640 0.436652
O O1 0.876675 0.209336 0.607497
O O2 0.879110 0.370031 0.483242
O O3 0.819185 0.052572 0.514877
O O4 0.912862 0.024373 0.495950
O O5 0.068208 0.692833 0.278010
O O6 0.087138 0.024373 0.219045
O O7 0.075869 1.000000 0.357497
O O8 0.000000 0.000000 0.277066
O O9 0.250000 0.250000 0.695075
O O10 0.177750 0.218173 0.607497
O O11 0.160690 0.295158 0.744778
O O12 0.180815 0.947428 0.700117
O O13 0.250000 0.750000 0.019919
O O14 0.339310 0.795158 0.970216
O O15 0.379110 0.129969 0.231752
O O16 0.870378 0.500000 0.857497
O O17 0.500000 0.500000 0.437928
O O18 0.431792 0.192833 0.436984
#
# Coordination Sequence:
#
# PCOD9354422 Si02
#       8
#     8   8   8   8   8   8   8   8
#     4  10  21  38  61  88 119 154 195 247 298 354
#     4  10  21  39  59  82 116 158 199 245 305 369
#     4   9  20  39  60  85 120 160 198 237 295 366
#     4   9  20  39  60  85 120 160 198 237 295 366
#     4  10  21  38  61  88 119 154 195 247 298 354
#     4  11  21  37  58  86 118 155 200 254 302 356
#     4  10  21  39  59  82 116 158 199 245 305 369
#     4  11  21  37  58  86 118 155 200 254 302 356
#
# _framework density 18.338813999999999
#
# number of rings (size 3 to 8) (size 9 to 14) (size 15 to 20)
#    0.000    2.000    2.500    0.750    0.000    3.500 
#    4.500    5.000    0.000    0.000    0.000    0.000 
#    0.000    0.000    0.000    0.000    0.000    0.000 
#
# Total GULP energy -178295.274382 kJ/mol
# GULP energy per Si atom -5571.727324 kJ/mol
# Density = 1.829707 g / cm^3
# Si number density = 18.338814 Si / 1000 Ang^3
#
#
#
# Elastic Constant Matrix: (Units=GPa)
#
#
# Indices 1 2 3 4 5 6 
#
# 1 76.4351 42.0365 44.5322 0.0000 0.0000 0.0000
# 2 42.0365 144.5455 82.1260 0.0000 0.0000 0.0000
# 3 44.5322 82.1260 126.6160 0.0000 0.0000 0.0000
# 4 0.0000 0.0000 0.0000 42.2777 0.0000 0.0000
# 5 0.0000 0.0000 0.0000 0.0000 22.4879 0.0000
# 6 0.0000 0.0000 0.0000 0.0000 0.0000 -3.1668
#
#
#
# Elastic Compliance Matrix: (Units=1/GPa)
#
#
# Indices 1 2 3 4 5 6 
#
# 1 0.016984 -0.002447 -0.004386 0.000000 0.000000 0.000000
# 2 -0.002447 0.011308 -0.006474 0.000000 0.000000 0.000000
# 3 -0.004386 -0.006474 0.013640 0.000000 0.000000 0.000000
# 4 0.000000 0.000000 0.000000 0.023653 0.000000 0.000000
# 5 0.000000 0.000000 0.000000 0.000000 0.044468 0.000000
# 6 0.000000 0.000000 0.000000 0.000000 0.000000 -0.315781
#
#
# Mechanical properties :
#
#
# Convention : Reuss Voigt Hill
#
# Bulk Modulus (GPa) = 65.28551 76.10956 70.69753
# Shear Modulus (GPa) = -28.73462 24.24657 -2.24402
#
# Velocity S-wave (km/s) = -3.96267 3.64008 -1.10739
# Velocity P-wave (km/s) = 3.83926 7.69798 6.08271
#
# Compressibility (1/GPa) = 0.01531734
#
# Stress axis : x y z
#
# Youngs Moduli (GPa) = 58.87760 88.43051 73.31473
#
# Poissons Ratio (x) = 0.21641 0.32158
# Poissons Ratio (y) = 0.14409 0.47465
# Poissons Ratio (z) = 0.25825 0.57251
#
# Static dielectric constant tensor:
#      x y z
#    x 1.638120 0.000000 0.000000 
#    y 0.000000 1.675590 0.000000 
#    z 0.000000 0.000000 1.611930 
# 
# From -- ./inp_files/16029.got.cif
#   From: 2010.05.17/outbox.cif.g08.bks.cpg/sg37_9_cif.got.tgz:16029.got - 2010.06.03 17:53:42.
