data_PCOD9354597
_publ_section_title
;
Structure prediction by ZEFSAII (Michael W. Deem and Ramdas Pophale) SiO2 
 PCOD9354597
Probable space group: C C C 2
;
_chemical_formula_sum "Si O2"
_cell_formula_units_Z 48
_cell_length_a 15.293480
_cell_length_b 14.623086
_cell_length_c 10.847067
_cell_angle_alpha 90.000000
_cell_angle_beta 90.000000
_cell_angle_gamma 90.000000
_cell_volume 2425.814995
_symmetry_space_group_name_H-M "C C C 2"
_symmetry_group_IT_number 37
_symmetry_cell_setting 'orthorhombic'
loop_
_space_group_symop_operation_xyz
x,y,z
-x,-y,z
-x,y,1/2+z
x,-y,1/2+z
1/2+x,1/2+y,z
1/2-x,1/2-y,z
1/2-x,1/2+y,1/2+z
1/2+x,1/2-y,1/2+z
loop_
_atom_site_type_symbol
_atom_site_label
_atom_site_fract_x
_atom_site_fract_y
_atom_site_fract_z
Si Si1 0.389770 0.845838 0.523000
Si Si2 0.000000 0.500000 0.149620
Si Si3 0.174827 0.573941 0.267185
Si Si4 0.889770 0.845838 0.947633
Si Si5 0.825174 0.926059 0.203448
Si Si6 0.250000 0.250000 0.765060
Si Si7 0.500000 0.500000 0.321012
Si Si8 0.250000 0.750000 0.705572
O O1 0.339493 0.894473 0.409341
O O2 0.433904 0.750000 0.485316
O O3 0.319432 0.808224 0.623055
O O4 0.459545 0.917099 0.572103
O O5 0.918240 0.464517 0.227398
O O6 0.250000 0.500000 0.235316
O O7 0.198496 0.669124 0.197929
O O8 0.819432 0.808224 0.847578
O O9 0.959545 0.917099 0.898529
O O10 0.839493 0.894473 0.061292
O O11 0.801504 0.830876 0.272704
O O12 0.918240 0.964517 0.243234
#
# Coordination Sequence:
#
# PCOD9354597 Si02
#       8
#     8   4   8   8   8   4   4   4
#     4  10  22  41  63  89 125 171 206 251 319 378
#     4  12  24  38  66  96 124 160 216 270 298 368
#     4  11  22  40  65  94 121 166 213 252 310 380
#     4  10  22  41  63  89 125 171 206 251 319 378
#     4  11  22  40  65  94 121 166 213 252 310 380
#     4  10  21  42  68  85 128 173 202 250 324 381
#     4  12  24  38  66  96 124 160 216 270 298 368
#     4  10  21  42  68  85 128 173 202 250 324 381
#
# _framework density 19.787164000000001
#
# number of rings (size 3 to 8) (size 9 to 14) (size 15 to 20)
#    0.000    1.333    3.333    5.500    0.000    5.333 
#    6.000    0.000    0.000    0.000    0.000    0.000 
#    0.000    0.000    0.000    0.000    0.000    0.000 
#
# Total GULP energy -133694.844465 kJ/mol
# GULP energy per Si atom -5570.618519 kJ/mol
# Density = 1.974213 g / cm^3
# Si number density = 19.787164 Si / 1000 Ang^3
#
#
#
# Elastic Constant Matrix: (Units=GPa)
#
#
# Indices 1 2 3 4 5 6 
#
# 1 156.1232 95.1428 28.1743 0.0000 0.0000 0.0000
# 2 95.1428 193.6173 44.2802 0.0000 0.0000 0.0000
# 3 28.1743 44.2802 26.8949 0.0000 0.0000 0.0000
# 4 0.0000 0.0000 0.0000 37.4558 0.0000 0.0000
# 5 0.0000 0.0000 0.0000 0.0000 9.4335 0.0000
# 6 0.0000 0.0000 0.0000 0.0000 0.0000 59.3827
#
#
#
# Elastic Compliance Matrix: (Units=1/GPa)
#
#
# Indices 1 2 3 4 5 6 
#
# 1 0.009353 -0.003778 -0.003578 0.000000 0.000000 0.000000
# 2 -0.003778 0.009810 -0.012194 0.000000 0.000000 0.000000
# 3 -0.003578 -0.012194 0.061006 0.000000 0.000000 0.000000
# 4 0.000000 0.000000 0.000000 0.026698 0.000000 0.000000
# 5 0.000000 0.000000 0.000000 0.000000 0.106006 0.000000
# 6 0.000000 0.000000 0.000000 0.000000 0.000000 0.016840
#
#
# Mechanical properties :
#
#
# Convention : Reuss Voigt Hill
#
# Bulk Modulus (GPa) = 24.34889 79.09221 51.72055
# Shear Modulus (GPa) = 17.69897 35.19027 26.44462
#
# Velocity S-wave (km/s) = 2.99401 4.22173 3.65972
# Velocity P-wave (km/s) = 4.92790 7.98888 6.63726
#
# Compressibility (1/GPa) = 0.04106963
#
# Stress axis : x y z
#
# Youngs Moduli (GPa) = 106.91599 101.93807 16.39179
#
# Poissons Ratio (x) = 0.38509 0.05866
# Poissons Ratio (y) = 0.40390 0.19988
# Poissons Ratio (z) = 0.38258 1.24300
#
# Static dielectric constant tensor:
#      x y z
#    x 1.748630 0.000000 0.000000 
#    y 0.000000 1.772410 0.000000 
#    z 0.000000 0.000000 1.756860 
# 
# From -- ./inp_files/3540.got.cif
#   From: 2010.05.17/outbox.cif.g08.bks.cpg/sg37_2_cif.got.tgz:3540.got - 2010.06.03 17:53:42.
