data_PCOD9354142
_publ_section_title
;
Structure prediction by ZEFSAII (Michael W. Deem and Ramdas Pophale) SiO2 
 PCOD9354142
Probable space group: C C C 2
;
_chemical_formula_sum "Si O2"
_cell_formula_units_Z 44
_cell_length_a 7.256123
_cell_length_b 16.941149
_cell_length_c 14.201986
_cell_angle_alpha 90.000000
_cell_angle_beta 90.000000
_cell_angle_gamma 90.000000
_cell_volume 1745.808398
_symmetry_space_group_name_H-M "C C C 2"
_symmetry_group_IT_number 37
_symmetry_cell_setting 'orthorhombic'
loop_
_space_group_symop_operation_xyz
x,y,z
-x,-y,z
-x,y,1/2+z
x,-y,1/2+z
1/2+x,1/2+y,z
1/2-x,1/2-y,z
1/2-x,1/2+y,1/2+z
1/2+x,1/2-y,1/2+z
loop_
_atom_site_type_symbol
_atom_site_label
_atom_site_fract_x
_atom_site_fract_y
_atom_site_fract_z
Si Si1 0.538165 0.791532 0.096510
Si Si2 0.364435 0.171743 0.301635
Si Si3 0.644514 0.624600 0.606430
Si Si4 0.795665 0.882384 0.816696
Si Si5 0.250000 0.250000 0.926559
Si Si6 0.787193 0.471937 0.940052
O O1 0.646932 0.823471 0.187311
O O2 0.496270 0.697351 0.095403
O O3 0.343205 0.833414 0.097633
O O4 0.637888 0.805665 0.998053
O O5 0.250000 0.250000 0.332366
O O6 0.585977 0.152375 0.308123
O O7 0.289731 0.099456 0.364079
O O8 0.629193 0.597258 0.714393
O O9 0.669676 0.556571 0.529674
O O10 0.882557 0.805556 0.865080
O O11 0.799591 0.954817 0.885720
O O12 0.000000 0.500000 0.963579
#
# Coordination Sequence:
#
# PCOD9354142 Si02
#       6
#     8   8   8   8   4   8
#     4  10  21  38  65  96 124 168 211 268 320 396
#     4  10  20  38  64  97 125 164 215 268 323 384
#     4  10  22  41  64  92 127 164 220 266 321 384
#     4  10  23  40  63  91 129 171 213 272 327 388
#     4  12  22  40  64  90 134 168 218 260 338 388
#     4  10  22  38  65  97 126 167 219 270 320 389
#
# _framework density 25.203222
#
# number of rings (size 3 to 8) (size 9 to 14) (size 15 to 20)
#    0.000    1.818    0.909    4.364    5.091    5.091 
#    0.000    0.909    0.000    0.000    0.000    0.000 
#    0.000    0.000    0.000    0.000    0.000    0.000 
#
# Total GULP energy -122875.231769 kJ/mol
# GULP energy per Si atom -5585.237808 kJ/mol
# Density = 2.514586 g / cm^3
# Si number density = 25.203222 Si / 1000 Ang^3
#
#
#
# Elastic Constant Matrix: (Units=GPa)
#
#
# Indices 1 2 3 4 5 6 
#
# 1 87.6308 16.4908 25.4088 0.0000 0.0000 0.0000
# 2 16.4908 152.1664 92.0925 0.0000 0.0000 0.0000
# 3 25.4088 92.0925 222.5266 0.0000 0.0000 0.0000
# 4 0.0000 0.0000 0.0000 27.5393 0.0000 0.0000
# 5 0.0000 0.0000 0.0000 0.0000 7.8192 0.0000
# 6 0.0000 0.0000 0.0000 0.0000 0.0000 21.2371
#
#
#
# Elastic Compliance Matrix: (Units=1/GPa)
#
#
# Indices 1 2 3 4 5 6 
#
# 1 0.011846 -0.000621 -0.001096 0.000000 0.000000 0.000000
# 2 -0.000621 0.008800 -0.003571 0.000000 0.000000 0.000000
# 3 -0.001096 -0.003571 0.006097 0.000000 0.000000 0.000000
# 4 0.000000 0.000000 0.000000 0.036312 0.000000 0.000000
# 5 0.000000 0.000000 0.000000 0.000000 0.127891 0.000000
# 6 0.000000 0.000000 0.000000 0.000000 0.000000 0.047087
#
#
# Mechanical properties :
#
#
# Convention : Reuss Voigt Hill
#
# Bulk Modulus (GPa) = 61.85004 81.14533 71.49769
# Shear Modulus (GPa) = 19.68523 33.20791 26.44657
#
# Velocity S-wave (km/s) = 2.79778 3.63382 3.24286
# Velocity P-wave (km/s) = 5.91866 7.06205 6.51548
#
# Compressibility (1/GPa) = 0.01616814
#
# Stress axis : x y z
#
# Youngs Moduli (GPa) = 84.41651 113.63256 164.01845
#
# Poissons Ratio (x) = 0.07052 0.17973
# Poissons Ratio (y) = 0.05239 0.58573
# Poissons Ratio (z) = 0.09250 0.40580
#
# Static dielectric constant tensor:
#      x y z
#    x 2.075220 0.000000 0.000000 
#    y 0.000000 2.016650 0.000000 
#    z 0.000000 0.000000 2.011090 
# 
# From -- ./inp_files/10521.got.cif
#   From: 2010.05.17/outbox.cif.g08.bks.cpg/sg37_6_cif.got.tgz:10521.got - 2010.06.03 17:53:42.
