data_PCOD9354433
_publ_section_title
;
Structure prediction by ZEFSAII (Michael W. Deem and Ramdas Pophale) SiO2 
 PCOD9354433
Probable space group: C C C 2
;
_chemical_formula_sum "Si O2"
_cell_formula_units_Z 64
_cell_length_a 12.687763
_cell_length_b 13.941893
_cell_length_c 17.107039
_cell_angle_alpha 90.000000
_cell_angle_beta 90.000000
_cell_angle_gamma 90.000000
_cell_volume 3026.088663
_symmetry_space_group_name_H-M "C C C 2"
_symmetry_group_IT_number 37
_symmetry_cell_setting 'orthorhombic'
loop_
_space_group_symop_operation_xyz
x,y,z
-x,-y,z
-x,y,1/2+z
x,-y,1/2+z
1/2+x,1/2+y,z
1/2-x,1/2-y,z
1/2-x,1/2+y,1/2+z
1/2+x,1/2-y,1/2+z
loop_
_atom_site_type_symbol
_atom_site_label
_atom_site_fract_x
_atom_site_fract_y
_atom_site_fract_z
Si Si1 0.406671 0.067913 0.772280
Si Si2 0.372023 0.772846 0.566457
Si Si3 0.005520 0.300225 0.406786
Si Si4 0.472565 0.390377 0.611430
Si Si5 0.191939 0.446171 0.401714
Si Si6 0.933136 0.094705 0.925254
Si Si7 0.123640 0.477738 0.055420
Si Si8 0.745257 0.856341 0.643896
O O1 0.454407 0.138150 0.837762
O O2 0.335257 0.131863 0.715641
O O3 0.500000 0.000000 0.736832
O O4 0.335885 0.991096 0.818498
O O5 0.250000 0.750000 0.550479
O O6 0.437329 0.791082 0.486293
O O7 0.434652 0.689879 0.613822
O O8 0.367481 0.879129 0.603130
O O9 0.114552 0.357519 0.422141
O O10 0.025337 0.190363 0.384085
O O11 0.500000 0.500000 0.629062
O O12 0.440772 0.389909 0.519217
O O13 0.368141 0.371260 0.661539
O O14 0.312194 0.418869 0.405357
O O15 0.166100 0.526857 0.466770
O O16 0.000000 0.000000 0.906604
O O17 0.197000 0.561531 0.089084
O O18 0.000000 0.500000 0.051491
O O19 0.750000 0.750000 0.608017
#
# Coordination Sequence:
#
# PCOD9354433 Si02
#       8
#     8   8   8   8   8   8   8   8
#     4  10  23  44  62  90 130 174 221 267 334 409
#     4  11  22  35  64 100 130 170 215 283 344 396
#     4  10  21  38  63  93 131 166 211 271 332 394
#     4  10  22  41  59  93 135 169 217 271 342 398
#     4  11  20  39  65  94 128 169 218 272 325 392
#     4  10  22  35  62  99 131 163 211 278 335 392
#     4  12  21  38  63  97 128 169 224 277 333 394
#     4  12  26  40  64  94 132 178 216 282 333 404
#
# _framework density 21.149415000000001
#
# number of rings (size 3 to 8) (size 9 to 14) (size 15 to 20)
#    0.000    1.250    3.750    2.625    5.250    1.500 
#    0.000    1.875    0.000    6.000    0.000    0.000 
#    0.000    0.000    0.000    0.000    0.000    0.000 
#
# Total GULP energy -178551.478812 kJ/mol
# GULP energy per Si atom -5579.733713 kJ/mol
# Density = 2.110128 g / cm^3
# Si number density = 21.149415 Si / 1000 Ang^3
#
#
#
# Elastic Constant Matrix: (Units=GPa)
#
#
# Indices 1 2 3 4 5 6 
#
# 1 143.2361 64.9058 11.5728 0.0000 0.0000 0.0000
# 2 64.9058 165.0872 9.2844 0.0000 0.0000 0.0000
# 3 11.5728 9.2844 20.8393 0.0000 0.0000 0.0000
# 4 0.0000 0.0000 0.0000 14.7647 0.0000 0.0000
# 5 0.0000 0.0000 0.0000 0.0000 20.3089 0.0000
# 6 0.0000 0.0000 0.0000 0.0000 0.0000 32.6805
#
#
#
# Elastic Compliance Matrix: (Units=1/GPa)
#
#
# Indices 1 2 3 4 5 6 
#
# 1 0.008724 -0.003239 -0.003402 0.000000 0.000000 0.000000
# 2 -0.003239 0.007415 -0.001505 0.000000 0.000000 0.000000
# 3 -0.003402 -0.001505 0.050546 0.000000 0.000000 0.000000
# 4 0.000000 0.000000 0.000000 0.067729 0.000000 0.000000
# 5 0.000000 0.000000 0.000000 0.000000 0.049240 0.000000
# 6 0.000000 0.000000 0.000000 0.000000 0.000000 0.030599
#
#
# Mechanical properties :
#
#
# Convention : Reuss Voigt Hill
#
# Bulk Modulus (GPa) = 19.84360 55.63207 37.73783
# Shear Modulus (GPa) = 20.21488 29.77745 24.99616
#
# Velocity S-wave (km/s) = 3.09498 3.75634 3.44158
# Velocity P-wave (km/s) = 4.70901 6.72123 5.80300
#
# Compressibility (1/GPa) = 0.05039408
#
# Stress axis : x y z
#
# Youngs Moduli (GPa) = 114.62838 134.85579 19.78392
#
# Poissons Ratio (x) = 0.43674 0.06730
# Poissons Ratio (y) = 0.37123 0.02978
# Poissons Ratio (z) = 0.38994 0.20299
#
# Static dielectric constant tensor:
#      x y z
#    x 1.849160 0.000000 0.000000 
#    y 0.000000 1.877950 0.000000 
#    z 0.000000 0.000000 1.797130 
# 
# From -- ./inp_files/15079.got.cif
#   From: 2010.05.17/outbox.cif.g08.bks.cpg/sg37_8_cif.got.tgz:15079.got - 2010.06.03 17:53:42.
