data_PCOD9354955
_publ_section_title
;
Structure prediction by ZEFSAII (Michael W. Deem and Ramdas Pophale) SiO2 
 PCOD9354955
Probable space group: C C C 2
;
_chemical_formula_sum "Si O2"
_cell_formula_units_Z 32
_cell_length_a 10.115215
_cell_length_b 10.663744
_cell_length_c 12.976666
_cell_angle_alpha 90.000000
_cell_angle_beta 90.000000
_cell_angle_gamma 90.000000
_cell_volume 1399.741876
_symmetry_space_group_name_H-M "C C C 2"
_symmetry_group_IT_number 37
_symmetry_cell_setting 'orthorhombic'
loop_
_space_group_symop_operation_xyz
x,y,z
-x,-y,z
-x,y,1/2+z
x,-y,1/2+z
1/2+x,1/2+y,z
1/2-x,1/2-y,z
1/2-x,1/2+y,1/2+z
1/2+x,1/2-y,1/2+z
loop_
_atom_site_type_symbol
_atom_site_label
_atom_site_fract_x
_atom_site_fract_y
_atom_site_fract_z
Si Si1 0.040233 0.168999 0.064800
Si Si2 0.613921 0.676840 0.772791
Si Si3 0.960606 0.361275 0.925652
Si Si4 0.182702 0.018702 0.448279
O O1 0.976924 0.145847 0.175180
O O2 0.934262 0.108739 0.985388
O O3 0.030802 0.313380 0.031023
O O4 0.173209 0.093992 0.034356
O O5 0.750000 0.750000 0.744366
O O6 0.523772 0.770848 0.840197
O O7 0.656882 0.556344 0.841694
O O8 0.000000 0.500000 0.894808
O O9 0.806025 0.387907 0.942400
#
# Coordination Sequence:
#
# PCOD9354955 Si02
#       4
#     8   8   8   8
#     4  10  24  41  68  94 137 180 230 284 347 420
#     4  11  22  42  68 102 137 181 238 293 348 420
#     4  11  22  41  69  96 140 178 221 290 348 410
#     4  10  22  44  66  95 137 181 221 290 350 411
#
# _framework density 22.861359
#
# number of rings (size 3 to 8) (size 9 to 14) (size 15 to 20)
#    0.000    1.500    2.500    2.250    0.000    9.000 
#    4.500    0.000   11.000    0.000    0.000    0.000 
#    0.000    0.000    0.000    0.000    0.000    0.000 
#
# Total GULP energy -89140.603649 kJ/mol
# GULP energy per Si atom -5571.287728 kJ/mol
# Density = 2.280933 g / cm^3
# Si number density = 22.861359 Si / 1000 Ang^3
#
#
#
# Elastic Constant Matrix: (Units=GPa)
#
#
# Indices 1 2 3 4 5 6 
#
# 1 139.6916 46.6301 27.7992 0.0000 0.0000 0.0000
# 2 46.6301 111.2483 40.1365 0.0000 0.0000 0.0000
# 3 27.7992 40.1365 106.8739 0.0000 0.0000 0.0000
# 4 0.0000 0.0000 0.0000 9.1894 0.0000 0.0000
# 5 0.0000 0.0000 0.0000 0.0000 11.4584 0.0000
# 6 0.0000 0.0000 0.0000 0.0000 0.0000 35.1913
#
#
#
# Elastic Compliance Matrix: (Units=1/GPa)
#
#
# Indices 1 2 3 4 5 6 
#
# 1 0.008414 -0.003166 -0.001000 0.000000 0.000000 0.000000
# 2 -0.003166 0.011589 -0.003529 0.000000 0.000000 0.000000
# 3 -0.001000 -0.003529 0.010942 0.000000 0.000000 0.000000
# 4 0.000000 0.000000 0.000000 0.108821 0.000000 0.000000
# 5 0.000000 0.000000 0.000000 0.000000 0.087272 0.000000
# 6 0.000000 0.000000 0.000000 0.000000 0.000000 0.028416
#
#
# Mechanical properties :
#
#
# Convention : Reuss Voigt Hill
#
# Bulk Modulus (GPa) = 64.28211 65.21617 64.74914
# Shear Modulus (GPa) = 18.11394 27.38434 22.74914
#
# Velocity S-wave (km/s) = 2.81791 3.46474 3.15793
# Velocity P-wave (km/s) = 6.22629 6.67792 6.45606
#
# Compressibility (1/GPa) = 0.01555643
#
# Stress axis : x y z
#
# Youngs Moduli (GPa) = 118.84251 86.28738 91.39063
#
# Poissons Ratio (x) = 0.27321 0.09135
# Poissons Ratio (y) = 0.37629 0.32249
# Poissons Ratio (z) = 0.11879 0.30448
#
# Static dielectric constant tensor:
#      x y z
#    x 2.221160 0.000000 0.000000 
#    y 0.000000 2.324080 0.000000 
#    z 0.000000 0.000000 1.895570 
# 
# From -- ./inp_files/6811.got.cif
#   From: 2010.05.17/outbox.cif.g08.bks.cpg/sg37_4_cif.got.tgz:6811.got - 2010.06.03 17:53:42.
