data_PCOD9354589
_publ_section_title
;
Structure prediction by ZEFSAII (Michael W. Deem and Ramdas Pophale) SiO2 
 PCOD9354589
Probable space group: C C C 2
;
_chemical_formula_sum "Si O2"
_cell_formula_units_Z 48
_cell_length_a 7.366572
_cell_length_b 23.660460
_cell_length_c 11.778538
_cell_angle_alpha 90.000000
_cell_angle_beta 90.000000
_cell_angle_gamma 90.000000
_cell_volume 2052.957738
_symmetry_space_group_name_H-M "C C C 2"
_symmetry_group_IT_number 37
_symmetry_cell_setting 'orthorhombic'
loop_
_space_group_symop_operation_xyz
x,y,z
-x,-y,z
-x,y,1/2+z
x,-y,1/2+z
1/2+x,1/2+y,z
1/2-x,1/2-y,z
1/2-x,1/2+y,1/2+z
1/2+x,1/2-y,1/2+z
loop_
_atom_site_type_symbol
_atom_site_label
_atom_site_fract_x
_atom_site_fract_y
_atom_site_fract_z
Si Si1 0.853954 0.427527 0.356730
Si Si2 0.148128 0.888358 0.686195
Si Si3 0.500000 0.500000 0.086674
Si Si4 0.268652 0.655324 0.174224
Si Si5 0.750000 0.750000 0.866691
Si Si6 0.278006 0.453752 0.391807
Si Si7 0.422595 0.831828 0.535221
O O1 0.820846 0.398322 0.237097
O O2 0.713210 0.479385 0.358676
O O3 0.838384 0.382460 0.458159
O O4 0.063319 0.444397 0.375401
O O5 0.138502 0.902149 0.820491
O O6 0.312681 0.847194 0.651031
O O7 0.971713 0.857753 0.639047
O O8 0.134351 0.954355 0.645808
O O9 0.633584 0.459549 0.014333
O O10 0.290463 0.700609 0.276175
O O11 0.131525 0.669109 0.073024
O O12 0.609490 0.777125 0.956923
#
# Coordination Sequence:
#
# PCOD9354589 Si02
#       7
#     8   8   4   8   4   8   8
#     4  10  21  42  64  96 144 181 226 273 344 411
#     4  12  25  41  71  99 135 188 226 276 348 418
#     4  12  22  38  60 102 140 176 228 268 326 422
#     4  11  24  48  69  99 138 179 235 300 346 419
#     4  10  28  48  74 102 136 172 248 306 356 416
#     4  11  22  38  64 100 140 185 219 276 329 417
#     4  11  24  49  69 100 135 185 230 295 355 418
#
# _framework density 23.380897999999998
#
# number of rings (size 3 to 8) (size 9 to 14) (size 15 to 20)
#    0.000    1.000    3.333    3.500    4.667    0.000 
#    0.000    1.667    0.000    0.000    0.000    0.000 
#    0.000    0.000    0.000    0.000    0.000    0.000 
#
# Total GULP energy -133635.811153 kJ/mol
# GULP energy per Si atom -5568.158798 kJ/mol
# Density = 2.332768 g / cm^3
# Si number density = 23.380898 Si / 1000 Ang^3
#
#
#
# Elastic Constant Matrix: (Units=GPa)
#
#
# Indices 1 2 3 4 5 6 
#
# 1 82.8749 8.1952 -8.7785 0.0000 0.0000 0.0000
# 2 8.1952 56.3914 20.2529 0.0000 0.0000 0.0000
# 3 -8.7785 20.2529 43.8933 0.0000 0.0000 0.0000
# 4 0.0000 0.0000 0.0000 73.4820 0.0000 0.0000
# 5 0.0000 0.0000 0.0000 0.0000 29.3765 0.0000
# 6 0.0000 0.0000 0.0000 0.0000 0.0000 14.4624
#
#
#
# Elastic Compliance Matrix: (Units=1/GPa)
#
#
# Indices 1 2 3 4 5 6 
#
# 1 0.012832 -0.003340 0.004107 0.000000 0.000000 0.000000
# 2 -0.003340 0.022125 -0.010877 0.000000 0.000000 0.000000
# 3 0.004107 -0.010877 0.028623 0.000000 0.000000 0.000000
# 4 0.000000 0.000000 0.000000 0.013609 0.000000 0.000000
# 5 0.000000 0.000000 0.000000 0.000000 0.034041 0.000000
# 6 0.000000 0.000000 0.000000 0.000000 0.000000 0.069145
#
#
# Mechanical properties :
#
#
# Convention : Reuss Voigt Hill
#
# Bulk Modulus (GPa) = 23.06231 24.72209 23.89220
# Shear Modulus (GPa) = 23.25084 34.36351 28.80717
#
# Velocity S-wave (km/s) = 3.15689 3.83786 3.51391
# Velocity P-wave (km/s) = 4.81384 5.49868 5.16762
#
# Compressibility (1/GPa) = 0.04336079
#
# Stress axis : x y z
#
# Youngs Moduli (GPa) = 77.93182 45.19784 34.93736
#
# Poissons Ratio (x) = 0.15096 -0.14350
# Poissons Ratio (y) = 0.26029 0.38000
# Poissons Ratio (z) = -0.32010 0.49160
#
# Static dielectric constant tensor:
#      x y z
#    x 1.897160 0.000000 0.000000 
#    y 0.000000 1.958100 0.000000 
#    z 0.000000 0.000000 1.948360 
# 
# From -- ./inp_files/6403.got.cif
#   From: 2010.05.17/outbox.cif.g08.bks.cpg/sg37_4_cif.got.tgz:6403.got - 2010.06.03 17:53:42.
