data_PCOD9354391
_publ_section_title
;
Structure prediction by ZEFSAII (Michael W. Deem and Ramdas Pophale) SiO2 
 PCOD9354391
Probable space group: C C C 2
;
_chemical_formula_sum "Si O2"
_cell_formula_units_Z 64
_cell_length_a 11.622670
_cell_length_b 28.611130
_cell_length_c 9.851607
_cell_angle_alpha 90.000000
_cell_angle_beta 90.000000
_cell_angle_gamma 90.000000
_cell_volume 3276.030953
_symmetry_space_group_name_H-M "C C C 2"
_symmetry_group_IT_number 37
_symmetry_cell_setting 'orthorhombic'
loop_
_space_group_symop_operation_xyz
x,y,z
-x,-y,z
-x,y,1/2+z
x,-y,1/2+z
1/2+x,1/2+y,z
1/2-x,1/2-y,z
1/2-x,1/2+y,1/2+z
1/2+x,1/2-y,1/2+z
loop_
_atom_site_type_symbol
_atom_site_label
_atom_site_fract_x
_atom_site_fract_y
_atom_site_fract_z
Si Si1 0.049671 0.257182 0.551810
Si Si2 0.916828 0.619081 0.309074
Si Si3 0.618436 0.342600 0.127810
Si Si4 0.620448 0.138870 0.119049
Si Si5 0.875172 0.976481 0.963692
Si Si6 0.996633 0.112187 0.865868
Si Si7 0.129096 0.725602 0.761650
Si Si8 0.787575 0.948822 0.253923
O O1 0.122714 0.211859 0.590411
O O2 0.100140 0.305271 0.611338
O O3 0.048061 0.262332 0.389920
O O4 0.926041 0.254785 0.624078
O O5 0.920126 0.620091 0.472357
O O6 0.862546 0.669249 0.262579
O O7 0.833081 0.577580 0.264990
O O8 0.041036 0.618121 0.237366
O O9 0.743300 0.366492 0.134431
O O10 0.551622 0.349665 0.267828
O O11 0.547645 0.367207 0.007124
O O12 0.908887 0.927721 0.893615
O O13 0.805459 0.009944 0.862981
O O14 0.811118 0.968080 0.104300
O O15 0.000000 0.000000 0.993028
O O16 0.888451 0.088162 0.791074
O O17 0.250000 0.750000 0.787919
#
# Coordination Sequence:
#
# PCOD9354391 Si02
#       8
#     8   8   8   8   8   8   8   8
#     4  10  21  37  59  89 125 174 217 255 315 366
#     4  10  22  40  64  86 119 169 219 250 313 374
#     4  12  22  37  62  94 133 164 215 261 313 378
#     4  10  22  41  60  87 127 174 215 266 305 363
#     4  10  22  39  63  96 127 154 195 256 338 389
#     4  11  23  36  62  98 124 159 198 261 323 385
#     4  10  21  38  59  85 126 167 207 266 312 364
#     4  11  22  40  64  92 122 157 203 260 319 392
#
# _framework density 19.535834000000001
#
# number of rings (size 3 to 8) (size 9 to 14) (size 15 to 20)
#    0.000    1.500    2.500    3.750    3.500    1.000 
#    0.000    8.125    0.000    6.000    0.000    0.000 
#    0.000    0.000    0.000    0.000    0.000    0.000 
#
# Total GULP energy -178794.957707 kJ/mol
# GULP energy per Si atom -5587.342428 kJ/mol
# Density = 1.949137 g / cm^3
# Si number density = 19.535834 Si / 1000 Ang^3
#
#
#
# Elastic Constant Matrix: (Units=GPa)
#
#
# Indices 1 2 3 4 5 6 
#
# 1 76.6163 36.8778 47.1884 0.0000 0.0000 0.0000
# 2 36.8778 69.1234 35.0251 0.0000 0.0000 0.0000
# 3 47.1884 35.0251 51.3294 0.0000 0.0000 0.0000
# 4 0.0000 0.0000 0.0000 23.3458 0.0000 0.0000
# 5 0.0000 0.0000 0.0000 0.0000 11.9044 0.0000
# 6 0.0000 0.0000 0.0000 0.0000 0.0000 22.1525
#
#
#
# Elastic Compliance Matrix: (Units=1/GPa)
#
#
# Indices 1 2 3 4 5 6 
#
# 1 0.030534 -0.003159 -0.025915 0.000000 0.000000 0.000000
# 2 -0.003159 0.022439 -0.012408 0.000000 0.000000 0.000000
# 3 -0.025915 -0.012408 0.051773 0.000000 0.000000 0.000000
# 4 0.000000 0.000000 0.000000 0.042834 0.000000 0.000000
# 5 0.000000 0.000000 0.000000 0.000000 0.084003 0.000000
# 6 0.000000 0.000000 0.000000 0.000000 0.000000 0.045142
#
#
# Mechanical properties :
#
#
# Convention : Reuss Voigt Hill
#
# Bulk Modulus (GPa) = 45.90765 48.36129 47.13447
# Shear Modulus (GPa) = 13.62592 16.67905 15.15249
#
# Velocity S-wave (km/s) = 2.64386 2.92510 2.78803
# Velocity P-wave (km/s) = 5.73325 6.01807 5.87739
#
# Compressibility (1/GPa) = 0.02178286
#
# Stress axis : x y z
#
# Youngs Moduli (GPa) = 32.75080 44.56518 19.31517
#
# Poissons Ratio (x) = 0.14077 0.50055
# Poissons Ratio (y) = 0.10345 0.23966
# Poissons Ratio (z) = 0.84874 0.55295
#
# Static dielectric constant tensor:
#      x y z
#    x 1.672550 0.000000 0.000000 
#    y 0.000000 1.694450 0.000000 
#    z 0.000000 0.000000 1.663020 
# 
# From -- ./inp_files/3118.got.cif
#   From: 2010.05.17/outbox.cif.g08.bks.cpg/sg37_2_cif.got.tgz:3118.got - 2010.06.03 17:53:42.
