data_PCOD9354348
_publ_section_title
;
Structure prediction by ZEFSAII (Michael W. Deem and Ramdas Pophale) SiO2 
 PCOD9354348
Probable space group: C C C 2
;
_chemical_formula_sum "Si O2"
_cell_formula_units_Z 36
_cell_length_a 23.342182
_cell_length_b 12.796950
_cell_length_c 5.249930
_cell_angle_alpha 90.000000
_cell_angle_beta 90.000000
_cell_angle_gamma 90.000000
_cell_volume 1568.199954
_symmetry_space_group_name_H-M "C C C 2"
_symmetry_group_IT_number 37
_symmetry_cell_setting 'orthorhombic'
loop_
_space_group_symop_operation_xyz
x,y,z
-x,-y,z
-x,y,1/2+z
x,-y,1/2+z
1/2+x,1/2+y,z
1/2-x,1/2-y,z
1/2-x,1/2+y,1/2+z
1/2+x,1/2-y,1/2+z
loop_
_atom_site_type_symbol
_atom_site_label
_atom_site_fract_x
_atom_site_fract_y
_atom_site_fract_z
Si Si1 0.187280 0.932853 0.491720
Si Si2 0.358050 0.964464 0.490187
Si Si3 0.750000 0.250000 0.258352
Si Si4 0.038656 0.633251 0.997931
Si Si5 0.872661 0.245558 0.249448
O O1 0.238876 0.851346 0.433798
O O2 0.132939 0.859322 0.412475
O O3 0.187475 0.977490 0.775092
O O4 0.374222 0.845122 0.440786
O O5 0.326134 0.011587 0.248549
O O6 0.414615 0.039790 0.504737
O O7 0.810193 0.257524 0.114091
O O8 0.076531 0.736650 0.052780
O O9 0.995542 0.628247 0.236114
#
# Coordination Sequence:
#
# PCOD9354348 Si02
#       5
#     8   8   4   8   8
#     4  10  23  43  67  94 132 172 226 285 338 408
#     4  10  21  35  58  92 135 172 216 262 333 413
#     4   8  22  46  66 108 124 192 232 288 354 420
#     4  11  23  39  64 100 140 177 218 278 349 420
#     4   9  22  43  64 101 135 184 226 281 349 417
#
# _framework density 22.956257999999998
#
# number of rings (size 3 to 8) (size 9 to 14) (size 15 to 20)
#    1.333    0.889    0.000    2.667    0.000   20.444 
#    0.000    0.000    0.000    4.000    0.000    0.000 
#    0.000    0.000    0.000    0.000    0.000    0.000 
#
# Total GULP energy -100414.613943 kJ/mol
# GULP energy per Si atom -5578.589664 kJ/mol
# Density = 2.290401 g / cm^3
# Si number density = 22.956258 Si / 1000 Ang^3
#
#
#
# Elastic Constant Matrix: (Units=GPa)
#
#
# Indices 1 2 3 4 5 6 
#
# 1 94.0941 13.4818 10.0028 0.0000 0.0000 0.0000
# 2 13.4818 89.2300 9.3266 0.0000 0.0000 0.0000
# 3 10.0028 9.3266 115.4575 0.0000 0.0000 0.0000
# 4 0.0000 0.0000 0.0000 24.0179 0.0000 0.0000
# 5 0.0000 0.0000 0.0000 0.0000 10.6198 0.0000
# 6 0.0000 0.0000 0.0000 0.0000 0.0000 50.9669
#
#
#
# Elastic Compliance Matrix: (Units=1/GPa)
#
#
# Indices 1 2 3 4 5 6 
#
# 1 0.010939 -0.001567 -0.000821 0.000000 0.000000 0.000000
# 2 -0.001567 0.011527 -0.000795 0.000000 0.000000 0.000000
# 3 -0.000821 -0.000795 0.008797 0.000000 0.000000 0.000000
# 4 0.000000 0.000000 0.000000 0.041636 0.000000 0.000000
# 5 0.000000 0.000000 0.000000 0.000000 0.094163 0.000000
# 6 0.000000 0.000000 0.000000 0.000000 0.000000 0.019621
#
#
# Mechanical properties :
#
#
# Convention : Reuss Voigt Hill
#
# Bulk Modulus (GPa) = 40.16738 40.48933 40.32835
# Shear Modulus (GPa) = 24.83258 34.85228 29.84243
#
# Velocity S-wave (km/s) = 3.29254 3.90064 3.60942
# Velocity P-wave (km/s) = 5.65595 6.16138 5.91407
#
# Compressibility (1/GPa) = 0.02489583
#
# Stress axis : x y z
#
# Youngs Moduli (GPa) = 91.41202 86.75368 113.68045
#
# Poissons Ratio (x) = 0.13594 0.09335
# Poissons Ratio (y) = 0.14324 0.09042
# Poissons Ratio (z) = 0.07507 0.06900
#
# Static dielectric constant tensor:
#      x y z
#    x 1.957630 0.000000 0.000000 
#    y 0.000000 1.898120 0.000000 
#    z 0.000000 0.000000 1.949880 
# 
# From -- ./inp_files/1323.got.cif
#   From: 2010.05.17/outbox.cif.g08.bks.cpg/sg37_1_cif.got.tgz:1323.got - 2010.06.03 17:53:42.
