data_PCOD9354197
_publ_section_title
;
Structure prediction by ZEFSAII (Michael W. Deem and Ramdas Pophale) SiO2 
 PCOD9354197
Probable space group: C C C 2
;
_chemical_formula_sum "Si O2"
_cell_formula_units_Z 48
_cell_length_a 5.539450
_cell_length_b 29.095675
_cell_length_c 13.465862
_cell_angle_alpha 90.000000
_cell_angle_beta 90.000000
_cell_angle_gamma 90.000000
_cell_volume 2170.347339
_symmetry_space_group_name_H-M "C C C 2"
_symmetry_group_IT_number 37
_symmetry_cell_setting 'orthorhombic'
loop_
_space_group_symop_operation_xyz
x,y,z
-x,-y,z
-x,y,1/2+z
x,-y,1/2+z
1/2+x,1/2+y,z
1/2-x,1/2-y,z
1/2-x,1/2+y,1/2+z
1/2+x,1/2-y,1/2+z
loop_
_atom_site_type_symbol
_atom_site_label
_atom_site_fract_x
_atom_site_fract_y
_atom_site_fract_z
Si Si1 0.500000 0.000000 0.247270
Si Si2 0.326710 0.906014 0.313567
Si Si3 0.250000 0.250000 0.353886
Si Si4 0.957338 0.152155 0.179694
Si Si5 0.007499 0.906471 0.506042
Si Si6 0.500000 0.500000 0.125092
Si Si7 0.786687 0.654173 0.379262
Si Si8 0.250000 0.750000 0.226192
O O1 0.510230 0.048860 0.303696
O O2 0.247165 0.001457 0.188182
O O3 0.212899 0.891398 0.208454
O O4 0.151147 0.914991 0.404565
O O5 0.450335 0.858300 0.343824
O O6 0.261712 0.295487 0.418943
O O7 0.498181 0.244100 0.289430
O O8 0.817502 0.201122 0.171837
O O9 0.097473 0.133203 0.082870
O O10 0.127130 0.153438 0.277891
O O11 0.767344 0.883489 0.462105
O O12 0.991339 0.954709 0.558853
#
# Coordination Sequence:
#
# PCOD9354197 Si02
#       8
#     4   8   4   8   8   4   8   4
#     4  12  28  46  78  96 142 190 234 282 362 418
#     4  11  24  43  70 101 138 190 229 295 352 429
#     4  10  20  41  70  99 136 184 236 273 352 405
#     4  10  21  45  66  99 140 183 234 290 355 413
#     4  11  26  42  68 103 142 177 239 292 350 418
#     4  12  28  48  70 104 138 188 230 296 344 424
#     4  10  23  41  69  97 139 185 228 290 345 421
#     4  10  20  39  74  97 132 190 230 283 340 423
#
# _framework density 22.116273
#
# number of rings (size 3 to 8) (size 9 to 14) (size 15 to 20)
#    0.000    1.333    3.333    1.000    7.000    2.000 
#    0.000    0.000    0.000    0.000    0.000    0.000 
#    0.000    0.000    0.000    0.000    0.000    0.000 
#
# Total GULP energy -133610.724914 kJ/mol
# GULP energy per Si atom -5567.113538 kJ/mol
# Density = 2.206594 g / cm^3
# Si number density = 22.116273 Si / 1000 Ang^3
#
#
#
# Elastic Constant Matrix: (Units=GPa)
#
#
# Indices 1 2 3 4 5 6 
#
# 1 72.8878 16.2749 14.4262 0.0000 0.0000 0.0000
# 2 16.2749 160.4230 38.2559 0.0000 0.0000 0.0000
# 3 14.4262 38.2559 68.0907 0.0000 0.0000 0.0000
# 4 0.0000 0.0000 0.0000 56.6210 0.0000 0.0000
# 5 0.0000 0.0000 0.0000 0.0000 7.6956 0.0000
# 6 0.0000 0.0000 0.0000 0.0000 0.0000 29.9615
#
#
#
# Elastic Compliance Matrix: (Units=1/GPa)
#
#
# Indices 1 2 3 4 5 6 
#
# 1 0.014419 -0.000848 -0.002579 0.000000 0.000000 0.000000
# 2 -0.000848 0.007248 -0.003892 0.000000 0.000000 0.000000
# 3 -0.002579 -0.003892 0.017420 0.000000 0.000000 0.000000
# 4 0.000000 0.000000 0.000000 0.017661 0.000000 0.000000
# 5 0.000000 0.000000 0.000000 0.000000 0.129944 0.000000
# 6 0.000000 0.000000 0.000000 0.000000 0.000000 0.033376
#
#
# Mechanical properties :
#
#
# Convention : Reuss Voigt Hill
#
# Bulk Modulus (GPa) = 40.90182 48.81284 44.85733
# Shear Modulus (GPa) = 20.58834 34.35193 27.47014
#
# Velocity S-wave (km/s) = 3.05440 3.94539 3.52814
# Velocity P-wave (km/s) = 5.56536 6.54781 6.07647
#
# Compressibility (1/GPa) = 0.02444879
#
# Stress axis : x y z
#
# Youngs Moduli (GPa) = 69.35088 137.97359 57.40688
#
# Poissons Ratio (x) = 0.11699 0.14803
# Poissons Ratio (y) = 0.05880 0.22345
# Poissons Ratio (z) = 0.17883 0.53705
#
# Static dielectric constant tensor:
#      x y z
#    x 1.691170 0.000000 0.000000 
#    y 0.000000 1.810360 0.000000 
#    z 0.000000 0.000000 1.884460 
# 
# From -- ./inp_files/9808.got.cif
#   From: 2010.05.17/outbox.cif.g08.bks.cpg/sg37_5_cif.got.tgz:9808.got - 2010.06.03 17:53:42.
