data_PCOD9354712
_publ_section_title
;
Structure prediction by ZEFSAII (Michael W. Deem and Ramdas Pophale) SiO2 
 PCOD9354712
Probable space group: C C C 2
;
_chemical_formula_sum "Si O2"
_cell_formula_units_Z 48
_cell_length_a 8.975959
_cell_length_b 13.440165
_cell_length_c 19.369281
_cell_angle_alpha 90.000000
_cell_angle_beta 90.000000
_cell_angle_gamma 90.000000
_cell_volume 2336.678488
_symmetry_space_group_name_H-M "C C C 2"
_symmetry_group_IT_number 37
_symmetry_cell_setting 'orthorhombic'
loop_
_space_group_symop_operation_xyz
x,y,z
-x,-y,z
-x,y,1/2+z
x,-y,1/2+z
1/2+x,1/2+y,z
1/2-x,1/2-y,z
1/2-x,1/2+y,1/2+z
1/2+x,1/2-y,1/2+z
loop_
_atom_site_type_symbol
_atom_site_label
_atom_site_fract_x
_atom_site_fract_y
_atom_site_fract_z
Si Si1 0.930645 0.260877 0.485330
Si Si2 0.338232 0.147300 0.747719
Si Si3 0.669722 0.495072 0.848733
Si Si4 0.557108 0.114966 0.857132
Si Si5 0.140214 0.346338 0.591759
Si Si6 0.876282 0.940282 0.499377
O O1 0.750000 0.250000 0.482377
O O2 0.989902 0.326044 0.421220
O O3 0.986259 0.313369 0.556210
O O4 0.035148 0.161527 0.480958
O O5 0.250000 0.250000 0.746476
O O6 0.492537 0.160137 0.787380
O O7 0.365750 0.113543 0.669458
O O8 0.250327 0.072259 0.798158
O O9 0.500000 0.500000 0.826305
O O10 0.765644 0.393883 0.848647
O O11 0.662258 0.507280 0.932148
O O12 0.500000 0.000000 0.864807
O O13 0.250000 0.250000 0.593965
O O14 0.226844 0.419467 0.540378
O O15 0.000000 0.000000 0.542621
#
# Coordination Sequence:
#
# PCOD9354712 Si02
#       6
#     8   8   8   8   8   8
#     4  11  23  38  67  93 124 166 213 264 315 377
#     4  10  22  41  65  88 129 168 205 259 326 385
#     4  10  22  39  60  92 127 159 217 260 310 377
#     4  10  22  38  60  93 124 163 209 260 308 380
#     4   9  20  43  63  91 126 171 206 260 328 374
#     4  10  22  39  62  93 126 161 215 262 307 377
#
# _framework density 20.541978
#
# number of rings (size 3 to 8) (size 9 to 14) (size 15 to 20)
#    0.000    2.000    1.667    0.500   14.000    0.667 
#    0.000   12.500    0.000    0.000    0.000    0.000 
#    0.000    0.000    0.000    0.000    0.000    0.000 
#
# Total GULP energy -133664.495609 kJ/mol
# GULP energy per Si atom -5569.353984 kJ/mol
# Density = 2.049522 g / cm^3
# Si number density = 20.541978 Si / 1000 Ang^3
#
#
#
# Elastic Constant Matrix: (Units=GPa)
#
#
# Indices 1 2 3 4 5 6 
#
# 1 154.2442 24.5582 61.1538 0.0000 0.0000 0.0000
# 2 24.5582 57.4958 45.0748 0.0000 0.0000 0.0000
# 3 61.1538 45.0748 146.5228 0.0000 0.0000 0.0000
# 4 0.0000 0.0000 0.0000 33.0277 0.0000 0.0000
# 5 0.0000 0.0000 0.0000 0.0000 30.3405 0.0000
# 6 0.0000 0.0000 0.0000 0.0000 0.0000 30.9183
#
#
#
# Elastic Compliance Matrix: (Units=1/GPa)
#
#
# Indices 1 2 3 4 5 6 
#
# 1 0.007815 -0.001029 -0.002945 0.000000 0.000000 0.000000
# 2 -0.001029 0.023056 -0.006663 0.000000 0.000000 0.000000
# 3 -0.002945 -0.006663 0.010104 0.000000 0.000000 0.000000
# 4 0.000000 0.000000 0.000000 0.030278 0.000000 0.000000
# 5 0.000000 0.000000 0.000000 0.000000 0.032959 0.000000
# 6 0.000000 0.000000 0.000000 0.000000 0.000000 0.032343
#
#
# Mechanical properties :
#
#
# Convention : Reuss Voigt Hill
#
# Bulk Modulus (GPa) = 50.76196 68.87075 59.81635
# Shear Modulus (GPa) = 30.41442 34.02235 32.21838
#
# Velocity S-wave (km/s) = 3.85203 4.07410 3.96462
# Velocity P-wave (km/s) = 6.67451 7.46530 7.08095
#
# Compressibility (1/GPa) = 0.01969979
#
# Stress axis : x y z
#
# Youngs Moduli (GPa) = 127.96402 43.37300 98.97252
#
# Poissons Ratio (x) = 0.04464 0.29148
# Poissons Ratio (y) = 0.13169 0.65947
# Poissons Ratio (z) = 0.37686 0.28900
#
# Static dielectric constant tensor:
#      x y z
#    x 1.761230 0.000000 0.000000 
#    y 0.000000 1.725190 0.000000 
#    z 0.000000 0.000000 1.732650 
# 
# From -- ./inp_files/14475.got.cif
#   From: 2010.05.17/outbox.cif.g08.bks.cpg/sg37_8_cif.got.tgz:14475.got - 2010.06.03 17:53:42.
