data_PCOD9354329
_publ_section_title
;
Structure prediction by ZEFSAII (Michael W. Deem and Ramdas Pophale) SiO2 
 PCOD9354329
Probable space group: C C C 2
;
_chemical_formula_sum "Si O2"
_cell_formula_units_Z 32
_cell_length_a 9.251317
_cell_length_b 18.071463
_cell_length_c 8.051981
_cell_angle_alpha 90.000000
_cell_angle_beta 90.000000
_cell_angle_gamma 90.000000
_cell_volume 1346.169098
_symmetry_space_group_name_H-M "C C C 2"
_symmetry_group_IT_number 37
_symmetry_cell_setting 'orthorhombic'
loop_
_space_group_symop_operation_xyz
x,y,z
-x,-y,z
-x,y,1/2+z
x,-y,1/2+z
1/2+x,1/2+y,z
1/2-x,1/2-y,z
1/2-x,1/2+y,1/2+z
1/2+x,1/2-y,1/2+z
loop_
_atom_site_type_symbol
_atom_site_label
_atom_site_fract_x
_atom_site_fract_y
_atom_site_fract_z
Si Si1 0.692554 0.402363 0.959320
Si Si2 0.521392 0.085166 0.410552
Si Si3 0.284603 0.665741 0.284006
Si Si4 0.304736 0.570639 0.585820
O O1 0.642613 0.409093 0.768539
O O2 0.863278 0.383686 0.935921
O O3 0.644764 0.346466 0.104396
O O4 0.673000 0.484579 0.039342
O O5 0.627989 0.125602 0.283997
O O6 0.630669 0.083310 0.569775
O O7 0.500000 0.000000 0.363920
O O8 0.250000 0.750000 0.323580
O O9 0.361735 0.622355 0.435926
#
# Coordination Sequence:
#
# PCOD9354329 Si02
#       4
#     8   8   8   8
#     4  11  15  30  47  69  91 139 174 200 242 319
#     4   8  16  29  46  71  96 133 173 201 242 314
#     4  10  21  30  43  73 112 131 165 221 263 286
#     4   9  18  25  46  67  96 127 172 198 249 297
#
# _framework density 23.771158
#
# number of rings (size 3 to 8) (size 9 to 14) (size 15 to 20)
#    1.500    1.000    2.500    1.500    0.000    5.000 
#    0.000    0.000    0.000    0.000    0.000    0.000 
#    0.000    6.000    0.000    0.000    0.000    0.000 
#
# Total GULP energy -89187.992026 kJ/mol
# GULP energy per Si atom -5574.249502 kJ/mol
# Density = 2.371705 g / cm^3
# Si number density = 23.771158 Si / 1000 Ang^3
#
#
#
# Elastic Constant Matrix: (Units=GPa)
#
#
# Indices 1 2 3 4 5 6 
#
# 1 90.7015 -11.6747 12.3452 0.0000 0.0000 0.0000
# 2 -11.6747 65.4302 25.7396 0.0000 0.0000 0.0000
# 3 12.3452 25.7396 175.0001 0.0000 0.0000 0.0000
# 4 0.0000 0.0000 0.0000 16.6655 0.0000 0.0000
# 5 0.0000 0.0000 0.0000 0.0000 29.6179 0.0000
# 6 0.0000 0.0000 0.0000 0.0000 0.0000 -3.3049
#
#
#
# Elastic Compliance Matrix: (Units=1/GPa)
#
#
# Indices 1 2 3 4 5 6 
#
# 1 0.011510 0.002519 -0.001182 0.000000 0.000000 0.000000
# 2 0.002519 0.016773 -0.002645 0.000000 0.000000 0.000000
# 3 -0.001182 -0.002645 0.006187 0.000000 0.000000 0.000000
# 4 0.000000 0.000000 0.000000 0.060004 0.000000 0.000000
# 5 0.000000 0.000000 0.000000 0.000000 0.033763 0.000000
# 6 0.000000 0.000000 0.000000 0.000000 0.000000 -0.302585
#
#
# Mechanical properties :
#
#
# Convention : Reuss Voigt Hill
#
# Bulk Modulus (GPa) = 31.39342 42.66132 37.02737
# Shear Modulus (GPa) = -31.03413 28.91050 -1.06182
#
# Velocity S-wave (km/s) = -3.61714 3.49119 -0.66907
# Velocity P-wave (km/s) = 2.05177 5.85123 3.87473
#
# Compressibility (1/GPa) = 0.03185381
#
# Stress axis : x y z
#
# Youngs Moduli (GPa) = 86.87833 59.61841 161.63704
#
# Poissons Ratio (x) = -0.15018 0.19113
# Poissons Ratio (y) = -0.21884 0.42749
# Poissons Ratio (z) = 0.10273 0.15768
#
# Static dielectric constant tensor:
#      x y z
#    x 2.047450 0.000000 0.000000 
#    y 0.000000 1.850710 0.000000 
#    z 0.000000 0.000000 1.970810 
# 
# From -- ./inp_files/2790.got.cif
#   From: 2010.05.17/outbox.cif.g08.bks.cpg/sg37_2_cif.got.tgz:2790.got - 2010.06.03 17:53:42.
