data_PCOD9354862
_publ_section_title
;
Structure prediction by ZEFSAII (Michael W. Deem and Ramdas Pophale) SiO2 
 PCOD9354862
Probable space group: C C C 2
;
_chemical_formula_sum "Si O2"
_cell_formula_units_Z 52
_cell_length_a 9.097186
_cell_length_b 22.956351
_cell_length_c 10.379439
_cell_angle_alpha 90.000000
_cell_angle_beta 90.000000
_cell_angle_gamma 90.000000
_cell_volume 2167.623305
_symmetry_space_group_name_H-M "C C C 2"
_symmetry_group_IT_number 37
_symmetry_cell_setting 'orthorhombic'
loop_
_space_group_symop_operation_xyz
x,y,z
-x,-y,z
-x,y,1/2+z
x,-y,1/2+z
1/2+x,1/2+y,z
1/2-x,1/2-y,z
1/2-x,1/2+y,1/2+z
1/2+x,1/2-y,1/2+z
loop_
_atom_site_type_symbol
_atom_site_label
_atom_site_fract_x
_atom_site_fract_y
_atom_site_fract_z
Si Si1 0.040629 0.717988 0.606440
Si Si2 0.000000 0.500000 0.127678
Si Si3 0.521166 0.685793 0.917947
Si Si4 0.750000 0.750000 0.319616
Si Si5 0.785402 0.041447 0.275827
Si Si6 0.182626 0.395317 0.024061
Si Si7 0.250000 0.250000 0.731829
Si Si8 0.414885 0.419232 0.252479
O O1 0.071417 0.783865 0.552708
O O2 0.147049 0.710825 0.728956
O O3 0.096002 0.665863 0.515376
O O4 0.871652 0.714122 0.650960
O O5 0.868308 0.470618 0.207574
O O6 0.930230 0.552543 0.048839
O O7 0.369540 0.720169 0.905108
O O8 0.645039 0.708875 0.818532
O O9 0.458575 0.624761 0.866292
O O10 0.759522 0.085698 0.392471
O O11 0.924218 0.064967 0.193375
O O12 0.842283 0.976921 0.314133
O O13 0.303973 0.398402 0.139785
#
# Coordination Sequence:
#
# PCOD9354862 Si02
#       8
#     8   4   8   4   8   8   4   8
#     4  11  24  43  68 103 134 187 229 283 361 420
#     4  10  24  46  68 106 144 186 236 286 356 420
#     4  11  23  43  70  98 140 182 227 293 340 428
#     4  10  22  42  62  98 134 172 228 276 350 402
#     4  10  24  43  72 106 134 187 242 288 355 424
#     4  11  24  47  72 102 145 187 231 302 350 424
#     4  10  26  42  64 102 136 184 238 274 360 416
#     4  10  24  45  72 100 139 185 239 294 354 415
#
# _framework density 23.989408999999998
#
# number of rings (size 3 to 8) (size 9 to 14) (size 15 to 20)
#    0.000    1.538    1.538    1.385    6.462    6.154 
#   11.077    0.000    0.000    0.000    0.000    0.000 
#    0.000    0.000    0.000    0.000    0.000    0.000 
#
# Total GULP energy -145014.071442 kJ/mol
# GULP energy per Si atom -5577.464286 kJ/mol
# Density = 2.393481 g / cm^3
# Si number density = 23.989409 Si / 1000 Ang^3
#
#
#
# Elastic Constant Matrix: (Units=GPa)
#
#
# Indices 1 2 3 4 5 6 
#
# 1 185.3664 39.5586 30.2797 0.0000 0.0000 0.0000
# 2 39.5586 78.4895 0.6315 0.0000 0.0000 0.0000
# 3 30.2797 0.6315 25.2393 0.0000 0.0000 0.0000
# 4 0.0000 0.0000 0.0000 -824.8438 0.0000 0.0000
# 5 0.0000 0.0000 0.0000 0.0000 16.0112 0.0000
# 6 0.0000 0.0000 0.0000 0.0000 0.0000 45.2968
#
#
#
# Elastic Compliance Matrix: (Units=1/GPa)
#
#
# Indices 1 2 3 4 5 6 
#
# 1 0.007701 -0.003808 -0.009144 0.000000 0.000000 0.000000
# 2 -0.003808 0.014626 0.004202 0.000000 0.000000 0.000000
# 3 -0.009144 0.004202 0.050485 0.000000 0.000000 0.000000
# 4 0.000000 0.000000 0.000000 -0.001212 0.000000 0.000000
# 5 0.000000 0.000000 0.000000 0.000000 0.062456 0.000000
# 6 0.000000 0.000000 0.000000 0.000000 0.000000 0.022077
#
#
# Mechanical properties :
#
#
# Convention : Reuss Voigt Hill
#
# Bulk Modulus (GPa) = 18.07868 47.78163 32.93016
# Shear Modulus (GPa) = 26.03237 -138.13213 -56.04988
#
# Velocity S-wave (km/s) = 3.29775 -7.59641 -4.83892
# Velocity P-wave (km/s) = 4.69603 7.54848 4.17893
#
# Compressibility (1/GPa) = 0.05531376
#
# Stress axis : x y z
#
# Youngs Moduli (GPa) = 129.85469 68.37221 19.80780
#
# Poissons Ratio (x) = 0.26034 0.18111
# Poissons Ratio (y) = 0.49445 -0.08324
# Poissons Ratio (z) = 1.18733 -0.28731
#
# Static dielectric constant tensor:
#      x y z
#    x 1.895190 0.000000 0.000000 
#    y 0.000000 11.468760 0.000000 
#    z 0.000000 0.000000 1.944360 
# 
# From -- ./inp_files/6517.got.cif
#   From: 2010.05.17/outbox.cif.g08.bks.cpg/sg37_4_cif.got.tgz:6517.got - 2010.06.03 17:53:42.
