data_PCOD9354507
_publ_section_title
;
Structure prediction by ZEFSAII (Michael W. Deem and Ramdas Pophale) SiO2 
 PCOD9354507
Probable space group: C C C 2
;
_chemical_formula_sum "Si O2"
_cell_formula_units_Z 48
_cell_length_a 8.608308
_cell_length_b 14.691388
_cell_length_c 19.109558
_cell_angle_alpha 90.000000
_cell_angle_beta 90.000000
_cell_angle_gamma 90.000000
_cell_volume 2416.747445
_symmetry_space_group_name_H-M "C C C 2"
_symmetry_group_IT_number 37
_symmetry_cell_setting 'orthorhombic'
loop_
_space_group_symop_operation_xyz
x,y,z
-x,-y,z
-x,y,1/2+z
x,-y,1/2+z
1/2+x,1/2+y,z
1/2-x,1/2-y,z
1/2-x,1/2+y,1/2+z
1/2+x,1/2-y,1/2+z
loop_
_atom_site_type_symbol
_atom_site_label
_atom_site_fract_x
_atom_site_fract_y
_atom_site_fract_z
Si Si1 0.405094 0.595158 0.860220
Si Si2 0.618460 0.324642 0.259747
Si Si3 0.358595 0.338692 0.516060
Si Si4 0.936144 0.755421 0.127362
Si Si5 0.321675 0.993969 0.757530
Si Si6 0.117349 0.437049 0.607877
O O1 0.500000 0.500000 0.861312
O O2 0.509457 0.674878 0.827117
O O3 0.264932 0.580824 0.804506
O O4 0.368638 0.619842 0.939386
O O5 0.750000 0.250000 0.257832
O O6 0.512261 0.312312 0.191185
O O7 0.714613 0.417471 0.264839
O O8 0.250000 0.250000 0.512206
O O9 0.514359 0.305203 0.555174
O O10 0.269634 0.408107 0.566992
O O11 0.750000 0.750000 0.134282
O O12 0.027425 0.657204 0.128787
O O13 0.337452 0.996882 0.672986
O O14 0.500000 0.000000 0.782289
O O15 0.000000 0.500000 0.563832
#
# Coordination Sequence:
#
# PCOD9354507 Si02
#       6
#     8   8   8   8   8   8
#     4  10  25  41  60  95 129 168 210 251 321 380
#     4  11  21  41  63  89 129 165 211 267 306 371
#     4  10  22  45  64  89 131 167 206 259 320 378
#     4  11  23  39  66  96 121 164 219 262 318 375
#     4  10  21  40  63  92 129 161 213 263 310 374
#     4  10  21  40  66  92 125 163 210 262 313 371
#
# _framework density 19.861405999999999
#
# number of rings (size 3 to 8) (size 9 to 14) (size 15 to 20)
#    0.000    1.667    3.333    0.500    4.667    4.667 
#    0.000    6.667    0.000    0.000    0.000    0.000 
#    0.000    0.000    0.000    0.000    0.000    0.000 
#
# Total GULP energy -133702.363908 kJ/mol
# GULP energy per Si atom -5570.931830 kJ/mol
# Density = 1.981620 g / cm^3
# Si number density = 19.861406 Si / 1000 Ang^3
#
#
#
# Elastic Constant Matrix: (Units=GPa)
#
#
# Indices 1 2 3 4 5 6 
#
# 1 144.2639 29.8281 71.9759 0.0000 0.0000 0.0000
# 2 29.8281 38.0916 34.8226 0.0000 0.0000 0.0000
# 3 71.9759 34.8226 126.8932 0.0000 0.0000 0.0000
# 4 0.0000 0.0000 0.0000 -302.6016 0.0000 0.0000
# 5 0.0000 0.0000 0.0000 0.0000 10.4437 0.0000
# 6 0.0000 0.0000 0.0000 0.0000 0.0000 20.8066
#
#
#
# Elastic Compliance Matrix: (Units=1/GPa)
#
#
# Indices 1 2 3 4 5 6 
#
# 1 0.010012 -0.003535 -0.004709 0.000000 0.000000 0.000000
# 2 -0.003535 0.036293 -0.007954 0.000000 0.000000 0.000000
# 3 -0.004709 -0.007954 0.012734 0.000000 0.000000 0.000000
# 4 0.000000 0.000000 0.000000 -0.003305 0.000000 0.000000
# 5 0.000000 0.000000 0.000000 0.000000 0.095752 0.000000
# 6 0.000000 0.000000 0.000000 0.000000 0.000000 0.048062
#
#
# Mechanical properties :
#
#
# Convention : Reuss Voigt Hill
#
# Bulk Modulus (GPa) = 37.53450 64.72243 51.12846
# Shear Modulus (GPa) = 20.76193 -42.76214 -11.00010
#
# Velocity S-wave (km/s) = 3.23668 -4.64511 -2.35594
# Velocity P-wave (km/s) = 5.73649 1.97191 4.28928
#
# Compressibility (1/GPa) = 0.02664216
#
# Stress axis : x y z
#
# Youngs Moduli (GPa) = 99.87990 27.55387 78.52750
#
# Poissons Ratio (x) = 0.09741 0.36977
# Poissons Ratio (y) = 0.35311 0.62463
# Poissons Ratio (z) = 0.47031 0.21917
#
# Static dielectric constant tensor:
#      x y z
#    x 1.828050 0.000000 0.000000 
#    y 0.000000 3.024200 0.000000 
#    z 0.000000 0.000000 1.697140 
# 
# From -- ./inp_files/14478.got.cif
#   From: 2010.05.17/outbox.cif.g08.bks.cpg/sg37_8_cif.got.tgz:14478.got - 2010.06.03 17:53:42.
