data_PCOD9354936
_publ_section_title
;
Structure prediction by ZEFSAII (Michael W. Deem and Ramdas Pophale) SiO2 
 PCOD9354936
Probable space group: C C C 2
;
_chemical_formula_sum "Si O2"
_cell_formula_units_Z 36
_cell_length_a 7.271313
_cell_length_b 17.577142
_cell_length_c 14.323527
_cell_angle_alpha 90.000000
_cell_angle_beta 90.000000
_cell_angle_gamma 90.000000
_cell_volume 1830.674246
_symmetry_space_group_name_H-M "C C C 2"
_symmetry_group_IT_number 37
_symmetry_cell_setting 'orthorhombic'
loop_
_space_group_symop_operation_xyz
x,y,z
-x,-y,z
-x,y,1/2+z
x,-y,1/2+z
1/2+x,1/2+y,z
1/2-x,1/2-y,z
1/2-x,1/2+y,1/2+z
1/2+x,1/2-y,1/2+z
loop_
_atom_site_type_symbol
_atom_site_label
_atom_site_fract_x
_atom_site_fract_y
_atom_site_fract_z
Si Si1 0.840729 0.409360 0.634360
Si Si2 0.405810 0.311311 0.831222
Si Si3 0.457350 0.419148 0.995969
Si Si4 0.250000 0.250000 0.223631
Si Si5 0.769529 0.070699 0.173462
O O1 0.752425 0.421266 0.532724
O O2 0.778744 0.326464 0.665542
O O3 0.747476 0.479434 0.692563
O O4 0.060180 0.412101 0.641573
O O5 0.250000 0.250000 0.853221
O O6 0.570230 0.265648 0.783774
O O7 0.328899 0.375796 0.759234
O O8 0.478430 0.352037 0.923760
O O9 0.500000 0.500000 0.949672
O O10 0.590409 0.414991 0.087043
#
# Coordination Sequence:
#
# PCOD9354936 Si02
#       5
#     8   8   8   4   8
#     4  10  22  43  69  94 126 171 215 268 324 385
#     4  12  26  42  63 100 133 172 217 268 328 386
#     4  10  24  42  68  96 129 173 218 265 320 389
#     4  12  24  40  64  96 126 172 212 268 330 372
#     4  10  22  46  68  92 130 174 217 266 325 385
#
# _framework density 19.664885999999999
#
# number of rings (size 3 to 8) (size 9 to 14) (size 15 to 20)
#    0.000    1.333    4.444    0.000    4.667    1.778 
#    2.000    2.222    0.000    0.000    0.000    0.000 
#    0.000    0.000    0.000    0.000    0.000    0.000 
#
# Total GULP energy -100454.482002 kJ/mol
# GULP energy per Si atom -5580.804556 kJ/mol
# Density = 1.962013 g / cm^3
# Si number density = 19.664886 Si / 1000 Ang^3
#
#
#
# Elastic Constant Matrix: (Units=GPa)
#
#
# Indices 1 2 3 4 5 6 
#
# 1 104.5082 37.9863 21.3473 0.0000 0.0000 0.0000
# 2 37.9863 154.8115 41.1584 0.0000 0.0000 0.0000
# 3 21.3473 41.1584 45.0865 0.0000 0.0000 0.0000
# 4 0.0000 0.0000 0.0000 -38.5723 0.0000 0.0000
# 5 0.0000 0.0000 0.0000 0.0000 41.4103 0.0000
# 6 0.0000 0.0000 0.0000 0.0000 0.0000 31.5947
#
#
#
# Elastic Compliance Matrix: (Units=1/GPa)
#
#
# Indices 1 2 3 4 5 6 
#
# 1 0.010931 -0.001725 -0.003601 0.000000 0.000000 0.000000
# 2 -0.001725 0.008802 -0.007218 0.000000 0.000000 0.000000
# 3 -0.003601 -0.007218 0.030474 0.000000 0.000000 0.000000
# 4 0.000000 0.000000 0.000000 -0.025925 0.000000 0.000000
# 5 0.000000 0.000000 0.000000 0.000000 0.024149 0.000000
# 6 0.000000 0.000000 0.000000 0.000000 0.000000 0.031651
#
#
# Mechanical properties :
#
#
# Convention : Reuss Voigt Hill
#
# Bulk Modulus (GPa) = 39.81120 56.15448 47.98284
# Shear Modulus (GPa) = 44.03660 20.48084 32.25872
#
# Velocity S-wave (km/s) = 4.73731 3.23072 4.05461
# Velocity P-wave (km/s) = 7.08602 6.52184 6.80977
#
# Compressibility (1/GPa) = 0.02511856
#
# Stress axis : x y z
#
# Youngs Moduli (GPa) = 91.48190 113.61404 32.81493
#
# Poissons Ratio (x) = 0.19596 0.11817
# Poissons Ratio (y) = 0.15779 0.23687
# Poissons Ratio (z) = 0.32943 0.82009
#
# Static dielectric constant tensor:
#      x y z
#    x 1.707760 0.000000 0.000000 
#    y 0.000000 1.737870 0.000000 
#    z 0.000000 0.000000 1.661050 
# 
# From -- ./inp_files/10283.got.cif
#   From: 2010.05.17/outbox.cif.g08.bks.cpg/sg37_6_cif.got.tgz:10283.got - 2010.06.03 17:53:42.
