data_PCOD9354730
_publ_section_title
;
Structure prediction by ZEFSAII (Michael W. Deem and Ramdas Pophale) SiO2 
 PCOD9354730
Probable space group: C C C 2
;
_chemical_formula_sum "Si O2"
_cell_formula_units_Z 56
_cell_length_a 24.752232
_cell_length_b 5.306722
_cell_length_c 21.253089
_cell_angle_alpha 90.000000
_cell_angle_beta 90.000000
_cell_angle_gamma 90.000000
_cell_volume 2791.661550
_symmetry_space_group_name_H-M "C C C 2"
_symmetry_group_IT_number 37
_symmetry_cell_setting 'orthorhombic'
loop_
_space_group_symop_operation_xyz
x,y,z
-x,-y,z
-x,y,1/2+z
x,-y,1/2+z
1/2+x,1/2+y,z
1/2-x,1/2-y,z
1/2-x,1/2+y,1/2+z
1/2+x,1/2-y,1/2+z
loop_
_atom_site_type_symbol
_atom_site_label
_atom_site_fract_x
_atom_site_fract_y
_atom_site_fract_z
Si Si1 0.564698 0.511965 0.376800
Si Si2 0.397671 0.011793 0.806396
Si Si3 0.355636 0.081361 0.075943
Si Si4 0.943592 0.402777 0.676945
Si Si5 0.272613 0.001199 0.274364
Si Si6 0.405902 0.403987 0.521867
Si Si7 0.750000 0.750000 0.149454
Si Si8 0.000000 0.000000 0.614589
O O1 0.500000 0.500000 0.366994
O O2 0.590407 0.254676 0.349210
O O3 0.576891 0.557998 0.450059
O O4 0.589993 0.752454 0.341940
O O5 0.436664 0.004128 0.746172
O O6 0.336933 0.005262 0.778774
O O7 0.392121 0.024998 0.137008
O O8 0.380073 0.330208 0.043303
O O9 0.298210 0.164226 0.104136
O O10 0.365180 0.831807 0.033630
O O11 0.000000 0.500000 0.649590
O O12 0.955112 0.109857 0.663594
O O13 0.250000 0.250000 0.307647
O O14 0.247267 0.029671 0.203299
O O15 0.250000 0.750000 0.303920
O O16 0.459689 0.363776 0.564379
#
# Coordination Sequence:
#
# PCOD9354730 Si02
#       8
#     8   8   8   8   8   8   4   4
#     4  12  26  46  67  96 141 196 230 279 334 422
#     4  12  26  41  69 103 138 176 236 287 344 423
#     4  11  24  39  71  99 134 172 228 290 342 424
#     4  11  21  37  60 102 138 167 215 281 359 404
#     4  10  22  42  69  98 133 181 219 277 357 432
#     4  11  24  44  66  96 130 189 232 270 333 421
#     4  10  24  42  70 104 138 176 216 296 366 418
#     4  10  22  38  66  92 144 176 218 276 348 426
#
# _framework density 20.059736999999998
#
# number of rings (size 3 to 8) (size 9 to 14) (size 15 to 20)
#    0.429    0.571    3.571    3.000    5.000    0.000 
#    0.000    0.000   15.714    0.000    0.000    0.000 
#    0.000    0.000    0.000    0.000    0.000    0.000 
#
# Total GULP energy -155881.186366 kJ/mol
# GULP energy per Si atom -5567.185227 kJ/mol
# Density = 2.001408 g / cm^3
# Si number density = 20.059737 Si / 1000 Ang^3
#
#
#
# Elastic Constant Matrix: (Units=GPa)
#
#
# Indices 1 2 3 4 5 6 
#
# 1 96.1069 38.6838 24.8637 0.0000 0.0000 0.0000
# 2 38.6838 139.2902 48.0339 0.0000 0.0000 0.0000
# 3 24.8637 48.0339 69.6599 0.0000 0.0000 0.0000
# 4 0.0000 0.0000 0.0000 93.0307 0.0000 0.0000
# 5 0.0000 0.0000 0.0000 0.0000 22.6607 0.0000
# 6 0.0000 0.0000 0.0000 0.0000 0.0000 29.5015
#
#
#
# Elastic Compliance Matrix: (Units=1/GPa)
#
#
# Indices 1 2 3 4 5 6 
#
# 1 0.012068 -0.002448 -0.002619 0.000000 0.000000 0.000000
# 2 -0.002448 0.009916 -0.005963 0.000000 0.000000 0.000000
# 3 -0.002619 -0.005963 0.019402 0.000000 0.000000 0.000000
# 4 0.000000 0.000000 0.000000 0.010749 0.000000 0.000000
# 5 0.000000 0.000000 0.000000 0.000000 0.044129 0.000000
# 6 0.000000 0.000000 0.000000 0.000000 0.000000 0.033897
#
#
# Mechanical properties :
#
#
# Convention : Reuss Voigt Hill
#
# Bulk Modulus (GPa) = 51.74856 58.69111 55.21984
# Shear Modulus (GPa) = 31.51299 41.93697 36.72498
#
# Velocity S-wave (km/s) = 3.96783 4.57727 4.28340
# Velocity P-wave (km/s) = 6.84433 7.56683 7.21463
#
# Compressibility (1/GPa) = 0.01932421
#
# Stress axis : x y z
#
# Youngs Moduli (GPa) = 82.86254 100.85009 51.53987
#
# Poissons Ratio (x) = 0.24692 0.13500
# Poissons Ratio (y) = 0.20288 0.30736
# Poissons Ratio (z) = 0.21704 0.60142
#
# Static dielectric constant tensor:
#      x y z
#    x 1.733800 0.000000 0.000000 
#    y 0.000000 1.503840 0.000000 
#    z 0.000000 0.000000 1.710270 
# 
# From -- ./inp_files/17568.got.cif
#   From: 2010.05.17/outbox.cif.g08.bks.cpg/sg37_9_cif.got.tgz:17568.got - 2010.06.03 17:53:42.
