data_PCOD9354850
_publ_section_title
;
Structure prediction by ZEFSAII (Michael W. Deem and Ramdas Pophale) SiO2 
 PCOD9354850
Probable space group: C C C 2
;
_chemical_formula_sum "Si O2"
_cell_formula_units_Z 56
_cell_length_a 14.537036
_cell_length_b 9.050789
_cell_length_c 20.668002
_cell_angle_alpha 90.000000
_cell_angle_beta 90.000000
_cell_angle_gamma 90.000000
_cell_volume 2719.323033
_symmetry_space_group_name_H-M "C C C 2"
_symmetry_group_IT_number 37
_symmetry_cell_setting 'orthorhombic'
loop_
_space_group_symop_operation_xyz
x,y,z
-x,-y,z
-x,y,1/2+z
x,-y,1/2+z
1/2+x,1/2+y,z
1/2-x,1/2-y,z
1/2-x,1/2+y,1/2+z
1/2+x,1/2-y,1/2+z
loop_
_atom_site_type_symbol
_atom_site_label
_atom_site_fract_x
_atom_site_fract_y
_atom_site_fract_z
Si Si1 0.075155 0.875558 0.516640
Si Si2 0.905801 0.413260 0.740606
Si Si3 0.280327 0.035560 0.976564
Si Si4 0.981333 0.173741 0.820351
Si Si5 0.445939 0.847323 0.941399
Si Si6 0.171229 0.645094 0.332421
Si Si7 0.341701 0.184369 0.111981
O O1 0.096562 0.820631 0.588997
O O2 0.022416 0.737618 0.483491
O O3 0.169367 0.941417 0.484641
O O4 0.000000 0.000000 0.515000
O O5 0.837866 0.496662 0.789867
O O6 0.882460 0.422287 0.665228
O O7 0.000000 0.500000 0.751197
O O8 0.926421 0.244073 0.760247
O O9 0.347835 0.891443 0.973187
O O10 0.304203 0.107262 0.906852
O O11 0.314556 0.112862 0.042969
O O12 0.078623 0.258516 0.827858
O O13 0.927049 0.236042 0.882576
O O14 0.000000 0.000000 0.819664
O O15 0.500000 0.000000 0.921608
O O16 0.250000 0.750000 0.305295
O O17 0.250000 0.250000 0.142804
#
# Coordination Sequence:
#
# PCOD9354850 Si02
#       7
#     8   8   8   8   8   8   8
#     4  11  25  42  63 101 137 173 231 296 353 413
#     4  10  23  41  64  95 132 181 233 269 344 431
#     4  11  22  41  72  98 133 182 227 281 353 419
#     4  11  22  39  62  97 137 174 224 286 342 406
#     4  12  20  37  70  97 132 179 226 282 345 414
#     4  11  21  41  68  98 132 175 226 281 342 419
#     4  10  22  41  67  93 128 177 227 280 342 417
#
# _framework density 20.593361999999999
#
# number of rings (size 3 to 8) (size 9 to 14) (size 15 to 20)
#    0.000    1.143    4.286    3.000    2.000    2.286 
#    0.000    4.286    0.000    0.000    0.000    0.000 
#    0.000    0.000    0.000    0.000    0.000    0.000 
#
# Total GULP energy -155981.542507 kJ/mol
# GULP energy per Si atom -5570.769375 kJ/mol
# Density = 2.054649 g / cm^3
# Si number density = 20.593362 Si / 1000 Ang^3
#
#
#
# Elastic Constant Matrix: (Units=GPa)
#
#
# Indices 1 2 3 4 5 6 
#
# 1 123.6845 50.6631 42.6609 0.0000 0.0000 0.0000
# 2 50.6631 133.9548 44.3138 0.0000 0.0000 0.0000
# 3 42.6609 44.3138 95.0299 0.0000 0.0000 0.0000
# 4 0.0000 0.0000 0.0000 16.7964 0.0000 0.0000
# 5 0.0000 0.0000 0.0000 0.0000 4.1007 0.0000
# 6 0.0000 0.0000 0.0000 0.0000 0.0000 32.6136
#
#
#
# Elastic Compliance Matrix: (Units=1/GPa)
#
#
# Indices 1 2 3 4 5 6 
#
# 1 0.010398 -0.002824 -0.003351 0.000000 0.000000 0.000000
# 2 -0.002824 0.009594 -0.003206 0.000000 0.000000 0.000000
# 3 -0.003351 -0.003206 0.013522 0.000000 0.000000 0.000000
# 4 0.000000 0.000000 0.000000 0.059537 0.000000 0.000000
# 5 0.000000 0.000000 0.000000 0.000000 0.243862 0.000000
# 6 0.000000 0.000000 0.000000 0.000000 0.000000 0.030662
#
#
# Mechanical properties :
#
#
# Convention : Reuss Voigt Hill
#
# Bulk Modulus (GPa) = 67.78708 69.77163 68.77936
# Shear Modulus (GPa) = 12.77945 25.03756 18.90850
#
# Velocity S-wave (km/s) = 2.49381 3.49063 3.03344
# Velocity P-wave (km/s) = 6.42499 7.08521 6.76316
#
# Compressibility (1/GPa) = 0.01475207
#
# Stress axis : x y z
#
# Youngs Moduli (GPa) = 96.17617 104.23343 73.95208
#
# Poissons Ratio (x) = 0.29435 0.24780
# Poissons Ratio (y) = 0.27160 0.23709
# Poissons Ratio (z) = 0.32227 0.33417
#
# Static dielectric constant tensor:
#      x y z
#    x 1.805670 0.000000 0.000000 
#    y 0.000000 1.803820 0.000000 
#    z 0.000000 0.000000 1.738750 
# 
# From -- ./inp_files/16436.got.cif
#   From: 2010.05.17/outbox.cif.g08.bks.cpg/sg37_9_cif.got.tgz:16436.got - 2010.06.03 17:53:42.
