data_PCOD9354538
_publ_section_title
;
Structure prediction by ZEFSAII (Michael W. Deem and Ramdas Pophale) SiO2 
 PCOD9354538
Probable space group: C C C 2
;
_chemical_formula_sum "Si O2"
_cell_formula_units_Z 56
_cell_length_a 16.912563
_cell_length_b 11.050775
_cell_length_c 15.443470
_cell_angle_alpha 90.000000
_cell_angle_beta 90.000000
_cell_angle_gamma 90.000000
_cell_volume 2886.337107
_symmetry_space_group_name_H-M "C C C 2"
_symmetry_group_IT_number 37
_symmetry_cell_setting 'orthorhombic'
loop_
_space_group_symop_operation_xyz
x,y,z
-x,-y,z
-x,y,1/2+z
x,-y,1/2+z
1/2+x,1/2+y,z
1/2-x,1/2-y,z
1/2-x,1/2+y,1/2+z
1/2+x,1/2-y,1/2+z
loop_
_atom_site_type_symbol
_atom_site_label
_atom_site_fract_x
_atom_site_fract_y
_atom_site_fract_z
Si Si1 0.089078 0.956664 0.748300
Si Si2 0.280718 0.481016 0.391781
Si Si3 0.371953 0.692973 0.142055
Si Si4 0.750000 0.250000 0.993185
Si Si5 0.449159 0.228535 0.135996
Si Si6 0.644625 0.852220 0.809448
Si Si7 0.000000 0.500000 0.737910
Si Si8 0.162423 0.202838 0.979939
O O1 0.149341 0.946973 0.826957
O O2 0.082202 0.826278 0.704574
O O3 0.121941 0.057817 0.681123
O O4 0.000000 0.000000 0.772688
O O5 0.236993 0.366457 0.432864
O O6 0.217232 0.563715 0.340106
O O7 0.323342 0.560711 0.466319
O O8 0.320090 0.713126 0.057762
O O9 0.460475 0.734394 0.119627
O O10 0.342177 0.780041 0.220115
O O11 0.452873 0.095448 0.177548
O O12 0.397402 0.248464 0.050975
O O13 0.636666 0.755168 0.886514
O O14 0.564499 0.927859 0.794324
O O15 0.250000 0.250000 0.001153
#
# Coordination Sequence:
#
# PCOD9354538 Si02
#       8
#     8   8   8   4   8   8   4   8
#     4  10  21  40  68  90 122 167 214 256 314 381
#     4  11  24  39  60  99 125 163 212 263 316 372
#     4  10  21  43  64  89 123 174 207 255 324 381
#     4  12  26  36  62  98 130 156 210 272 318 360
#     4  10  23  39  64  94 126 162 213 261 315 369
#     4  10  22  41  66  85 126 175 210 251 325 385
#     4  10  24  40  62  96 126 172 206 256 324 374
#     4  10  22  40  63  91 122 167 214 256 312 372
#
# _framework density 19.401751999999998
#
# number of rings (size 3 to 8) (size 9 to 14) (size 15 to 20)
#    0.000    1.714    1.429    1.714    3.000    8.571 
#    0.000    0.000    0.000    0.000    0.000    0.000 
#    0.000    0.000    0.000    0.000    0.000    0.000 
#
# Total GULP energy -156362.136511 kJ/mol
# GULP energy per Si atom -5584.362018 kJ/mol
# Density = 1.935759 g / cm^3
# Si number density = 19.401752 Si / 1000 Ang^3
#
#
#
# Elastic Constant Matrix: (Units=GPa)
#
#
# Indices 1 2 3 4 5 6 
#
# 1 79.6780 32.8183 51.8538 0.0000 0.0000 0.0000
# 2 32.8183 120.7411 33.3029 0.0000 0.0000 0.0000
# 3 51.8538 33.3029 75.1417 0.0000 0.0000 0.0000
# 4 0.0000 0.0000 0.0000 11.4706 0.0000 0.0000
# 5 0.0000 0.0000 0.0000 0.0000 82.8978 0.0000
# 6 0.0000 0.0000 0.0000 0.0000 0.0000 23.2802
#
#
#
# Elastic Compliance Matrix: (Units=1/GPa)
#
#
# Indices 1 2 3 4 5 6 
#
# 1 0.023266 -0.002159 -0.015098 0.000000 0.000000 0.000000
# 2 -0.002159 0.009636 -0.002781 0.000000 0.000000 0.000000
# 3 -0.015098 -0.002781 0.024959 0.000000 0.000000 0.000000
# 4 0.000000 0.000000 0.000000 0.087179 0.000000 0.000000
# 5 0.000000 0.000000 0.000000 0.000000 0.012063 0.000000
# 6 0.000000 0.000000 0.000000 0.000000 0.000000 0.042955
#
#
# Mechanical properties :
#
#
# Convention : Reuss Voigt Hill
#
# Bulk Modulus (GPa) = 56.22708 56.83451 56.53080
# Shear Modulus (GPa) = 20.32002 34.03547 27.17774
#
# Velocity S-wave (km/s) = 3.23976 4.19292 3.74677
# Velocity P-wave (km/s) = 6.56034 7.26621 6.92228
#
# Compressibility (1/GPa) = 0.01778502
#
# Stress axis : x y z
#
# Youngs Moduli (GPa) = 42.98173 103.77688 40.06495
#
# Poissons Ratio (x) = 0.22410 0.60491
# Poissons Ratio (y) = 0.09281 0.11140
# Poissons Ratio (z) = 0.64894 0.28856
#
# Static dielectric constant tensor:
#      x y z
#    x 1.627010 0.000000 0.000000 
#    y 0.000000 1.703360 0.000000 
#    z 0.000000 0.000000 1.659930 
# 
# From -- ./inp_files/11635.got.cif
#   From: 2010.05.17/outbox.cif.g08.bks.cpg/sg37_6_cif.got.tgz:11635.got - 2010.06.03 17:53:42.
