data_PCOD9354235
_publ_section_title
;
Structure prediction by ZEFSAII (Michael W. Deem and Ramdas Pophale) SiO2 
 PCOD9354235
Probable space group: C C C 2
;
_chemical_formula_sum "Si O2"
_cell_formula_units_Z 64
_cell_length_a 9.206318
_cell_length_b 17.652128
_cell_length_c 18.656212
_cell_angle_alpha 90.000000
_cell_angle_beta 90.000000
_cell_angle_gamma 90.000000
_cell_volume 3031.841604
_symmetry_space_group_name_H-M "C C C 2"
_symmetry_group_IT_number 37
_symmetry_cell_setting 'orthorhombic'
loop_
_space_group_symop_operation_xyz
x,y,z
-x,-y,z
-x,y,1/2+z
x,-y,1/2+z
1/2+x,1/2+y,z
1/2-x,1/2-y,z
1/2-x,1/2+y,1/2+z
1/2+x,1/2-y,1/2+z
loop_
_atom_site_type_symbol
_atom_site_label
_atom_site_fract_x
_atom_site_fract_y
_atom_site_fract_z
Si Si1 0.490992 0.137946 0.092030
Si Si2 0.709790 0.453627 0.605866
Si Si3 0.098085 0.345696 0.431371
Si Si4 0.004226 0.190103 0.117873
Si Si5 0.419805 0.670852 0.957101
Si Si6 0.893131 0.435087 0.329170
Si Si7 0.858657 0.954017 0.940077
Si Si8 0.269436 0.393907 0.687705
O O1 0.375635 0.073607 0.111349
O O2 0.439887 0.223911 0.111338
O O3 0.637507 0.127032 0.135632
O O4 0.526702 0.132350 0.007649
O O5 0.621623 0.376650 0.621654
O O6 0.675403 0.474193 0.522924
O O7 0.675636 0.524688 0.656748
O O8 0.268920 0.367419 0.432306
O O9 0.086338 0.255280 0.427921
O O10 0.004482 0.378934 0.367618
O O11 0.891311 0.170560 0.180482
O O12 0.916802 0.176698 0.043418
O O13 0.572009 0.630551 0.939581
O O14 0.781591 0.461887 0.391010
O O15 0.794852 0.402674 0.266295
O O16 0.000000 0.500000 0.300044
O O17 0.000000 0.000000 0.915240
#
# Coordination Sequence:
#
# PCOD9354235 Si02
#       8
#     8   8   8   8   8   8   8   8
#     4  11  21  39  69 100 125 173 221 277 331 394
#     4  11  22  39  68  98 130 171 228 280 327 390
#     4  10  20  40  68  95 130 173 219 277 332 395
#     4  10  21  40  66  99 132 168 223 277 326 398
#     4   9  19  39  68  99 127 167 226 275 328 398
#     4  12  27  43  62  96 138 178 224 279 341 409
#     4  11  23  39  63  99 132 173 228 277 336 401
#     4  12  25  43  64  96 134 175 221 274 343 405
#
# _framework density 21.109283000000001
#
# number of rings (size 3 to 8) (size 9 to 14) (size 15 to 20)
#    0.000    1.250    2.500    4.500    1.750    1.500 
#    4.500    1.250    5.500    0.000    0.000    0.000 
#    0.000    0.000    0.000    0.000    0.000    0.000 
#
# Total GULP energy -178818.826745 kJ/mol
# GULP energy per Si atom -5588.088336 kJ/mol
# Density = 2.106124 g / cm^3
# Si number density = 21.109283 Si / 1000 Ang^3
#
#
#
# Elastic Constant Matrix: (Units=GPa)
#
#
# Indices 1 2 3 4 5 6 
#
# 1 64.0322 1.6462 2.7667 0.0000 0.0000 0.0000
# 2 1.6462 53.0435 6.3388 0.0000 0.0000 0.0000
# 3 2.7667 6.3388 69.3089 0.0000 0.0000 0.0000
# 4 0.0000 0.0000 0.0000 2.7454 0.0000 0.0000
# 5 0.0000 0.0000 0.0000 0.0000 28.3254 0.0000
# 6 0.0000 0.0000 0.0000 0.0000 0.0000 37.8585
#
#
#
# Elastic Compliance Matrix: (Units=1/GPa)
#
#
# Indices 1 2 3 4 5 6 
#
# 1 0.015653 -0.000416 -0.000587 0.000000 0.000000 0.000000
# 2 -0.000416 0.019072 -0.001728 0.000000 0.000000 0.000000
# 3 -0.000587 -0.001728 0.014610 0.000000 0.000000 0.000000
# 4 0.000000 0.000000 0.000000 0.364241 0.000000 0.000000
# 5 0.000000 0.000000 0.000000 0.000000 0.035304 0.000000
# 6 0.000000 0.000000 0.000000 0.000000 0.000000 0.026414
#
#
# Mechanical properties :
#
#
# Convention : Reuss Voigt Hill
#
# Bulk Modulus (GPa) = 22.79240 23.09866 22.94553
# Shear Modulus (GPa) = 10.09328 25.49472 17.79400
#
# Velocity S-wave (km/s) = 2.18902 3.47904 2.90650
# Velocity P-wave (km/s) = 4.14848 5.20619 4.70714
#
# Compressibility (1/GPa) = 0.04387428
#
# Stress axis : x y z
#
# Youngs Moduli (GPa) = 63.88477 52.43337 68.44817
#
# Poissons Ratio (x) = 0.02179 0.04017
# Poissons Ratio (y) = 0.02655 0.11826
# Poissons Ratio (z) = 0.03749 0.09059
#
# Static dielectric constant tensor:
#      x y z
#    x 1.765850 0.000000 0.000000 
#    y 0.000000 1.822140 0.000000 
#    z 0.000000 0.000000 1.733610 
# 
# From -- ./inp_files/16561.got.cif
#   From: 2010.05.17/outbox.cif.g08.bks.cpg/sg37_9_cif.got.tgz:16561.got - 2010.06.03 17:53:42.
