data_PCOD9354118
_publ_section_title
;
Structure prediction by ZEFSAII (Michael W. Deem and Ramdas Pophale) SiO2 
 PCOD9354118
Probable space group: C C C 2
;
_chemical_formula_sum "Si O2"
_cell_formula_units_Z 64
_cell_length_a 12.460262
_cell_length_b 29.080272
_cell_length_c 8.590640
_cell_angle_alpha 90.000000
_cell_angle_beta 90.000000
_cell_angle_gamma 90.000000
_cell_volume 3112.799575
_symmetry_space_group_name_H-M "C C C 2"
_symmetry_group_IT_number 37
_symmetry_cell_setting 'orthorhombic'
loop_
_space_group_symop_operation_xyz
x,y,z
-x,-y,z
-x,y,1/2+z
x,-y,1/2+z
1/2+x,1/2+y,z
1/2-x,1/2-y,z
1/2-x,1/2+y,1/2+z
1/2+x,1/2-y,1/2+z
loop_
_atom_site_type_symbol
_atom_site_label
_atom_site_fract_x
_atom_site_fract_y
_atom_site_fract_z
Si Si1 0.413602 0.286939 0.284990
Si Si2 0.357554 0.381422 0.865165
Si Si3 0.443212 0.649959 0.064562
Si Si4 0.886045 0.476351 0.141279
Si Si5 0.552776 0.117900 0.022414
Si Si6 0.259955 0.798083 0.516956
Si Si7 0.836531 0.440819 0.475837
Si Si8 0.953645 0.682399 0.234850
O O1 0.500844 0.315811 0.188560
O O2 0.389526 0.315259 0.441415
O O3 0.311823 0.290395 0.171926
O O4 0.454683 0.234317 0.304143
O O5 0.376412 0.382487 0.679871
O O6 0.275643 0.418813 0.928064
O O7 0.467767 0.378020 0.964954
O O8 0.294159 0.335262 0.909945
O O9 0.882287 0.464459 0.321090
O O10 0.000000 0.500000 0.104690
O O11 0.877157 0.427741 0.052226
O O12 0.811235 0.518787 0.097741
O O13 0.430638 0.095693 0.022578
O O14 0.581050 0.145901 0.866797
O O15 0.555758 0.155966 0.160298
O O16 0.250000 0.750000 0.430020
O O17 0.375325 0.810957 0.585373
#
# Coordination Sequence:
#
# PCOD9354118 Si02
#       8
#     8   8   8   8   8   8   8   8
#     4   9  18  34  53  80 117 160 198 238 291 328
#     4  10  20  38  62  84 109 149 201 243 300 351
#     4   9  19  37  59  81 110 152 198 246 291 352
#     4  10  22  38  58  84 119 151 188 228 298 360
#     4  11  21  34  55  86 119 161 194 237 280 361
#     4   9  19  34  52  80 119 160 194 240 283 328
#     4  11  22  38  59  85 112 150 194 241 298 359
#     4  11  20  33  53  83 125 161 201 235 280 340
#
# _framework density 20.560271
#
# number of rings (size 3 to 8) (size 9 to 14) (size 15 to 20)
#    0.000    2.000    2.500    1.875    1.750    2.000 
#    0.000    4.375    0.000    2.250    0.000    0.000 
#    0.000    0.000    0.000    0.000    0.000    0.000 
#
# Total GULP energy -178264.005082 kJ/mol
# GULP energy per Si atom -5570.750159 kJ/mol
# Density = 2.051347 g / cm^3
# Si number density = 20.560271 Si / 1000 Ang^3
#
#
#
# Elastic Constant Matrix: (Units=GPa)
#
#
# Indices 1 2 3 4 5 6 
#
# 1 34.9974 20.3422 -1.7315 0.0000 0.0000 0.0000
# 2 20.3422 96.9821 17.3330 0.0000 0.0000 0.0000
# 3 -1.7315 17.3330 64.4950 0.0000 0.0000 0.0000
# 4 0.0000 0.0000 0.0000 35.8517 0.0000 0.0000
# 5 0.0000 0.0000 0.0000 0.0000 13.9049 0.0000
# 6 0.0000 0.0000 0.0000 0.0000 0.0000 21.0267
#
#
#
# Elastic Compliance Matrix: (Units=1/GPa)
#
#
# Indices 1 2 3 4 5 6 
#
# 1 0.033045 -0.007448 0.002889 0.000000 0.000000 0.000000
# 2 -0.007448 0.012510 -0.003562 0.000000 0.000000 0.000000
# 3 0.002889 -0.003562 0.016540 0.000000 0.000000 0.000000
# 4 0.000000 0.000000 0.000000 0.027893 0.000000 0.000000
# 5 0.000000 0.000000 0.000000 0.000000 0.071917 0.000000
# 6 0.000000 0.000000 0.000000 0.000000 0.000000 0.047559
#
#
# Mechanical properties :
#
#
# Convention : Reuss Voigt Hill
#
# Bulk Modulus (GPa) = 21.80859 29.81799 25.81329
# Shear Modulus (GPa) = 20.74777 24.85872 22.80324
#
# Velocity S-wave (km/s) = 3.18011 3.48093 3.33392
# Velocity P-wave (km/s) = 4.91063 5.53986 5.23471
#
# Compressibility (1/GPa) = 0.04585350
#
# Stress axis : x y z
#
# Youngs Moduli (GPa) = 30.26139 79.93638 60.45982
#
# Poissons Ratio (x) = 0.59534 -0.17465
# Poissons Ratio (y) = 0.22538 0.21536
# Poissons Ratio (z) = -0.08742 0.28473
#
# Static dielectric constant tensor:
#      x y z
#    x 1.856490 0.000000 0.000000 
#    y 0.000000 1.857470 0.000000 
#    z 0.000000 0.000000 1.752420 
# 
# From -- ./inp_files/3819.got.cif
#   From: 2010.05.17/outbox.cif.g08.bks.cpg/sg37_2_cif.got.tgz:3819.got - 2010.06.03 17:53:42.
