data_PCOD9354792
_publ_section_title
;
Structure prediction by ZEFSAII (Michael W. Deem and Ramdas Pophale) SiO2 
 PCOD9354792
Probable space group: C C C 2
;
_chemical_formula_sum "Si O2"
_cell_formula_units_Z 48
_cell_length_a 5.415494
_cell_length_b 14.180001
_cell_length_c 28.624755
_cell_angle_alpha 90.000000
_cell_angle_beta 90.000000
_cell_angle_gamma 90.000000
_cell_volume 2198.143894
_symmetry_space_group_name_H-M "C C C 2"
_symmetry_group_IT_number 37
_symmetry_cell_setting 'orthorhombic'
loop_
_space_group_symop_operation_xyz
x,y,z
-x,-y,z
-x,y,1/2+z
x,-y,1/2+z
1/2+x,1/2+y,z
1/2-x,1/2-y,z
1/2-x,1/2+y,1/2+z
1/2+x,1/2-y,1/2+z
loop_
_atom_site_type_symbol
_atom_site_label
_atom_site_fract_x
_atom_site_fract_y
_atom_site_fract_z
Si Si1 0.250000 0.250000 0.067870
Si Si2 0.500000 0.000000 0.743143
Si Si3 0.250000 0.750000 0.888427
Si Si4 0.000000 0.000000 0.682614
Si Si5 0.891524 0.345073 0.318757
Si Si6 0.499508 0.711512 0.157500
Si Si7 0.259207 0.060322 0.008223
Si Si8 0.873072 0.099788 0.410288
O O1 0.473287 0.246171 0.105428
O O2 0.235495 0.155013 0.038409
O O3 0.471136 0.090046 0.776686
O O4 0.250574 0.995494 0.712965
O O5 0.382785 0.820088 0.852672
O O6 0.447437 0.689556 0.916963
O O7 0.995783 0.901347 0.655132
O O8 0.750000 0.250000 0.303701
O O9 0.718143 0.393758 0.357282
O O10 0.250000 0.750000 0.179839
O O11 0.750000 0.750000 0.181896
O O12 0.500000 0.000000 0.022574
O O13 0.307880 0.095130 0.954547
O O14 0.000000 0.000000 0.011161
O O15 0.000000 0.000000 0.413359
#
# Coordination Sequence:
#
# PCOD9354792 Si02
#       8
#     4   4   4   4   8   8   8   8
#     4  10  28  44  81 100 144 178 232 285 356 424
#     4  12  28  44  72 102 140 178 238 284 348 414
#     4  10  22  40  65  92 130 192 236 275 340 396
#     4  12  28  48  74 108 136 182 228 302 350 430
#     4  10  24  41  65  95 135 188 228 286 334 409
#     4  10  25  48  76 105 137 181 219 287 363 428
#     4  11  28  43  67 109 142 184 235 290 335 413
#     4  10  23  40  65  93 138 186 232 278 338 397
#
# _framework density 21.836607000000001
#
# number of rings (size 3 to 8) (size 9 to 14) (size 15 to 20)
#    0.500    1.000    0.000    2.000   18.667    2.000 
#    0.000    0.000    0.000    0.000    0.000    0.000 
#    0.000    0.000    0.000    0.000    0.000    0.000 
#
# Total GULP energy -133939.058329 kJ/mol
# GULP energy per Si atom -5580.794097 kJ/mol
# Density = 2.178691 g / cm^3
# Si number density = 21.836607 Si / 1000 Ang^3
#
#
#
# Elastic Constant Matrix: (Units=GPa)
#
#
# Indices 1 2 3 4 5 6 
#
# 1 122.6548 30.9482 13.2880 0.0000 0.0000 0.0000
# 2 30.9482 101.7222 29.9104 0.0000 0.0000 0.0000
# 3 13.2880 29.9104 55.0880 0.0000 0.0000 0.0000
# 4 0.0000 0.0000 0.0000 58.6718 0.0000 0.0000
# 5 0.0000 0.0000 0.0000 0.0000 29.1867 0.0000
# 6 0.0000 0.0000 0.0000 0.0000 0.0000 19.4861
#
#
#
# Elastic Compliance Matrix: (Units=1/GPa)
#
#
# Indices 1 2 3 4 5 6 
#
# 1 0.008861 -0.002460 -0.000802 0.000000 0.000000 0.000000
# 2 -0.002460 0.012381 -0.006129 0.000000 0.000000 0.000000
# 3 -0.000802 -0.006129 0.021674 0.000000 0.000000 0.000000
# 4 0.000000 0.000000 0.000000 0.017044 0.000000 0.000000
# 5 0.000000 0.000000 0.000000 0.000000 0.034262 0.000000
# 6 0.000000 0.000000 0.000000 0.000000 0.000000 0.051319
#
#
# Mechanical properties :
#
#
# Convention : Reuss Voigt Hill
#
# Bulk Modulus (GPa) = 41.43480 47.52871 44.48175
# Shear Modulus (GPa) = 29.00790 35.15682 32.08236
#
# Velocity S-wave (km/s) = 3.64869 4.01683 3.83717
# Velocity P-wave (km/s) = 6.06355 6.58225 6.32822
#
# Compressibility (1/GPa) = 0.02413430
#
# Stress axis : x y z
#
# Youngs Moduli (GPa) = 112.86018 80.76661 46.13829
#
# Poissons Ratio (x) = 0.19869 0.03698
# Poissons Ratio (y) = 0.27764 0.28279
# Poissons Ratio (z) = 0.09047 0.49503
#
# Static dielectric constant tensor:
#      x y z
#    x 1.812460 0.000000 0.000000 
#    y 0.000000 1.750340 0.000000 
#    z 0.000000 0.000000 1.764320 
# 
# From -- ./inp_files/19455.got.cif
#   From: 2010.05.17/outbox.cif.g08.bks.cpg/sg37_10_cif.got.tgz:19455.got - 2010.06.03 17:53:42.
