data_PCOD9354498
_publ_section_title
;
Structure prediction by ZEFSAII (Michael W. Deem and Ramdas Pophale) SiO2 
 PCOD9354498
Probable space group: C C C 2
;
_chemical_formula_sum "Si O2"
_cell_formula_units_Z 48
_cell_length_a 14.064695
_cell_length_b 6.431002
_cell_length_c 25.650454
_cell_angle_alpha 90.000000
_cell_angle_beta 90.000000
_cell_angle_gamma 90.000000
_cell_volume 2320.085659
_symmetry_space_group_name_H-M "C C C 2"
_symmetry_group_IT_number 37
_symmetry_cell_setting 'orthorhombic'
loop_
_space_group_symop_operation_xyz
x,y,z
-x,-y,z
-x,y,1/2+z
x,-y,1/2+z
1/2+x,1/2+y,z
1/2-x,1/2-y,z
1/2-x,1/2+y,1/2+z
1/2+x,1/2-y,1/2+z
loop_
_atom_site_type_symbol
_atom_site_label
_atom_site_fract_x
_atom_site_fract_y
_atom_site_fract_z
Si Si1 0.600227 0.121009 0.871300
Si Si2 0.250000 0.250000 0.180325
Si Si3 0.688186 0.051372 0.272559
Si Si4 0.000000 0.500000 0.725816
Si Si5 0.354043 0.842443 0.467753
Si Si6 0.000000 0.000000 0.924015
Si Si7 0.500000 0.000000 0.046789
Si Si8 0.940042 0.800310 0.136626
O O1 0.568644 0.349595 0.890074
O O2 0.500000 0.000000 0.863092
O O3 0.664336 0.104825 0.819896
O O4 0.651689 0.988404 0.916642
O O5 0.232094 0.438359 0.221796
O O6 0.171499 0.166075 0.139468
O O7 0.750000 0.250000 0.288166
O O8 0.581192 0.118961 0.256944
O O9 0.049807 0.657591 0.687226
O O10 0.250000 0.750000 0.480565
O O11 0.430479 0.655816 0.456257
O O12 0.406786 0.987685 0.510478
O O13 0.516400 0.808615 0.085967
O O14 0.000000 0.000000 0.146392
#
# Coordination Sequence:
#
# PCOD9354498 Si02
#       8
#     8   4   8   4   8   4   4   8
#     4  10  21  40  61  94 132 173 216 273 333 398
#     4  10  24  40  62 102 124 172 234 266 340 418
#     4  11  21  37  63  90 127 170 217 267 331 397
#     4   9  20  39  58  84 122 167 206 261 332 382
#     4  11  24  44  67  94 133 171 222 280 334 408
#     4  10  22  44  66  92 144 174 222 272 332 402
#     4  11  24  43  68 100 124 171 230 273 350 414
#     4  10  22  42  63  88 130 165 212 281 332 396
#
# _framework density 20.688891000000002
#
# number of rings (size 3 to 8) (size 9 to 14) (size 15 to 20)
#    0.000    1.667    3.333    1.500    2.333    4.667 
#    6.000    1.667    0.000    0.000    0.000    0.000 
#    0.000    0.000    0.000    0.000    0.000    0.000 
#
# Total GULP energy -133696.937363 kJ/mol
# GULP energy per Si atom -5570.705723 kJ/mol
# Density = 2.064180 g / cm^3
# Si number density = 20.688891 Si / 1000 Ang^3
#
#
#
# Elastic Constant Matrix: (Units=GPa)
#
#
# Indices 1 2 3 4 5 6 
#
# 1 116.2542 21.2904 39.8327 0.0000 0.0000 0.0000
# 2 21.2904 52.3969 18.1596 0.0000 0.0000 0.0000
# 3 39.8327 18.1596 75.8657 0.0000 0.0000 0.0000
# 4 0.0000 0.0000 0.0000 18.6534 0.0000 0.0000
# 5 0.0000 0.0000 0.0000 0.0000 19.3033 0.0000
# 6 0.0000 0.0000 0.0000 0.0000 0.0000 35.7323
#
#
#
# Elastic Compliance Matrix: (Units=1/GPa)
#
#
# Indices 1 2 3 4 5 6 
#
# 1 0.010815 -0.002646 -0.005045 0.000000 0.000000 0.000000
# 2 -0.002646 0.021459 -0.003747 0.000000 0.000000 0.000000
# 3 -0.005045 -0.003747 0.016727 0.000000 0.000000 0.000000
# 4 0.000000 0.000000 0.000000 0.053610 0.000000 0.000000
# 5 0.000000 0.000000 0.000000 0.000000 0.051805 0.000000
# 6 0.000000 0.000000 0.000000 0.000000 0.000000 0.027986
#
#
# Mechanical properties :
#
#
# Convention : Reuss Voigt Hill
#
# Bulk Modulus (GPa) = 38.27827 44.78690 41.53258
# Shear Modulus (GPa) = 23.36607 25.75341 24.55974
#
# Velocity S-wave (km/s) = 3.36430 3.53199 3.44917
# Velocity P-wave (km/s) = 5.79943 6.19097 5.99839
#
# Compressibility (1/GPa) = 0.02612448
#
# Stress axis : x y z
#
# Youngs Moduli (GPa) = 92.46419 46.60058 59.78366
#
# Poissons Ratio (x) = 0.12330 0.30161
# Poissons Ratio (y) = 0.24466 0.22403
# Poissons Ratio (z) = 0.46648 0.17463
#
# Static dielectric constant tensor:
#      x y z
#    x 1.747880 0.000000 0.000000 
#    y 0.000000 1.727440 0.000000 
#    z 0.000000 0.000000 1.776040 
# 
# From -- ./inp_files/19434.got.cif
#   From: 2010.05.17/outbox.cif.g08.bks.cpg/sg37_10_cif.got.tgz:19434.got - 2010.06.03 17:53:42.
