data_PCOD9354813
_publ_section_title
;
Structure prediction by ZEFSAII (Michael W. Deem and Ramdas Pophale) SiO2 
 PCOD9354813
Probable space group: C C C 2
;
_chemical_formula_sum "Si O2"
_cell_formula_units_Z 60
_cell_length_a 22.142534
_cell_length_b 14.307673
_cell_length_c 7.972901
_cell_angle_alpha 90.000000
_cell_angle_beta 90.000000
_cell_angle_gamma 90.000000
_cell_volume 2525.879903
_symmetry_space_group_name_H-M "C C C 2"
_symmetry_group_IT_number 37
_symmetry_cell_setting 'orthorhombic'
loop_
_space_group_symop_operation_xyz
x,y,z
-x,-y,z
-x,y,1/2+z
x,-y,1/2+z
1/2+x,1/2+y,z
1/2-x,1/2-y,z
1/2-x,1/2+y,1/2+z
1/2+x,1/2-y,1/2+z
loop_
_atom_site_type_symbol
_atom_site_label
_atom_site_fract_x
_atom_site_fract_y
_atom_site_fract_z
Si Si1 0.868703 0.917723 0.971370
Si Si2 0.500000 0.000000 0.046211
Si Si3 0.985775 0.891520 0.151794
Si Si4 0.575662 0.090525 0.795271
Si Si5 0.319141 0.388893 0.344423
Si Si6 0.918939 0.788423 0.455808
Si Si7 0.254860 0.361342 0.805214
Si Si8 0.291353 0.947886 0.662144
O O1 0.827137 0.872572 0.829995
O O2 0.852437 0.025561 0.938667
O O3 0.938787 0.894707 0.993088
O O4 0.841612 0.889692 0.151532
O O5 0.479484 0.085373 0.163321
O O6 0.557876 0.012515 0.929638
O O7 0.948926 0.847601 0.303965
O O8 0.000000 0.000000 0.182852
O O9 0.044349 0.829545 0.111318
O O10 0.571971 0.183036 0.903531
O O11 0.639308 0.070016 0.709222
O O12 0.346865 0.303101 0.443916
O O13 0.248855 0.401030 0.310476
O O14 0.250000 0.250000 0.777096
O O15 0.229110 0.441808 0.678296
O O16 0.225050 0.397751 0.984154
#
# Coordination Sequence:
#
# PCOD9354813 Si02
#       8
#     8   4   8   8   8   8   8   8
#     4   9  19  34  56  82 122 158 201 254 311 372
#     4  10  24  46  64  86 120 162 204 276 324 358
#     4  11  21  35  55  86 125 166 203 257 316 379
#     4  11  23  43  67  89 123 162 215 270 321 384
#     4   9  19  35  55  87 118 156 195 257 305 376
#     4  11  23  35  58  88 117 160 214 247 314 387
#     4  10  22  42  68  96 129 175 219 274 341 396
#     4  10  22  40  69  95 129 168 220 270 333 398
#
# _framework density 23.754097000000002
#
# number of rings (size 3 to 8) (size 9 to 14) (size 15 to 20)
#    0.000    1.867    1.333    2.000    7.467    0.000 
#    4.800    0.667   14.667    0.000    0.000    0.000 
#    0.000    0.000    0.000    0.000    0.000    0.000 
#
# Total GULP energy -167290.108544 kJ/mol
# GULP energy per Si atom -5576.336951 kJ/mol
# Density = 2.370003 g / cm^3
# Si number density = 23.754097 Si / 1000 Ang^3
#
#
#
# Elastic Constant Matrix: (Units=GPa)
#
#
# Indices 1 2 3 4 5 6 
#
# 1 106.8508 15.2265 21.6981 0.0000 0.0000 0.0000
# 2 15.2265 81.0872 13.7404 0.0000 0.0000 0.0000
# 3 21.6981 13.7404 85.7160 0.0000 0.0000 0.0000
# 4 0.0000 0.0000 0.0000 12.1635 0.0000 0.0000
# 5 0.0000 0.0000 0.0000 0.0000 49.7446 0.0000
# 6 0.0000 0.0000 0.0000 0.0000 0.0000 31.4355
#
#
#
# Elastic Compliance Matrix: (Units=1/GPa)
#
#
# Indices 1 2 3 4 5 6 
#
# 1 0.010039 -0.001495 -0.002302 0.000000 0.000000 0.000000
# 2 -0.001495 0.012899 -0.001689 0.000000 0.000000 0.000000
# 3 -0.002302 -0.001689 0.012520 0.000000 0.000000 0.000000
# 4 0.000000 0.000000 0.000000 0.082213 0.000000 0.000000
# 5 0.000000 0.000000 0.000000 0.000000 0.020103 0.000000
# 6 0.000000 0.000000 0.000000 0.000000 0.000000 0.031811
#
#
# Mechanical properties :
#
#
# Convention : Reuss Voigt Hill
#
# Bulk Modulus (GPa) = 40.83910 41.66488 41.25199
# Shear Modulus (GPa) = 26.49428 33.53464 30.01446
#
# Velocity S-wave (km/s) = 3.34332 3.76139 3.55850
# Velocity P-wave (km/s) = 5.66864 6.03674 5.85558
#
# Compressibility (1/GPa) = 0.02448634
#
# Stress axis : x y z
#
# Youngs Moduli (GPa) = 99.60848 77.52281 79.87303
#
# Poissons Ratio (x) = 0.11591 0.18384
# Poissons Ratio (y) = 0.14893 0.13493
# Poissons Ratio (z) = 0.22927 0.13096
#
# Static dielectric constant tensor:
#      x y z
#    x 1.949530 0.000000 0.000000 
#    y 0.000000 1.974810 0.000000 
#    z 0.000000 0.000000 1.943870 
# 
# From -- ./inp_files/4631.got.cif
#   From: 2010.05.17/outbox.cif.g08.bks.cpg/sg37_3_cif.got.tgz:4631.got - 2010.06.03 17:53:42.
