data_PCOD9354217
_publ_section_title
;
Structure prediction by ZEFSAII (Michael W. Deem and Ramdas Pophale) SiO2 
 PCOD9354217
Probable space group: C C C 2
;
_chemical_formula_sum "Si O2"
_cell_formula_units_Z 48
_cell_length_a 8.172963
_cell_length_b 26.749947
_cell_length_c 8.743989
_cell_angle_alpha 90.000000
_cell_angle_beta 90.000000
_cell_angle_gamma 90.000000
_cell_volume 1911.666199
_symmetry_space_group_name_H-M "C C C 2"
_symmetry_group_IT_number 37
_symmetry_cell_setting 'orthorhombic'
loop_
_space_group_symop_operation_xyz
x,y,z
-x,-y,z
-x,y,1/2+z
x,-y,1/2+z
1/2+x,1/2+y,z
1/2-x,1/2-y,z
1/2-x,1/2+y,1/2+z
1/2+x,1/2-y,1/2+z
loop_
_atom_site_type_symbol
_atom_site_label
_atom_site_fract_x
_atom_site_fract_y
_atom_site_fract_z
Si Si1 0.424735 0.182492 0.563650
Si Si2 0.485850 0.115278 0.306939
Si Si3 0.179770 0.941604 0.404826
Si Si4 0.106271 0.783475 0.641106
Si Si5 0.672817 0.694499 0.825651
Si Si6 0.667747 0.445941 0.773800
O O1 0.448115 0.168460 0.388427
O O2 0.517123 0.133619 0.632335
O O3 0.484725 0.239500 0.579486
O O4 0.265700 0.177276 0.671832
O O5 0.659218 0.089164 0.348966
O O6 0.328491 0.081751 0.335856
O O7 0.169173 0.944845 0.588849
O O8 0.003568 0.923942 0.338169
O O9 0.187946 0.997336 0.333767
O O10 0.250000 0.750000 0.704860
O O11 0.169079 0.819383 0.505474
O O12 0.013722 0.809538 0.776340
O O13 0.750000 0.750000 0.844661
#
# Coordination Sequence:
#
# PCOD9354217 Si02
#       6
#     8   8   8   8   8   8
#     4  11  24  43  63  99 139 174 227 291 354 421
#     4  12  25  44  67 103 151 184 226 291 374 414
#     4  11  25  45  73 104 141 187 245 291 342 434
#     4  10  20  40  65  89 123 171 229 276 334 411
#     4   9  20  39  62  87 122 169 221 275 327 410
#     4  11  25  45  74 102 139 193 239 290 345 428
#
# _framework density 25.108985000000001
#
# number of rings (size 3 to 8) (size 9 to 14) (size 15 to 20)
#    0.000    1.333    1.667    5.500    4.667    4.667 
#    9.000    0.000    0.000    0.000    0.000    0.000 
#    0.000    0.000    0.000    0.000    0.000    0.000 
#
# Total GULP energy -133894.912677 kJ/mol
# GULP energy per Si atom -5578.954695 kJ/mol
# Density = 2.505184 g / cm^3
# Si number density = 25.108985 Si / 1000 Ang^3
#
#
#
# Elastic Constant Matrix: (Units=GPa)
#
#
# Indices 1 2 3 4 5 6 
#
# 1 176.6985 43.8050 59.2533 0.0000 0.0000 0.0000
# 2 43.8050 96.4492 34.9093 0.0000 0.0000 0.0000
# 3 59.2533 34.9093 92.4698 0.0000 0.0000 0.0000
# 4 0.0000 0.0000 0.0000 27.2463 0.0000 0.0000
# 5 0.0000 0.0000 0.0000 0.0000 40.0505 0.0000
# 6 0.0000 0.0000 0.0000 0.0000 0.0000 32.3963
#
#
#
# Elastic Compliance Matrix: (Units=1/GPa)
#
#
# Indices 1 2 3 4 5 6 
#
# 1 0.007507 -0.001932 -0.004081 0.000000 0.000000 0.000000
# 2 -0.001932 0.012507 -0.003483 0.000000 0.000000 0.000000
# 3 -0.004081 -0.003483 0.014744 0.000000 0.000000 0.000000
# 4 0.000000 0.000000 0.000000 0.036702 0.000000 0.000000
# 5 0.000000 0.000000 0.000000 0.000000 0.024968 0.000000
# 6 0.000000 0.000000 0.000000 0.000000 0.000000 0.030868
#
#
# Mechanical properties :
#
#
# Convention : Reuss Voigt Hill
#
# Bulk Modulus (GPa) = 63.43233 71.28362 67.35798
# Shear Modulus (GPa) = 32.99377 35.11528 34.05452
#
# Velocity S-wave (km/s) = 3.62888 3.74373 3.68675
# Velocity P-wave (km/s) = 6.54798 6.86576 6.70875
#
# Compressibility (1/GPa) = 0.01576483
#
# Stress axis : x y z
#
# Youngs Moduli (GPa) = 133.21193 79.95816 67.82325
#
# Poissons Ratio (x) = 0.15451 0.27677
# Poissons Ratio (y) = 0.25742 0.23624
# Poissons Ratio (z) = 0.54360 0.27851
#
# Static dielectric constant tensor:
#      x y z
#    x 2.125560 0.000000 0.000000 
#    y 0.000000 2.105090 0.000000 
#    z 0.000000 0.000000 1.929940 
# 
# From -- ./inp_files/2415.got.cif
#   From: 2010.05.17/outbox.cif.g08.bks.cpg/sg37_2_cif.got.tgz:2415.got - 2010.06.03 17:53:42.
