data_PCOD9354032
_publ_section_title
;
Structure prediction by ZEFSAII (Michael W. Deem and Ramdas Pophale) SiO2 
 PCOD9354032
Probable space group: C C C 2
;
_chemical_formula_sum "Si O2"
_cell_formula_units_Z 40
_cell_length_a 5.029903
_cell_length_b 16.616610
_cell_length_c 20.668612
_cell_angle_alpha 90.000000
_cell_angle_beta 90.000000
_cell_angle_gamma 90.000000
_cell_volume 1727.481278
_symmetry_space_group_name_H-M "C C C 2"
_symmetry_group_IT_number 37
_symmetry_cell_setting 'orthorhombic'
loop_
_space_group_symop_operation_xyz
x,y,z
-x,-y,z
-x,y,1/2+z
x,-y,1/2+z
1/2+x,1/2+y,z
1/2-x,1/2-y,z
1/2-x,1/2+y,1/2+z
1/2+x,1/2-y,1/2+z
loop_
_atom_site_type_symbol
_atom_site_label
_atom_site_fract_x
_atom_site_fract_y
_atom_site_fract_z
Si Si1 0.500000 0.000000 0.394531
Si Si2 0.061677 0.095180 0.221409
Si Si3 0.810415 0.385805 0.990448
Si Si4 0.250000 0.250000 0.383811
Si Si5 0.575085 0.854523 0.800977
Si Si6 0.848993 0.912003 0.073234
O O1 0.713863 0.964293 0.444791
O O2 0.373725 0.927608 0.352474
O O3 0.800985 0.141306 0.246546
O O4 0.300872 0.116430 0.268450
O O5 0.154963 0.111847 0.148177
O O6 0.000000 0.000000 0.225029
O O7 0.809223 0.320445 0.934238
O O8 0.562765 0.361364 0.033983
O O9 0.066243 0.401255 0.037078
O O10 0.491249 0.229430 0.334829
O O11 0.000000 0.000000 0.071871
#
# Coordination Sequence:
#
# PCOD9354032 Si02
#       6
#     4   8   8   4   8   8
#     4  10  20  36  62  92 124 176 212 270 340 384
#     4  11  22  40  68 100 130 168 226 289 344 401
#     4  11  23  41  65  96 134 176 220 284 331 417
#     4  10  28  44  64  96 140 180 232 266 344 408
#     4  11  23  41  65  96 134 176 220 284 331 417
#     4  11  22  40  68 100 130 168 226 289 344 401
#
# _framework density 23.155099
#
# number of rings (size 3 to 8) (size 9 to 14) (size 15 to 20)
#    0.000    1.200    4.000    1.200    0.000   14.400 
#    0.000    4.000    0.000    0.000    0.000    0.000 
#    0.000    0.000    0.000    0.000    0.000    0.000 
#
# Total GULP energy -111449.845911 kJ/mol
# GULP energy per Si atom -5572.492296 kJ/mol
# Density = 2.310240 g / cm^3
# Si number density = 23.155099 Si / 1000 Ang^3
#
#
#
# Elastic Constant Matrix: (Units=GPa)
#
#
# Indices 1 2 3 4 5 6 
#
# 1 149.7696 14.2360 55.2758 0.0000 0.0000 0.0000
# 2 14.2360 34.1817 29.0647 0.0000 0.0000 0.0000
# 3 55.2758 29.0647 131.4239 0.0000 0.0000 0.0000
# 4 0.0000 0.0000 0.0000 1250.9905 0.0000 0.0000
# 5 0.0000 0.0000 0.0000 0.000014342.5138 0.0000
# 6 0.0000 0.0000 0.0000 0.0000 0.0000 18.5615
#
#
#
# Elastic Compliance Matrix: (Units=1/GPa)
#
#
# Indices 1 2 3 4 5 6 
#
# 1 0.007913 -0.000574 -0.003201 0.000000 0.000000 0.000000
# 2 -0.000574 0.036072 -0.007736 0.000000 0.000000 0.000000
# 3 -0.003201 -0.007736 0.010666 0.000000 0.000000 0.000000
# 4 0.000000 0.000000 0.000000 0.000799 0.000000 0.000000
# 5 0.000000 0.000000 0.000000 0.000000 0.000070 0.000000
# 6 0.000000 0.000000 0.000000 0.000000 0.000000 0.053875
#
#
# Mechanical properties :
#
#
# Convention : Reuss Voigt Hill
#
# Bulk Modulus (GPa) = 31.61610 56.94757 44.28184
# Shear Modulus (GPa) = 34.97457 3136.86641 1585.92049
#
# Velocity S-wave (km/s) = 3.89066 36.84644 26.19921
# Velocity P-wave (km/s) = 5.81951 42.83528 30.56737
#
# Compressibility (1/GPa) = 0.03162946
#
# Stress axis : x y z
#
# Youngs Moduli (GPa) = 126.37525 27.72203 93.75333
#
# Poissons Ratio (x) = 0.01590 0.30013
# Poissons Ratio (y) = 0.07248 0.72530
# Poissons Ratio (z) = 0.40456 0.21447
#
# Static dielectric constant tensor:
#      x y z
#    x -12.358760 0.000000 0.000000 
#    y 0.000000 -3.216300 0.000000 
#    z 0.000000 0.000000 1.900170 
# 
# From -- ./inp_files/15694.got.cif
#   From: 2010.05.17/outbox.cif.g08.bks.cpg/sg37_8_cif.got.tgz:15694.got - 2010.06.03 17:53:42.
