data_PCOD9354055
_publ_section_title
;
Structure prediction by ZEFSAII (Michael W. Deem and Ramdas Pophale) SiO2 
 PCOD9354055
Probable space group: C C C 2
;
_chemical_formula_sum "Si O2"
_cell_formula_units_Z 60
_cell_length_a 4.879605
_cell_length_b 21.229537
_cell_length_c 23.808558
_cell_angle_alpha 90.000000
_cell_angle_beta 90.000000
_cell_angle_gamma 90.000000
_cell_volume 2466.370305
_symmetry_space_group_name_H-M "C C C 2"
_symmetry_group_IT_number 37
_symmetry_cell_setting 'orthorhombic'
loop_
_space_group_symop_operation_xyz
x,y,z
-x,-y,z
-x,y,1/2+z
x,-y,1/2+z
1/2+x,1/2+y,z
1/2-x,1/2-y,z
1/2-x,1/2+y,1/2+z
1/2+x,1/2-y,1/2+z
loop_
_atom_site_type_symbol
_atom_site_label
_atom_site_fract_x
_atom_site_fract_y
_atom_site_fract_z
Si Si1 0.822515 0.636190 0.448930
Si Si2 0.167929 0.938863 0.710604
Si Si3 0.671085 0.678741 0.275087
Si Si4 0.145157 0.316828 0.573238
Si Si5 0.847799 0.892752 0.096275
Si Si6 0.674677 0.440245 0.472319
Si Si7 0.500000 0.000000 0.311405
Si Si8 0.167792 0.635598 0.343225
O O1 0.828825 0.676528 0.505506
O O2 0.506556 0.615568 0.442969
O O3 0.007293 0.573489 0.461236
O O4 0.990036 0.661960 0.395863
O O5 0.054855 0.870251 0.728874
O O6 0.294795 0.923209 0.650292
O O7 0.299627 0.965167 0.767959
O O8 0.000000 0.000000 0.693807
O O9 0.750000 0.750000 0.259246
O O10 0.455029 0.667946 0.326391
O O11 0.968468 0.652972 0.291925
O O12 0.250000 0.250000 0.592605
O O13 0.338827 0.370352 0.600524
O O14 0.830604 0.330738 0.584690
O O15 0.841111 0.933684 0.039703
O O16 0.500000 0.500000 0.454345
O O17 0.345535 0.942366 0.343939
#
# Coordination Sequence:
#
# PCOD9354055 Si02
#       8
#     8   8   8   8   8   8   4   8
#     4  10  22  38  62  92 125 167 220 264 340 407
#     4  11  23  44  68  98 134 184 230 283 351 417
#     4  11  25  44  66  96 136 174 232 289 342 404
#     4  10  22  42  63  94 134 172 221 279 336 413
#     4  10  23  38  64  94 129 170 222 271 335 409
#     4  10  20  37  55  93 129 165 202 269 328 405
#     4  10  24  40  66  98 136 178 234 296 344 418
#     4  11  23  43  65  97 132 177 230 284 350 412
#
# _framework density 24.327245999999999
#
# number of rings (size 3 to 8) (size 9 to 14) (size 15 to 20)
#    0.000    1.600    1.333    2.400    3.733    1.600 
#    2.400    4.000    0.000    0.000    0.000    0.000 
#    0.000    0.000    0.000    0.000    0.000    0.000 
#
# Total GULP energy -167030.872714 kJ/mol
# GULP energy per Si atom -5567.695757 kJ/mol
# Density = 2.427188 g / cm^3
# Si number density = 24.327246 Si / 1000 Ang^3
#
#
#
# Elastic Constant Matrix: (Units=GPa)
#
#
# Indices 1 2 3 4 5 6 
#
# 1 117.0124 8.4976 -0.9247 0.0000 0.0000 0.0000
# 2 8.4976 101.6602 2.8259 0.0000 0.0000 0.0000
# 3 -0.9247 2.8259 69.8569 0.0000 0.0000 0.0000
# 4 0.0000 0.0000 0.0000 5.6055 0.0000 0.0000
# 5 0.0000 0.0000 0.0000 0.0000 10.8436 0.0000
# 6 0.0000 0.0000 0.0000 0.0000 0.0000 27.5318
#
#
#
# Elastic Compliance Matrix: (Units=1/GPa)
#
#
# Indices 1 2 3 4 5 6 
#
# 1 0.008600 -0.000723 0.000143 0.000000 0.000000 0.000000
# 2 -0.000723 0.009909 -0.000410 0.000000 0.000000 0.000000
# 3 0.000143 -0.000410 0.014333 0.000000 0.000000 0.000000
# 4 0.000000 0.000000 0.000000 0.178395 0.000000 0.000000
# 5 0.000000 0.000000 0.000000 0.000000 0.092221 0.000000
# 6 0.000000 0.000000 0.000000 0.000000 0.000000 0.036322
#
#
# Mechanical properties :
#
#
# Convention : Reuss Voigt Hill
#
# Bulk Modulus (GPa) = 32.40290 34.36969 33.38630
# Shear Modulus (GPa) = 14.20266 27.33823 20.77045
#
# Velocity S-wave (km/s) = 2.41885 3.35590 2.92514
# Velocity P-wave (km/s) = 4.59887 5.40138 5.01620
#
# Compressibility (1/GPa) = 0.03086143
#
# Stress axis : x y z
#
# Youngs Moduli (GPa) = 116.28281 100.92324 69.76679
#
# Poissons Ratio (x) = 0.07295 -0.00998
# Poissons Ratio (y) = 0.08405 0.02863
# Poissons Ratio (z) = -0.01664 0.04142
#
# Static dielectric constant tensor:
#      x y z
#    x 1.935290 0.000000 0.000000 
#    y 0.000000 2.074350 0.000000 
#    z 0.000000 0.000000 1.953190 
# 
# From -- ./inp_files/18115.got.cif
#   From: 2010.05.17/outbox.cif.g08.bks.cpg/sg37_10_cif.got.tgz:18115.got - 2010.06.03 17:53:42.
