data_PCOD9354286
_publ_section_title
;
Structure prediction by ZEFSAII (Michael W. Deem and Ramdas Pophale) SiO2 
 PCOD9354286
Probable space group: C C C 2
;
_chemical_formula_sum "Si O2"
_cell_formula_units_Z 36
_cell_length_a 11.665605
_cell_length_b 10.587486
_cell_length_c 13.240921
_cell_angle_alpha 90.000000
_cell_angle_beta 90.000000
_cell_angle_gamma 90.000000
_cell_volume 1635.378600
_symmetry_space_group_name_H-M "C C C 2"
_symmetry_group_IT_number 37
_symmetry_cell_setting 'orthorhombic'
loop_
_space_group_symop_operation_xyz
x,y,z
-x,-y,z
-x,y,1/2+z
x,-y,1/2+z
1/2+x,1/2+y,z
1/2-x,1/2-y,z
1/2-x,1/2+y,1/2+z
1/2+x,1/2-y,1/2+z
loop_
_atom_site_type_symbol
_atom_site_label
_atom_site_fract_x
_atom_site_fract_y
_atom_site_fract_z
Si Si1 0.827324 0.636432 0.407080
Si Si2 0.873373 0.782439 0.199416
Si Si3 0.750000 0.250000 0.238320
Si Si4 0.874213 0.974956 0.830372
Si Si5 0.561135 0.125019 0.110576
O O1 0.750000 0.750000 0.449780
O O2 0.874686 0.695202 0.302110
O O3 0.737531 0.524214 0.389525
O O4 0.917177 0.607390 0.492468
O O5 0.750000 0.750000 0.152347
O O6 0.976605 0.741580 0.129768
O O7 0.878413 0.926778 0.235701
O O8 0.843253 0.167535 0.300053
O O9 0.677828 0.152692 0.170284
O O10 0.000000 0.000000 0.878753
O O11 0.500000 0.000000 0.151492
#
# Coordination Sequence:
#
# PCOD9354286 Si02
#       5
#     8   8   4   8   8
#     4   9  21  42  66  97 137 180 233 287 349 415
#     4   9  20  42  69  92 132 184 228 288 354 415
#     4  12  24  40  72 110 132 186 238 286 360 432
#     4  10  20  42  68  95 135 185 229 287 356 420
#     4  12  23  40  68 101 140 182 236 293 349 423
#
# _framework density 22.013252999999999
#
# number of rings (size 3 to 8) (size 9 to 14) (size 15 to 20)
#    0.000    2.222    3.333    2.667    0.000    2.667 
#    0.000   10.000    2.444    0.000    0.000    0.000 
#    0.000    0.000    0.000    0.000    0.000    0.000 
#
# Total GULP energy -100442.155077 kJ/mol
# GULP energy per Si atom -5580.119727 kJ/mol
# Density = 2.196315 g / cm^3
# Si number density = 22.013253 Si / 1000 Ang^3
#
#
#
# Elastic Constant Matrix: (Units=GPa)
#
#
# Indices 1 2 3 4 5 6 
#
# 1 104.2375 19.4114 44.7780 0.0000 0.0000 0.0000
# 2 19.4114 81.2592 22.4074 0.0000 0.0000 0.0000
# 3 44.7780 22.4074 46.5458 0.0000 0.0000 0.0000
# 4 0.0000 0.0000 0.0000 -7.6690 0.0000 0.0000
# 5 0.0000 0.0000 0.0000 0.0000 16.4183 0.0000
# 6 0.0000 0.0000 0.0000 0.0000 0.0000 45.9872
#
#
#
# Elastic Compliance Matrix: (Units=1/GPa)
#
#
# Indices 1 2 3 4 5 6 
#
# 1 0.016368 0.000498 -0.015986 0.000000 0.000000 0.000000
# 2 0.000498 0.014205 -0.007318 0.000000 0.000000 0.000000
# 3 -0.015986 -0.007318 0.040386 0.000000 0.000000 0.000000
# 4 0.000000 0.000000 0.000000 -0.130394 0.000000 0.000000
# 5 0.000000 0.000000 0.000000 0.000000 0.060908 0.000000
# 6 0.000000 0.000000 0.000000 0.000000 0.000000 0.021745
#
#
# Mechanical properties :
#
#
# Convention : Reuss Voigt Hill
#
# Bulk Modulus (GPa) = 39.45114 45.02622 42.23868
# Shear Modulus (GPa) = 64.70101 20.64368 42.67234
#
# Velocity S-wave (km/s) = 5.42731 3.06565 4.40760
# Velocity P-wave (km/s) = 7.56536 5.74713 6.71804
#
# Compressibility (1/GPa) = 0.02534781
#
# Stress axis : x y z
#
# Youngs Moduli (GPa) = 61.09481 70.39699 24.76100
#
# Poissons Ratio (x) = -0.03507 0.39583
# Poissons Ratio (y) = -0.03044 0.18119
# Poissons Ratio (z) = 0.97667 0.51515
#
# Static dielectric constant tensor:
#      x y z
#    x 2.372990 0.000000 0.000000 
#    y 0.000000 1.832100 0.000000 
#    z 0.000000 0.000000 1.840190 
# 
# From -- ./inp_files/11281.got.cif
#   From: 2010.05.17/outbox.cif.g08.bks.cpg/sg37_6_cif.got.tgz:11281.got - 2010.06.03 17:53:42.
