data_PCOD9354826
_publ_section_title
;
Structure prediction by ZEFSAII (Michael W. Deem and Ramdas Pophale) SiO2 
 PCOD9354826
Probable space group: C C C 2
;
_chemical_formula_sum "Si O2"
_cell_formula_units_Z 48
_cell_length_a 7.812257
_cell_length_b 18.859844
_cell_length_c 13.139279
_cell_angle_alpha 90.000000
_cell_angle_beta 90.000000
_cell_angle_gamma 90.000000
_cell_volume 1935.914410
_symmetry_space_group_name_H-M "C C C 2"
_symmetry_group_IT_number 37
_symmetry_cell_setting 'orthorhombic'
loop_
_space_group_symop_operation_xyz
x,y,z
-x,-y,z
-x,y,1/2+z
x,-y,1/2+z
1/2+x,1/2+y,z
1/2-x,1/2-y,z
1/2-x,1/2+y,1/2+z
1/2+x,1/2-y,1/2+z
loop_
_atom_site_type_symbol
_atom_site_label
_atom_site_fract_x
_atom_site_fract_y
_atom_site_fract_z
Si Si1 0.888616 0.894777 0.125000
Si Si2 0.776342 0.398948 0.198160
Si Si3 0.500000 0.500000 0.453051
Si Si4 0.801419 0.455976 0.806749
Si Si5 0.143221 0.636069 0.982893
Si Si6 0.750000 0.250000 0.296364
Si Si7 0.488585 0.283912 0.977620
O O1 0.898480 0.947994 0.028956
O O2 0.742783 0.912132 0.205312
O O3 0.070237 0.903987 0.183628
O O4 0.889095 0.819117 0.071054
O O5 0.835255 0.464177 0.267849
O O6 0.849258 0.409305 0.084990
O O7 0.814185 0.317779 0.231796
O O8 0.366600 0.463417 0.378466
O O9 0.909550 0.409271 0.885673
O O10 0.330566 0.674088 0.971317
O O11 0.019311 0.701838 0.997462
O O12 0.609799 0.285237 0.370918
#
# Coordination Sequence:
#
# PCOD9354826 Si02
#       7
#     8   8   4   8   8   4   8
#     4  11  19  34  58  96 128 154 207 268 324 363
#     4  11  20  35  60  94 119 163 209 262 318 382
#     4  12  16  30  54  96 136 144 206 276 318 354
#     4  12  19  33  62  96 123 163 210 271 315 376
#     4  10  22  41  63  90 126 162 209 263 321 380
#     4  12  24  40  64  88 124 170 212 252 326 396
#     4  10  22  41  61  88 127 166 204 260 320 388
#
# _framework density 24.794483
#
# number of rings (size 3 to 8) (size 9 to 14) (size 15 to 20)
#    0.000    1.000    6.667    4.000    0.000    0.000 
#    0.000    7.500    0.000    2.000    0.000    0.000 
#    0.000    0.000    0.000    0.000    0.000    0.000 
#
# Total GULP energy -134326.350438 kJ/mol
# GULP energy per Si atom -5596.931268 kJ/mol
# Density = 2.473805 g / cm^3
# Si number density = 24.794483 Si / 1000 Ang^3
#
#
#
# Elastic Constant Matrix: (Units=GPa)
#
#
# Indices 1 2 3 4 5 6 
#
# 1 39.2265 22.3372 35.9408 0.0000 0.0000 0.0000
# 2 22.3372 190.8497 105.8925 0.0000 0.0000 0.0000
# 3 35.9408 105.8925 188.2635 0.0000 0.0000 0.0000
# 4 0.0000 0.0000 0.0000 68.6739 0.0000 0.0000
# 5 0.0000 0.0000 0.0000 0.0000 14.6465 0.0000
# 6 0.0000 0.0000 0.0000 0.0000 0.0000 28.8389
#
#
#
# Elastic Compliance Matrix: (Units=1/GPa)
#
#
# Indices 1 2 3 4 5 6 
#
# 1 0.030930 -0.000500 -0.005624 0.000000 0.000000 0.000000
# 2 -0.000500 0.007625 -0.004193 0.000000 0.000000 0.000000
# 3 -0.005624 -0.004193 0.008744 0.000000 0.000000 0.000000
# 4 0.000000 0.000000 0.000000 0.014562 0.000000 0.000000
# 5 0.000000 0.000000 0.000000 0.000000 0.068276 0.000000
# 6 0.000000 0.000000 0.000000 0.000000 0.000000 0.034675
#
#
# Mechanical properties :
#
#
# Convention : Reuss Voigt Hill
#
# Bulk Modulus (GPa) = 37.50181 82.96451 60.23316
# Shear Modulus (GPa) = 25.72891 39.37648 32.55269
#
# Velocity S-wave (km/s) = 3.22481 3.98944 3.62733
# Velocity P-wave (km/s) = 5.38737 7.39962 6.47218
#
# Compressibility (1/GPa) = 0.02666538
#
# Stress axis : x y z
#
# Youngs Moduli (GPa) = 32.33085 131.14939 114.36504
#
# Poissons Ratio (x) = 0.06555 0.64315
# Poissons Ratio (y) = 0.01616 0.47957
# Poissons Ratio (z) = 0.18182 0.54996
#
# Static dielectric constant tensor:
#      x y z
#    x 2.090550 0.000000 0.000000 
#    y 0.000000 2.030530 0.000000 
#    z 0.000000 0.000000 1.917460 
# 
# From -- ./inp_files/7220.got.cif
#   From: 2010.05.17/outbox.cif.g08.bks.cpg/sg37_4_cif.got.tgz:7220.got - 2010.06.03 17:53:42.
