data_PCOD9354789
_publ_section_title
;
Structure prediction by ZEFSAII (Michael W. Deem and Ramdas Pophale) SiO2 
 PCOD9354789
Probable space group: C C C 2
;
_chemical_formula_sum "Si O2"
_cell_formula_units_Z 56
_cell_length_a 11.048545
_cell_length_b 11.868278
_cell_length_c 20.459852
_cell_angle_alpha 90.000000
_cell_angle_beta 90.000000
_cell_angle_gamma 90.000000
_cell_volume 2682.843178
_symmetry_space_group_name_H-M "C C C 2"
_symmetry_group_IT_number 37
_symmetry_cell_setting 'orthorhombic'
loop_
_space_group_symop_operation_xyz
x,y,z
-x,-y,z
-x,y,1/2+z
x,-y,1/2+z
1/2+x,1/2+y,z
1/2-x,1/2-y,z
1/2-x,1/2+y,1/2+z
1/2+x,1/2-y,1/2+z
loop_
_atom_site_type_symbol
_atom_site_label
_atom_site_fract_x
_atom_site_fract_y
_atom_site_fract_z
Si Si1 0.455704 0.877943 0.932940
Si Si2 0.791427 0.125124 0.975735
Si Si3 0.445294 0.798194 0.570985
Si Si4 0.888226 0.778335 0.843072
Si Si5 0.500000 0.500000 0.896934
Si Si6 0.607773 0.264139 0.196281
Si Si7 0.500000 0.500000 0.176586
Si Si8 0.197966 0.078561 0.074949
O O1 0.312949 0.881630 0.921978
O O2 0.522857 0.787410 0.890476
O O3 0.500000 0.000000 0.916255
O O4 0.488001 0.853059 0.009174
O O5 0.750000 0.250000 0.002754
O O6 0.914916 0.081896 0.941650
O O7 0.778566 0.029837 0.030571
O O8 0.530981 0.780561 0.634072
O O9 0.328454 0.870770 0.591566
O O10 0.385164 0.680026 0.545961
O O11 0.750000 0.750000 0.862030
O O12 0.905223 0.722708 0.770875
O O13 0.919598 0.911145 0.854780
O O14 0.750000 0.250000 0.180168
O O15 0.556878 0.390208 0.208242
O O16 0.613879 0.541297 0.134010
#
# Coordination Sequence:
#
# PCOD9354789 Si02
#       8
#     8   8   8   8   4   8   4   8
#     4  12  24  41  67 101 141 179 232 289 348 424
#     4  12  25  40  64 105 138 183 232 289 356 417
#     4  10  23  42  68  98 137 181 230 287 354 420
#     4  11  25  47  72 101 142 190 235 293 362 423
#     4  12  24  46  72 100 143 188 243 294 355 422
#     4  10  24  45  70 100 136 186 234 286 353 422
#     4  10  22  40  66  98 133 176 237 284 339 422
#     4  10  22  40  64  99 136 181 223 287 357 405
#
# _framework density 20.873380000000001
#
# number of rings (size 3 to 8) (size 9 to 14) (size 15 to 20)
#    0.000    1.143    2.857    2.571    8.000    0.000 
#    0.000   10.714    0.000    0.000    0.000    0.000 
#    0.000    0.000    0.000    0.000    0.000    0.000 
#
# Total GULP energy -155922.895370 kJ/mol
# GULP energy per Si atom -5568.674835 kJ/mol
# Density = 2.082587 g / cm^3
# Si number density = 20.873380 Si / 1000 Ang^3
#
#
#
# Elastic Constant Matrix: (Units=GPa)
#
#
# Indices 1 2 3 4 5 6 
#
# 1 161.0607 52.7034 59.2535 0.0000 0.0000 0.0000
# 2 52.7034 119.4910 33.1396 0.0000 0.0000 0.0000
# 3 59.2535 33.1396 72.2005 0.0000 0.0000 0.0000
# 4 0.0000 0.0000 0.0000 13.6730 0.0000 0.0000
# 5 0.0000 0.0000 0.0000 0.0000 25.6984 0.0000
# 6 0.0000 0.0000 0.0000 0.0000 0.0000 23.2978
#
#
#
# Elastic Compliance Matrix: (Units=1/GPa)
#
#
# Indices 1 2 3 4 5 6 
#
# 1 0.009417 -0.002303 -0.006671 0.000000 0.000000 0.000000
# 2 -0.002303 0.010153 -0.002770 0.000000 0.000000 0.000000
# 3 -0.006671 -0.002770 0.020596 0.000000 0.000000 0.000000
# 4 0.000000 0.000000 0.000000 0.073137 0.000000 0.000000
# 5 0.000000 0.000000 0.000000 0.000000 0.038913 0.000000
# 6 0.000000 0.000000 0.000000 0.000000 0.000000 0.042922
#
#
# Mechanical properties :
#
#
# Convention : Reuss Voigt Hill
#
# Bulk Modulus (GPa) = 59.95974 71.43836 65.69905
# Shear Modulus (GPa) = 22.30293 26.37755 24.34024
#
# Velocity S-wave (km/s) = 3.27232 3.55870 3.41851
# Velocity P-wave (km/s) = 6.56241 7.15435 6.86476
#
# Compressibility (1/GPa) = 0.01667786
#
# Stress axis : x y z
#
# Youngs Moduli (GPa) = 106.19380 98.49380 48.55225
#
# Poissons Ratio (x) = 0.22686 0.32389
# Poissons Ratio (y) = 0.24459 0.13448
# Poissons Ratio (z) = 0.70841 0.27281
#
# Static dielectric constant tensor:
#      x y z
#    x 1.767990 0.000000 0.000000 
#    y 0.000000 1.847020 0.000000 
#    z 0.000000 0.000000 1.752920 
# 
# From -- ./inp_files/16907.got.cif
#   From: 2010.05.17/outbox.cif.g08.bks.cpg/sg37_9_cif.got.tgz:16907.got - 2010.06.03 17:53:42.
