data_PCOD9354304
_publ_section_title
;
Structure prediction by ZEFSAII (Michael W. Deem and Ramdas Pophale) SiO2 
 PCOD9354304
Probable space group: C C C 2
;
_chemical_formula_sum "Si O2"
_cell_formula_units_Z 64
_cell_length_a 15.440615
_cell_length_b 7.812134
_cell_length_c 22.933231
_cell_angle_alpha 90.000000
_cell_angle_beta 90.000000
_cell_angle_gamma 90.000000
_cell_volume 2766.301575
_symmetry_space_group_name_H-M "C C C 2"
_symmetry_group_IT_number 37
_symmetry_cell_setting 'orthorhombic'
loop_
_space_group_symop_operation_xyz
x,y,z
-x,-y,z
-x,y,1/2+z
x,-y,1/2+z
1/2+x,1/2+y,z
1/2-x,1/2-y,z
1/2-x,1/2+y,1/2+z
1/2+x,1/2-y,1/2+z
loop_
_atom_site_type_symbol
_atom_site_label
_atom_site_fract_x
_atom_site_fract_y
_atom_site_fract_z
Si Si1 0.752104 0.457803 0.583930
Si Si2 0.178435 0.892134 0.704043
Si Si3 0.499513 0.795455 0.184964
Si Si4 0.447001 0.679000 0.947194
Si Si5 0.429575 0.145634 0.569332
Si Si6 0.914907 0.885420 0.793577
Si Si7 0.379441 0.180866 0.907297
Si Si8 0.218405 0.996350 0.951291
O O1 0.750000 0.250000 0.579385
O O2 0.704963 0.495240 0.645387
O O3 0.846326 0.539394 0.588655
O O4 0.724701 0.531610 0.520827
O O5 0.250000 0.750000 0.715878
O O6 0.092856 0.787592 0.687999
O O7 0.156452 0.997535 0.762105
O O8 0.458118 0.741414 0.123948
O O9 0.449541 0.729022 0.240821
O O10 0.500000 0.000000 0.185474
O O11 0.500000 0.500000 0.948718
O O12 0.517232 0.811812 0.920319
O O13 0.350904 0.634675 0.922124
O O14 0.426251 0.745879 0.011322
O O15 0.500000 0.000000 0.557378
O O16 0.876235 0.763005 0.842941
O O17 0.000000 0.000000 0.813318
O O18 0.313869 0.023395 0.921923
O O19 0.333711 0.325149 0.946753
#
# Coordination Sequence:
#
# PCOD9354304 Si02
#       8
#     8   8   8   8   8   8   8   8
#     4  11  21  39  64  93 143 174 226 286 350 421
#     4  10  22  40  68  98 136 187 221 296 358 409
#     4  10  22  41  62  98 136 177 239 289 346 426
#     4  10  23  38  69  96 133 174 231 289 359 420
#     4  11  23  38  64 101 136 182 231 283 355 434
#     4  10  22  42  71  95 132 182 244 282 343 429
#     4  10  20  43  68  95 130 185 231 285 354 424
#     4  10  21  38  65  96 127 177 226 286 349 415
#
# _framework density 23.135583
#
# number of rings (size 3 to 8) (size 9 to 14) (size 15 to 20)
#    0.000    1.750    1.250    4.875    7.000    1.000 
#    9.000    1.875    8.250    0.000    0.000    0.000 
#    0.000    0.000    0.000    0.000    0.000    0.000 
#
# Total GULP energy -178610.165914 kJ/mol
# GULP energy per Si atom -5581.567685 kJ/mol
# Density = 2.308292 g / cm^3
# Si number density = 23.135583 Si / 1000 Ang^3
#
#
#
# Elastic Constant Matrix: (Units=GPa)
#
#
# Indices 1 2 3 4 5 6 
#
# 1 156.8012 46.5961 69.5903 0.0000 0.0000 0.0000
# 2 46.5961 78.8217 32.5674 0.0000 0.0000 0.0000
# 3 69.5903 32.5674 126.6132 0.0000 0.0000 0.0000
# 4 0.0000 0.0000 0.0000 17.2455 0.0000 0.0000
# 5 0.0000 0.0000 0.0000 0.0000 6.4781 0.0000
# 6 0.0000 0.0000 0.0000 0.0000 0.0000 30.4152
#
#
#
# Elastic Compliance Matrix: (Units=1/GPa)
#
#
# Indices 1 2 3 4 5 6 
#
# 1 0.009358 -0.003812 -0.004163 0.000000 0.000000 0.000000
# 2 -0.003812 0.015748 -0.001956 0.000000 0.000000 0.000000
# 3 -0.004163 -0.001956 0.010689 0.000000 0.000000 0.000000
# 4 0.000000 0.000000 0.000000 0.057986 0.000000 0.000000
# 5 0.000000 0.000000 0.000000 0.000000 0.154366 0.000000
# 6 0.000000 0.000000 0.000000 0.000000 0.000000 0.032878
#
#
# Mechanical properties :
#
#
# Convention : Reuss Voigt Hill
#
# Bulk Modulus (GPa) = 62.75704 73.30486 68.03095
# Shear Modulus (GPa) = 16.32932 25.05991 20.69462
#
# Velocity S-wave (km/s) = 2.65959 3.29473 2.99405
# Velocity P-wave (km/s) = 6.05111 6.79907 6.43596
#
# Compressibility (1/GPa) = 0.01593447
#
# Stress axis : x y z
#
# Youngs Moduli (GPa) = 106.86282 63.49874 93.55331
#
# Poissons Ratio (x) = 0.24205 0.38944
# Poissons Ratio (y) = 0.40736 0.18295
# Poissons Ratio (z) = 0.44485 0.12418
#
# Static dielectric constant tensor:
#      x y z
#    x 1.914060 0.000000 0.000000 
#    y 0.000000 1.875040 0.000000 
#    z 0.000000 0.000000 1.860830 
# 
# From -- ./inp_files/18932.got.cif
#   From: 2010.05.17/outbox.cif.g08.bks.cpg/sg37_10_cif.got.tgz:18932.got - 2010.06.03 17:53:42.
