data_PCOD9354848
_publ_section_title
;
Structure prediction by ZEFSAII (Michael W. Deem and Ramdas Pophale) SiO2 
 PCOD9354848
Probable space group: C C C 2
;
_chemical_formula_sum "Si O2"
_cell_formula_units_Z 56
_cell_length_a 11.515459
_cell_length_b 10.280514
_cell_length_c 20.530699
_cell_angle_alpha 90.000000
_cell_angle_beta 90.000000
_cell_angle_gamma 90.000000
_cell_volume 2430.523464
_symmetry_space_group_name_H-M "C C C 2"
_symmetry_group_IT_number 37
_symmetry_cell_setting 'orthorhombic'
loop_
_space_group_symop_operation_xyz
x,y,z
-x,-y,z
-x,y,1/2+z
x,-y,1/2+z
1/2+x,1/2+y,z
1/2-x,1/2-y,z
1/2-x,1/2+y,1/2+z
1/2+x,1/2-y,1/2+z
loop_
_atom_site_type_symbol
_atom_site_label
_atom_site_fract_x
_atom_site_fract_y
_atom_site_fract_z
Si Si1 0.129427 0.313797 0.280070
Si Si2 0.400087 0.396692 0.957656
Si Si3 0.132652 0.827364 0.600831
Si Si4 0.940819 0.316151 0.164248
Si Si5 0.475082 0.842865 0.388409
Si Si6 0.199414 0.062128 0.688020
Si Si7 0.753647 0.425064 0.330860
O O1 0.250000 0.250000 0.258166
O O2 0.173161 0.450065 0.307750
O O3 0.029350 0.323658 0.225934
O O4 0.071769 0.263719 0.346983
O O5 0.500000 0.500000 0.947465
O O6 0.443648 0.247467 0.948899
O O7 0.308174 0.430197 0.900639
O O8 0.363725 0.404118 0.032713
O O9 0.250000 0.750000 0.605690
O O10 0.031652 0.718265 0.606871
O O11 0.138184 0.934674 0.658795
O O12 0.864320 0.186523 0.159933
O O13 0.838914 0.426154 0.170834
O O14 0.359970 0.827835 0.343344
O O15 0.500000 0.000000 0.400371
O O16 0.179787 0.085564 0.765307
#
# Coordination Sequence:
#
# PCOD9354848 Si02
#       7
#     8   8   8   8   8   8   8
#     4  11  21  37  64 104 143 179 242 304 368 439
#     4  12  26  47  72 103 149 198 251 314 384 464
#     4  12  27  48  72 103 149 199 250 310 386 469
#     4  11  23  42  69 106 142 189 242 311 375 449
#     4  10  22  41  67 100 144 187 245 304 373 447
#     4  11  24  43  74 104 145 191 247 309 377 449
#     4  11  22  39  69 102 140 189 238 305 370 441
#
# _framework density 23.040303999999999
#
# number of rings (size 3 to 8) (size 9 to 14) (size 15 to 20)
#    0.000    0.857    1.429    6.429    2.000    2.857 
#    7.714    0.000    0.000    0.000    0.000    0.000 
#    0.000    0.000    0.000    0.000    0.000    0.000 
#
# Total GULP energy -155897.089028 kJ/mol
# GULP energy per Si atom -5567.753180 kJ/mol
# Density = 2.298786 g / cm^3
# Si number density = 23.040304 Si / 1000 Ang^3
#
#
#
# Elastic Constant Matrix: (Units=GPa)
#
#
# Indices 1 2 3 4 5 6 
#
# 1 106.4502 15.3867 41.0406 0.0000 0.0000 0.0000
# 2 15.3867 63.1213 26.5355 0.0000 0.0000 0.0000
# 3 41.0406 26.5355 109.3099 0.0000 0.0000 0.0000
# 4 0.0000 0.0000 0.0000 25.9714 0.0000 0.0000
# 5 0.0000 0.0000 0.0000 0.0000 19.0266 0.0000
# 6 0.0000 0.0000 0.0000 0.0000 0.0000 31.7744
#
#
#
# Elastic Compliance Matrix: (Units=1/GPa)
#
#
# Indices 1 2 3 4 5 6 
#
# 1 0.011047 -0.001057 -0.003891 0.000000 0.000000 0.000000
# 2 -0.001057 0.017744 -0.003911 0.000000 0.000000 0.000000
# 3 -0.003891 -0.003911 0.011558 0.000000 0.000000 0.000000
# 4 0.000000 0.000000 0.000000 0.038504 0.000000 0.000000
# 5 0.000000 0.000000 0.000000 0.000000 0.052558 0.000000
# 6 0.000000 0.000000 0.000000 0.000000 0.000000 0.031472
#
#
# Mechanical properties :
#
#
# Convention : Reuss Voigt Hill
#
# Bulk Modulus (GPa) = 44.18475 49.42301 46.80388
# Shear Modulus (GPa) = 26.57527 28.41572 27.49550
#
# Velocity S-wave (km/s) = 3.39990 3.51565 3.45826
# Velocity P-wave (km/s) = 5.88483 6.16255 6.02529
#
# Compressibility (1/GPa) = 0.02263224
#
# Stress axis : x y z
#
# Youngs Moduli (GPa) = 90.52243 56.35657 86.51648
#
# Poissons Ratio (x) = 0.05958 0.33663
# Poissons Ratio (y) = 0.09569 0.33833
# Poissons Ratio (z) = 0.35222 0.22039
#
# Static dielectric constant tensor:
#      x y z
#    x 2.108690 0.000000 0.000000 
#    y 0.000000 2.073290 0.000000 
#    z 0.000000 0.000000 1.967520 
# 
# From -- ./inp_files/16866.got.cif
#   From: 2010.05.17/outbox.cif.g08.bks.cpg/sg37_9_cif.got.tgz:16866.got - 2010.06.03 17:53:42.
