data_PCOD9354744
_publ_section_title
;
Structure prediction by ZEFSAII (Michael W. Deem and Ramdas Pophale) SiO2 
 PCOD9354744
Probable space group: C C C 2
;
_chemical_formula_sum "Si O2"
_cell_formula_units_Z 48
_cell_length_a 8.368413
_cell_length_b 11.043719
_cell_length_c 25.445692
_cell_angle_alpha 90.000000
_cell_angle_beta 90.000000
_cell_angle_gamma 90.000000
_cell_volume 2351.650183
_symmetry_space_group_name_H-M "C C C 2"
_symmetry_group_IT_number 37
_symmetry_cell_setting 'orthorhombic'
loop_
_space_group_symop_operation_xyz
x,y,z
-x,-y,z
-x,y,1/2+z
x,-y,1/2+z
1/2+x,1/2+y,z
1/2-x,1/2-y,z
1/2-x,1/2+y,1/2+z
1/2+x,1/2-y,1/2+z
loop_
_atom_site_type_symbol
_atom_site_label
_atom_site_fract_x
_atom_site_fract_y
_atom_site_fract_z
Si Si1 0.588439 0.321419 0.885440
Si Si2 0.250000 0.250000 0.828910
Si Si3 0.750000 0.250000 0.088694
Si Si4 0.961744 0.861508 0.506444
Si Si5 0.177088 0.009181 0.299044
Si Si6 0.961871 0.362104 0.653493
Si Si7 0.250000 0.250000 0.237253
Si Si8 0.750000 0.750000 0.071073
O O1 0.750000 0.250000 0.873097
O O2 0.421025 0.272062 0.859621
O O3 0.568884 0.315472 0.947851
O O4 0.643031 0.449590 0.859460
O O5 0.237575 0.378729 0.798080
O O6 0.614314 0.194367 0.125005
O O7 0.818783 0.152089 0.047873
O O8 0.108287 0.794316 0.534188
O O9 0.000000 0.000000 0.499806
O O10 0.247296 0.126317 0.270420
O O11 0.000000 0.000000 0.274767
O O12 0.902338 0.274065 0.699852
O O13 0.819943 0.353544 0.609852
O O14 0.000000 0.500000 0.669336
#
# Coordination Sequence:
#
# PCOD9354744 Si02
#       8
#     8   4   4   8   8   8   4   4
#     4  11  22  41  64  98 137 172 222 267 318 395
#     4  10  23  42  68  94 136 182 212 270 335 386
#     4  10  22  39  61  92 126 167 213 260 328 384
#     4  11  20  36  63  90 129 170 207 262 318 378
#     4  10  23  44  65  94 131 169 219 269 329 394
#     4  10  22  40  62  91 124 163 214 268 327 390
#     4  11  24  43  69  92 126 167 215 279 328 390
#     4   9  21  38  58  88 124 164 214 257 317 388
#
# _framework density 20.411197999999999
#
# number of rings (size 3 to 8) (size 9 to 14) (size 15 to 20)
#    0.000    1.667    1.667    3.000    0.000    4.667 
#    0.000    2.500    0.000    0.000    0.000    0.000 
#    0.000    0.000    0.000    0.000    0.000    0.000 
#
# Total GULP energy -133644.137473 kJ/mol
# GULP energy per Si atom -5568.505728 kJ/mol
# Density = 2.036474 g / cm^3
# Si number density = 20.411198 Si / 1000 Ang^3
#
#
#
# Elastic Constant Matrix: (Units=GPa)
#
#
# Indices 1 2 3 4 5 6 
#
# 1 88.1519 35.9557 38.9296 0.0000 0.0000 0.0000
# 2 35.9557 131.2480 41.9984 0.0000 0.0000 0.0000
# 3 38.9296 41.9984 93.7430 0.0000 0.0000 0.0000
# 4 0.0000 0.0000 0.0000 25.9118 0.0000 0.0000
# 5 0.0000 0.0000 0.0000 0.0000 43.7108 0.0000
# 6 0.0000 0.0000 0.0000 0.0000 0.0000 34.1363
#
#
#
# Elastic Compliance Matrix: (Units=1/GPa)
#
#
# Indices 1 2 3 4 5 6 
#
# 1 0.014506 -0.002389 -0.004954 0.000000 0.000000 0.000000
# 2 -0.002389 0.009288 -0.003169 0.000000 0.000000 0.000000
# 3 -0.004954 -0.003169 0.014144 0.000000 0.000000 0.000000
# 4 0.000000 0.000000 0.000000 0.038593 0.000000 0.000000
# 5 0.000000 0.000000 0.000000 0.000000 0.022878 0.000000
# 6 0.000000 0.000000 0.000000 0.000000 0.000000 0.029294
#
#
# Mechanical properties :
#
#
# Convention : Reuss Voigt Hill
#
# Bulk Modulus (GPa) = 59.11948 60.76781 59.94365
# Shear Modulus (GPa) = 32.18242 33.83573 33.00908
#
# Velocity S-wave (km/s) = 3.97508 4.07591 4.02581
# Velocity P-wave (km/s) = 7.07782 7.21021 7.14432
#
# Compressibility (1/GPa) = 0.01691490
#
# Stress axis : x y z
#
# Youngs Moduli (GPa) = 68.93639 107.67017 70.69900
#
# Poissons Ratio (x) = 0.25720 0.35024
# Poissons Ratio (y) = 0.16467 0.22404
# Poissons Ratio (z) = 0.34150 0.34121
#
# Static dielectric constant tensor:
#      x y z
#    x 1.702560 0.000000 0.000000 
#    y 0.000000 1.647990 0.000000 
#    z 0.000000 0.000000 1.747750 
# 
# From -- ./inp_files/20376.got.cif
#   From: 2010.05.17/outbox.cif.g08.bks.cpg/sg37_11_cif.got.tgz:20376.got - 2010.06.03 17:53:42.
