data_PCOD9354724
_publ_section_title
;
Structure prediction by ZEFSAII (Michael W. Deem and Ramdas Pophale) SiO2 
 PCOD9354724
Probable space group: C C C 2
;
_chemical_formula_sum "Si O2"
_cell_formula_units_Z 60
_cell_length_a 20.306012
_cell_length_b 6.863949
_cell_length_c 22.359285
_cell_angle_alpha 90.000000
_cell_angle_beta 90.000000
_cell_angle_gamma 90.000000
_cell_volume 3116.424416
_symmetry_space_group_name_H-M "C C C 2"
_symmetry_group_IT_number 37
_symmetry_cell_setting 'orthorhombic'
loop_
_space_group_symop_operation_xyz
x,y,z
-x,-y,z
-x,y,1/2+z
x,-y,1/2+z
1/2+x,1/2+y,z
1/2-x,1/2-y,z
1/2-x,1/2+y,1/2+z
1/2+x,1/2-y,1/2+z
loop_
_atom_site_type_symbol
_atom_site_label
_atom_site_fract_x
_atom_site_fract_y
_atom_site_fract_z
Si Si1 0.318997 0.707426 0.677210
Si Si2 0.000000 0.500000 0.208789
Si Si3 0.425674 0.038096 0.481038
Si Si4 0.603125 0.073845 0.116083
Si Si5 0.824286 0.803891 0.956429
Si Si6 0.805517 0.912892 0.570768
Si Si7 0.436905 0.360395 0.263956
Si Si8 0.573898 0.582171 0.403933
O O1 0.250000 0.750000 0.710792
O O2 0.294534 0.560436 0.625512
O O3 0.373671 0.610755 0.720755
O O4 0.352721 0.898028 0.644863
O O5 0.952131 0.383033 0.164801
O O6 0.958917 0.643512 0.248536
O O7 0.427126 0.012411 0.552660
O O8 0.411066 0.247123 0.451584
O O9 0.500000 0.000000 0.458305
O O10 0.367055 0.890938 0.465148
O O11 0.638635 0.271392 0.096656
O O12 0.750000 0.750000 0.939114
O O13 0.868978 0.924409 0.911269
O O14 0.819291 0.942644 0.015441
O O15 0.750000 0.750000 0.555631
O O16 0.500000 0.500000 0.251961
O O17 0.424010 0.362586 0.334502
O O18 0.500000 0.500000 0.416961
#
# Coordination Sequence:
#
# PCOD9354724 Si02
#       8
#     8   4   8   8   8   8   8   8
#     4  11  22  41  62  95 133 168 215 270 323 394
#     4  10  22  38  64  98 124 166 214 276 320 386
#     4  12  23  41  68 100 133 173 221 279 332 404
#     4  11  21  36  62  98 130 161 211 265 335 386
#     4  12  26  42  64 101 138 172 220 279 342 400
#     4  12  22  37  63  93 135 176 205 262 340 406
#     4  10  24  45  67  90 128 177 224 269 322 387
#     4  11  25  45  70  96 130 180 231 275 329 398
#
# _framework density 19.252832999999999
#
# number of rings (size 3 to 8) (size 9 to 14) (size 15 to 20)
#    0.000    0.800    6.000    2.000    0.933    0.000 
#    2.400    2.000    0.000    0.000    0.000    0.000 
#    0.000    0.000    0.000    0.000    0.000    0.000 
#
# Total GULP energy -167119.703516 kJ/mol
# GULP energy per Si atom -5570.656784 kJ/mol
# Density = 1.920901 g / cm^3
# Si number density = 19.252833 Si / 1000 Ang^3
#
#
#
# Elastic Constant Matrix: (Units=GPa)
#
#
# Indices 1 2 3 4 5 6 
#
# 1 141.4198 45.9773 49.2143 0.0000 0.0000 0.0000
# 2 45.9773 66.8542 23.8356 0.0000 0.0000 0.0000
# 3 49.2143 23.8356 89.7136 0.0000 0.0000 0.0000
# 4 0.0000 0.0000 0.0000 -1.7574 0.0000 0.0000
# 5 0.0000 0.0000 0.0000 0.0000 28.9184 0.0000
# 6 0.0000 0.0000 0.0000 0.0000 0.0000 40.0168
#
#
#
# Elastic Compliance Matrix: (Units=1/GPa)
#
#
# Indices 1 2 3 4 5 6 
#
# 1 0.010359 -0.005631 -0.004186 0.000000 0.000000 0.000000
# 2 -0.005631 0.019585 -0.002114 0.000000 0.000000 0.000000
# 3 -0.004186 -0.002114 0.014005 0.000000 0.000000 0.000000
# 4 0.000000 0.000000 0.000000 -0.569008 0.000000 0.000000
# 5 0.000000 0.000000 0.000000 0.000000 0.034580 0.000000
# 6 0.000000 0.000000 0.000000 0.000000 0.000000 0.024990
#
#
# Mechanical properties :
#
#
# Convention : Reuss Voigt Hill
#
# Bulk Modulus (GPa) = 49.78995 59.56023 54.67509
# Shear Modulus (GPa) = -11.49606 25.36625 6.93509
#
# Velocity S-wave (km/s) = -2.44623 3.63372 1.89998
# Velocity P-wave (km/s) = 4.23539 6.97196 5.76831
#
# Compressibility (1/GPa) = 0.02008438
#
# Stress axis : x y z
#
# Youngs Moduli (GPa) = 96.53555 51.06061 71.40415
#
# Poissons Ratio (x) = 0.28755 0.29893
# Poissons Ratio (y) = 0.54364 0.15095
# Poissons Ratio (z) = 0.40413 0.10795
#
# Static dielectric constant tensor:
#      x y z
#    x 1.724320 0.000000 0.000000 
#    y 0.000000 1.756260 0.000000 
#    z 0.000000 0.000000 1.688120 
# 
# From -- ./inp_files/19071.got.cif
#   From: 2010.05.17/outbox.cif.g08.bks.cpg/sg37_10_cif.got.tgz:19071.got - 2010.06.03 17:53:42.
