data_PCOD9354237
_publ_section_title
;
Structure prediction by ZEFSAII (Michael W. Deem and Ramdas Pophale) SiO2 
 PCOD9354237
Probable space group: C C C 2
;
_chemical_formula_sum "Si O2"
_cell_formula_units_Z 48
_cell_length_a 24.423940
_cell_length_b 8.819637
_cell_length_c 9.123731
_cell_angle_alpha 90.000000
_cell_angle_beta 90.000000
_cell_angle_gamma 90.000000
_cell_volume 1965.345494
_symmetry_space_group_name_H-M "C C C 2"
_symmetry_group_IT_number 37
_symmetry_cell_setting 'orthorhombic'
loop_
_space_group_symop_operation_xyz
x,y,z
-x,-y,z
-x,y,1/2+z
x,-y,1/2+z
1/2+x,1/2+y,z
1/2-x,1/2-y,z
1/2-x,1/2+y,1/2+z
1/2+x,1/2-y,1/2+z
loop_
_atom_site_type_symbol
_atom_site_label
_atom_site_fract_x
_atom_site_fract_y
_atom_site_fract_z
Si Si1 0.539931 0.306678 0.248670
Si Si2 0.390818 0.119959 0.925525
Si Si3 0.807514 0.842570 0.460835
Si Si4 0.719793 0.403360 0.263940
Si Si5 0.827110 0.395905 0.720118
Si Si6 0.000000 0.000000 0.501686
Si Si7 0.000000 0.500000 0.085805
O O1 0.593696 0.272084 0.341831
O O2 0.503003 0.364586 0.383901
O O3 0.516560 0.150082 0.179642
O O4 0.543144 0.432431 0.120617
O O5 0.364955 0.017979 0.799830
O O6 0.349263 0.136547 0.059367
O O7 0.446512 0.046147 0.991346
O O8 0.750000 0.750000 0.473199
O O9 0.820595 0.860424 0.631137
O O10 0.834184 0.745234 0.331196
O O11 0.804646 0.010812 0.400424
O O12 0.750000 0.250000 0.308497
O O13 0.766754 0.526809 0.211525
#
# Coordination Sequence:
#
# PCOD9354237 Si02
#       7
#     8   8   8   8   8   4   4
#     4  11  23  43  68  97 130 187 237 290 358 431
#     4  12  24  40  69 101 140 177 245 302 342 422
#     4   9  20  39  64  93 125 170 215 271 344 415
#     4  10  20  40  69  91 131 177 215 268 352 434
#     4  11  24  41  66 105 137 171 237 300 339 405
#     4  10  24  42  68  92 134 172 244 292 366 432
#     4  12  24  42  76  98 128 200 250 286 362 420
#
# _framework density 24.423185
#
# number of rings (size 3 to 8) (size 9 to 14) (size 15 to 20)
#    0.000    1.333    3.333    3.500    0.000    3.333 
#    0.000    3.333    0.000    0.000    0.000    0.000 
#    0.000    0.000    0.000    0.000    0.000    0.000 
#
# Total GULP energy -133917.352527 kJ/mol
# GULP energy per Si atom -5579.889689 kJ/mol
# Density = 2.436760 g / cm^3
# Si number density = 24.423185 Si / 1000 Ang^3
#
#
#
# Elastic Constant Matrix: (Units=GPa)
#
#
# Indices 1 2 3 4 5 6 
#
# 1 48.9559 -9.2501 21.1986 0.0000 0.0000 0.0000
# 2 -9.2501 56.2697 11.1364 0.0000 0.0000 0.0000
# 3 21.1986 11.1364 118.3315 0.0000 0.0000 0.0000
# 4 0.0000 0.0000 0.0000 62.5844 0.0000 0.0000
# 5 0.0000 0.0000 0.0000 0.0000 -21.2608 0.0000
# 6 0.0000 0.0000 0.0000 0.0000 0.0000 21.9226
#
#
#
# Elastic Compliance Matrix: (Units=1/GPa)
#
#
# Indices 1 2 3 4 5 6 
#
# 1 0.023327 0.004750 -0.004626 0.000000 0.000000 0.000000
# 2 0.004750 0.019076 -0.002646 0.000000 0.000000 0.000000
# 3 -0.004626 -0.002646 0.009529 0.000000 0.000000 0.000000
# 4 0.000000 0.000000 0.000000 0.015978 0.000000 0.000000
# 5 0.000000 0.000000 0.000000 0.000000 -0.047035 0.000000
# 6 0.000000 0.000000 0.000000 0.000000 0.000000 0.045615
#
#
# Mechanical properties :
#
#
# Convention : Reuss Voigt Hill
#
# Bulk Modulus (GPa) = 21.32743 29.96964 25.64854
# Shear Modulus (GPa) = 57.36325 26.01406 41.68866
#
# Velocity S-wave (km/s) = 4.85162 3.26719 4.13598
# Velocity P-wave (km/s) = 6.33527 5.15076 5.77347
#
# Compressibility (1/GPa) = 0.04688797
#
# Stress axis : x y z
#
# Youngs Moduli (GPa) = 42.86830 52.42141 104.94699
#
# Poissons Ratio (x) = -0.24902 0.48549
# Poissons Ratio (y) = -0.20364 0.27772
# Poissons Ratio (z) = 0.19831 0.13872
#
# Static dielectric constant tensor:
#      x y z
#    x 2.190890 0.000000 0.000000 
#    y 0.000000 1.975370 0.000000 
#    z 0.000000 0.000000 1.898080 
# 
# From -- ./inp_files/2437.got.cif
#   From: 2010.05.17/outbox.cif.g08.bks.cpg/sg37_2_cif.got.tgz:2437.got - 2010.06.03 17:53:42.
