data_PCOD9354820
_publ_section_title
;
Structure prediction by ZEFSAII (Michael W. Deem and Ramdas Pophale) SiO2 
 PCOD9354820
Probable space group: C C C 2
;
_chemical_formula_sum "Si O2"
_cell_formula_units_Z 44
_cell_length_a 9.248301
_cell_length_b 25.377059
_cell_length_c 8.544482
_cell_angle_alpha 90.000000
_cell_angle_beta 90.000000
_cell_angle_gamma 90.000000
_cell_volume 2005.344470
_symmetry_space_group_name_H-M "C C C 2"
_symmetry_group_IT_number 37
_symmetry_cell_setting 'orthorhombic'
loop_
_space_group_symop_operation_xyz
x,y,z
-x,-y,z
-x,y,1/2+z
x,-y,1/2+z
1/2+x,1/2+y,z
1/2-x,1/2-y,z
1/2-x,1/2+y,1/2+z
1/2+x,1/2-y,1/2+z
loop_
_atom_site_type_symbol
_atom_site_label
_atom_site_fract_x
_atom_site_fract_y
_atom_site_fract_z
Si Si1 0.622472 0.134237 0.734720
Si Si2 0.117123 0.073672 0.084376
Si Si3 0.872617 0.155586 0.956998
Si Si4 0.088018 0.791502 0.266648
Si Si5 0.000000 0.000000 0.848546
Si Si6 0.627885 0.176533 0.408167
O O1 0.724412 0.095273 0.630546
O O2 0.605304 0.177412 0.594729
O O3 0.462665 0.132753 0.811948
O O4 0.716356 0.139485 0.894683
O O5 0.984501 0.112182 0.027104
O O6 0.061709 0.045745 0.240945
O O7 0.120486 0.027325 0.956325
O O8 0.867317 0.200624 0.088654
O O9 0.937075 0.181099 0.799760
O O10 0.203157 0.825525 0.367121
O O11 0.086262 0.733188 0.334604
#
# Coordination Sequence:
#
# PCOD9354820 Si02
#       6
#     8   8   8   8   4   8
#     4  12  24  43  67  99 140 186 230 287 349 422
#     4  11  21  41  70 108 126 172 223 299 357 411
#     4  12  21  40  68  99 132 177 234 292 337 407
#     4  11  22  40  63  96 139 183 241 277 325 399
#     4  10  22  40  72 108 132 156 234 302 356 428
#     4  11  25  41  59  98 141 193 227 275 340 407
#
# _framework density 21.941368000000001
#
# number of rings (size 3 to 8) (size 9 to 14) (size 15 to 20)
#    0.000    0.727    5.455    2.182    0.000    3.636 
#    0.000    0.000    0.000    3.273    0.000    0.000 
#    0.000    0.000    0.000    0.000    0.000    0.000 
#
# Total GULP energy -122468.736883 kJ/mol
# GULP energy per Si atom -5566.760767 kJ/mol
# Density = 2.189143 g / cm^3
# Si number density = 21.941368 Si / 1000 Ang^3
#
#
#
# Elastic Constant Matrix: (Units=GPa)
#
#
# Indices 1 2 3 4 5 6 
#
# 1 59.2040 22.2910 7.4265 0.0000 0.0000 0.0000
# 2 22.2910 65.2569 32.8660 0.0000 0.0000 0.0000
# 3 7.4265 32.8660 137.8670 0.0000 0.0000 0.0000
# 4 0.0000 0.0000 0.0000 31.5982 0.0000 0.0000
# 5 0.0000 0.0000 0.0000 0.0000 35.4442 0.0000
# 6 0.0000 0.0000 0.0000 0.0000 0.0000 22.4618
#
#
#
# Elastic Compliance Matrix: (Units=1/GPa)
#
#
# Indices 1 2 3 4 5 6 
#
# 1 0.019429 -0.006943 0.000609 0.000000 0.000000 0.000000
# 2 -0.006943 0.019896 -0.004369 0.000000 0.000000 0.000000
# 3 0.000609 -0.004369 0.008262 0.000000 0.000000 0.000000
# 4 0.000000 0.000000 0.000000 0.031647 0.000000 0.000000
# 5 0.000000 0.000000 0.000000 0.000000 0.028213 0.000000
# 6 0.000000 0.000000 0.000000 0.000000 0.000000 0.044520
#
#
# Mechanical properties :
#
#
# Convention : Reuss Voigt Hill
#
# Bulk Modulus (GPa) = 38.19739 43.05497 40.62618
# Shear Modulus (GPa) = 27.45728 31.21714 29.33721
#
# Velocity S-wave (km/s) = 3.54134 3.77603 3.66057
# Velocity P-wave (km/s) = 5.84535 6.21905 6.03509
#
# Compressibility (1/GPa) = 0.02617980
#
# Stress axis : x y z
#
# Youngs Moduli (GPa) = 51.47062 50.26101 121.03444
#
# Poissons Ratio (x) = 0.34897 -0.07366
# Poissons Ratio (y) = 0.35736 0.52880
# Poissons Ratio (z) = -0.03132 0.21959
#
# Static dielectric constant tensor:
#      x y z
#    x 1.809930 0.000000 0.000000 
#    y 0.000000 1.899400 0.000000 
#    z 0.000000 0.000000 1.840960 
# 
# From -- ./inp_files/2337.got.cif
#   From: 2010.05.17/outbox.cif.g08.bks.cpg/sg37_2_cif.got.tgz:2337.got - 2010.06.03 17:53:42.
