data_PCOD9354619
_publ_section_title
;
Structure prediction by ZEFSAII (Michael W. Deem and Ramdas Pophale) SiO2 
 PCOD9354619
Probable space group: C C C 2
;
_chemical_formula_sum "Si O2"
_cell_formula_units_Z 56
_cell_length_a 19.206054
_cell_length_b 9.856934
_cell_length_c 12.829136
_cell_angle_alpha 90.000000
_cell_angle_beta 90.000000
_cell_angle_gamma 90.000000
_cell_volume 2428.719743
_symmetry_space_group_name_H-M "C C C 2"
_symmetry_group_IT_number 37
_symmetry_cell_setting 'orthorhombic'
loop_
_space_group_symop_operation_xyz
x,y,z
-x,-y,z
-x,y,1/2+z
x,-y,1/2+z
1/2+x,1/2+y,z
1/2-x,1/2-y,z
1/2-x,1/2+y,1/2+z
1/2+x,1/2-y,1/2+z
loop_
_atom_site_type_symbol
_atom_site_label
_atom_site_fract_x
_atom_site_fract_y
_atom_site_fract_z
Si Si1 0.421393 0.734622 0.495290
Si Si2 0.543604 0.869876 0.362630
Si Si3 0.622907 0.726999 0.615913
Si Si4 0.525261 0.356284 0.698718
Si Si5 0.153660 0.493674 0.518810
Si Si6 0.187921 0.854533 0.324009
Si Si7 0.290337 0.611648 0.935735
O O1 0.492936 0.799069 0.449167
O O2 0.431580 0.630763 0.590912
O O3 0.377902 0.679545 0.397695
O O4 0.376621 0.859819 0.539390
O O5 0.557296 0.751699 0.278925
O O6 0.611279 0.934669 0.417791
O O7 0.500000 0.000000 0.320250
O O8 0.546041 0.706455 0.656039
O O9 0.635561 0.886784 0.607260
O O10 0.672947 0.671211 0.704305
O O11 0.644917 0.655909 0.507481
O O12 0.500000 0.500000 0.745025
O O13 0.235521 0.480868 0.500350
O O14 0.250000 0.750000 0.354328
O O15 0.196631 0.015048 0.339189
O O16 0.250000 0.750000 0.911148
#
# Coordination Sequence:
#
# PCOD9354619 Si02
#       7
#     8   8   8   8   8   8   8
#     4  11  23  42  69  99 135 174 224 285 331 400
#     4  10  23  41  68  96 130 174 226 281 334 400
#     4  11  24  43  70  95 135 181 226 273 346 405
#     4  12  26  41  63 101 136 178 221 272 345 407
#     4  10  21  43  68  99 129 173 227 284 333 389
#     4  12  23  44  71  98 132 177 230 276 340 408
#     4  10  23  44  66  97 134 178 221 279 338 397
#
# _framework density 23.057417000000001
#
# number of rings (size 3 to 8) (size 9 to 14) (size 15 to 20)
#    0.000    1.143    4.286    2.143    2.000    2.857 
#    2.571    0.714    0.000    0.000    0.000    0.000 
#    0.000    0.000    0.000    0.000    0.000    0.000 
#
# Total GULP energy -156484.063900 kJ/mol
# GULP energy per Si atom -5588.716568 kJ/mol
# Density = 2.300494 g / cm^3
# Si number density = 23.057417 Si / 1000 Ang^3
#
#
#
# Elastic Constant Matrix: (Units=GPa)
#
#
# Indices 1 2 3 4 5 6 
#
# 1 35.2193 -27.6399 -10.6367 0.0000 0.0000 0.0000
# 2 -27.6399 83.9866 37.5361 0.0000 0.0000 0.0000
# 3 -10.6367 37.5361 60.8977 0.0000 0.0000 0.0000
# 4 0.0000 0.0000 0.0000 31.2282 0.0000 0.0000
# 5 0.0000 0.0000 0.0000 0.0000 7.2696 0.0000
# 6 0.0000 0.0000 0.0000 0.0000 0.0000 26.0924
#
#
#
# Elastic Compliance Matrix: (Units=1/GPa)
#
#
# Indices 1 2 3 4 5 6 
#
# 1 0.038378 0.013298 -0.001493 0.000000 0.000000 0.000000
# 2 0.013298 0.021041 -0.010647 0.000000 0.000000 0.000000
# 3 -0.001493 -0.010647 0.022723 0.000000 0.000000 0.000000
# 4 0.000000 0.000000 0.000000 0.032022 0.000000 0.000000
# 5 0.000000 0.000000 0.000000 0.000000 0.137559 0.000000
# 6 0.000000 0.000000 0.000000 0.000000 0.000000 0.038325
#
#
# Mechanical properties :
#
#
# Convention : Reuss Voigt Hill
#
# Bulk Modulus (GPa) = 11.84022 19.84697 15.84360
# Shear Modulus (GPa) = 15.82849 24.97432 20.40140
#
# Velocity S-wave (km/s) = 2.62292 3.29467 2.97780
# Velocity P-wave (km/s) = 3.78407 4.80619 4.32543
#
# Compressibility (1/GPa) = 0.08445787
#
# Stress axis : x y z
#
# Youngs Moduli (GPa) = 26.05633 47.52579 44.00891
#
# Poissons Ratio (x) = -0.63197 0.06570
# Poissons Ratio (y) = -0.34648 0.46855
# Poissons Ratio (z) = 0.03890 0.50600
#
# Static dielectric constant tensor:
#      x y z
#    x 1.911050 0.000000 0.000000 
#    y 0.000000 1.897580 0.000000 
#    z 0.000000 0.000000 1.862790 
# 
# From -- ./inp_files/12935.got.cif
#   From: 2010.05.17/outbox.cif.g08.bks.cpg/sg37_7_cif.got.tgz:12935.got - 2010.06.03 17:53:42.
