data_PCOD9354418
_publ_section_title
;
Structure prediction by ZEFSAII (Michael W. Deem and Ramdas Pophale) SiO2 
 PCOD9354418
Probable space group: C C C 2
;
_chemical_formula_sum "Si O2"
_cell_formula_units_Z 40
_cell_length_a 29.231171
_cell_length_b 5.141623
_cell_length_c 11.180859
_cell_angle_alpha 90.000000
_cell_angle_beta 90.000000
_cell_angle_gamma 90.000000
_cell_volume 1680.434595
_symmetry_space_group_name_H-M "C C C 2"
_symmetry_group_IT_number 37
_symmetry_cell_setting 'orthorhombic'
loop_
_space_group_symop_operation_xyz
x,y,z
-x,-y,z
-x,y,1/2+z
x,-y,1/2+z
1/2+x,1/2+y,z
1/2-x,1/2-y,z
1/2-x,1/2+y,1/2+z
1/2+x,1/2-y,1/2+z
loop_
_atom_site_type_symbol
_atom_site_label
_atom_site_fract_x
_atom_site_fract_y
_atom_site_fract_z
Si Si1 0.000000 0.000000 0.157750
Si Si2 0.599751 0.028771 0.339609
Si Si3 0.000000 0.500000 0.326311
Si Si4 0.250000 0.750000 0.181744
Si Si5 0.750000 0.750000 0.330114
Si Si6 0.898381 0.972454 0.164757
Si Si7 0.832038 0.296196 0.013338
O O1 0.050953 0.015629 0.102535
O O2 0.001101 0.749151 0.241764
O O3 0.548261 0.999533 0.391340
O O4 0.606984 0.795345 0.240768
O O5 0.604174 0.296021 0.265104
O O6 0.632409 0.993477 0.453239
O O7 0.262432 0.501657 0.256236
O O8 0.204322 0.644628 0.116841
O O9 0.795151 0.730065 0.408943
O O10 0.861021 0.053889 0.065715
#
# Coordination Sequence:
#
# PCOD9354418 Si02
#       7
#     4   8   4   4   4   8   8
#     4   8  16  34  56  80 118 158 192 242 300 350
#     4  10  21  38  60  89 124 161 204 253 304 367
#     4   8  16  34  56  80 118 158 192 242 300 350
#     4  11  26  45  64  92 128 163 208 267 324 382
#     4  11  26  45  64  92 128 163 208 267 324 382
#     4  10  21  38  60  89 124 161 204 253 304 367
#     4  11  24  40  68  94 122 168 214 259 320 378
#
# _framework density 23.803366
#
# number of rings (size 3 to 8) (size 9 to 14) (size 15 to 20)
#    0.000    2.000    0.000    2.400    0.000    8.000 
#    0.000   12.000    0.000    0.000    0.000    0.000 
#    0.000    0.000    0.000    0.000    0.000    0.000 
#
# Total GULP energy -111573.789040 kJ/mol
# GULP energy per Si atom -5578.689452 kJ/mol
# Density = 2.374919 g / cm^3
# Si number density = 23.803366 Si / 1000 Ang^3
#
#
#
# Elastic Constant Matrix: (Units=GPa)
#
#
# Indices 1 2 3 4 5 6 
#
# 1 155.0247 -25.8079 8.7291 0.0000 0.0000 0.0000
# 2 -25.8079 113.6159 6.6735 0.0000 0.0000 0.0000
# 3 8.7291 6.6735 31.8667 0.0000 0.0000 0.0000
# 4 0.0000 0.0000 0.0000 15.6846 0.0000 0.0000
# 5 0.0000 0.0000 0.0000 0.0000 2.5022 0.0000
# 6 0.0000 0.0000 0.0000 0.0000 0.0000 30.8914
#
#
#
# Elastic Compliance Matrix: (Units=1/GPa)
#
#
# Indices 1 2 3 4 5 6 
#
# 1 0.006857 0.001689 -0.002232 0.000000 0.000000 0.000000
# 2 0.001689 0.009327 -0.002416 0.000000 0.000000 0.000000
# 3 -0.002232 -0.002416 0.032498 0.000000 0.000000 0.000000
# 4 0.000000 0.000000 0.000000 0.063757 0.000000 0.000000
# 5 0.000000 0.000000 0.000000 0.000000 0.399656 0.000000
# 6 0.000000 0.000000 0.000000 0.000000 0.000000 0.032371
#
#
# Mechanical properties :
#
#
# Convention : Reuss Voigt Hill
#
# Bulk Modulus (GPa) = 23.38405 31.07740 27.23072
# Shear Modulus (GPa) = 8.85520 30.54315 19.69918
#
# Velocity S-wave (km/s) = 1.93086 3.58599 2.87989
# Velocity P-wave (km/s) = 3.84917 5.49818 4.74584
#
# Compressibility (1/GPa) = 0.04276420
#
# Stress axis : x y z
#
# Youngs Moduli (GPa) = 145.82766 107.21452 30.77110
#
# Poissons Ratio (x) = -0.18106 0.06868
# Poissons Ratio (y) = -0.24627 0.07434
# Poissons Ratio (z) = 0.32550 0.25902
#
# Static dielectric constant tensor:
#      x y z
#    x 2.017610 0.000000 0.000000 
#    y 0.000000 1.854350 0.000000 
#    z 0.000000 0.000000 1.913130 
# 
# From -- ./inp_files/5655.got.cif
#   From: 2010.05.17/outbox.cif.g08.bks.cpg/sg37_3_cif.got.tgz:5655.got - 2010.06.03 17:53:42.
