data_PCOD9354835
_publ_section_title
;
Structure prediction by ZEFSAII (Michael W. Deem and Ramdas Pophale) SiO2 
 PCOD9354835
Probable space group: C C C 2
;
_chemical_formula_sum "Si O2"
_cell_formula_units_Z 60
_cell_length_a 8.743749
_cell_length_b 24.096336
_cell_length_c 11.999584
_cell_angle_alpha 90.000000
_cell_angle_beta 90.000000
_cell_angle_gamma 90.000000
_cell_volume 2528.220118
_symmetry_space_group_name_H-M "C C C 2"
_symmetry_group_IT_number 37
_symmetry_cell_setting 'orthorhombic'
loop_
_space_group_symop_operation_xyz
x,y,z
-x,-y,z
-x,y,1/2+z
x,-y,1/2+z
1/2+x,1/2+y,z
1/2-x,1/2-y,z
1/2-x,1/2+y,1/2+z
1/2+x,1/2-y,1/2+z
loop_
_atom_site_type_symbol
_atom_site_label
_atom_site_fract_x
_atom_site_fract_y
_atom_site_fract_z
Si Si1 0.131389 0.409301 0.057460
Si Si2 0.128668 0.048468 0.872188
Si Si3 0.750000 0.250000 0.451216
Si Si4 0.914422 0.551832 0.737577
Si Si5 0.923846 0.640018 0.385100
Si Si6 0.901062 0.865680 0.455958
Si Si7 0.882779 0.837146 0.128536
Si Si8 0.446350 0.741437 0.833868
O O1 0.249678 0.382549 0.146759
O O2 0.996858 0.442800 0.118203
O O3 0.243537 0.442995 0.971798
O O4 0.035185 0.361686 0.992606
O O5 0.234822 0.043942 0.761973
O O6 0.026843 0.104409 0.878330
O O7 0.000000 0.000000 0.885360
O O8 0.808508 0.200871 0.531018
O O9 0.614185 0.238538 0.366319
O O10 0.000000 0.500000 0.794157
O O11 0.973975 0.606805 0.798183
O O12 0.765806 0.612151 0.427048
O O13 0.870292 0.698507 0.332587
O O14 0.899943 0.799839 0.433078
O O15 0.970384 0.869617 0.579325
O O16 0.930802 0.794914 0.224021
#
# Coordination Sequence:
#
# PCOD9354835 Si02
#       8
#     8   8   4   8   8   8   8   8
#     4  10  23  44  70 101 139 185 237 292 355 426
#     4  10  23  47  74  98 143 189 232 299 358 418
#     4  10  22  42  60  98 140 178 238 284 342 432
#     4  11  25  42  68 105 134 179 238 291 356 424
#     4  11  23  43  68  97 141 188 230 288 358 424
#     4  10  23  40  63 102 133 175 245 285 344 429
#     4  10  22  41  64  94 136 183 231 291 350 415
#     4  11  23  40  68  95 142 188 230 288 354 413
#
# _framework density 23.732109999999999
#
# number of rings (size 3 to 8) (size 9 to 14) (size 15 to 20)
#    0.000    1.600    1.333    2.000    5.600    4.267 
#    4.800    4.667    0.000    0.000    0.000    0.000 
#    0.000    0.000    0.000    0.000    0.000    0.000 
#
# Total GULP energy -167160.392102 kJ/mol
# GULP energy per Si atom -5572.013070 kJ/mol
# Density = 2.367809 g / cm^3
# Si number density = 23.732110 Si / 1000 Ang^3
#
#
#
# Elastic Constant Matrix: (Units=GPa)
#
#
# Indices 1 2 3 4 5 6 
#
# 1 121.7632 4.6056 53.0174 0.0000 0.0000 0.0000
# 2 4.6056 90.6220 18.4736 0.0000 0.0000 0.0000
# 3 53.0174 18.4736 74.6372 0.0000 0.0000 0.0000
# 4 0.0000 0.0000 0.0000 13.8806 0.0000 0.0000
# 5 0.0000 0.0000 0.0000 0.0000 35.9502 0.0000
# 6 0.0000 0.0000 0.0000 0.0000 0.0000 31.7135
#
#
#
# Elastic Compliance Matrix: (Units=1/GPa)
#
#
# Indices 1 2 3 4 5 6 
#
# 1 0.012011 0.001189 -0.008826 0.000000 0.000000 0.000000
# 2 0.001189 0.011739 -0.003750 0.000000 0.000000 0.000000
# 3 -0.008826 -0.003750 0.020596 0.000000 0.000000 0.000000
# 4 0.000000 0.000000 0.000000 0.072043 0.000000 0.000000
# 5 0.000000 0.000000 0.000000 0.000000 0.027816 0.000000
# 6 0.000000 0.000000 0.000000 0.000000 0.000000 0.031532
#
#
# Mechanical properties :
#
#
# Convention : Reuss Voigt Hill
#
# Bulk Modulus (GPa) = 46.35827 48.80173 47.58000
# Shear Modulus (GPa) = 24.30714 30.37058 27.33886
#
# Velocity S-wave (km/s) = 3.20383 3.58121 3.39776
# Velocity P-wave (km/s) = 5.76736 6.14071 5.95696
#
# Compressibility (1/GPa) = 0.02157113
#
# Stress axis : x y z
#
# Youngs Moduli (GPa) = 83.26014 85.18710 48.55422
#
# Poissons Ratio (x) = -0.10127 0.42853
# Poissons Ratio (y) = -0.09898 0.18207
# Poissons Ratio (z) = 0.73483 0.31945
#
# Static dielectric constant tensor:
#      x y z
#    x 2.024340 0.000000 0.000000 
#    y 0.000000 2.006790 0.000000 
#    z 0.000000 0.000000 1.974900 
# 
# From -- ./inp_files/6556.got.cif
#   From: 2010.05.17/outbox.cif.g08.bks.cpg/sg37_4_cif.got.tgz:6556.got - 2010.06.03 17:53:42.
