data_PCOD9354488
_publ_section_title
;
Structure prediction by ZEFSAII (Michael W. Deem and Ramdas Pophale) SiO2 
 PCOD9354488
Probable space group: C C C 2
;
_chemical_formula_sum "Si O2"
_cell_formula_units_Z 48
_cell_length_a 15.031724
_cell_length_b 9.349405
_cell_length_c 18.043784
_cell_angle_alpha 90.000000
_cell_angle_beta 90.000000
_cell_angle_gamma 90.000000
_cell_volume 2535.831461
_symmetry_space_group_name_H-M "C C C 2"
_symmetry_group_IT_number 37
_symmetry_cell_setting 'orthorhombic'
loop_
_space_group_symop_operation_xyz
x,y,z
-x,-y,z
-x,y,1/2+z
x,-y,1/2+z
1/2+x,1/2+y,z
1/2-x,1/2-y,z
1/2-x,1/2+y,1/2+z
1/2+x,1/2-y,1/2+z
loop_
_atom_site_type_symbol
_atom_site_label
_atom_site_fract_x
_atom_site_fract_y
_atom_site_fract_z
Si Si1 0.671270 0.855520 0.772290
Si Si2 0.501205 0.665015 0.263813
Si Si3 0.342822 0.167162 0.342605
Si Si4 0.737554 0.090445 0.104912
Si Si5 0.939218 0.883743 0.597564
Si Si6 0.412826 0.096617 0.504871
O O1 0.750000 0.750000 0.796700
O O2 0.581210 0.766938 0.785849
O O3 0.691261 0.888671 0.684976
O O4 0.669927 0.007895 0.811059
O O5 0.500000 0.500000 0.291799
O O6 0.589823 0.743318 0.290854
O O7 0.487000 0.651819 0.175380
O O8 0.250000 0.250000 0.346015
O O9 0.383042 0.147055 0.424136
O O10 0.750000 0.250000 0.072408
O O11 0.840925 0.047995 0.112909
O O12 0.668883 0.018024 0.048551
O O13 0.933655 0.737761 0.552694
O O14 0.000000 0.000000 0.557366
O O15 0.500000 0.000000 0.500837
#
# Coordination Sequence:
#
# PCOD9354488 Si02
#       6
#     8   8   8   8   8   8
#     4  11  20  40  66  96 129 176 216 275 327 389
#     4  11  22  39  64  98 132 171 223 271 329 390
#     4  12  27  41  64  97 137 176 225 273 333 400
#     4   9  18  38  65  88 124 167 208 263 329 378
#     4  10  21  39  67  94 126 170 220 271 325 396
#     4  11  23  43  64  95 128 176 215 270 338 394
#
# _framework density 18.928702999999999
#
# number of rings (size 3 to 8) (size 9 to 14) (size 15 to 20)
#    0.000    1.333    5.000    4.000    4.667    0.667 
#    0.000    5.833    0.000    0.000    0.000    0.000 
#    0.000    0.000    0.000    0.000    0.000    0.000 
#
# Total GULP energy -133795.639972 kJ/mol
# GULP energy per Si atom -5574.818332 kJ/mol
# Density = 1.888562 g / cm^3
# Si number density = 18.928703 Si / 1000 Ang^3
#
#
#
# Elastic Constant Matrix: (Units=GPa)
#
#
# Indices 1 2 3 4 5 6 
#
# 1 181.7228 73.0772 66.1793 0.0000 0.0000 0.0000
# 2 73.0772 135.1909 49.2558 0.0000 0.0000 0.0000
# 3 66.1793 49.2558 89.5086 0.0000 0.0000 0.0000
# 4 0.0000 0.0000 0.0000 50.9137 0.0000 0.0000
# 5 0.0000 0.0000 0.0000 0.0000 25.0394 0.0000
# 6 0.0000 0.0000 0.0000 0.0000 0.0000 41.9881
#
#
#
# Elastic Compliance Matrix: (Units=1/GPa)
#
#
# Indices 1 2 3 4 5 6 
#
# 1 0.008309 -0.002818 -0.004592 0.000000 0.000000 0.000000
# 2 -0.002818 0.010208 -0.003534 0.000000 0.000000 0.000000
# 3 -0.004592 -0.003534 0.016512 0.000000 0.000000 0.000000
# 4 0.000000 0.000000 0.000000 0.019641 0.000000 0.000000
# 5 0.000000 0.000000 0.000000 0.000000 0.039937 0.000000
# 6 0.000000 0.000000 0.000000 0.000000 0.000000 0.023816
#
#
# Mechanical properties :
#
#
# Convention : Reuss Voigt Hill
#
# Bulk Modulus (GPa) = 76.10174 87.04967 81.57570
# Shear Modulus (GPa) = 34.55649 38.11557 36.33603
#
# Velocity S-wave (km/s) = 4.27735 4.49223 4.38611
# Velocity P-wave (km/s) = 8.04276 8.54370 8.29701
#
# Compressibility (1/GPa) = 0.01314030
#
# Stress axis : x y z
#
# Youngs Moduli (GPa) = 120.35855 97.96548 60.56187
#
# Poissons Ratio (x) = 0.27607 0.27812
# Poissons Ratio (y) = 0.33917 0.21401
# Poissons Ratio (z) = 0.55272 0.34618
#
# Static dielectric constant tensor:
#      x y z
#    x 1.769950 0.000000 0.000000 
#    y 0.000000 1.629560 0.000000 
#    z 0.000000 0.000000 1.663370 
# 
# From -- ./inp_files/15225.got.cif
#   From: 2010.05.17/outbox.cif.g08.bks.cpg/sg37_8_cif.got.tgz:15225.got - 2010.06.03 17:53:42.
