data_PCOD9354222
_publ_section_title
;
Structure prediction by ZEFSAII (Michael W. Deem and Ramdas Pophale) SiO2 
 PCOD9354222
Probable space group: C C C 2
;
_chemical_formula_sum "Si O2"
_cell_formula_units_Z 48
_cell_length_a 8.231204
_cell_length_b 26.446498
_cell_length_c 9.023653
_cell_angle_alpha 90.000000
_cell_angle_beta 90.000000
_cell_angle_gamma 90.000000
_cell_volume 1964.327620
_symmetry_space_group_name_H-M "C C C 2"
_symmetry_group_IT_number 37
_symmetry_cell_setting 'orthorhombic'
loop_
_space_group_symop_operation_xyz
x,y,z
-x,-y,z
-x,y,1/2+z
x,-y,1/2+z
1/2+x,1/2+y,z
1/2-x,1/2-y,z
1/2-x,1/2+y,1/2+z
1/2+x,1/2-y,1/2+z
loop_
_atom_site_type_symbol
_atom_site_label
_atom_site_fract_x
_atom_site_fract_y
_atom_site_fract_z
Si Si1 0.059611 0.318928 0.365370
Si Si2 0.161607 0.194779 0.559623
Si Si3 0.319201 0.444371 0.507557
Si Si4 0.658118 0.443489 0.647070
Si Si5 0.100735 0.783016 0.364351
Si Si6 0.011755 0.614145 0.604685
O O1 0.245766 0.326771 0.415831
O O2 0.998482 0.365932 0.271152
O O3 0.022362 0.262492 0.311435
O O4 0.977863 0.331592 0.522628
O O5 0.250000 0.250000 0.570968
O O6 0.155804 0.180580 0.731777
O O7 0.979489 0.193298 0.505491
O O8 0.485749 0.423069 0.582746
O O9 0.317159 0.500675 0.576922
O O10 0.339250 0.445590 0.328032
O O11 0.149381 0.416927 0.555835
O O12 0.818000 0.413908 0.593434
O O13 0.250000 0.750000 0.412200
#
# Coordination Sequence:
#
# PCOD9354222 Si02
#       6
#     8   8   8   8   8   8
#     4  11  24  43  63  99 139 177 225 296 353 422
#     4   9  20  39  62  89 125 168 230 273 338 411
#     4  11  25  45  74 105 142 187 246 289 346 431
#     4  11  25  45  74 104 138 195 240 291 345 429
#     4  10  20  40  66  90 121 175 229 283 335 417
#     4  12  25  44  67 103 152 184 231 290 373 416
#
# _framework density 24.435841
#
# number of rings (size 3 to 8) (size 9 to 14) (size 15 to 20)
#    0.000    1.333    1.667    5.500    4.667    4.667 
#    9.000    0.000    0.000    0.000    0.000    0.000 
#    0.000    0.000    0.000    0.000    0.000    0.000 
#
# Total GULP energy -133748.778081 kJ/mol
# GULP energy per Si atom -5572.865753 kJ/mol
# Density = 2.438022 g / cm^3
# Si number density = 24.435841 Si / 1000 Ang^3
#
#
#
# Elastic Constant Matrix: (Units=GPa)
#
#
# Indices 1 2 3 4 5 6 
#
# 1 163.0649 25.8054 57.7844 0.0000 0.0000 0.0000
# 2 25.8054 72.7457 17.4921 0.0000 0.0000 0.0000
# 3 57.7844 17.4921 93.1320 0.0000 0.0000 0.0000
# 4 0.0000 0.0000 0.0000 21.8233 0.0000 0.0000
# 5 0.0000 0.0000 0.0000 0.0000 28.6413 0.0000
# 6 0.0000 0.0000 0.0000 0.0000 0.0000 26.5528
#
#
#
# Elastic Compliance Matrix: (Units=1/GPa)
#
#
# Indices 1 2 3 4 5 6 
#
# 1 0.008065 -0.001736 -0.004678 0.000000 0.000000 0.000000
# 2 -0.001736 0.014770 -0.001697 0.000000 0.000000 0.000000
# 3 -0.004678 -0.001697 0.013959 0.000000 0.000000 0.000000
# 4 0.000000 0.000000 0.000000 0.045822 0.000000 0.000000
# 5 0.000000 0.000000 0.000000 0.000000 0.034915 0.000000
# 6 0.000000 0.000000 0.000000 0.000000 0.000000 0.037661
#
#
# Mechanical properties :
#
#
# Convention : Reuss Voigt Hill
#
# Bulk Modulus (GPa) = 48.60977 59.01184 53.81081
# Shear Modulus (GPa) = 28.04714 30.59418 29.32066
#
# Velocity S-wave (km/s) = 3.39158 3.54223 3.46772
# Velocity P-wave (km/s) = 5.93911 6.39781 6.17272
#
# Compressibility (1/GPa) = 0.02057199
#
# Stress axis : x y z
#
# Youngs Moduli (GPa) = 123.99341 67.70283 71.64036
#
# Poissons Ratio (x) = 0.11754 0.33512
# Poissons Ratio (y) = 0.21526 0.12158
# Poissons Ratio (z) = 0.58003 0.11489
#
# Static dielectric constant tensor:
#      x y z
#    x 2.304770 0.000000 0.000000 
#    y 0.000000 2.056240 0.000000 
#    z 0.000000 0.000000 1.879230 
# 
# From -- ./inp_files/2404.got.cif
#   From: 2010.05.17/outbox.cif.g08.bks.cpg/sg37_2_cif.got.tgz:2404.got - 2010.06.03 17:53:42.
