data_PCOD9354918
_publ_section_title
;
Structure prediction by ZEFSAII (Michael W. Deem and Ramdas Pophale) SiO2 
 PCOD9354918
Probable space group: C C C 2
;
_chemical_formula_sum "Si O2"
_cell_formula_units_Z 40
_cell_length_a 14.027475
_cell_length_b 4.993886
_cell_length_c 26.232428
_cell_angle_alpha 90.000000
_cell_angle_beta 90.000000
_cell_angle_gamma 90.000000
_cell_volume 1837.623842
_symmetry_space_group_name_H-M "C C C 2"
_symmetry_group_IT_number 37
_symmetry_cell_setting 'orthorhombic'
loop_
_space_group_symop_operation_xyz
x,y,z
-x,-y,z
-x,y,1/2+z
x,-y,1/2+z
1/2+x,1/2+y,z
1/2-x,1/2-y,z
1/2-x,1/2+y,1/2+z
1/2+x,1/2-y,1/2+z
loop_
_atom_site_type_symbol
_atom_site_label
_atom_site_fract_x
_atom_site_fract_y
_atom_site_fract_z
Si Si1 0.939203 0.734743 0.256190
Si Si2 0.500000 0.000000 0.529940
Si Si3 0.000000 0.000000 0.102791
Si Si4 0.313230 0.485031 0.170120
Si Si5 0.182779 0.508265 0.459465
Si Si6 0.683610 0.007927 0.343526
O O1 0.854427 0.848537 0.221417
O O2 0.897578 0.576938 0.304531
O O3 0.000000 0.500000 0.228112
O O4 0.000000 0.000000 0.269426
O O5 0.483178 0.749925 0.566390
O O6 0.407977 0.037791 0.494462
O O7 0.907040 0.049009 0.137377
O O8 0.250000 0.250000 0.144882
O O9 0.250000 0.750000 0.178551
O O10 0.250000 0.750000 0.477414
O O11 0.151071 0.573908 0.401096
O O12 0.250000 0.250000 0.458882
O O13 0.750000 0.750000 0.347590
O O14 0.750000 0.250000 0.324561
#
# Coordination Sequence:
#
# PCOD9354918 Si02
#       6
#     8   4   4   8   8   8
#     4  12  25  42  70 106 144 184 238 292 343 425
#     4  12  26  44  76 102 136 182 226 302 356 408
#     4  12  28  48  70 108 136 170 250 292 348 426
#     4  12  27  48  75  99 142 189 227 291 360 415
#     4  10  23  44  70 102 142 180 230 282 344 423
#     4  10  22  43  65 100 143 186 232 278 339 423
#
# _framework density 21.767239
#
# number of rings (size 3 to 8) (size 9 to 14) (size 15 to 20)
#    0.000    0.800    1.000    5.400    2.800    6.400 
#    1.800    0.000    0.000    0.000    0.000    0.000 
#    0.000    0.000    0.000    0.000    0.000    0.000 
#
# Total GULP energy -111943.846881 kJ/mol
# GULP energy per Si atom -5597.192344 kJ/mol
# Density = 2.171770 g / cm^3
# Si number density = 21.767239 Si / 1000 Ang^3
#
#
#
# Elastic Constant Matrix: (Units=GPa)
#
#
# Indices 1 2 3 4 5 6 
#
# 1 150.9679 58.3203 70.0966 0.0000 0.0000 0.0000
# 2 58.3203 159.0302 25.4396 0.0000 0.0000 0.0000
# 3 70.0966 25.4396 89.2410 0.0000 0.0000 0.0000
# 4 0.0000 0.0000 0.0000 38.8010 0.0000 0.0000
# 5 0.0000 0.0000 0.0000 0.0000 134.9235 0.0000
# 6 0.0000 0.0000 0.0000 0.0000 0.0000 51.0737
#
#
#
# Elastic Compliance Matrix: (Units=1/GPa)
#
#
# Indices 1 2 3 4 5 6 
#
# 1 0.011598 -0.002929 -0.008275 0.000000 0.000000 0.000000
# 2 -0.002929 0.007329 0.000212 0.000000 0.000000 0.000000
# 3 -0.008275 0.000212 0.017645 0.000000 0.000000 0.000000
# 4 0.000000 0.000000 0.000000 0.025773 0.000000 0.000000
# 5 0.000000 0.000000 0.000000 0.000000 0.007412 0.000000
# 6 0.000000 0.000000 0.000000 0.000000 0.000000 0.019580
#
#
# Mechanical properties :
#
#
# Convention : Reuss Voigt Hill
#
# Bulk Modulus (GPa) = 68.55616 78.55025 73.55320
# Shear Modulus (GPa) = 43.03635 61.31846 52.17741
#
# Velocity S-wave (km/s) = 4.45130 5.31331 4.90129
# Velocity P-wave (km/s) = 7.61461 8.59107 8.11753
#
# Compressibility (1/GPa) = 0.01458658
#
# Stress axis : x y z
#
# Youngs Moduli (GPa) = 86.22482 136.45311 56.67441
#
# Poissons Ratio (x) = 0.39974 0.46895
# Poissons Ratio (y) = 0.25259 -0.01201
# Poissons Ratio (z) = 0.71347 -0.02892
#
# Static dielectric constant tensor:
#      x y z
#    x 1.701310 0.000000 0.000000 
#    y 0.000000 1.735710 0.000000 
#    z 0.000000 0.000000 1.811870 
# 
# From -- ./inp_files/19710.got.cif
#   From: 2010.05.17/outbox.cif.g08.bks.cpg/sg37_10_cif.got.tgz:19710.got - 2010.06.03 17:53:42.
