data_PCOD9354086
_publ_section_title
;
Structure prediction by ZEFSAII (Michael W. Deem and Ramdas Pophale) SiO2 
 PCOD9354086
Probable space group: C C C 2
;
_chemical_formula_sum "Si O2"
_cell_formula_units_Z 48
_cell_length_a 11.339386
_cell_length_b 12.088870
_cell_length_c 13.702789
_cell_angle_alpha 90.000000
_cell_angle_beta 90.000000
_cell_angle_gamma 90.000000
_cell_volume 1878.383293
_symmetry_space_group_name_H-M "C C C 2"
_symmetry_group_IT_number 37
_symmetry_cell_setting 'orthorhombic'
loop_
_space_group_symop_operation_xyz
x,y,z
-x,-y,z
-x,y,1/2+z
x,-y,1/2+z
1/2+x,1/2+y,z
1/2-x,1/2-y,z
1/2-x,1/2+y,1/2+z
1/2+x,1/2-y,1/2+z
loop_
_atom_site_type_symbol
_atom_site_label
_atom_site_fract_x
_atom_site_fract_y
_atom_site_fract_z
Si Si1 0.517251 0.189028 0.785520
Si Si2 0.873641 0.008805 0.975280
Si Si3 0.671151 0.990785 0.735517
Si Si4 0.085453 0.897534 0.178784
Si Si5 0.121720 0.235631 0.958494
Si Si6 0.872242 0.526989 0.011272
O O1 0.417725 0.094450 0.784707
O O2 0.475993 0.283693 0.709565
O O3 0.491733 0.251202 0.888392
O O4 0.635898 0.117993 0.764250
O O5 0.736612 0.015002 0.943830
O O6 0.883465 0.095439 0.063494
O O7 0.872152 0.880908 0.012737
O O8 0.000000 0.000000 0.919680
O O9 0.800918 0.936815 0.741234
O O10 0.642762 0.980369 0.619387
O O11 0.000000 0.000000 0.192306
O O12 0.250000 0.250000 0.904579
O O13 0.123455 0.341548 0.025975
O O14 0.000000 0.500000 0.971084
#
# Coordination Sequence:
#
# PCOD9354086 Si02
#       6
#     8   8   8   8   8   8
#     4  11  22  40  64  95 130 175 216 275 337 399
#     4   9  21  39  61  90 124 167 209 260 327 403
#     4  10  22  39  63  97 128 168 227 270 324 407
#     4  10  22  38  64  93 130 171 216 271 333 396
#     4  10  22  39  62  88 126 171 211 262 337 401
#     4  10  20  37  62  92 121 160 216 268 311 384
#
# _framework density 25.553889000000002
#
# number of rings (size 3 to 8) (size 9 to 14) (size 15 to 20)
#    0.000    2.000    1.667    1.500    7.000    1.333 
#    0.000    0.833    3.667    0.000    0.000    0.000 
#    0.000    0.000    0.000    0.000    0.000    0.000 
#
# Total GULP energy -133712.877425 kJ/mol
# GULP energy per Si atom -5571.369893 kJ/mol
# Density = 2.549573 g / cm^3
# Si number density = 25.553889 Si / 1000 Ang^3
#
#
#
# Elastic Constant Matrix: (Units=GPa)
#
#
# Indices 1 2 3 4 5 6 
#
# 1 154.0093 18.7437 -2.6531 0.0000 0.0000 0.0000
# 2 18.7437 138.6062 17.9792 0.0000 0.0000 0.0000
# 3 -2.6531 17.9792 72.7220 0.0000 0.0000 0.0000
# 4 0.0000 0.0000 0.0000 44.6519 0.0000 0.0000
# 5 0.0000 0.0000 0.0000 0.0000 21.1421 0.0000
# 6 0.0000 0.0000 0.0000 0.0000 0.0000 38.2556
#
#
#
# Elastic Compliance Matrix: (Units=1/GPa)
#
#
# Indices 1 2 3 4 5 6 
#
# 1 0.006618 -0.000957 0.000478 0.000000 0.000000 0.000000
# 2 -0.000957 0.007592 -0.001912 0.000000 0.000000 0.000000
# 3 0.000478 -0.001912 0.014241 0.000000 0.000000 0.000000
# 4 0.000000 0.000000 0.000000 0.022395 0.000000 0.000000
# 5 0.000000 0.000000 0.000000 0.000000 0.047299 0.000000
# 6 0.000000 0.000000 0.000000 0.000000 0.000000 0.026140
#
#
# Mechanical properties :
#
#
# Convention : Reuss Voigt Hill
#
# Bulk Modulus (GPa) = 42.24870 48.16413 45.20641
# Shear Modulus (GPa) = 36.50783 42.89444 39.70114
#
# Velocity S-wave (km/s) = 3.78386 4.10150 3.94588
# Velocity P-wave (km/s) = 5.97154 6.42796 6.20395
#
# Compressibility (1/GPa) = 0.02366937
#
# Stress axis : x y z
#
# Youngs Moduli (GPa) = 151.10730 131.71599 70.21913
#
# Poissons Ratio (x) = 0.12604 -0.03357
# Poissons Ratio (y) = 0.14460 0.13425
# Poissons Ratio (z) = -0.07223 0.25183
#
# Static dielectric constant tensor:
#      x y z
#    x 2.198430 0.000000 0.000000 
#    y 0.000000 1.951190 0.000000 
#    z 0.000000 0.000000 2.076980 
# 
# From -- ./inp_files/14998.got.cif
#   From: 2010.05.17/outbox.cif.g08.bks.cpg/sg37_8_cif.got.tgz:14998.got - 2010.06.03 17:53:42.
