data_PCOD9354884
_publ_section_title
;
Structure prediction by ZEFSAII (Michael W. Deem and Ramdas Pophale) SiO2 
 PCOD9354884
Probable space group: C C C 2
;
_chemical_formula_sum "Si O2"
_cell_formula_units_Z 56
_cell_length_a 20.258980
_cell_length_b 8.515822
_cell_length_c 14.960699
_cell_angle_alpha 90.000000
_cell_angle_beta 90.000000
_cell_angle_gamma 90.000000
_cell_volume 2581.047732
_symmetry_space_group_name_H-M "C C C 2"
_symmetry_group_IT_number 37
_symmetry_cell_setting 'orthorhombic'
loop_
_space_group_symop_operation_xyz
x,y,z
-x,-y,z
-x,y,1/2+z
x,-y,1/2+z
1/2+x,1/2+y,z
1/2-x,1/2-y,z
1/2-x,1/2+y,1/2+z
1/2+x,1/2-y,1/2+z
loop_
_atom_site_type_symbol
_atom_site_label
_atom_site_fract_x
_atom_site_fract_y
_atom_site_fract_z
Si Si1 0.622709 0.597429 0.264380
Si Si2 0.939315 0.096011 0.406746
Si Si3 0.779566 0.577383 0.620044
Si Si4 0.761983 0.440540 0.313851
Si Si5 0.360916 0.982957 0.476572
Si Si6 0.965982 0.362469 0.854160
Si Si7 0.656301 0.632572 0.059768
O O1 0.579514 0.458661 0.307392
O O2 0.695882 0.546187 0.299876
O O3 0.586812 0.750224 0.305426
O O4 0.623943 0.610304 0.157395
O O5 0.879569 0.059283 0.473512
O O6 0.972597 0.263242 0.392832
O O7 0.000000 0.000000 0.444965
O O8 0.750000 0.750000 0.630009
O O9 0.798610 0.527504 0.719880
O O10 0.839697 0.598793 0.554419
O O11 0.727125 0.451992 0.577434
O O12 0.750000 0.250000 0.322252
O O13 0.806661 0.483529 0.397437
O O14 0.352919 0.813884 0.526978
O O15 0.426374 0.051748 0.433097
O O16 0.000000 0.500000 0.796267
#
# Coordination Sequence:
#
# PCOD9354884 Si02
#       7
#     8   8   8   8   8   8   8
#     4  10  24  44  73 102 137 187 239 299 361 432
#     4  10  22  42  68  93 138 181 241 289 349 420
#     4  10  24  40  64 103 134 169 230 283 356 434
#     4  10  22  42  68 101 134 174 222 290 366 431
#     4  12  24  40  71  96 141 182 223 293 359 418
#     4  11  25  45  64 101 140 190 245 291 348 420
#     4  11  23  45  69 102 138 182 233 290 364 436
#
# _framework density 21.696615999999999
#
# number of rings (size 3 to 8) (size 9 to 14) (size 15 to 20)
#    0.000    1.429    1.429    3.000    8.000    1.714 
#    2.571    0.000    0.000    0.000    0.000    0.000 
#    0.000    0.000    0.000    0.000    0.000    0.000 
#
# Total GULP energy -155869.347559 kJ/mol
# GULP energy per Si atom -5566.762413 kJ/mol
# Density = 2.164723 g / cm^3
# Si number density = 21.696616 Si / 1000 Ang^3
#
#
#
# Elastic Constant Matrix: (Units=GPa)
#
#
# Indices 1 2 3 4 5 6 
#
# 1 56.8061 27.0265 53.4936 0.0000 0.0000 0.0000
# 2 27.0265 83.1978 36.8852 0.0000 0.0000 0.0000
# 3 53.4936 36.8852 153.9805 0.0000 0.0000 0.0000
# 4 0.0000 0.0000 0.0000 21.8694 0.0000 0.0000
# 5 0.0000 0.0000 0.0000 0.0000 27.7631 0.0000
# 6 0.0000 0.0000 0.0000 0.0000 0.0000 13.0199
#
#
#
# Elastic Compliance Matrix: (Units=1/GPa)
#
#
# Indices 1 2 3 4 5 6 
#
# 1 0.028164 -0.005383 -0.008495 0.000000 0.000000 0.000000
# 2 -0.005383 0.014476 -0.001598 0.000000 0.000000 0.000000
# 3 -0.008495 -0.001598 0.009828 0.000000 0.000000 0.000000
# 4 0.000000 0.000000 0.000000 0.045726 0.000000 0.000000
# 5 0.000000 0.000000 0.000000 0.000000 0.036019 0.000000
# 6 0.000000 0.000000 0.000000 0.000000 0.000000 0.076806
#
#
# Mechanical properties :
#
#
# Convention : Reuss Voigt Hill
#
# Bulk Modulus (GPa) = 46.47293 58.75501 52.61397
# Shear Modulus (GPa) = 20.06875 24.30242 22.18558
#
# Velocity S-wave (km/s) = 3.04463 3.35042 3.20118
# Velocity P-wave (km/s) = 5.81598 6.48893 6.16165
#
# Compressibility (1/GPa) = 0.02151790
#
# Stress axis : x y z
#
# Youngs Moduli (GPa) = 35.50589 69.07754 101.74738
#
# Poissons Ratio (x) = 0.37183 0.86434
# Poissons Ratio (y) = 0.19112 0.16257
# Poissons Ratio (z) = 0.30162 0.11037
#
# Static dielectric constant tensor:
#      x y z
#    x 1.817280 0.000000 0.000000 
#    y 0.000000 1.972230 0.000000 
#    z 0.000000 0.000000 1.776750 
# 
# From -- ./inp_files/12920.got.cif
#   From: 2010.05.17/outbox.cif.g08.bks.cpg/sg37_7_cif.got.tgz:12920.got - 2010.06.03 17:53:42.
