data_PCOD9354259
_publ_section_title
;
Structure prediction by ZEFSAII (Michael W. Deem and Ramdas Pophale) SiO2 
 PCOD9354259
Probable space group: C C C 2
;
_chemical_formula_sum "Si O2"
_cell_formula_units_Z 36
_cell_length_a 12.454479
_cell_length_b 8.953360
_cell_length_c 14.099008
_cell_angle_alpha 90.000000
_cell_angle_beta 90.000000
_cell_angle_gamma 90.000000
_cell_volume 1572.172403
_symmetry_space_group_name_H-M "C C C 2"
_symmetry_group_IT_number 37
_symmetry_cell_setting 'orthorhombic'
loop_
_space_group_symop_operation_xyz
x,y,z
-x,-y,z
-x,y,1/2+z
x,-y,1/2+z
1/2+x,1/2+y,z
1/2-x,1/2-y,z
1/2-x,1/2+y,1/2+z
1/2+x,1/2-y,1/2+z
loop_
_atom_site_type_symbol
_atom_site_label
_atom_site_fract_x
_atom_site_fract_y
_atom_site_fract_z
Si Si1 0.368764 0.820134 0.688440
Si Si2 0.250000 0.250000 0.892113
Si Si3 0.712385 0.904689 0.589986
Si Si4 0.122630 0.547384 0.884273
Si Si5 0.410043 0.607444 0.537871
O O1 0.250000 0.750000 0.673313
O O2 0.384049 0.832412 0.799996
O O3 0.444883 0.717375 0.623438
O O4 0.366830 0.988000 0.647627
O O5 0.201316 0.407685 0.852138
O O6 0.349618 0.297137 0.958949
O O7 0.750000 0.750000 0.634241
O O8 0.667104 0.888625 0.483214
O O9 0.821584 0.996745 0.579380
O O10 0.000000 0.500000 0.900403
O O11 0.500000 0.500000 0.497680
#
# Coordination Sequence:
#
# PCOD9354259 Si02
#       5
#     8   4   8   8   8
#     4  10  21  44  61  94 138 165 221 282 319 406
#     4  10  22  48  62 102 136 170 226 290 312 412
#     4  10  22  39  66  95 126 170 214 275 332 390
#     4  11  24  40  65  94 135 171 218 275 338 392
#     4  10  20  41  70  91 128 175 221 269 338 390
#
# _framework density 22.898251999999999
#
# number of rings (size 3 to 8) (size 9 to 14) (size 15 to 20)
#    0.000    1.778    5.556    0.667    4.667    2.667 
#    4.000    0.000    0.000    0.000    0.000    0.000 
#    0.000    0.000    0.000    0.000    0.000    0.000 
#
# Total GULP energy -100443.377608 kJ/mol
# GULP energy per Si atom -5580.187645 kJ/mol
# Density = 2.284613 g / cm^3
# Si number density = 22.898252 Si / 1000 Ang^3
#
#
#
# Elastic Constant Matrix: (Units=GPa)
#
#
# Indices 1 2 3 4 5 6 
#
# 1 65.1342 14.2097 7.3504 0.0000 0.0000 0.0000
# 2 14.2097 61.9906 24.9755 0.0000 0.0000 0.0000
# 3 7.3504 24.9755 75.4841 0.0000 0.0000 0.0000
# 4 0.0000 0.0000 0.0000 -49.6743 0.0000 0.0000
# 5 0.0000 0.0000 0.0000 0.0000 -15.4923 0.0000
# 6 0.0000 0.0000 0.0000 0.0000 0.0000 35.7816
#
#
#
# Elastic Compliance Matrix: (Units=1/GPa)
#
#
# Indices 1 2 3 4 5 6 
#
# 1 0.016172 -0.003545 -0.000402 0.000000 0.000000 0.000000
# 2 -0.003545 0.019390 -0.006070 0.000000 0.000000 0.000000
# 3 -0.000402 -0.006070 0.015295 0.000000 0.000000 0.000000
# 4 0.000000 0.000000 0.000000 -0.020131 0.000000 0.000000
# 5 0.000000 0.000000 0.000000 0.000000 -0.064548 0.000000
# 6 0.000000 0.000000 0.000000 0.000000 0.000000 0.027947
#
#
# Mechanical properties :
#
#
# Convention : Reuss Voigt Hill
#
# Bulk Modulus (GPa) = 32.44374 32.85333 32.64854
# Shear Modulus (GPa) = 204.63701 4.52786 104.58244
#
# Velocity S-wave (km/s) = 9.46372 1.40772 6.76549
# Velocity P-wave (km/s) = 11.55921 4.12564 8.67860
#
# Compressibility (1/GPa) = 0.03082258
#
# Stress axis : x y z
#
# Youngs Moduli (GPa) = 61.83659 51.57362 65.37903
#
# Poissons Ratio (x) = 0.18283 0.02627
# Poissons Ratio (y) = 0.21921 0.39687
# Poissons Ratio (z) = 0.02485 0.31307
#
# Static dielectric constant tensor:
#      x y z
#    x 1.985600 0.000000 0.000000 
#    y 0.000000 2.075680 0.000000 
#    z 0.000000 0.000000 1.856350 
# 
# From -- ./inp_files/11941.got.cif
#   From: 2010.05.17/outbox.cif.g08.bks.cpg/sg37_6_cif.got.tgz:11941.got - 2010.06.03 17:53:42.
