data_PCOD9354125
_publ_section_title
;
Structure prediction by ZEFSAII (Michael W. Deem and Ramdas Pophale) SiO2 
 PCOD9354125
Probable space group: C C C 2
;
_chemical_formula_sum "Si O2"
_cell_formula_units_Z 64
_cell_length_a 8.726303
_cell_length_b 15.638484
_cell_length_c 23.720500
_cell_angle_alpha 90.000000
_cell_angle_beta 90.000000
_cell_angle_gamma 90.000000
_cell_volume 3237.045307
_symmetry_space_group_name_H-M "C C C 2"
_symmetry_group_IT_number 37
_symmetry_cell_setting 'orthorhombic'
loop_
_space_group_symop_operation_xyz
x,y,z
-x,-y,z
-x,y,1/2+z
x,-y,1/2+z
1/2+x,1/2+y,z
1/2-x,1/2-y,z
1/2-x,1/2+y,1/2+z
1/2+x,1/2-y,1/2+z
loop_
_atom_site_type_symbol
_atom_site_label
_atom_site_fract_x
_atom_site_fract_y
_atom_site_fract_z
Si Si1 0.066107 0.250810 0.224400
Si Si2 0.503952 0.140705 0.118808
Si Si3 0.752121 0.998852 0.619208
Si Si4 0.649035 0.835554 0.809641
Si Si5 0.914959 0.590102 0.931379
Si Si6 0.392955 0.570903 0.504073
Si Si7 0.432513 0.240444 0.005797
Si Si8 0.396121 0.428330 0.733787
O O1 0.250000 0.250000 0.218771
O O2 0.983881 0.298359 0.172323
O O3 0.004498 0.302118 0.278877
O O4 0.001018 0.154985 0.225134
O O5 0.652597 0.084922 0.103382
O O6 0.456508 0.197755 0.066092
O O7 0.370046 0.073110 0.133058
O O8 0.842863 0.970270 0.674725
O O9 0.845471 0.037247 0.566476
O O10 0.750000 0.750000 0.820391
O O11 0.617511 0.884035 0.867419
O O12 0.748511 0.896140 0.768366
O O13 0.760118 0.578842 0.967517
O O14 0.000000 0.500000 0.935461
O O15 0.995571 0.672704 0.960568
O O16 0.500000 0.500000 0.477430
O O17 0.482047 0.661109 0.506069
O O18 0.250000 0.250000 0.995954
O O19 0.500000 0.500000 0.763834
#
# Coordination Sequence:
#
# PCOD9354125 Si02
#       8
#     8   8   8   8   8   8   8   8
#     4  11  24  41  65  97 132 177 224 274 343 413
#     4  11  21  36  61  91 131 169 218 267 335 397
#     4  11  22  37  59  91 134 170 217 276 327 403
#     4  10  23  46  67  94 129 178 222 284 335 403
#     4  11  23  44  71  91 128 172 228 273 338 403
#     4  11  24  40  62  98 131 170 223 274 335 400
#     4  10  20  38  62  91 125 172 211 263 332 391
#     4  11  24  41  62  94 136 174 220 276 341 397
#
# _framework density 19.771117
#
# number of rings (size 3 to 8) (size 9 to 14) (size 15 to 20)
#    0.000    1.250    3.750    3.375    3.500    2.500 
#    0.000    4.375    0.000    0.000    0.000    0.000 
#    0.000    0.000    0.000    0.000    0.000    0.000 
#
# Total GULP energy -178667.443041 kJ/mol
# GULP energy per Si atom -5583.357595 kJ/mol
# Density = 1.972612 g / cm^3
# Si number density = 19.771117 Si / 1000 Ang^3
#
#
#
# Elastic Constant Matrix: (Units=GPa)
#
#
# Indices 1 2 3 4 5 6 
#
# 1 35.3012 44.5964 21.9021 0.0000 0.0000 0.0000
# 2 44.5964 176.5542 64.1237 0.0000 0.0000 0.0000
# 3 21.9021 64.1237 115.2976 0.0000 0.0000 0.0000
# 4 0.0000 0.0000 0.0000 18.7126 0.0000 0.0000
# 5 0.0000 0.0000 0.0000 0.0000 -237.7634 0.0000
# 6 0.0000 0.0000 0.0000 0.0000 0.0000 22.4968
#
#
#
# Elastic Compliance Matrix: (Units=1/GPa)
#
#
# Indices 1 2 3 4 5 6 
#
# 1 0.042225 -0.009715 -0.002618 0.000000 0.000000 0.000000
# 2 -0.009715 0.009333 -0.003345 0.000000 0.000000 0.000000
# 3 -0.002618 -0.003345 0.011031 0.000000 0.000000 0.000000
# 4 0.000000 0.000000 0.000000 0.053440 0.000000 0.000000
# 5 0.000000 0.000000 0.000000 0.000000 -0.004206 0.000000
# 6 0.000000 0.000000 0.000000 0.000000 0.000000 0.044451
#
#
# Mechanical properties :
#
#
# Convention : Reuss Voigt Hill
#
# Bulk Modulus (GPa) = 32.01781 65.37747 48.69764
# Shear Modulus (GPa) = 25.24737 -26.20876 -0.48069
#
# Velocity S-wave (km/s) = 3.57737 -3.64484 -0.49362
# Velocity P-wave (km/s) = 5.76999 3.92757 4.93551
#
# Compressibility (1/GPa) = 0.03123262
#
# Stress axis : x y z
#
# Youngs Moduli (GPa) = 23.68269 107.14903 90.65414
#
# Poissons Ratio (x) = 1.04094 0.23734
# Poissons Ratio (y) = 0.23007 0.30324
# Poissons Ratio (z) = 0.06200 0.35842
#
# Static dielectric constant tensor:
#      x y z
#    x 1.786960 0.000000 0.000000 
#    y 0.000000 1.737660 0.000000 
#    z 0.000000 0.000000 1.678750 
# 
# From -- ./inp_files/18519.got.cif
#   From: 2010.05.17/outbox.cif.g08.bks.cpg/sg37_10_cif.got.tgz:18519.got - 2010.06.03 17:53:42.
