data_PCOD9354227
_publ_section_title
;
Structure prediction by ZEFSAII (Michael W. Deem and Ramdas Pophale) SiO2 
 PCOD9354227
Probable space group: C C C 2
;
_chemical_formula_sum "Si O2"
_cell_formula_units_Z 60
_cell_length_a 12.213494
_cell_length_b 7.917348
_cell_length_c 26.802983
_cell_angle_alpha 90.000000
_cell_angle_beta 90.000000
_cell_angle_gamma 90.000000
_cell_volume 2591.807777
_symmetry_space_group_name_H-M "C C C 2"
_symmetry_group_IT_number 37
_symmetry_cell_setting 'orthorhombic'
loop_
_space_group_symop_operation_xyz
x,y,z
-x,-y,z
-x,y,1/2+z
x,-y,1/2+z
1/2+x,1/2+y,z
1/2-x,1/2-y,z
1/2-x,1/2+y,1/2+z
1/2+x,1/2-y,1/2+z
loop_
_atom_site_type_symbol
_atom_site_label
_atom_site_fract_x
_atom_site_fract_y
_atom_site_fract_z
Si Si1 0.665157 0.884856 0.617060
Si Si2 0.500000 0.500000 0.759475
Si Si3 0.926775 0.253477 0.595218
Si Si4 0.398053 0.633775 0.906882
Si Si5 0.308436 0.576505 0.683792
Si Si6 0.499594 0.166878 0.322597
Si Si7 0.531158 0.813140 0.989652
Si Si8 0.313262 0.093158 0.900876
O O1 0.750000 0.750000 0.593083
O O2 0.546003 0.800253 0.617228
O O3 0.644562 0.072456 0.594315
O O4 0.719520 0.935389 0.669877
O O5 0.395574 0.530929 0.724937
O O6 0.473065 0.333771 0.791655
O O7 0.871339 0.120481 0.631877
O O8 0.941102 0.202310 0.537646
O O9 0.500000 0.500000 0.902090
O O10 0.405233 0.754254 0.858682
O O11 0.433275 0.738824 0.955868
O O12 0.280059 0.546364 0.909533
O O13 0.250000 0.750000 0.698981
O O14 0.588190 0.090859 0.361709
O O15 0.500000 0.000000 0.287381
O O16 0.631737 0.845874 0.952436
O O17 0.500000 0.000000 0.008156
O O18 0.250000 0.250000 0.878618
#
# Coordination Sequence:
#
# PCOD9354227 Si02
#       8
#     8   4   8   8   8   8   8   8
#     4  10  20  40  67  96 128 182 233 286 361 417
#     4  12  24  54  74 110 148 172 260 314 370 466
#     4  10  22  45  64  94 148 181 240 299 343 428
#     4  11  21  44  67 101 148 186 234 291 356 433
#     4  10  24  47  72 101 138 188 233 303 376 428
#     4  11  25  48  74 105 143 188 233 305 376 437
#     4  11  23  40  60 103 140 186 242 289 336 424
#     4  11  21  41  70 100 143 194 229 288 361 426
#
# _framework density 23.149864000000001
#
# number of rings (size 3 to 8) (size 9 to 14) (size 15 to 20)
#    0.000    1.333    4.667    2.400    0.000    4.800 
#   18.000    1.333    0.000    0.000    0.000    0.000 
#    0.000    0.000    0.000    0.000    0.000    0.000 
#
# Total GULP energy -167378.055838 kJ/mol
# GULP energy per Si atom -5579.268528 kJ/mol
# Density = 2.309717 g / cm^3
# Si number density = 23.149864 Si / 1000 Ang^3
#
#
#
# Elastic Constant Matrix: (Units=GPa)
#
#
# Indices 1 2 3 4 5 6 
#
# 1 159.8949 46.8835 55.9998 0.0000 0.0000 0.0000
# 2 46.8835 130.9247 46.2866 0.0000 0.0000 0.0000
# 3 55.9998 46.2866 107.3479 0.0000 0.0000 0.0000
# 4 0.0000 0.0000 0.0000 90.3916 0.0000 0.0000
# 5 0.0000 0.0000 0.0000 0.0000 8.0985 0.0000
# 6 0.0000 0.0000 0.0000 0.0000 0.0000 42.3007
#
#
#
# Elastic Compliance Matrix: (Units=1/GPa)
#
#
# Indices 1 2 3 4 5 6 
#
# 1 0.007935 -0.001626 -0.003438 0.000000 0.000000 0.000000
# 2 -0.001626 0.009345 -0.003181 0.000000 0.000000 0.000000
# 3 -0.003438 -0.003181 0.012481 0.000000 0.000000 0.000000
# 4 0.000000 0.000000 0.000000 0.011063 0.000000 0.000000
# 5 0.000000 0.000000 0.000000 0.000000 0.123479 0.000000
# 6 0.000000 0.000000 0.000000 0.000000 0.000000 0.023640
#
#
# Mechanical properties :
#
#
# Convention : Reuss Voigt Hill
#
# Bulk Modulus (GPa) = 75.35876 77.38971 76.37423
# Shear Modulus (GPa) = 23.93980 44.75801 34.34890
#
# Velocity S-wave (km/s) = 3.21927 4.40182 3.85614
# Velocity P-wave (km/s) = 6.81480 7.70306 7.27250
#
# Compressibility (1/GPa) = 0.01326986
#
# Stress axis : x y z
#
# Youngs Moduli (GPa) = 126.02273 107.01061 80.12262
#
# Poissons Ratio (x) = 0.17399 0.27549
# Poissons Ratio (y) = 0.20490 0.25488
# Poissons Ratio (z) = 0.43332 0.34042
#
# Static dielectric constant tensor:
#      x y z
#    x 2.007560 0.000000 0.000000 
#    y 0.000000 2.088630 0.000000 
#    z 0.000000 0.000000 1.876750 
# 
# From -- ./inp_files/19785.got.cif
#   From: 2010.05.17/outbox.cif.g08.bks.cpg/sg37_10_cif.got.tgz:19785.got - 2010.06.03 17:53:42.
