data_PCOD9354417
_publ_section_title
;
Structure prediction by ZEFSAII (Michael W. Deem and Ramdas Pophale) SiO2 
 PCOD9354417
Probable space group: C C C 2
;
_chemical_formula_sum "Si O2"
_cell_formula_units_Z 56
_cell_length_a 22.872529
_cell_length_b 4.854390
_cell_length_c 23.707591
_cell_angle_alpha 90.000000
_cell_angle_beta 90.000000
_cell_angle_gamma 90.000000
_cell_volume 2632.305418
_symmetry_space_group_name_H-M "C C C 2"
_symmetry_group_IT_number 37
_symmetry_cell_setting 'orthorhombic'
loop_
_space_group_symop_operation_xyz
x,y,z
-x,-y,z
-x,y,1/2+z
x,-y,1/2+z
1/2+x,1/2+y,z
1/2-x,1/2-y,z
1/2-x,1/2+y,1/2+z
1/2+x,1/2-y,1/2+z
loop_
_atom_site_type_symbol
_atom_site_label
_atom_site_fract_x
_atom_site_fract_y
_atom_site_fract_z
Si Si1 0.345224 0.577523 0.399390
Si Si2 0.685959 0.656263 0.116590
Si Si3 0.290438 0.026194 0.233058
Si Si4 0.349185 0.876790 0.051995
Si Si5 0.000000 0.500000 0.378772
Si Si6 0.250000 0.750000 0.964546
Si Si7 0.444219 0.617729 0.975382
Si Si8 0.875985 0.445863 0.830184
O O1 0.287637 0.458605 0.427471
O O2 0.396870 0.581128 0.445932
O O3 0.339040 0.879473 0.375332
O O4 0.366739 0.370093 0.349468
O O5 0.750000 0.750000 0.094938
O O6 0.672247 0.341275 0.100724
O O7 0.688745 0.790035 0.179074
O O8 0.640947 0.832192 0.080678
O O9 0.250000 0.750000 0.221813
O O10 0.347156 0.976395 0.270808
O O11 0.250000 0.250000 0.265509
O O12 0.297881 0.886447 0.005673
O O13 0.406129 0.790963 0.018266
O O14 0.974312 0.723323 0.422722
O O15 0.942961 0.456074 0.339535
O O16 0.500000 0.500000 0.006839
#
# Coordination Sequence:
#
# PCOD9354417 Si02
#       8
#     8   8   8   8   4   4   8   8
#     4  10  23  35  58  88 129 156 202 246 306 375
#     4  11  21  41  61  91 121 161 204 260 315 381
#     4  11  24  41  67  94 124 161 210 265 327 376
#     4  11  23  36  63  89 123 161 209 250 313 374
#     4  10  22  42  64  84 130 170 216 244 312 378
#     4  10  22  36  54  92 124 162 190 250 302 384
#     4  10  21  38  60  88 122 169 207 249 302 379
#     4  11  23  40  62  90 120 171 204 255 307 376
#
# _framework density 21.274128000000001
#
# number of rings (size 3 to 8) (size 9 to 14) (size 15 to 20)
#    0.000    1.429    2.857    2.571    5.000    4.571 
#    0.000    0.000    3.143    0.000    0.000    0.000 
#    0.000    0.000    0.000    0.000    0.000    0.000 
#
# Total GULP energy -156213.131390 kJ/mol
# GULP energy per Si atom -5579.040407 kJ/mol
# Density = 2.122571 g / cm^3
# Si number density = 21.274128 Si / 1000 Ang^3
#
#
#
# Elastic Constant Matrix: (Units=GPa)
#
#
# Indices 1 2 3 4 5 6 
#
# 1 141.4312 9.6834 48.3255 0.0000 0.0000 0.0000
# 2 9.6834 70.2480 7.0805 0.0000 0.0000 0.0000
# 3 48.3255 7.0805 73.0807 0.0000 0.0000 0.0000
# 4 0.0000 0.0000 0.0000 8.7858 0.0000 0.0000
# 5 0.0000 0.0000 0.0000 0.0000 -4.0834 0.0000
# 6 0.0000 0.0000 0.0000 0.0000 0.0000 23.4511
#
#
#
# Elastic Compliance Matrix: (Units=1/GPa)
#
#
# Indices 1 2 3 4 5 6 
#
# 1 0.009165 -0.000659 -0.005996 0.000000 0.000000 0.000000
# 2 -0.000659 0.014423 -0.000962 0.000000 0.000000 0.000000
# 3 -0.005996 -0.000962 0.017742 0.000000 0.000000 0.000000
# 4 0.000000 0.000000 0.000000 0.113820 0.000000 0.000000
# 5 0.000000 0.000000 0.000000 0.000000 -0.244897 0.000000
# 6 0.000000 0.000000 0.000000 0.000000 0.000000 0.042642
#
#
# Mechanical properties :
#
#
# Convention : Reuss Voigt Hill
#
# Bulk Modulus (GPa) = 38.32065 46.10428 42.21247
# Shear Modulus (GPa) = -215.76712 20.27541 -97.74586
#
# Velocity S-wave (km/s) = -10.08179 3.09051 -6.78569
# Velocity P-wave (km/s) = 10.83842 5.86972 6.44274
#
# Compressibility (1/GPa) = 0.02609559
#
# Stress axis : x y z
#
# Youngs Moduli (GPa) = 109.11577 69.33351 56.36394
#
# Poissons Ratio (x) = 0.04568 0.33798
# Poissons Ratio (y) = 0.07190 0.05420
# Poissons Ratio (z) = 0.65430 0.06668
#
# Static dielectric constant tensor:
#      x y z
#    x 1.822460 0.000000 0.000000 
#    y 0.000000 1.864510 0.000000 
#    z 0.000000 0.000000 1.812870 
# 
# From -- ./inp_files/19051.got.cif
#   From: 2010.05.17/outbox.cif.g08.bks.cpg/sg37_10_cif.got.tgz:19051.got - 2010.06.03 17:53:42.
