data_PCOD9354324
_publ_section_title
;
Structure prediction by ZEFSAII (Michael W. Deem and Ramdas Pophale) SiO2 
 PCOD9354324
Probable space group: C C C 2
;
_chemical_formula_sum "Si O2"
_cell_formula_units_Z 32
_cell_length_a 12.566147
_cell_length_b 7.317422
_cell_length_c 14.905723
_cell_angle_alpha 90.000000
_cell_angle_beta 90.000000
_cell_angle_gamma 90.000000
_cell_volume 1370.608068
_symmetry_space_group_name_H-M "C C C 2"
_symmetry_group_IT_number 37
_symmetry_cell_setting 'orthorhombic'
loop_
_space_group_symop_operation_xyz
x,y,z
-x,-y,z
-x,y,1/2+z
x,-y,1/2+z
1/2+x,1/2+y,z
1/2-x,1/2-y,z
1/2-x,1/2+y,1/2+z
1/2+x,1/2-y,1/2+z
loop_
_atom_site_type_symbol
_atom_site_label
_atom_site_fract_x
_atom_site_fract_y
_atom_site_fract_z
Si Si1 0.353115 0.859980 0.230680
Si Si2 0.916321 0.219996 0.714005
Si Si3 0.750000 0.250000 0.581184
Si Si4 0.000000 0.000000 0.377054
Si Si5 0.903820 0.357511 0.438947
O O1 0.250000 0.750000 0.201232
O O2 0.459273 0.756573 0.195804
O O3 0.356900 0.862510 0.339130
O O4 0.367556 0.075271 0.214635
O O5 0.838879 0.141129 0.638945
O O6 0.919908 0.107280 0.807539
O O7 0.816966 0.381197 0.515315
O O8 0.948701 0.152221 0.439279
O O9 0.000000 0.500000 0.446393
#
# Coordination Sequence:
#
# PCOD9354324 Si02
#       5
#     8   8   4   4   8
#     4  10  20  45  76  97 136 198 249 291 358 449
#     4  10  24  42  67 111 143 184 246 310 360 442
#     4  12  28  40  68 108 158 180 234 316 388 422
#     4  10  22  48  76  94 140 194 264 280 346 458
#     4  11  23  46  70 103 145 192 242 304 366 438
#
# _framework density 23.347304000000001
#
# number of rings (size 3 to 8) (size 9 to 14) (size 15 to 20)
#    0.000    1.500    6.250    0.000   10.500    1.000 
#    0.000    0.000    0.000    0.000    0.000    0.000 
#    0.000    0.000    0.000    0.000    0.000    0.000 
#
# Total GULP energy -89299.884777 kJ/mol
# GULP energy per Si atom -5581.242799 kJ/mol
# Density = 2.329416 g / cm^3
# Si number density = 23.347304 Si / 1000 Ang^3
#
#
#
# Elastic Constant Matrix: (Units=GPa)
#
#
# Indices 1 2 3 4 5 6 
#
# 1 190.7117 75.1135 75.6713 0.0000 0.0000 0.0000
# 2 75.1135 124.4611 6.9414 0.0000 0.0000 0.0000
# 3 75.6713 6.9414 71.6085 0.0000 0.0000 0.0000
# 4 0.0000 0.0000 0.0000 -2.1524 0.0000 0.0000
# 5 0.0000 0.0000 0.0000 0.0000 400.9987 0.0000
# 6 0.0000 0.0000 0.0000 0.0000 0.0000 37.3191
#
#
#
# Elastic Compliance Matrix: (Units=1/GPa)
#
#
# Indices 1 2 3 4 5 6 
#
# 1 0.013580 -0.007436 -0.013630 0.000000 0.000000 0.000000
# 2 -0.007436 0.012150 0.006680 0.000000 0.000000 0.000000
# 3 -0.013630 0.006680 0.027721 0.000000 0.000000 0.000000
# 4 0.000000 0.000000 0.000000 -0.464594 0.000000 0.000000
# 5 0.000000 0.000000 0.000000 0.000000 0.002494 0.000000
# 6 0.000000 0.000000 0.000000 0.000000 0.000000 0.026796
#
#
# Mechanical properties :
#
#
# Convention : Reuss Voigt Hill
#
# Bulk Modulus (GPa) = 40.52063 78.02597 59.27330
# Shear Modulus (GPa) = -14.49881 102.50343 44.00231
#
# Velocity S-wave (km/s) = -2.49470 6.63318 4.34601
# Velocity P-wave (km/s) = 3.01583 9.59988 7.11523
#
# Compressibility (1/GPa) = 0.02467879
#
# Stress axis : x y z
#
# Youngs Moduli (GPa) = 73.63618 82.30727 36.07424
#
# Poissons Ratio (x) = 0.61201 0.49169
# Poissons Ratio (y) = 0.54753 -0.24097
# Poissons Ratio (z) = 1.00366 -0.54980
#
# Static dielectric constant tensor:
#      x y z
#    x 1.036290 0.000000 0.000000 
#    y 0.000000 2.081500 0.000000 
#    z 0.000000 0.000000 2.000720 
# 
# From -- ./inp_files/14857.got.cif
#   From: 2010.05.17/outbox.cif.g08.bks.cpg/sg37_8_cif.got.tgz:14857.got - 2010.06.03 17:53:42.
