data_PCOD9354364
_publ_section_title
;
Structure prediction by ZEFSAII (Michael W. Deem and Ramdas Pophale) SiO2 
 PCOD9354364
Probable space group: C C C 2
;
_chemical_formula_sum "Si O2"
_cell_formula_units_Z 64
_cell_length_a 11.170081
_cell_length_b 11.531011
_cell_length_c 22.684494
_cell_angle_alpha 90.000000
_cell_angle_beta 90.000000
_cell_angle_gamma 90.000000
_cell_volume 2921.815611
_symmetry_space_group_name_H-M "C C C 2"
_symmetry_group_IT_number 37
_symmetry_cell_setting 'orthorhombic'
loop_
_space_group_symop_operation_xyz
x,y,z
-x,-y,z
-x,y,1/2+z
x,-y,1/2+z
1/2+x,1/2+y,z
1/2-x,1/2-y,z
1/2-x,1/2+y,1/2+z
1/2+x,1/2-y,1/2+z
loop_
_atom_site_type_symbol
_atom_site_label
_atom_site_fract_x
_atom_site_fract_y
_atom_site_fract_z
Si Si1 0.934149 0.384275 0.737030
Si Si2 0.703510 0.548473 0.307495
Si Si3 0.777449 0.617640 0.570752
Si Si4 0.054819 0.175573 0.795818
Si Si5 0.974505 0.381597 0.516435
Si Si6 0.799933 0.380709 0.618028
Si Si7 0.943555 0.820519 0.927654
Si Si8 0.810048 0.958969 0.441178
O O1 0.805656 0.387670 0.770281
O O2 0.897340 0.393625 0.669088
O O3 0.000000 0.500000 0.756885
O O4 0.023174 0.277798 0.750818
O O5 0.574873 0.611726 0.300783
O O6 0.662372 0.418010 0.286877
O O7 0.747689 0.551366 0.375968
O O8 0.750000 0.750000 0.589183
O O9 0.734093 0.508543 0.611523
O O10 0.737051 0.595915 0.502090
O O11 0.920604 0.618083 0.564680
O O12 0.078886 0.222644 0.861671
O O13 0.854608 0.376342 0.553139
O O14 0.972939 0.278794 0.472233
O O15 0.000000 0.500000 0.482085
O O16 0.750000 0.250000 0.628850
O O17 0.063261 0.897409 0.929117
O O18 0.837083 0.904615 0.948366
#
# Coordination Sequence:
#
# PCOD9354364 Si02
#       8
#     8   8   8   8   8   8   8   8
#     4  12  25  43  67  90 130 172 218 278 345 394
#     4   9  20  40  64  97 127 167 222 273 324 410
#     4  11  21  37  62  98 127 167 214 269 329 388
#     4   9  20  39  65  93 128 169 220 271 328 398
#     4  10  21  36  58  86 127 159 204 259 318 383
#     4  11  25  47  65  86 123 177 220 271 329 395
#     4   9  17  34  57  91 126 166 207 259 316 388
#     4   9  18  33  60  90 129 162 207 262 319 388
#
# _framework density 21.904188999999999
#
# number of rings (size 3 to 8) (size 9 to 14) (size 15 to 20)
#    0.000    2.000    1.250    4.500    1.750    1.000 
#    6.750    0.000    0.000    0.000    0.000    0.000 
#    0.000    0.000    0.000    0.000    0.000    0.000 
#
# Total GULP energy -178144.382786 kJ/mol
# GULP energy per Si atom -5567.011962 kJ/mol
# Density = 2.185433 g / cm^3
# Si number density = 21.904189 Si / 1000 Ang^3
#
#
#
# Elastic Constant Matrix: (Units=GPa)
#
#
# Indices 1 2 3 4 5 6 
#
# 1 22.6338 -5.7934 5.6072 0.0000 0.0000 0.0000
# 2 -5.7934 135.2166 34.2945 0.0000 0.0000 0.0000
# 3 5.6072 34.2945 74.9364 0.0000 0.0000 0.0000
# 4 0.0000 0.0000 0.0000 25.6309 0.0000 0.0000
# 5 0.0000 0.0000 0.0000 0.0000 24.3037 0.0000
# 6 0.0000 0.0000 0.0000 0.0000 0.0000 17.5330
#
#
#
# Elastic Compliance Matrix: (Units=1/GPa)
#
#
# Indices 1 2 3 4 5 6 
#
# 1 0.046233 0.003234 -0.004939 0.000000 0.000000 0.000000
# 2 0.003234 0.008593 -0.004174 0.000000 0.000000 0.000000
# 3 -0.004939 -0.004174 0.015625 0.000000 0.000000 0.000000
# 4 0.000000 0.000000 0.000000 0.039015 0.000000 0.000000
# 5 0.000000 0.000000 0.000000 0.000000 0.041146 0.000000
# 6 0.000000 0.000000 0.000000 0.000000 0.000000 0.057035
#
#
# Mechanical properties :
#
#
# Convention : Reuss Voigt Hill
#
# Bulk Modulus (GPa) = 17.03859 33.44482 25.24170
# Shear Modulus (GPa) = 20.92307 26.73878 23.83092
#
# Velocity S-wave (km/s) = 3.09400 3.49766 3.30200
# Velocity P-wave (km/s) = 4.53424 5.62258 5.10748
#
# Compressibility (1/GPa) = 0.05869032
#
# Stress axis : x y z
#
# Youngs Moduli (GPa) = 21.62954 116.37609 64.00145
#
# Poissons Ratio (x) = -0.37631 0.31612
# Poissons Ratio (y) = -0.06994 0.26717
# Poissons Ratio (z) = 0.10683 0.48581
#
# Static dielectric constant tensor:
#      x y z
#    x 1.824130 0.000000 0.000000 
#    y 0.000000 1.915860 0.000000 
#    z 0.000000 0.000000 1.753630 
# 
# From -- ./inp_files/18719.got.cif
#   From: 2010.05.17/outbox.cif.g08.bks.cpg/sg37_10_cif.got.tgz:18719.got - 2010.06.03 17:53:42.
