data_PCOD9354421
_publ_section_title
;
Structure prediction by ZEFSAII (Michael W. Deem and Ramdas Pophale) SiO2 
 PCOD9354421
Probable space group: C C C 2
;
_chemical_formula_sum "Si O2"
_cell_formula_units_Z 44
_cell_length_a 25.190446
_cell_length_b 5.112223
_cell_length_c 16.385205
_cell_angle_alpha 90.000000
_cell_angle_beta 90.000000
_cell_angle_gamma 90.000000
_cell_volume 2110.073222
_symmetry_space_group_name_H-M "C C C 2"
_symmetry_group_IT_number 37
_symmetry_cell_setting 'orthorhombic'
loop_
_space_group_symop_operation_xyz
x,y,z
-x,-y,z
-x,y,1/2+z
x,-y,1/2+z
1/2+x,1/2+y,z
1/2-x,1/2-y,z
1/2-x,1/2+y,1/2+z
1/2+x,1/2-y,1/2+z
loop_
_atom_site_type_symbol
_atom_site_label
_atom_site_fract_x
_atom_site_fract_y
_atom_site_fract_z
Si Si1 0.250000 0.250000 0.090040
Si Si2 0.142236 0.933028 0.676415
Si Si3 0.147530 0.892216 0.868319
Si Si4 0.318165 0.916609 0.455864
Si Si5 0.534680 0.242388 0.951407
Si Si6 0.901877 0.549175 0.591641
O O1 0.200328 0.151101 0.142304
O O2 0.272958 0.046215 0.023831
O O3 0.143777 0.954235 0.773376
O O4 0.101012 0.702817 0.650079
O O5 0.126379 0.207433 0.635782
O O6 0.181873 0.634165 0.886722
O O7 0.174698 0.133155 0.915659
O O8 0.089010 0.820828 0.903967
O O9 0.369713 0.949615 0.512497
O O10 0.500000 0.500000 0.949945
O O11 0.547565 0.166861 0.045565
O O12 0.500000 0.000000 0.916496
#
# Coordination Sequence:
#
# PCOD9354421 Si02
#       6
#     4   8   8   8   8   8
#     4  10  22  38  62  90 116 168 210 236 278 362
#     4  11  23  39  62  89 129 154 192 250 307 345
#     4  11  23  41  60  90 125 157 189 256 313 335
#     4  10  21  38  61  83 119 159 203 236 286 358
#     4  11  21  38  64  87 113 158 212 242 284 370
#     4  10  21  40  60  86 118 157 191 247 303 344
#
# _framework density 20.852357000000001
#
# number of rings (size 3 to 8) (size 9 to 14) (size 15 to 20)
#    0.000    1.455    0.000    8.727    0.000    8.000 
#    0.000    5.455    0.000    0.000    0.000    0.000 
#    0.000    0.000    0.000    0.000    0.000    0.000 
#
# Total GULP energy -122689.430813 kJ/mol
# GULP energy per Si atom -5576.792310 kJ/mol
# Density = 2.080490 g / cm^3
# Si number density = 20.852357 Si / 1000 Ang^3
#
#
#
# Elastic Constant Matrix: (Units=GPa)
#
#
# Indices 1 2 3 4 5 6 
#
# 1 63.3580 22.1936 30.3957 0.0000 0.0000 0.0000
# 2 22.1936 132.1315 26.0650 0.0000 0.0000 0.0000
# 3 30.3957 26.0650 117.4549 0.0000 0.0000 0.0000
# 4 0.0000 0.0000 0.0000 19.7681 0.0000 0.0000
# 5 0.0000 0.0000 0.0000 0.0000 -1.1171 0.0000
# 6 0.0000 0.0000 0.0000 0.0000 0.0000 16.8133
#
#
#
# Elastic Compliance Matrix: (Units=1/GPa)
#
#
# Indices 1 2 3 4 5 6 
#
# 1 0.018656 -0.002281 -0.004322 0.000000 0.000000 0.000000
# 2 -0.002281 0.008194 -0.001228 0.000000 0.000000 0.000000
# 3 -0.004322 -0.001228 0.009905 0.000000 0.000000 0.000000
# 4 0.000000 0.000000 0.000000 0.050587 0.000000 0.000000
# 5 0.000000 0.000000 0.000000 0.000000 -0.895192 0.000000
# 6 0.000000 0.000000 0.000000 0.000000 0.000000 0.059477
#
#
# Mechanical properties :
#
#
# Convention : Reuss Voigt Hill
#
# Bulk Modulus (GPa) = 47.40965 52.25035 49.83000
# Shear Modulus (GPa) = -6.89006 22.71221 7.91107
#
# Velocity S-wave (km/s) = -1.81972 3.30387 1.94989
# Velocity P-wave (km/s) = 4.28603 6.29808 5.38683
#
# Compressibility (1/GPa) = 0.02109275
#
# Stress axis : x y z
#
# Youngs Moduli (GPa) = 53.60318 122.04662 100.96124
#
# Poissons Ratio (x) = 0.27839 0.43632
# Poissons Ratio (y) = 0.12227 0.12398
# Poissons Ratio (z) = 0.23165 0.14987
#
# Static dielectric constant tensor:
#      x y z
#    x 1.971220 0.000000 0.000000 
#    y 0.000000 1.777550 0.000000 
#    z 0.000000 0.000000 1.706550 
# 
# From -- ./inp_files/9707.got.cif
#   From: 2010.05.17/outbox.cif.g08.bks.cpg/sg37_5_cif.got.tgz:9707.got - 2010.06.03 17:53:42.
