data_PCOD9354054
_publ_section_title
;
Structure prediction by ZEFSAII (Michael W. Deem and Ramdas Pophale) SiO2 
 PCOD9354054
Probable space group: C C C 2
;
_chemical_formula_sum "Si O2"
_cell_formula_units_Z 40
_cell_length_a 21.379250
_cell_length_b 12.866261
_cell_length_c 5.018608
_cell_angle_alpha 90.000000
_cell_angle_beta 90.000000
_cell_angle_gamma 90.000000
_cell_volume 1380.473574
_symmetry_space_group_name_H-M "C C C 2"
_symmetry_group_IT_number 37
_symmetry_cell_setting 'orthorhombic'
loop_
_space_group_symop_operation_xyz
x,y,z
-x,-y,z
-x,y,1/2+z
x,-y,1/2+z
1/2+x,1/2+y,z
1/2-x,1/2-y,z
1/2-x,1/2+y,1/2+z
1/2+x,1/2-y,1/2+z
loop_
_atom_site_type_symbol
_atom_site_label
_atom_site_fract_x
_atom_site_fract_y
_atom_site_fract_z
Si Si1 0.076139 0.940166 0.321340
Si Si2 0.117366 0.225410 0.438065
Si Si3 0.199953 0.872453 0.537600
Si Si4 0.668163 0.864765 0.852586
Si Si5 0.455732 0.870717 0.622604
O O1 0.150374 0.940589 0.379810
O O2 0.056075 0.967015 0.622232
O O3 0.073291 0.834801 0.148480
O O4 0.175406 0.155291 0.336038
O O5 0.144298 0.334425 0.555642
O O6 0.072615 0.256316 0.191893
O O7 0.267850 0.914933 0.458432
O O8 0.186768 0.755254 0.426959
O O9 0.609086 0.915884 0.002733
O O10 0.507261 0.889291 0.396197
#
# Coordination Sequence:
#
# PCOD9354054 Si02
#       5
#     8   8   8   8   8
#     4  11  21  35  53  77 107 141 181 222 271 320
#     4  10  20  37  54  79 106 148 176 227 272 336
#     4   9  19  33  53  80 109 141 173 218 275 340
#     4   9  19  33  53  80 109 141 173 218 275 340
#     4  11  21  35  53  77 107 141 181 222 271 320
#
# _framework density 28.975560000000002
#
# number of rings (size 3 to 8) (size 9 to 14) (size 15 to 20)
#    0.000    2.000    4.000    0.000    0.000   12.800 
#    0.000    0.000    0.000    3.600    0.000    0.000 
#    0.000    4.800    0.000    0.000    0.000    0.000 
#
# Total GULP energy -111334.938015 kJ/mol
# GULP energy per Si atom -5566.746901 kJ/mol
# Density = 2.890961 g / cm^3
# Si number density = 28.975560 Si / 1000 Ang^3
#
#
#
# Elastic Constant Matrix: (Units=GPa)
#
#
# Indices 1 2 3 4 5 6 
#
# 1 243.0330 26.2269 27.1967 0.0000 0.0000 0.0000
# 2 26.2269 79.4977 25.4369 0.0000 0.0000 0.0000
# 3 27.1967 25.4369 196.9612 0.0000 0.0000 0.0000
# 4 0.0000 0.0000 0.0000 -7.2453 0.0000 0.0000
# 5 0.0000 0.0000 0.0000 0.0000 8.3538 0.0000
# 6 0.0000 0.0000 0.0000 0.0000 0.0000 26.1294
#
#
#
# Elastic Compliance Matrix: (Units=1/GPa)
#
#
# Indices 1 2 3 4 5 6 
#
# 1 0.004301 -0.001282 -0.000428 0.000000 0.000000 0.000000
# 2 -0.001282 0.013503 -0.001567 0.000000 0.000000 0.000000
# 3 -0.000428 -0.001567 0.005339 0.000000 0.000000 0.000000
# 4 0.000000 0.000000 0.000000 -0.138020 0.000000 0.000000
# 5 0.000000 0.000000 0.000000 0.000000 0.119706 0.000000
# 6 0.000000 0.000000 0.000000 0.000000 0.000000 0.038271
#
#
# Mechanical properties :
#
#
# Convention : Reuss Voigt Hill
#
# Bulk Modulus (GPa) = 60.28223 75.24587 67.76405
# Shear Modulus (GPa) = 90.60657 34.82301 62.71479
#
# Velocity S-wave (km/s) = 5.59802 3.47047 4.65736
# Velocity P-wave (km/s) = 7.91413 6.48722 7.23593
#
# Compressibility (1/GPa) = 0.01658864
#
# Stress axis : x y z
#
# Youngs Moduli (GPa) = 232.50775 74.05638 187.31338
#
# Poissons Ratio (x) = 0.09493 0.08023
# Poissons Ratio (y) = 0.29804 0.29350
# Poissons Ratio (z) = 0.09959 0.11604
#
# Static dielectric constant tensor:
#      x y z
#    x 2.511610 0.000000 0.000000 
#    y 0.000000 2.540910 0.000000 
#    z 0.000000 0.000000 2.468870 
# 
# From -- ./inp_files/967.got.cif
#   From: 2010.05.17/outbox.cif.g08.bks.cpg/sg37_1_cif.got.tgz:967.got - 2010.06.03 17:53:42.
