data_PCOD9354114
_publ_section_title
;
Structure prediction by ZEFSAII (Michael W. Deem and Ramdas Pophale) SiO2 
 PCOD9354114
Probable space group: C C C 2
;
_chemical_formula_sum "Si O2"
_cell_formula_units_Z 64
_cell_length_a 19.189374
_cell_length_b 5.581324
_cell_length_c 26.017684
_cell_angle_alpha 90.000000
_cell_angle_beta 90.000000
_cell_angle_gamma 90.000000
_cell_volume 2786.548949
_symmetry_space_group_name_H-M "C C C 2"
_symmetry_group_IT_number 37
_symmetry_cell_setting 'orthorhombic'
loop_
_space_group_symop_operation_xyz
x,y,z
-x,-y,z
-x,y,1/2+z
x,-y,1/2+z
1/2+x,1/2+y,z
1/2-x,1/2-y,z
1/2-x,1/2+y,1/2+z
1/2+x,1/2-y,1/2+z
loop_
_atom_site_type_symbol
_atom_site_label
_atom_site_fract_x
_atom_site_fract_y
_atom_site_fract_z
Si Si1 0.566971 0.128627 0.657620
Si Si2 0.570733 0.608962 0.260239
Si Si3 0.144401 0.661658 0.030787
Si Si4 0.679670 0.906050 0.314635
Si Si5 0.671947 0.215880 0.211502
Si Si6 0.003662 0.250635 0.987683
Si Si7 0.867617 0.832312 0.064454
Si Si8 0.790897 0.498640 0.424994
O O1 0.544674 0.227889 0.712975
O O2 0.595898 0.334552 0.620063
O O3 0.500000 0.000000 0.633467
O O4 0.626201 0.936694 0.671851
O O5 0.500000 0.500000 0.281594
O O6 0.612959 0.741467 0.304547
O O7 0.627103 0.441502 0.230943
O O8 0.167584 0.431163 0.063541
O O9 0.171336 0.922835 0.049158
O O10 0.061175 0.715938 0.027261
O O11 0.163334 0.579015 0.973270
O O12 0.750000 0.750000 0.312828
O O13 0.675214 0.041259 0.369003
O O14 0.682179 0.071667 0.264707
O O15 0.750000 0.250000 0.190748
O O16 0.000000 0.500000 0.957411
O O17 0.000000 0.000000 0.957740
O O18 0.072990 0.213916 0.021241
O O19 0.750000 0.750000 0.417536
O O20 0.750000 0.250000 0.437379
#
# Coordination Sequence:
#
# PCOD9354114 Si02
#       8
#     8   8   8   8   8   8   8   8
#     4  11  23  37  63 102 134 183 239 289 345 423
#     4  11  23  40  66 100 143 179 226 298 355 411
#     4  10  20  38  61  90 125 163 214 287 340 400
#     4  10  22  40  69 100 128 184 236 283 350 440
#     4  11  22  41  67  94 139 185 230 286 348 426
#     4   8  15  29  52  81 111 152 199 253 316 394
#     4  10  21  37  63  92 128 174 225 275 347 418
#     4  11  24  42  70  98 126 173 239 290 349 429
#
# _framework density 22.967478
#
# number of rings (size 3 to 8) (size 9 to 14) (size 15 to 20)
#    0.000    1.750    2.500    2.250    3.500    1.500 
#    0.000    2.500   11.000    0.000    0.000    0.000 
#    0.000    0.000    0.000    0.000    0.000    0.000 
#
# Total GULP energy -178371.169887 kJ/mol
# GULP energy per Si atom -5574.099059 kJ/mol
# Density = 2.291520 g / cm^3
# Si number density = 22.967478 Si / 1000 Ang^3
#
#
#
# Elastic Constant Matrix: (Units=GPa)
#
#
# Indices 1 2 3 4 5 6 
#
# 1 94.7085 33.5805 22.4076 0.0000 0.0000 0.0000
# 2 33.5805 174.0815 30.4040 0.0000 0.0000 0.0000
# 3 22.4076 30.4040 99.8217 0.0000 0.0000 0.0000
# 4 0.0000 0.0000 0.0000 45.4877 0.0000 0.0000
# 5 0.0000 0.0000 0.0000 0.0000 13.3660 0.0000
# 6 0.0000 0.0000 0.0000 0.0000 0.0000 32.3861
#
#
#
# Elastic Compliance Matrix: (Units=1/GPa)
#
#
# Indices 1 2 3 4 5 6 
#
# 1 0.011718 -0.001902 -0.002051 0.000000 0.000000 0.000000
# 2 -0.001902 0.006376 -0.001515 0.000000 0.000000 0.000000
# 3 -0.002051 -0.001515 0.010940 0.000000 0.000000 0.000000
# 4 0.000000 0.000000 0.000000 0.021984 0.000000 0.000000
# 5 0.000000 0.000000 0.000000 0.000000 0.074817 0.000000
# 6 0.000000 0.000000 0.000000 0.000000 0.000000 0.030877
#
#
# Mechanical properties :
#
#
# Convention : Reuss Voigt Hill
#
# Bulk Modulus (GPa) = 55.25650 60.15508 57.70579
# Shear Modulus (GPa) = 28.78828 37.06260 32.92544
#
# Velocity S-wave (km/s) = 3.54423 4.02145 3.79036
# Velocity P-wave (km/s) = 6.39215 6.91455 6.65847
#
# Compressibility (1/GPa) = 0.01809742
#
# Stress axis : x y z
#
# Youngs Moduli (GPa) = 85.33523 156.83841 91.40994
#
# Poissons Ratio (x) = 0.29835 0.18749
# Poissons Ratio (y) = 0.16233 0.13849
# Poissons Ratio (z) = 0.17503 0.23761
#
# Static dielectric constant tensor:
#      x y z
#    x 1.876570 0.000000 0.000000 
#    y 0.000000 2.074150 0.000000 
#    z 0.000000 0.000000 1.836140 
# 
# From -- ./inp_files/20036.got.cif
#   From: 2010.05.17/outbox.cif.g08.bks.cpg/sg37_11_cif.got.tgz:20036.got - 2010.06.03 17:53:42.
