data_PCOD9354243
_publ_section_title
;
Structure prediction by ZEFSAII (Michael W. Deem and Ramdas Pophale) SiO2 
 PCOD9354243
Probable space group: C C C 2
;
_chemical_formula_sum "Si O2"
_cell_formula_units_Z 48
_cell_length_a 9.740753
_cell_length_b 14.078614
_cell_length_c 13.973937
_cell_angle_alpha 90.000000
_cell_angle_beta 90.000000
_cell_angle_gamma 90.000000
_cell_volume 1916.334038
_symmetry_space_group_name_H-M "C C C 2"
_symmetry_group_IT_number 37
_symmetry_cell_setting 'orthorhombic'
loop_
_space_group_symop_operation_xyz
x,y,z
-x,-y,z
-x,y,1/2+z
x,-y,1/2+z
1/2+x,1/2+y,z
1/2-x,1/2-y,z
1/2-x,1/2+y,1/2+z
1/2+x,1/2-y,1/2+z
loop_
_atom_site_type_symbol
_atom_site_label
_atom_site_fract_x
_atom_site_fract_y
_atom_site_fract_z
Si Si1 0.056217 0.808618 0.020080
Si Si2 0.244803 0.519317 0.654380
Si Si3 0.850888 0.659003 0.000111
Si Si4 0.742579 0.363850 0.294921
Si Si5 0.000000 0.000000 0.027321
Si Si6 0.547504 0.670029 0.236083
Si Si7 0.250000 0.250000 0.376003
O O1 0.966089 0.898516 0.986000
O O2 0.019832 0.800129 0.133871
O O3 0.193892 0.823946 0.957108
O O4 0.997035 0.708330 0.985825
O O5 0.152699 0.581452 0.583457
O O6 0.188009 0.433587 0.717670
O O7 0.366603 0.474596 0.589701
O O8 0.329934 0.595461 0.717503
O O9 0.750000 0.750000 0.024301
O O10 0.805391 0.618707 0.898301
O O11 0.750000 0.250000 0.276461
O O12 0.579723 0.380997 0.286769
O O13 0.620630 0.749873 0.301273
#
# Coordination Sequence:
#
# PCOD9354243 Si02
#       7
#     8   8   8   8   4   8   4
#     4  11  24  46  74 112 151 201 256 323 399 469
#     4  11  21  44  73 109 142 195 254 327 389 466
#     4  11  21  42  75 106 152 201 245 319 408 467
#     4  11  24  42  70 113 146 198 254 321 397 479
#     4  10  20  40  74 110 138 186 262 320 372 450
#     4  11  23  43  71 109 147 185 263 323 380 468
#     4  12  26  44  74 114 150 206 256 322 402 476
#
# _framework density 25.047826000000001
#
# number of rings (size 3 to 8) (size 9 to 14) (size 15 to 20)
#    0.000    1.000    6.667    3.000    1.167    1.333 
#    0.000    0.000    0.000   28.000    0.000    0.000 
#    0.000    0.000    0.000    0.000    0.000    0.000 
#
# Total GULP energy -133652.376566 kJ/mol
# GULP energy per Si atom -5568.849024 kJ/mol
# Density = 2.499082 g / cm^3
# Si number density = 25.047826 Si / 1000 Ang^3
#
#
#
# Elastic Constant Matrix: (Units=GPa)
#
#
# Indices 1 2 3 4 5 6 
#
# 1 51.6544 22.2843 42.4653 0.0000 0.0000 0.0000
# 2 22.2843 112.3701 79.7580 0.0000 0.0000 0.0000
# 3 42.4653 79.7580 194.6573 0.0000 0.0000 0.0000
# 4 0.0000 0.0000 0.0000 -13.9433 0.0000 0.0000
# 5 0.0000 0.0000 0.0000 0.0000 33.2477 0.0000
# 6 0.0000 0.0000 0.0000 0.0000 0.0000 31.8623
#
#
#
# Elastic Compliance Matrix: (Units=1/GPa)
#
#
# Indices 1 2 3 4 5 6 
#
# 1 0.023758 -0.001456 -0.004586 0.000000 0.000000 0.000000
# 2 -0.001456 0.012638 -0.004860 0.000000 0.000000 0.000000
# 3 -0.004586 -0.004860 0.008129 0.000000 0.000000 0.000000
# 4 0.000000 0.000000 0.000000 -0.071719 0.000000 0.000000
# 5 0.000000 0.000000 0.000000 0.000000 0.030077 0.000000
# 6 0.000000 0.000000 0.000000 0.000000 0.000000 0.031385
#
#
# Mechanical properties :
#
#
# Convention : Reuss Voigt Hill
#
# Bulk Modulus (GPa) = 44.01573 71.96633 57.99103
# Shear Modulus (GPa) = 78.55764 24.51161 51.53463
#
# Velocity S-wave (km/s) = 5.60635 3.13164 4.54083
# Velocity P-wave (km/s) = 7.71486 6.47072 7.12001
#
# Compressibility (1/GPa) = 0.02271915
#
# Stress axis : x y z
#
# Youngs Moduli (GPa) = 42.09100 79.12754 123.01266
#
# Poissons Ratio (x) = 0.11523 0.56416
# Poissons Ratio (y) = 0.06130 0.59790
# Poissons Ratio (z) = 0.19304 0.38460
#
# Static dielectric constant tensor:
#      x y z
#    x 2.143830 0.000000 0.000000 
#    y 0.000000 2.224190 0.000000 
#    z 0.000000 0.000000 2.068730 
# 
# From -- ./inp_files/11535.got.cif
#   From: 2010.05.17/outbox.cif.g08.bks.cpg/sg37_6_cif.got.tgz:11535.got - 2010.06.03 17:53:42.
