data_PCOD9354545
_publ_section_title
;
Structure prediction by ZEFSAII (Michael W. Deem and Ramdas Pophale) SiO2 
 PCOD9354545
Probable space group: C C C 2
;
_chemical_formula_sum "Si O2"
_cell_formula_units_Z 60
_cell_length_a 15.153793
_cell_length_b 22.516282
_cell_length_c 8.722784
_cell_angle_alpha 90.000000
_cell_angle_beta 90.000000
_cell_angle_gamma 90.000000
_cell_volume 2976.275628
_symmetry_space_group_name_H-M "C C C 2"
_symmetry_group_IT_number 37
_symmetry_cell_setting 'orthorhombic'
loop_
_space_group_symop_operation_xyz
x,y,z
-x,-y,z
-x,y,1/2+z
x,-y,1/2+z
1/2+x,1/2+y,z
1/2-x,1/2-y,z
1/2-x,1/2+y,1/2+z
1/2+x,1/2-y,1/2+z
loop_
_atom_site_type_symbol
_atom_site_label
_atom_site_fract_x
_atom_site_fract_y
_atom_site_fract_z
Si Si1 0.587194 0.200320 0.907990
Si Si2 0.574247 0.339756 0.395127
Si Si3 0.129792 0.527610 0.571787
Si Si4 0.000000 0.500000 0.330942
Si Si5 0.898271 0.286662 0.543219
Si Si6 0.262050 0.876788 0.431660
Si Si7 0.791207 0.604036 0.573852
Si Si8 0.106144 0.832849 0.035260
O O1 0.594697 0.202142 0.724415
O O2 0.486242 0.189084 0.959494
O O3 0.645683 0.150145 0.987509
O O4 0.617243 0.265893 0.969000
O O5 0.595829 0.282019 0.497306
O O6 0.657018 0.381107 0.428119
O O7 0.579794 0.325425 0.214345
O O8 0.477197 0.359628 0.444038
O O9 0.056744 0.540933 0.441900
O O10 0.202891 0.576557 0.554398
O O11 0.173752 0.462957 0.546134
O O12 0.072818 0.530018 0.724904
O O13 0.808911 0.315545 0.479282
O O14 0.293619 0.889012 0.258176
O O15 0.692306 0.625347 0.526771
#
# Coordination Sequence:
#
# PCOD9354545 Si02
#       8
#     8   8   8   4   8   8   8   8
#     4  11  23  36  59  90 122 158 197 240 296 354
#     4  10  21  41  62  86 118 156 197 247 297 346
#     4  11  24  42  61  90 120 156 197 234 293 348
#     4  10  24  42  64  82 126 158 192 238 284 348
#     4  11  23  36  59  90 122 158 197 240 296 354
#     4  11  24  40  61  87 120 157 199 244 294 351
#     4  11  24  40  61  87 120 157 199 244 294 351
#     4  10  21  41  62  86 118 156 197 247 297 346
#
# _framework density 20.159423
#
# number of rings (size 3 to 8) (size 9 to 14) (size 15 to 20)
#    0.000    1.333    1.333    5.600    5.600    5.333 
#    0.000    0.667    0.000    3.200    0.000    0.000 
#    0.000    0.000    0.000    0.000    0.000    0.000 
#
# Total GULP energy -167510.789046 kJ/mol
# GULP energy per Si atom -5583.692968 kJ/mol
# Density = 2.011354 g / cm^3
# Si number density = 20.159423 Si / 1000 Ang^3
#
#
#
# Elastic Constant Matrix: (Units=GPa)
#
#
# Indices 1 2 3 4 5 6 
#
# 1 72.7229 15.6530 5.8238 0.0000 0.0000 0.0000
# 2 15.6530 42.7339 2.7499 0.0000 0.0000 0.0000
# 3 5.8238 2.7499 67.8593 0.0000 0.0000 0.0000
# 4 0.0000 0.0000 0.0000 10.6429 0.0000 0.0000
# 5 0.0000 0.0000 0.0000 0.0000 32.1005 0.0000
# 6 0.0000 0.0000 0.0000 0.0000 0.0000 18.7928
#
#
#
# Elastic Compliance Matrix: (Units=1/GPa)
#
#
# Indices 1 2 3 4 5 6 
#
# 1 0.015005 -0.005427 -0.001068 0.000000 0.000000 0.000000
# 2 -0.005427 0.025425 -0.000565 0.000000 0.000000 0.000000
# 3 -0.001068 -0.000565 0.014851 0.000000 0.000000 0.000000
# 4 0.000000 0.000000 0.000000 0.093959 0.000000 0.000000
# 5 0.000000 0.000000 0.000000 0.000000 0.031152 0.000000
# 6 0.000000 0.000000 0.000000 0.000000 0.000000 0.053212
#
#
# Mechanical properties :
#
#
# Convention : Reuss Voigt Hill
#
# Bulk Modulus (GPa) = 24.29477 25.75216 25.02346
# Shear Modulus (GPa) = 19.12462 22.91320 21.01891
#
# Velocity S-wave (km/s) = 3.08339 3.37501 3.23249
# Velocity P-wave (km/s) = 4.97533 5.29052 5.13534
#
# Compressibility (1/GPa) = 0.04116113
#
# Stress axis : x y z
#
# Youngs Moduli (GPa) = 66.64658 39.33147 67.33601
#
# Poissons Ratio (x) = 0.21346 0.07190
# Poissons Ratio (y) = 0.36171 0.03801
# Poissons Ratio (z) = 0.07116 0.02220
#
# Static dielectric constant tensor:
#      x y z
#    x 1.766480 0.000000 0.000000 
#    y 0.000000 1.720520 0.000000 
#    z 0.000000 0.000000 1.716070 
# 
# From -- ./inp_files/3724.got.cif
#   From: 2010.05.17/outbox.cif.g08.bks.cpg/sg37_2_cif.got.tgz:3724.got - 2010.06.03 17:53:42.
