data_PCOD9354476
_publ_section_title
;
Structure prediction by ZEFSAII (Michael W. Deem and Ramdas Pophale) SiO2 
 PCOD9354476
Probable space group: C C C 2
;
_chemical_formula_sum "Si O2"
_cell_formula_units_Z 64
_cell_length_a 16.722951
_cell_length_b 8.550381
_cell_length_c 21.035270
_cell_angle_alpha 90.000000
_cell_angle_beta 90.000000
_cell_angle_gamma 90.000000
_cell_volume 3007.782825
_symmetry_space_group_name_H-M "C C C 2"
_symmetry_group_IT_number 37
_symmetry_cell_setting 'orthorhombic'
loop_
_space_group_symop_operation_xyz
x,y,z
-x,-y,z
-x,y,1/2+z
x,-y,1/2+z
1/2+x,1/2+y,z
1/2-x,1/2-y,z
1/2-x,1/2+y,1/2+z
1/2+x,1/2-y,1/2+z
loop_
_atom_site_type_symbol
_atom_site_label
_atom_site_fract_x
_atom_site_fract_y
_atom_site_fract_z
Si Si1 0.812153 0.392042 0.756870
Si Si2 0.931887 0.130985 0.166581
Si Si3 0.518537 0.178988 0.770864
Si Si4 0.744575 0.565403 0.019782
Si Si5 0.253312 0.557479 0.377932
Si Si6 0.923920 0.114265 0.027753
Si Si7 0.074551 0.115795 0.389258
Si Si8 0.745852 0.428760 0.147353
O O1 0.750000 0.250000 0.751276
O O2 0.897052 0.326507 0.735134
O O3 0.801210 0.467252 0.826838
O O4 0.793772 0.532216 0.709646
O O5 0.846140 0.046167 0.168333
O O6 0.951835 0.242473 0.226061
O O7 0.930982 0.204538 0.094940
O O8 0.000000 0.000000 0.168909
O O9 0.544595 0.272114 0.833609
O O10 0.500000 0.000000 0.786509
O O11 0.750000 0.750000 0.016727
O O12 0.781275 0.518659 0.087080
O O13 0.773515 0.514983 0.949956
O O14 0.655455 0.494149 0.027935
O O15 0.250000 0.750000 0.370031
O O16 0.343936 0.482649 0.372990
O O17 0.917688 0.195865 0.958932
O O18 0.000000 0.000000 0.027563
O O19 0.000000 0.000000 0.395898
O O20 0.750000 0.250000 0.128797
#
# Coordination Sequence:
#
# PCOD9354476 Si02
#       8
#     8   8   8   8   8   8   8   8
#     4  12  24  40  60  92 128 164 205 264 316 370
#     4  10  21  41  65  86 115 164 211 250 303 371
#     4  12  26  40  59  90 131 164 205 260 319 368
#     4   9  19  38  61  92 122 158 201 256 311 370
#     4  10  22  40  65  92 124 165 211 256 317 390
#     4   8  17  36  62  88 116 155 209 253 295 372
#     4  10  21  39  64  91 122 165 211 253 312 383
#     4  11  23  39  62  92 123 162 208 253 305 374
#
# _framework density 21.278130999999998
#
# number of rings (size 3 to 8) (size 9 to 14) (size 15 to 20)
#    0.000    1.750    1.250    2.625    3.500    2.500 
#    2.250    0.625    0.000    0.000    0.000    0.000 
#    0.000    0.000    0.000    0.000    0.000    0.000 
#
# Total GULP energy -178242.750403 kJ/mol
# GULP energy per Si atom -5570.085950 kJ/mol
# Density = 2.122970 g / cm^3
# Si number density = 21.278131 Si / 1000 Ang^3
#
#
#
# Elastic Constant Matrix: (Units=GPa)
#
#
# Indices 1 2 3 4 5 6 
#
# 1 29.0681 0.4201 15.6641 0.0000 0.0000 0.0000
# 2 0.4201 54.8437 40.9628 0.0000 0.0000 0.0000
# 3 15.6641 40.9628 162.6672 0.0000 0.0000 0.0000
# 4 0.0000 0.0000 0.0000 -13.6713 0.0000 0.0000
# 5 0.0000 0.0000 0.0000 0.0000 -109.1741 0.0000
# 6 0.0000 0.0000 0.0000 0.0000 0.0000 25.2567
#
#
#
# Elastic Compliance Matrix: (Units=1/GPa)
#
#
# Indices 1 2 3 4 5 6 
#
# 1 0.036656 0.002901 -0.004260 0.000000 0.000000 0.000000
# 2 0.002901 0.022687 -0.005992 0.000000 0.000000 0.000000
# 3 -0.004260 -0.005992 0.008067 0.000000 0.000000 0.000000
# 4 0.000000 0.000000 0.000000 -0.073146 0.000000 0.000000
# 5 0.000000 0.000000 0.000000 0.000000 -0.009160 0.000000
# 6 0.000000 0.000000 0.000000 0.000000 0.000000 0.039593
#
#
# Mechanical properties :
#
#
# Convention : Reuss Voigt Hill
#
# Bulk Modulus (GPa) = 18.97292 40.07477 29.52384
# Shear Modulus (GPa) = 87.76579 -6.88227 40.44176
#
# Velocity S-wave (km/s) = 6.42935 -1.80040 4.36435
# Velocity P-wave (km/s) = 8.00321 3.81480 6.26913
#
# Compressibility (1/GPa) = 0.05270670
#
# Stress axis : x y z
#
# Youngs Moduli (GPa) = 27.28080 44.07780 123.96499
#
# Poissons Ratio (x) = -0.12788 0.52814
# Poissons Ratio (y) = -0.07915 0.74285
# Poissons Ratio (z) = 0.11623 0.26413
#
# Static dielectric constant tensor:
#      x y z
#    x 1.923600 0.000000 0.000000 
#    y 0.000000 1.715900 0.000000 
#    z 0.000000 0.000000 1.850400 
# 
# From -- ./inp_files/17348.got.cif
#   From: 2010.05.17/outbox.cif.g08.bks.cpg/sg37_9_cif.got.tgz:17348.got - 2010.06.03 17:53:42.
