data_PCOD9354117
_publ_section_title
;
Structure prediction by ZEFSAII (Michael W. Deem and Ramdas Pophale) SiO2 
 PCOD9354117
Probable space group: C C C 2
;
_chemical_formula_sum "Si O2"
_cell_formula_units_Z 52
_cell_length_a 7.908468
_cell_length_b 24.673031
_cell_length_c 11.838128
_cell_angle_alpha 90.000000
_cell_angle_beta 90.000000
_cell_angle_gamma 90.000000
_cell_volume 2309.925098
_symmetry_space_group_name_H-M "C C C 2"
_symmetry_group_IT_number 37
_symmetry_cell_setting 'orthorhombic'
loop_
_space_group_symop_operation_xyz
x,y,z
-x,-y,z
-x,y,1/2+z
x,-y,1/2+z
1/2+x,1/2+y,z
1/2-x,1/2-y,z
1/2-x,1/2+y,1/2+z
1/2+x,1/2-y,1/2+z
loop_
_atom_site_type_symbol
_atom_site_label
_atom_site_fract_x
_atom_site_fract_y
_atom_site_fract_z
Si Si1 0.596344 0.209619 0.849320
Si Si2 0.610721 0.355305 0.206602
Si Si3 0.413401 0.449635 0.527223
Si Si4 0.746377 0.405328 0.429254
Si Si5 0.250000 0.250000 0.766398
Si Si6 0.722612 0.139004 0.676453
Si Si7 0.890700 0.416494 0.880013
O O1 0.750000 0.250000 0.879450
O O2 0.411088 0.236068 0.847162
O O3 0.881176 0.309215 0.717523
O O4 0.610898 0.149591 0.907610
O O5 0.710647 0.370452 0.319352
O O6 0.687712 0.297284 0.182970
O O7 0.410288 0.351544 0.225319
O O8 0.626308 0.401501 0.113593
O O9 0.500000 0.500000 0.593319
O O10 0.573319 0.437522 0.446773
O O11 0.248681 0.449432 0.448678
O O12 0.768435 0.372137 0.545082
O O13 0.921341 0.435666 0.406968
O O14 0.648656 0.087522 0.746019
#
# Coordination Sequence:
#
# PCOD9354117 Si02
#       7
#     8   8   8   8   4   8   8
#     4  10  20  38  62 100 145 187 237 287 356 446
#     4  11  22  44  67 105 141 190 236 299 363 451
#     4  11  27  48  72  98 140 192 250 307 369 423
#     4  11  22  43  72  97 138 183 237 300 365 425
#     4  12  20  38  68 102 148 192 228 290 384 434
#     4   9  21  41  63 100 140 188 232 293 350 438
#     4  10  22  42  70  96 140 183 241 302 351 438
#
# _framework density 22.511551999999998
#
# number of rings (size 3 to 8) (size 9 to 14) (size 15 to 20)
#    0.923    0.615    4.615    0.000    4.308    1.231 
#    2.769    0.000    0.000    0.000    0.000    0.000 
#    0.000    0.000    0.000    0.000    0.000    0.000 
#
# Total GULP energy -144850.703649 kJ/mol
# GULP energy per Si atom -5571.180910 kJ/mol
# Density = 2.246031 g / cm^3
# Si number density = 22.511552 Si / 1000 Ang^3
#
#
#
# Elastic Constant Matrix: (Units=GPa)
#
#
# Indices 1 2 3 4 5 6 
#
# 1 187.0279 41.9574 54.7930 0.0000 0.0000 0.0000
# 2 41.9574 87.1220 26.0456 0.0000 0.0000 0.0000
# 3 54.7930 26.0456 61.2706 0.0000 0.0000 0.0000
# 4 0.0000 0.0000 0.0000 -105.7523 0.0000 0.0000
# 5 0.0000 0.0000 0.0000 0.0000 20.5976 0.0000
# 6 0.0000 0.0000 0.0000 0.0000 0.0000 68.4220
#
#
#
# Elastic Compliance Matrix: (Units=1/GPa)
#
#
# Indices 1 2 3 4 5 6 
#
# 1 0.007494 -0.001839 -0.005920 0.000000 0.000000 0.000000
# 2 -0.001839 0.013601 -0.004137 0.000000 0.000000 0.000000
# 3 -0.005920 -0.004137 0.023373 0.000000 0.000000 0.000000
# 4 0.000000 0.000000 0.000000 -0.009456 0.000000 0.000000
# 5 0.000000 0.000000 0.000000 0.000000 0.048549 0.000000
# 6 0.000000 0.000000 0.000000 0.000000 0.000000 0.014615
#
#
# Mechanical properties :
#
#
# Convention : Reuss Voigt Hill
#
# Bulk Modulus (GPa) = 48.36410 64.55695 56.46052
# Shear Modulus (GPa) = 38.80200 10.82842 24.81521
#
# Velocity S-wave (km/s) = 4.15619 2.19559 3.32374
# Velocity P-wave (km/s) = 6.67552 5.93018 6.31386
#
# Compressibility (1/GPa) = 0.02067650
#
# Stress axis : x y z
#
# Youngs Moduli (GPa) = 133.44645 73.52609 42.78383
#
# Poissons Ratio (x) = 0.13523 0.25326
# Poissons Ratio (y) = 0.24543 0.17699
# Poissons Ratio (z) = 0.78995 0.30416
#
# Static dielectric constant tensor:
#      x y z
#    x 1.829310 0.000000 0.000000 
#    y 0.000000 2.179660 0.000000 
#    z 0.000000 0.000000 1.847280 
# 
# From -- ./inp_files/6491.got.cif
#   From: 2010.05.17/outbox.cif.g08.bks.cpg/sg37_4_cif.got.tgz:6491.got - 2010.06.03 17:53:42.
