data_PCOD9354852
_publ_section_title
;
Structure prediction by ZEFSAII (Michael W. Deem and Ramdas Pophale) SiO2 
 PCOD9354852
Probable space group: C C C 2
;
_chemical_formula_sum "Si O2"
_cell_formula_units_Z 60
_cell_length_a 9.020001
_cell_length_b 22.658186
_cell_length_c 14.770809
_cell_angle_alpha 90.000000
_cell_angle_beta 90.000000
_cell_angle_gamma 90.000000
_cell_volume 3018.811569
_symmetry_space_group_name_H-M "C C C 2"
_symmetry_group_IT_number 37
_symmetry_cell_setting 'orthorhombic'
loop_
_space_group_symop_operation_xyz
x,y,z
-x,-y,z
-x,y,1/2+z
x,-y,1/2+z
1/2+x,1/2+y,z
1/2-x,1/2-y,z
1/2-x,1/2+y,1/2+z
1/2+x,1/2-y,1/2+z
loop_
_atom_site_type_symbol
_atom_site_label
_atom_site_fract_x
_atom_site_fract_y
_atom_site_fract_z
Si Si1 0.369681 0.046786 0.967050
Si Si2 0.486364 0.332215 0.198544
Si Si3 0.516322 0.825459 0.994616
Si Si4 0.828208 0.660299 0.672516
Si Si5 0.076924 0.253284 0.831761
Si Si6 0.866212 0.957521 0.129322
Si Si7 0.750000 0.250000 0.600728
Si Si8 0.839621 0.530318 0.760960
O O1 0.305326 0.032470 0.867922
O O2 0.500000 0.000000 0.989984
O O3 0.444793 0.110478 0.957243
O O4 0.247592 0.050526 0.045953
O O5 0.654170 0.325727 0.162409
O O6 0.512906 0.310068 0.301753
O O7 0.428938 0.396774 0.171516
O O8 0.368515 0.286732 0.158019
O O9 0.399459 0.833281 0.074484
O O10 0.659640 0.796953 0.042038
O O11 0.481984 0.783035 0.910476
O O12 0.908472 0.704192 0.743685
O O13 0.842171 0.595012 0.715324
O O14 0.250000 0.250000 0.860791
O O15 0.778244 0.991418 0.207769
O O16 0.000000 0.000000 0.099522
O O17 0.000000 0.500000 0.751470
#
# Coordination Sequence:
#
# PCOD9354852 Si02
#       8
#     8   8   8   8   8   8   4   8
#     4  11  25  44  69 106 135 184 241 282 345 427
#     4  11  25  45  69  98 141 182 229 286 348 417
#     4  12  22  41  75  97 136 179 230 284 346 415
#     4  11  22  43  70  98 141 179 221 284 351 412
#     4  10  22  41  68  98 135 182 225 279 346 415
#     4  12  24  44  71 101 141 186 228 293 355 412
#     4  12  24  42  72 102 126 180 234 282 340 408
#     4  11  24  43  72 101 137 185 232 283 350 415
#
# _framework density 19.875371999999999
#
# number of rings (size 3 to 8) (size 9 to 14) (size 15 to 20)
#    0.000    0.800    6.000    2.000    0.000    0.533 
#    0.000    1.333    0.000    0.000    0.000    0.000 
#    0.000    0.000    0.000    0.000    0.000    0.000 
#
# Total GULP energy -167563.360170 kJ/mol
# GULP energy per Si atom -5585.445339 kJ/mol
# Density = 1.983014 g / cm^3
# Si number density = 19.875372 Si / 1000 Ang^3
#
#
#
# Elastic Constant Matrix: (Units=GPa)
#
#
# Indices 1 2 3 4 5 6 
#
# 1 70.4828 34.5367 54.7160 0.0000 0.0000 0.0000
# 2 34.5367 99.2471 39.7355 0.0000 0.0000 0.0000
# 3 54.7160 39.7355 131.3650 0.0000 0.0000 0.0000
# 4 0.0000 0.0000 0.0000 187.4687 0.0000 0.0000
# 5 0.0000 0.0000 0.0000 0.0000 -26.5461 0.0000
# 6 0.0000 0.0000 0.0000 0.0000 0.0000 36.2091
#
#
#
# Elastic Compliance Matrix: (Units=1/GPa)
#
#
# Indices 1 2 3 4 5 6 
#
# 1 0.022736 -0.004688 -0.008052 0.000000 0.000000 0.000000
# 2 -0.004688 0.012431 -0.001807 0.000000 0.000000 0.000000
# 3 -0.008052 -0.001807 0.011513 0.000000 0.000000 0.000000
# 4 0.000000 0.000000 0.000000 0.005334 0.000000 0.000000
# 5 0.000000 0.000000 0.000000 0.000000 -0.037670 0.000000
# 6 0.000000 0.000000 0.000000 0.000000 0.000000 0.027617
#
#
# Mechanical properties :
#
#
# Convention : Reuss Voigt Hill
#
# Bulk Modulus (GPa) = 56.86730 62.11903 59.49317
# Shear Modulus (GPa) = 65.00543 50.90011 57.95277
#
# Velocity S-wave (km/s) = 5.72517 5.06609 5.40568
# Velocity P-wave (km/s) = 8.50749 8.09583 8.30421
#
# Compressibility (1/GPa) = 0.01758480
#
# Stress axis : x y z
#
# Youngs Moduli (GPa) = 43.98390 80.44478 86.85980
#
# Poissons Ratio (x) = 0.37713 0.69937
# Poissons Ratio (y) = 0.20620 0.15700
# Poissons Ratio (z) = 0.35415 0.14540
#
# Static dielectric constant tensor:
#      x y z
#    x 1.691700 0.000000 0.000000 
#    y 0.000000 1.708080 0.000000 
#    z 0.000000 0.000000 1.713440 
# 
# From -- ./inp_files/10920.got.cif
#   From: 2010.05.17/outbox.cif.g08.bks.cpg/sg37_6_cif.got.tgz:10920.got - 2010.06.03 17:53:42.
