data_PCOD9354897
_publ_section_title
;
Structure prediction by ZEFSAII (Michael W. Deem and Ramdas Pophale) SiO2 
 PCOD9354897
Probable space group: C C C 2
;
_chemical_formula_sum "Si O2"
_cell_formula_units_Z 60
_cell_length_a 12.250078
_cell_length_b 22.795345
_cell_length_c 9.081589
_cell_angle_alpha 90.000000
_cell_angle_beta 90.000000
_cell_angle_gamma 90.000000
_cell_volume 2535.986089
_symmetry_space_group_name_H-M "C C C 2"
_symmetry_group_IT_number 37
_symmetry_cell_setting 'orthorhombic'
loop_
_space_group_symop_operation_xyz
x,y,z
-x,-y,z
-x,y,1/2+z
x,-y,1/2+z
1/2+x,1/2+y,z
1/2-x,1/2-y,z
1/2-x,1/2+y,1/2+z
1/2+x,1/2-y,1/2+z
loop_
_atom_site_type_symbol
_atom_site_label
_atom_site_fract_x
_atom_site_fract_y
_atom_site_fract_z
Si Si1 0.080379 0.160736 0.027470
Si Si2 0.386511 0.573299 0.078026
Si Si3 0.797477 0.986014 0.297886
Si Si4 0.750000 0.750000 0.511970
Si Si5 0.948830 0.229644 0.810991
Si Si6 0.010639 0.635717 0.371562
Si Si7 0.791026 0.418844 0.527546
Si Si8 0.156430 0.632520 0.100262
O O1 0.077452 0.213998 0.143721
O O2 0.194579 0.128567 0.019337
O O3 0.992389 0.113056 0.081884
O O4 0.040637 0.186315 0.872931
O O5 0.366247 0.553246 0.910521
O O6 0.381293 0.519555 0.190388
O O7 0.274677 0.605948 0.120955
O O8 0.732442 0.031255 0.404027
O O9 0.719703 0.950804 0.185176
O O10 0.839227 0.781135 0.407405
O O11 0.818955 0.702361 0.601806
O O12 0.987922 0.295606 0.841023
O O13 0.099492 0.616907 0.493886
O O14 0.070460 0.614190 0.224328
O O15 0.896265 0.615547 0.442970
#
# Coordination Sequence:
#
# PCOD9354897 Si02
#       8
#     8   8   8   4   8   8   8   8
#     4  12  25  42  71 107 141 183 232 291 355 435
#     4  11  23  45  70 100 141 180 232 291 360 408
#     4  10  24  45  70 101 138 183 239 297 355 419
#     4  10  22  42  70  98 144 186 228 290 356 424
#     4  11  24  41  66 105 142 188 232 280 355 427
#     4  11  26  44  69 103 142 189 232 283 348 424
#     4  11  25  44  70 103 139 183 240 295 354 419
#     4  11  24  45  70  97 139 183 231 288 346 420
#
# _framework density 23.659435999999999
#
# number of rings (size 3 to 8) (size 9 to 14) (size 15 to 20)
#    0.000    1.067    2.667    3.200    1.867    5.867 
#    0.000    4.000    0.000    0.000    0.000    0.000 
#    0.000    0.000    0.000    0.000    0.000    0.000 
#
# Total GULP energy -167862.475211 kJ/mol
# GULP energy per Si atom -5595.415840 kJ/mol
# Density = 2.360559 g / cm^3
# Si number density = 23.659436 Si / 1000 Ang^3
#
#
#
# Elastic Constant Matrix: (Units=GPa)
#
#
# Indices 1 2 3 4 5 6 
#
# 1 98.7095 10.3327 6.5935 0.0000 0.0000 0.0000
# 2 10.3327 42.8715 13.3551 0.0000 0.0000 0.0000
# 3 6.5935 13.3551 96.7802 0.0000 0.0000 0.0000
# 4 0.0000 0.0000 0.0000 39.4392 0.0000 0.0000
# 5 0.0000 0.0000 0.0000 0.0000 -0.2852 0.0000
# 6 0.0000 0.0000 0.0000 0.0000 0.0000 15.0288
#
#
#
# Elastic Compliance Matrix: (Units=1/GPa)
#
#
# Indices 1 2 3 4 5 6 
#
# 1 0.010406 -0.002390 -0.000379 0.000000 0.000000 0.000000
# 2 -0.002390 0.024922 -0.003276 0.000000 0.000000 0.000000
# 3 -0.000379 -0.003276 0.010811 0.000000 0.000000 0.000000
# 4 0.000000 0.000000 0.000000 0.025355 0.000000 0.000000
# 5 0.000000 0.000000 0.000000 0.000000 -3.506594 0.000000
# 6 0.000000 0.000000 0.000000 0.000000 0.000000 0.066539
#
#
# Mechanical properties :
#
#
# Convention : Reuss Voigt Hill
#
# Bulk Modulus (GPa) = 29.37013 33.21377 31.29195
# Shear Modulus (GPa) = -1.49471 24.70857 11.60693
#
# Velocity S-wave (km/s) = -0.79570 3.23514 2.21731
# Velocity P-wave (km/s) = 3.40536 5.29373 4.45084
#
# Compressibility (1/GPa) = 0.03404820
#
# Stress axis : x y z
#
# Youngs Moduli (GPa) = 96.09622 40.12499 92.50154
#
# Poissons Ratio (x) = 0.09590 0.03507
# Poissons Ratio (y) = 0.22967 0.30306
# Poissons Ratio (z) = 0.03644 0.13146
#
# Static dielectric constant tensor:
#      x y z
#    x 1.911030 0.000000 0.000000 
#    y 0.000000 1.932430 0.000000 
#    z 0.000000 0.000000 1.917580 
# 
# From -- ./inp_files/3052.got.cif
#   From: 2010.05.17/outbox.cif.g08.bks.cpg/sg37_2_cif.got.tgz:3052.got - 2010.06.03 17:53:42.
