data_PCOD9354474
_publ_section_title
;
Structure prediction by ZEFSAII (Michael W. Deem and Ramdas Pophale) SiO2 
 PCOD9354474
Probable space group: C C C 2
;
_chemical_formula_sum "Si O2"
_cell_formula_units_Z 56
_cell_length_a 31.084547
_cell_length_b 5.111744
_cell_length_c 15.410528
_cell_angle_alpha 90.000000
_cell_angle_beta 90.000000
_cell_angle_gamma 90.000000
_cell_volume 2448.675058
_symmetry_space_group_name_H-M "C C C 2"
_symmetry_group_IT_number 37
_symmetry_cell_setting 'orthorhombic'
loop_
_space_group_symop_operation_xyz
x,y,z
-x,-y,z
-x,y,1/2+z
x,-y,1/2+z
1/2+x,1/2+y,z
1/2-x,1/2-y,z
1/2-x,1/2+y,1/2+z
1/2+x,1/2-y,1/2+z
loop_
_atom_site_type_symbol
_atom_site_label
_atom_site_fract_x
_atom_site_fract_y
_atom_site_fract_z
Si Si1 0.794103 0.340926 0.913700
Si Si2 0.306814 0.329373 0.801183
Si Si3 0.368319 0.052259 0.702211
Si Si4 0.797540 0.854170 0.133261
Si Si5 0.456715 0.087485 0.146521
Si Si6 0.044691 0.082489 0.525185
Si Si7 0.361504 0.351851 0.524889
O O1 0.750000 0.250000 0.960060
O O2 0.785403 0.587788 0.852131
O O3 0.806049 0.092601 0.854985
O O4 0.835413 0.370888 0.973971
O O5 0.291695 0.413107 0.704370
O O6 0.354582 0.218448 0.784643
O O7 0.329323 0.853725 0.680260
O O8 0.414557 0.923177 0.705309
O O9 0.372111 0.244049 0.620128
O O10 0.750000 0.750000 0.113293
O O11 0.824245 0.939014 0.048145
O O12 0.456468 0.873967 0.066795
O O13 0.500000 0.000000 0.194806
O O14 0.456446 0.371648 0.103461
O O15 0.092965 0.059490 0.485320
O O16 0.000000 0.000000 0.976811
#
# Coordination Sequence:
#
# PCOD9354474 Si02
#       7
#     8   8   8   8   8   8   8
#     4  12  27  41  60  82 125 165 208 248 303 361
#     4  11  25  43  60  84 118 169 209 241 294 372
#     4  10  21  39  64  90 121 157 204 252 299 358
#     4  11  23  38  67  91 126 160 210 252 303 357
#     4   9  17  31  56  90 121 147 187 249 308 352
#     4   9  17  33  57  86 120 152 189 242 304 363
#     4  10  24  38  60  96 125 156 202 261 310 351
#
# _framework density 22.869510999999999
#
# number of rings (size 3 to 8) (size 9 to 14) (size 15 to 20)
#    0.000    1.714    2.857    0.857    6.000    1.143 
#    0.000    0.000    0.000    1.714    0.000    0.000 
#    0.000    0.000    0.000    0.000    0.000    0.000 
#
# Total GULP energy -156102.398129 kJ/mol
# GULP energy per Si atom -5575.085647 kJ/mol
# Density = 2.281746 g / cm^3
# Si number density = 22.869511 Si / 1000 Ang^3
#
#
#
# Elastic Constant Matrix: (Units=GPa)
#
#
# Indices 1 2 3 4 5 6 
#
# 1 200.5907 26.9398 13.6051 0.0000 0.0000 0.0000
# 2 26.9398 119.7602 12.8700 0.0000 0.0000 0.0000
# 3 13.6051 12.8700 26.1023 0.0000 0.0000 0.0000
# 4 0.0000 0.0000 0.0000 16.2200 0.0000 0.0000
# 5 0.0000 0.0000 0.0000 0.0000 12.3571 0.0000
# 6 0.0000 0.0000 0.0000 0.0000 0.0000 36.0436
#
#
#
# Elastic Compliance Matrix: (Units=1/GPa)
#
#
# Indices 1 2 3 4 5 6 
#
# 1 0.005266 -0.000939 -0.002282 0.000000 0.000000 0.000000
# 2 -0.000939 0.008985 -0.003940 0.000000 0.000000 0.000000
# 3 -0.002282 -0.003940 0.041443 0.000000 0.000000 0.000000
# 4 0.000000 0.000000 0.000000 0.061652 0.000000 0.000000
# 5 0.000000 0.000000 0.000000 0.000000 0.080925 0.000000
# 6 0.000000 0.000000 0.000000 0.000000 0.000000 0.027744
#
#
# Mechanical properties :
#
#
# Convention : Reuss Voigt Hill
#
# Bulk Modulus (GPa) = 24.17159 50.36479 37.26819
# Shear Modulus (GPa) = 19.67506 32.46003 26.06755
#
# Velocity S-wave (km/s) = 2.93630 3.77152 3.37981
# Velocity P-wave (km/s) = 4.69980 6.40596 5.61803
#
# Compressibility (1/GPa) = 0.04137088
#
# Stress axis : x y z
#
# Youngs Moduli (GPa) = 189.89036 111.29912 24.12960
#
# Poissons Ratio (x) = 0.10456 0.05506
# Poissons Ratio (y) = 0.17839 0.09508
# Poissons Ratio (z) = 0.43327 0.43856
#
# Static dielectric constant tensor:
#      x y z
#    x 2.071850 0.000000 0.000000 
#    y 0.000000 1.924040 0.000000 
#    z 0.000000 0.000000 1.859870 
# 
# From -- ./inp_files/13366.got.cif
#   From: 2010.05.17/outbox.cif.g08.bks.cpg/sg37_7_cif.got.tgz:13366.got - 2010.06.03 17:53:42.
