data_PCOD9354338
_publ_section_title
;
Structure prediction by ZEFSAII (Michael W. Deem and Ramdas Pophale) SiO2 
 PCOD9354338
Probable space group: C C C 2
;
_chemical_formula_sum "Si O2"
_cell_formula_units_Z 40
_cell_length_a 13.118142
_cell_length_b 27.471656
_cell_length_c 5.415310
_cell_angle_alpha 90.000000
_cell_angle_beta 90.000000
_cell_angle_gamma 90.000000
_cell_volume 1951.553629
_symmetry_space_group_name_H-M "C C C 2"
_symmetry_group_IT_number 37
_symmetry_cell_setting 'orthorhombic'
loop_
_space_group_symop_operation_xyz
x,y,z
-x,-y,z
-x,y,1/2+z
x,-y,1/2+z
1/2+x,1/2+y,z
1/2-x,1/2-y,z
1/2-x,1/2+y,1/2+z
1/2+x,1/2-y,1/2+z
loop_
_atom_site_type_symbol
_atom_site_label
_atom_site_fract_x
_atom_site_fract_y
_atom_site_fract_z
Si Si1 0.934849 0.171771 0.962240
Si Si2 0.565138 0.784534 0.448268
Si Si3 0.869211 0.529472 0.642474
Si Si4 0.781978 0.626585 0.444997
Si Si5 0.956823 0.602988 0.136088
O O1 0.899391 0.228242 0.962563
O O2 0.835880 0.138037 0.937186
O O3 0.993452 0.164154 0.222069
O O4 0.518759 0.788205 0.169288
O O5 0.656981 0.822867 0.495683
O O6 0.847142 0.498431 0.396121
O O7 0.807982 0.580812 0.621791
O O8 0.985719 0.550753 0.632244
O O9 0.838756 0.607571 0.194391
O O10 0.010467 0.624925 0.378904
#
# Coordination Sequence:
#
# PCOD9354338 Si02
#       5
#     8   8   8   8   8
#     4  10  24  43  64  89 122 162 212 266 303 350
#     4  10  21  39  62  95 128 157 198 252 316 379
#     4  11  24  39  58  91 129 158 192 243 305 373
#     4  11  23  40  65  91 124 169 208 246 310 375
#     4  10  21  34  53  85 120 154 187 232 291 363
#
# _framework density 20.496492
#
# number of rings (size 3 to 8) (size 9 to 14) (size 15 to 20)
#    0.000    1.600    0.000    5.400    0.000   17.600 
#    0.000    6.000    0.000    3.600    0.000    0.000 
#    0.000    0.000    0.000    0.000    0.000    0.000 
#
# Total GULP energy -111433.063484 kJ/mol
# GULP energy per Si atom -5571.653174 kJ/mol
# Density = 2.044984 g / cm^3
# Si number density = 20.496492 Si / 1000 Ang^3
#
#
#
# Elastic Constant Matrix: (Units=GPa)
#
#
# Indices 1 2 3 4 5 6 
#
# 1 117.1944 71.6392 44.6647 0.0000 0.0000 0.0000
# 2 71.6392 118.9275 56.5708 0.0000 0.0000 0.0000
# 3 44.6647 56.5708 168.1269 0.0000 0.0000 0.0000
# 4 0.0000 0.0000 0.0000 32.7755 0.0000 0.0000
# 5 0.0000 0.0000 0.0000 0.0000 18.7586 0.0000
# 6 0.0000 0.0000 0.0000 0.0000 0.0000 33.1384
#
#
#
# Elastic Compliance Matrix: (Units=1/GPa)
#
#
# Indices 1 2 3 4 5 6 
#
# 1 0.013652 -0.007737 -0.001024 0.000000 0.000000 0.000000
# 2 -0.007737 0.014395 -0.002788 0.000000 0.000000 0.000000
# 3 -0.001024 -0.002788 0.007158 0.000000 0.000000 0.000000
# 4 0.000000 0.000000 0.000000 0.030511 0.000000 0.000000
# 5 0.000000 0.000000 0.000000 0.000000 0.053309 0.000000
# 6 0.000000 0.000000 0.000000 0.000000 0.000000 0.030176
#
#
# Mechanical properties :
#
#
# Convention : Reuss Voigt Hill
#
# Bulk Modulus (GPa) = 82.58966 83.33312 82.96139
# Shear Modulus (GPa) = 28.35502 32.35945 30.35723
#
# Velocity S-wave (km/s) = 3.72345 3.97770 3.85267
# Velocity P-wave (km/s) = 7.67252 7.86394 7.76882
#
# Compressibility (1/GPa) = 0.01210805
#
# Stress axis : x y z
#
# Youngs Moduli (GPa) = 73.24686 69.46656 139.70358
#
# Poissons Ratio (x) = 0.53746 0.14300
# Poissons Ratio (y) = 0.56671 0.38954
# Poissons Ratio (z) = 0.07497 0.19369
#
# Static dielectric constant tensor:
#      x y z
#    x 1.712190 0.000000 0.000000 
#    y 0.000000 1.905460 0.000000 
#    z 0.000000 0.000000 1.807760 
# 
# From -- ./inp_files/354.got.cif
#   From: 2010.05.17/outbox.cif.g08.bks.cpg/sg37_1_cif.got.tgz:354.got - 2010.06.03 17:53:42.
