data_PCOD9354467
_publ_section_title
;
Structure prediction by ZEFSAII (Michael W. Deem and Ramdas Pophale) SiO2 
 PCOD9354467
Probable space group: C C C 2
;
_chemical_formula_sum "Si O2"
_cell_formula_units_Z 52
_cell_length_a 27.526132
_cell_length_b 7.432651
_cell_length_c 12.607152
_cell_angle_alpha 90.000000
_cell_angle_beta 90.000000
_cell_angle_gamma 90.000000
_cell_volume 2579.324113
_symmetry_space_group_name_H-M "C C C 2"
_symmetry_group_IT_number 37
_symmetry_cell_setting 'orthorhombic'
loop_
_space_group_symop_operation_xyz
x,y,z
-x,-y,z
-x,y,1/2+z
x,-y,1/2+z
1/2+x,1/2+y,z
1/2-x,1/2-y,z
1/2-x,1/2+y,1/2+z
1/2+x,1/2-y,1/2+z
loop_
_atom_site_type_symbol
_atom_site_label
_atom_site_fract_x
_atom_site_fract_y
_atom_site_fract_z
Si Si1 0.831578 0.797609 0.395960
Si Si2 0.708603 0.383315 0.664179
Si Si3 0.959415 0.740415 0.880121
Si Si4 0.564672 0.840588 0.336321
Si Si5 0.947519 0.015891 0.689126
Si Si6 0.750000 0.750000 0.564675
Si Si7 0.119418 0.097511 0.025110
O O1 0.804179 0.843040 0.286556
O O2 0.881084 0.685052 0.379953
O O3 0.795041 0.713537 0.483091
O O4 0.852437 0.988430 0.435906
O O5 0.750000 0.250000 0.628867
O O6 0.728739 0.583752 0.635025
O O7 0.661191 0.324702 0.598435
O O8 0.945689 0.551026 0.826625
O O9 0.949572 0.894478 0.793674
O O10 0.017437 0.731905 0.902992
O O11 0.922945 0.779873 0.976600
O O12 0.561845 0.718574 0.230452
O O13 0.907384 0.960539 0.605446
O O14 0.000000 0.000000 0.637412
#
# Coordination Sequence:
#
# PCOD9354467 Si02
#       7
#     8   8   8   8   8   4   8
#     4  11  22  45  67  94 132 167 218 277 324 394
#     4  11  24  47  66  95 128 168 222 275 327 400
#     4  10  22  40  62  95 133 176 210 259 323 391
#     4  10  21  41  61  91 134 171 215 261 320 383
#     4  10  21  39  62  91 131 171 212 263 313 387
#     4  10  26  46  68  96 126 170 220 270 342 378
#     4  11  22  40  67  98 124 169 219 262 334 391
#
# _framework density 20.160322000000001
#
# number of rings (size 3 to 8) (size 9 to 14) (size 15 to 20)
#    0.000    1.538    3.846    0.000    4.308    0.000 
#   16.615    1.538    0.000    0.000    0.000    0.000 
#    0.000    0.000    0.000    0.000    0.000    0.000 
#
# Total GULP energy -144843.259356 kJ/mol
# GULP energy per Si atom -5570.894591 kJ/mol
# Density = 2.011444 g / cm^3
# Si number density = 20.160322 Si / 1000 Ang^3
#
#
#
# Elastic Constant Matrix: (Units=GPa)
#
#
# Indices 1 2 3 4 5 6 
#
# 1 147.0468 23.6268 36.7199 0.0000 0.0000 0.0000
# 2 23.6268 75.2890 27.8808 0.0000 0.0000 0.0000
# 3 36.7199 27.8808 51.2391 0.0000 0.0000 0.0000
# 4 0.0000 0.0000 0.0000 -2.6546 0.0000 0.0000
# 5 0.0000 0.0000 0.0000 0.0000 12.5067 0.0000
# 6 0.0000 0.0000 0.0000 0.0000 0.0000 30.8515
#
#
#
# Elastic Compliance Matrix: (Units=1/GPa)
#
#
# Indices 1 2 3 4 5 6 
#
# 1 0.008298 -0.000503 -0.005673 0.000000 0.000000 0.000000
# 2 -0.000503 0.016664 -0.008707 0.000000 0.000000 0.000000
# 3 -0.005673 -0.008707 0.028319 0.000000 0.000000 0.000000
# 4 0.000000 0.000000 0.000000 -0.376698 0.000000 0.000000
# 5 0.000000 0.000000 0.000000 0.000000 0.079957 0.000000
# 6 0.000000 0.000000 0.000000 0.000000 0.000000 0.032413
#
#
# Mechanical properties :
#
#
# Convention : Reuss Voigt Hill
#
# Bulk Modulus (GPa) = 42.52471 50.00333 46.26402
# Shear Modulus (GPa) = -28.82837 20.49719 -4.16559
#
# Velocity S-wave (km/s) = -3.78558 3.19205 -1.43900
# Velocity P-wave (km/s) = 1.42534 6.20018 4.49855
#
# Compressibility (1/GPa) = 0.02351574
#
# Stress axis : x y z
#
# Youngs Moduli (GPa) = 120.51073 60.00801 35.31138
#
# Poissons Ratio (x) = 0.03020 0.20032
# Poissons Ratio (y) = 0.06065 0.30746
# Poissons Ratio (z) = 0.68364 0.52249
#
# Static dielectric constant tensor:
#      x y z
#    x 1.791100 0.000000 0.000000 
#    y 0.000000 1.712340 0.000000 
#    z 0.000000 0.000000 1.737290 
# 
# From -- ./inp_files/9047.got.cif
#   From: 2010.05.17/outbox.cif.g08.bks.cpg/sg37_5_cif.got.tgz:9047.got - 2010.06.03 17:53:42.
