data_PCOD9354402
_publ_section_title
;
Structure prediction by ZEFSAII (Michael W. Deem and Ramdas Pophale) SiO2 
 PCOD9354402
Probable space group: C C C 2
;
_chemical_formula_sum "Si O2"
_cell_formula_units_Z 40
_cell_length_a 16.047715
_cell_length_b 10.308583
_cell_length_c 9.410624
_cell_angle_alpha 90.000000
_cell_angle_beta 90.000000
_cell_angle_gamma 90.000000
_cell_volume 1556.792019
_symmetry_space_group_name_H-M "C C C 2"
_symmetry_group_IT_number 37
_symmetry_cell_setting 'orthorhombic'
loop_
_space_group_symop_operation_xyz
x,y,z
-x,-y,z
-x,y,1/2+z
x,-y,1/2+z
1/2+x,1/2+y,z
1/2-x,1/2-y,z
1/2-x,1/2+y,1/2+z
1/2+x,1/2-y,1/2+z
loop_
_atom_site_type_symbol
_atom_site_label
_atom_site_fract_x
_atom_site_fract_y
_atom_site_fract_z
Si Si1 0.309850 0.375057 0.384130
Si Si2 0.562554 0.879708 0.148933
Si Si3 0.450975 0.246027 0.860177
Si Si4 0.696274 0.942460 0.762932
Si Si5 0.631758 0.555965 0.666780
O O1 0.250000 0.250000 0.385629
O O2 0.242945 0.492891 0.396537
O O3 0.380620 0.403632 0.503218
O O4 0.350106 0.411831 0.229244
O O5 0.533490 0.820371 0.298519
O O6 0.651617 0.943891 0.174035
O O7 0.500000 0.000000 0.112032
O O8 0.552602 0.771828 0.027984
O O9 0.431451 0.377585 0.776398
O O10 0.375403 0.154011 0.806727
O O11 0.775255 0.883734 0.683972
#
# Coordination Sequence:
#
# PCOD9354402 Si02
#       5
#     8   8   8   8   8
#     4  10  22  40  61  95 132 168 215 289 337 406
#     4  10  21  37  63  98 138 183 228 284 346 412
#     4  11  21  38  63  95 135 178 228 279 342 413
#     4   9  20  37  64  95 127 167 232 290 338 389
#     4  10  23  39  65  94 130 172 219 285 347 398
#
# _framework density 25.693861999999999
#
# number of rings (size 3 to 8) (size 9 to 14) (size 15 to 20)
#    1.200    0.800    0.000    4.800    0.000    6.400 
#    0.000    0.000    0.000    9.600    0.000    0.000 
#    0.000    0.000    0.000    0.000    0.000    0.000 
#
# Total GULP energy -111494.083659 kJ/mol
# GULP energy per Si atom -5574.704183 kJ/mol
# Density = 2.563538 g / cm^3
# Si number density = 25.693862 Si / 1000 Ang^3
#
#
#
# Elastic Constant Matrix: (Units=GPa)
#
#
# Indices 1 2 3 4 5 6 
#
# 1 67.6333 7.4282 0.4336 0.0000 0.0000 0.0000
# 2 7.4282 74.5212 40.9319 0.0000 0.0000 0.0000
# 3 0.4336 40.9319 141.5689 0.0000 0.0000 0.0000
# 4 0.0000 0.0000 0.0000 33.0210 0.0000 0.0000
# 5 0.0000 0.0000 0.0000 0.0000 29.6145 0.0000
# 6 0.0000 0.0000 0.0000 0.0000 0.0000 44.9678
#
#
#
# Elastic Compliance Matrix: (Units=1/GPa)
#
#
# Indices 1 2 3 4 5 6 
#
# 1 0.014974 -0.001744 0.000459 0.000000 0.000000 0.000000
# 2 -0.001744 0.016156 -0.004666 0.000000 0.000000 0.000000
# 3 0.000459 -0.004666 0.008411 0.000000 0.000000 0.000000
# 4 0.000000 0.000000 0.000000 0.030284 0.000000 0.000000
# 5 0.000000 0.000000 0.000000 0.000000 0.033767 0.000000
# 6 0.000000 0.000000 0.000000 0.000000 0.000000 0.022238
#
#
# Mechanical properties :
#
#
# Convention : Reuss Voigt Hill
#
# Bulk Modulus (GPa) = 36.18232 42.36787 39.27510
# Shear Modulus (GPa) = 34.02602 37.18264 35.60433
#
# Velocity S-wave (km/s) = 3.64302 3.80826 3.72656
# Velocity P-wave (km/s) = 5.63987 5.98852 5.81681
#
# Compressibility (1/GPa) = 0.02763780
#
# Stress axis : x y z
#
# Youngs Moduli (GPa) = 66.78119 61.89791 118.88761
#
# Poissons Ratio (x) = 0.10798 -0.05451
# Poissons Ratio (y) = 0.11650 0.55470
# Poissons Ratio (z) = -0.03062 0.28880
#
# Static dielectric constant tensor:
#      x y z
#    x 2.020320 0.000000 0.000000 
#    y 0.000000 2.053560 0.000000 
#    z 0.000000 0.000000 2.151680 
# 
# From -- ./inp_files/2726.got.cif
#   From: 2010.05.17/outbox.cif.g08.bks.cpg/sg37_2_cif.got.tgz:2726.got - 2010.06.03 17:53:42.
