data_PCOD9354360
_publ_section_title
;
Structure prediction by ZEFSAII (Michael W. Deem and Ramdas Pophale) SiO2 
 PCOD9354360
Probable space group: C C C 2
;
_chemical_formula_sum "Si O2"
_cell_formula_units_Z 32
_cell_length_a 24.270928
_cell_length_b 4.895425
_cell_length_c 13.363277
_cell_angle_alpha 90.000000
_cell_angle_beta 90.000000
_cell_angle_gamma 90.000000
_cell_volume 1587.777905
_symmetry_space_group_name_H-M "C C C 2"
_symmetry_group_IT_number 37
_symmetry_cell_setting 'orthorhombic'
loop_
_space_group_symop_operation_xyz
x,y,z
-x,-y,z
-x,y,1/2+z
x,-y,1/2+z
1/2+x,1/2+y,z
1/2-x,1/2-y,z
1/2-x,1/2+y,1/2+z
1/2+x,1/2-y,1/2+z
loop_
_atom_site_type_symbol
_atom_site_label
_atom_site_fract_x
_atom_site_fract_y
_atom_site_fract_z
Si Si1 0.312306 0.153430 0.298950
Si Si2 0.946612 0.802170 0.888517
Si Si3 0.869776 0.828014 0.709012
Si Si4 0.110595 0.700870 0.979221
O O1 0.250000 0.250000 0.298619
O O2 0.350717 0.363221 0.234190
O O3 0.336784 0.128473 0.411160
O O4 0.320970 0.859165 0.251043
O O5 0.924184 0.766219 0.775787
O O6 0.937744 0.511153 0.944364
O O7 0.000000 0.000000 0.888321
O O8 0.903477 0.994684 0.944545
O O9 0.880427 0.731616 0.596561
#
# Coordination Sequence:
#
# PCOD9354360 Si02
#       4
#     8   8   8   8
#     4  10  21  36  56  84 116 152 195 239 286 343
#     4  10  21  38  59  85 115 148 191 238 286 344
#     4  10  21  38  58  83 117 152 191 241 289 340
#     4  10  21  38  58  84 117 150 190 240 287 339
#
# _framework density 20.153950999999999
#
# number of rings (size 3 to 8) (size 9 to 14) (size 15 to 20)
#    0.000    2.000    0.000    3.000    0.000    3.000 
#    0.000    7.500    0.000    0.000    0.000    0.000 
#    0.000    0.000    0.000    0.000    0.000    0.000 
#
# Total GULP energy -89111.594799 kJ/mol
# GULP energy per Si atom -5569.474675 kJ/mol
# Density = 2.010808 g / cm^3
# Si number density = 20.153951 Si / 1000 Ang^3
#
#
#
# Elastic Constant Matrix: (Units=GPa)
#
#
# Indices 1 2 3 4 5 6 
#
# 1 57.9677 -3.6198 29.0829 0.0000 0.0000 0.0000
# 2 -3.6198 101.7608 19.6561 0.0000 0.0000 0.0000
# 3 29.0829 19.6561 173.0992 0.0000 0.0000 0.0000
# 4 0.0000 0.0000 0.0000 17.5673 0.0000 0.0000
# 5 0.0000 0.0000 0.0000 0.0000 0.1082 0.0000
# 6 0.0000 0.0000 0.0000 0.0000 0.0000 24.1108
#
#
#
# Elastic Compliance Matrix: (Units=1/GPa)
#
#
# Indices 1 2 3 4 5 6 
#
# 1 0.019011 0.001322 -0.003344 0.000000 0.000000 0.000000
# 2 0.001322 0.010139 -0.001374 0.000000 0.000000 0.000000
# 3 -0.003344 -0.001374 0.006495 0.000000 0.000000 0.000000
# 4 0.000000 0.000000 0.000000 0.056924 0.000000 0.000000
# 5 0.000000 0.000000 0.000000 0.000000 9.242899 0.000000
# 6 0.000000 0.000000 0.000000 0.000000 0.000000 0.041475
#
#
# Mechanical properties :
#
#
# Convention : Reuss Voigt Hill
#
# Bulk Modulus (GPa) = 34.65667 47.00735 40.83201
# Shear Modulus (GPa) = 0.53229 27.53782 14.03505
#
# Velocity S-wave (km/s) = 0.51448 3.70046 2.64179
# Velocity P-wave (km/s) = 4.19359 6.45234 5.44145
#
# Compressibility (1/GPa) = 0.02885448
#
# Stress axis : x y z
#
# Youngs Moduli (GPa) = 52.59997 98.62601 153.96720
#
# Poissons Ratio (x) = -0.13041 0.51491
# Poissons Ratio (y) = -0.06955 0.21148
# Poissons Ratio (z) = 0.17591 0.13546
#
# Static dielectric constant tensor:
#      x y z
#    x 1.754480 0.000000 0.000000 
#    y 0.000000 1.704930 0.000000 
#    z 0.000000 0.000000 1.735430 
# 
# From -- ./inp_files/4872.got.cif
#   From: 2010.05.17/outbox.cif.g08.bks.cpg/sg37_3_cif.got.tgz:4872.got - 2010.06.03 17:53:42.
