data_PCOD9354659
_publ_section_title
;
Structure prediction by ZEFSAII (Michael W. Deem and Ramdas Pophale) SiO2 
 PCOD9354659
Probable space group: C C C 2
;
_chemical_formula_sum "Si O2"
_cell_formula_units_Z 44
_cell_length_a 19.580355
_cell_length_b 5.151352
_cell_length_c 21.955225
_cell_angle_alpha 90.000000
_cell_angle_beta 90.000000
_cell_angle_gamma 90.000000
_cell_volume 2214.520376
_symmetry_space_group_name_H-M "C C C 2"
_symmetry_group_IT_number 37
_symmetry_cell_setting 'orthorhombic'
loop_
_space_group_symop_operation_xyz
x,y,z
-x,-y,z
-x,y,1/2+z
x,-y,1/2+z
1/2+x,1/2+y,z
1/2-x,1/2-y,z
1/2-x,1/2+y,1/2+z
1/2+x,1/2-y,1/2+z
loop_
_atom_site_type_symbol
_atom_site_label
_atom_site_fract_x
_atom_site_fract_y
_atom_site_fract_z
Si Si1 0.186971 0.443489 0.546220
Si Si2 0.250000 0.750000 0.643994
Si Si3 0.750000 0.750000 0.937385
Si Si4 0.045099 0.250175 0.364367
Si Si5 0.545099 0.250175 0.010403
Si Si6 0.813029 0.943489 0.328550
Si Si7 0.250000 0.250000 0.730776
O O1 0.250000 0.250000 0.558705
O O2 0.189658 0.672585 0.596435
O O3 0.203058 0.576147 0.481209
O O4 0.117502 0.284078 0.542924
O O5 0.250000 0.500000 0.687385
O O6 0.703058 0.576148 0.893560
O O7 0.057481 0.249999 0.437385
O O8 0.117502 0.215922 0.331846
O O9 0.000000 0.500000 0.349061
O O10 0.000000 0.000000 0.350135
O O11 0.500000 0.500000 0.025710
O O12 0.500000 0.000000 0.024635
O O13 0.750000 0.750000 0.316065
O O14 0.810342 0.172584 0.278335
#
# Coordination Sequence:
#
# PCOD9354659 Si02
#       7
#     8   4   4   8   8   8   4
#     4  11  23  39  67  94 130 167 213 273 315 392
#     4  11  24  43  66  95 122 167 226 278 324 369
#     4  10  22  32  64 102 132 156 218 260 336 376
#     4  10  23  37  58  91 135 170 202 245 319 399
#     4  10  23  37  58  91 135 170 202 245 319 399
#     4  11  23  39  67  94 130 167 213 273 315 392
#     4  11  24  43  66  95 122 167 226 278 324 369
#
# _framework density 19.868860000000002
#
# number of rings (size 3 to 8) (size 9 to 14) (size 15 to 20)
#    0.000    1.455    1.818    2.727   17.818    0.000 
#    0.000    0.000    0.000    6.545    0.000    0.000 
#    0.000    0.000    0.000    0.000    0.000    0.000 
#
# Total GULP energy -122814.934425 kJ/mol
# GULP energy per Si atom -5582.497019 kJ/mol
# Density = 1.982364 g / cm^3
# Si number density = 19.868860 Si / 1000 Ang^3
#
#
#
# Elastic Constant Matrix: (Units=GPa)
#
#
# Indices 1 2 3 4 5 6 
#
# 1 170.0960 81.1570 36.4379 0.0000 0.0000 0.0000
# 2 81.1570 174.6098 53.1249 0.0000 0.0000 0.0000
# 3 36.4379 53.1249 104.0665 0.0000 0.0000 0.0000
# 4 0.0000 0.0000 0.0000 38.9830 0.0000 0.0000
# 5 0.0000 0.0000 0.0000 0.0000 4.0472 0.0000
# 6 0.0000 0.0000 0.0000 0.0000 0.0000 30.0542
#
#
#
# Elastic Compliance Matrix: (Units=1/GPa)
#
#
# Indices 1 2 3 4 5 6 
#
# 1 0.007645 -0.003242 -0.001022 0.000000 0.000000 0.000000
# 2 -0.003242 0.008155 -0.003028 0.000000 0.000000 0.000000
# 3 -0.001022 -0.003028 0.011513 0.000000 0.000000 0.000000
# 4 0.000000 0.000000 0.000000 0.025652 0.000000 0.000000
# 5 0.000000 0.000000 0.000000 0.000000 0.247081 0.000000
# 6 0.000000 0.000000 0.000000 0.000000 0.000000 0.033273
#
#
# Mechanical properties :
#
#
# Convention : Reuss Voigt Hill
#
# Bulk Modulus (GPa) = 78.56037 87.80132 83.18085
# Shear Modulus (GPa) = 14.19862 33.15371 23.67617
#
# Velocity S-wave (km/s) = 2.67613 4.08931 3.45573
# Velocity P-wave (km/s) = 7.01243 8.15984 7.60780
#
# Compressibility (1/GPa) = 0.01272906
#
# Stress axis : x y z
#
# Youngs Moduli (GPa) = 130.80549 122.61859 86.86107
#
# Poissons Ratio (x) = 0.39759 0.08873
# Poissons Ratio (y) = 0.42414 0.26301
# Poissons Ratio (z) = 0.13362 0.37128
#
# Static dielectric constant tensor:
#      x y z
#    x 1.634590 0.000000 0.000000 
#    y 0.000000 1.757230 0.000000 
#    z 0.000000 0.000000 1.735150 
# 
# From -- ./inp_files/18951.got.cif
#   From: 2010.05.17/outbox.cif.g08.bks.cpg/sg37_10_cif.got.tgz:18951.got - 2010.06.03 17:53:42.
