data_PCOD9354500
_publ_section_title
;
Structure prediction by ZEFSAII (Michael W. Deem and Ramdas Pophale) SiO2 
 PCOD9354500
Probable space group: C C C 2
;
_chemical_formula_sum "Si O2"
_cell_formula_units_Z 64
_cell_length_a 8.635173
_cell_length_b 22.928660
_cell_length_c 15.651031
_cell_angle_alpha 90.000000
_cell_angle_beta 90.000000
_cell_angle_gamma 90.000000
_cell_volume 3098.793732
_symmetry_space_group_name_H-M "C C C 2"
_symmetry_group_IT_number 37
_symmetry_cell_setting 'orthorhombic'
loop_
_space_group_symop_operation_xyz
x,y,z
-x,-y,z
-x,y,1/2+z
x,-y,1/2+z
1/2+x,1/2+y,z
1/2-x,1/2-y,z
1/2-x,1/2+y,1/2+z
1/2+x,1/2-y,1/2+z
loop_
_atom_site_type_symbol
_atom_site_label
_atom_site_fract_x
_atom_site_fract_y
_atom_site_fract_z
Si Si1 0.283581 0.457547 0.123280
Si Si2 0.070295 0.269905 0.696329
Si Si3 0.580903 0.912019 0.453017
Si Si4 0.085919 0.847598 0.699649
Si Si5 0.243892 0.473499 0.932058
Si Si6 0.658421 0.805918 0.337020
Si Si7 0.673577 0.562845 0.753162
Si Si8 0.452851 0.099925 0.645215
O O1 0.359652 0.394127 0.130768
O O2 0.339289 0.505879 0.191489
O O3 0.105068 0.440557 0.145048
O O4 0.312025 0.477760 0.026734
O O5 0.250000 0.250000 0.696939
O O6 0.032735 0.329823 0.646671
O O7 0.972464 0.214154 0.665049
O O8 0.996525 0.283858 0.789326
O O9 0.401097 0.929351 0.443891
O O10 0.618441 0.851800 0.408989
O O11 0.622343 0.913545 0.553304
O O12 0.674653 0.963678 0.408394
O O13 0.225615 0.835028 0.766383
O O14 0.942128 0.883275 0.739245
O O15 0.341791 0.453836 0.851731
O O16 0.750000 0.750000 0.370938
O O17 0.844445 0.584917 0.725370
#
# Coordination Sequence:
#
# PCOD9354500 Si02
#       8
#     8   8   8   8   8   8   8   8
#     4  11  23  43  62  98 134 173 214 272 330 393
#     4  11  22  41  68  93 119 174 225 267 320 386
#     4  10  21  40  62 100 123 166 217 267 323 385
#     4  11  24  41  64  94 133 171 219 258 335 391
#     4  10  23  38  66  97 133 166 217 263 329 387
#     4  10  22  42  66  90 129 169 213 270 327 390
#     4  12  23  41  65 100 130 177 212 269 326 393
#     4  11  22  40  69  91 130 167 224 271 320 387
#
# _framework density 20.653198
#
# number of rings (size 3 to 8) (size 9 to 14) (size 15 to 20)
#    0.000    1.250    3.750    2.250    3.500    0.500 
#    2.250    2.500    0.000    0.000    0.000    0.000 
#    0.000    0.000    0.000    0.000    0.000    0.000 
#
# Total GULP energy -178570.854655 kJ/mol
# GULP energy per Si atom -5580.339208 kJ/mol
# Density = 2.060619 g / cm^3
# Si number density = 20.653198 Si / 1000 Ang^3
#
#
#
# Elastic Constant Matrix: (Units=GPa)
#
#
# Indices 1 2 3 4 5 6 
#
# 1 35.0019 6.2160 4.9222 0.0000 0.0000 0.0000
# 2 6.2160 128.8957 28.3310 0.0000 0.0000 0.0000
# 3 4.9222 28.3310 58.7942 0.0000 0.0000 0.0000
# 4 0.0000 0.0000 0.0000 37.4641 0.0000 0.0000
# 5 0.0000 0.0000 0.0000 0.0000 -0.4106 0.0000
# 6 0.0000 0.0000 0.0000 0.0000 0.0000 15.7124
#
#
#
# Elastic Compliance Matrix: (Units=1/GPa)
#
#
# Indices 1 2 3 4 5 6 
#
# 1 0.029018 -0.000968 -0.001963 0.000000 0.000000 0.000000
# 2 -0.000968 0.008710 -0.004116 0.000000 0.000000 0.000000
# 3 -0.001963 -0.004116 0.019156 0.000000 0.000000 0.000000
# 4 0.000000 0.000000 0.000000 0.026692 0.000000 0.000000
# 5 0.000000 0.000000 0.000000 0.000000 -2.435537 0.000000
# 6 0.000000 0.000000 0.000000 0.000000 0.000000 0.063644
#
#
# Mechanical properties :
#
#
# Convention : Reuss Voigt Hill
#
# Bulk Modulus (GPa) = 23.36990 33.51448 28.44219
# Shear Modulus (GPa) = -2.21243 22.76802 10.27779
#
# Velocity S-wave (km/s) = -1.03612 3.32384 2.23320
# Velocity P-wave (km/s) = 3.14779 5.56714 4.52225
#
# Compressibility (1/GPa) = 0.04279008
#
# Stress axis : x y z
#
# Youngs Moduli (GPa) = 34.46157 114.81674 52.20272
#
# Poissons Ratio (x) = 0.11113 0.10247
# Poissons Ratio (y) = 0.03336 0.21486
# Poissons Ratio (z) = 0.06765 0.47256
#
# Static dielectric constant tensor:
#      x y z
#    x 1.814230 0.000000 0.000000 
#    y 0.000000 1.736820 0.000000 
#    z 0.000000 0.000000 1.721160 
# 
# From -- ./inp_files/11012.got.cif
#   From: 2010.05.17/outbox.cif.g08.bks.cpg/sg37_6_cif.got.tgz:11012.got - 2010.06.03 17:53:42.
