data_PCOD9354978
_publ_section_title
;
Structure prediction by ZEFSAII (Michael W. Deem and Ramdas Pophale) SiO2 
 PCOD9354978
Probable space group: C C C 2
;
_chemical_formula_sum "Si O2"
_cell_formula_units_Z 56
_cell_length_a 5.685059
_cell_length_b 30.191551
_cell_length_c 14.795084
_cell_angle_alpha 90.000000
_cell_angle_beta 90.000000
_cell_angle_gamma 90.000000
_cell_volume 2539.439295
_symmetry_space_group_name_H-M "C C C 2"
_symmetry_group_IT_number 37
_symmetry_cell_setting 'orthorhombic'
loop_
_space_group_symop_operation_xyz
x,y,z
-x,-y,z
-x,y,1/2+z
x,-y,1/2+z
1/2+x,1/2+y,z
1/2-x,1/2-y,z
1/2-x,1/2+y,1/2+z
1/2+x,1/2-y,1/2+z
loop_
_atom_site_type_symbol
_atom_site_label
_atom_site_fract_x
_atom_site_fract_y
_atom_site_fract_z
Si Si1 0.601407 0.203665 0.219200
Si Si2 0.381249 0.381914 0.798568
Si Si3 0.250000 0.250000 0.346695
Si Si4 0.269284 0.425926 0.984977
Si Si5 0.892273 0.950399 0.637362
Si Si6 0.500000 0.000000 0.561020
Si Si7 0.913361 0.825470 0.442340
Si Si8 0.916915 0.660540 0.039686
O O1 0.750000 0.250000 0.204237
O O2 0.748457 0.161478 0.257567
O O3 0.398649 0.216415 0.288301
O O4 0.464648 0.186408 0.131312
O O5 0.436098 0.415783 0.717945
O O6 0.585667 0.359647 0.858642
O O7 0.262122 0.409469 0.881463
O O8 0.065271 0.223890 0.405936
O O9 0.510159 0.428312 0.044072
O O10 0.180713 0.475548 0.996048
O O11 0.101969 0.392423 0.040252
O O12 0.623448 0.964000 0.623862
O O13 0.000000 0.000000 0.652991
O O14 0.656925 0.828595 0.486195
O O15 0.153571 0.830856 0.499791
#
# Coordination Sequence:
#
# PCOD9354978 Si02
#       8
#     8   8   4   8   8   4   8   8
#     4  12  28  48  72 111 153 205 263 328 383 466
#     4  11  25  48  74 108 150 199 251 314 394 449
#     4  12  26  46  72 106 152 194 266 328 380 456
#     4  10  24  45  73 103 149 191 252 308 383 459
#     4  10  24  47  72 112 146 194 245 318 379 475
#     4  10  22  44  72 108 150 188 250 308 380 462
#     4  11  27  49  73 107 152 198 260 322 385 462
#     4  11  28  48  75 108 147 212 255 320 390 460
#
# _framework density 22.052109999999999
#
# number of rings (size 3 to 8) (size 9 to 14) (size 15 to 20)
#    0.000    1.143    1.429    2.571   13.000    2.286 
#   10.286    0.000    0.000    0.000    0.000    0.000 
#    0.000    0.000    0.000    0.000    0.000    0.000 
#
# Total GULP energy -155954.776086 kJ/mol
# GULP energy per Si atom -5569.813432 kJ/mol
# Density = 2.200192 g / cm^3
# Si number density = 22.052110 Si / 1000 Ang^3
#
#
#
# Elastic Constant Matrix: (Units=GPa)
#
#
# Indices 1 2 3 4 5 6 
#
# 1 74.8276 31.1371 46.2582 0.0000 0.0000 0.0000
# 2 31.1371 102.5159 75.1892 0.0000 0.0000 0.0000
# 3 46.2582 75.1892 80.1001 0.0000 0.0000 0.0000
# 4 0.0000 0.0000 0.0000 30.9899 0.0000 0.0000
# 5 0.0000 0.0000 0.0000 0.0000 19.1397 0.0000
# 6 0.0000 0.0000 0.0000 0.0000 0.0000 47.7210
#
#
#
# Elastic Compliance Matrix: (Units=1/GPa)
#
#
# Indices 1 2 3 4 5 6 
#
# 1 0.023048 0.008866 -0.021633 0.000000 0.000000 0.000000
# 2 0.008866 0.034722 -0.037714 0.000000 0.000000 0.000000
# 3 -0.021633 -0.037714 0.060379 0.000000 0.000000 0.000000
# 4 0.000000 0.000000 0.000000 0.032269 0.000000 0.000000
# 5 0.000000 0.000000 0.000000 0.000000 0.052247 0.000000
# 6 0.000000 0.000000 0.000000 0.000000 0.000000 0.020955
#
#
# Mechanical properties :
#
#
# Convention : Reuss Voigt Hill
#
# Bulk Modulus (GPa) = 58.17901 62.51251 60.34576
# Shear Modulus (GPa) = 15.13726 26.56072 20.84899
#
# Velocity S-wave (km/s) = 2.62283 3.47429 3.07814
# Velocity P-wave (km/s) = 5.96758 6.67109 6.32912
#
# Compressibility (1/GPa) = 0.01718833
#
# Stress axis : x y z
#
# Youngs Moduli (GPa) = 43.38769 28.79978 16.56211
#
# Poissons Ratio (x) = -0.25533 0.35828
# Poissons Ratio (y) = -0.38467 0.62462
# Poissons Ratio (z) = 0.93859 1.08615
#
# Static dielectric constant tensor:
#      x y z
#    x 1.893870 0.000000 0.000000 
#    y 0.000000 1.866930 0.000000 
#    z 0.000000 0.000000 1.825110 
# 
# From -- ./inp_files/9939.got.cif
#   From: 2010.05.17/outbox.cif.g08.bks.cpg/sg37_5_cif.got.tgz:9939.got - 2010.06.03 17:53:42.
