data_PCOD9354452
_publ_section_title
;
Structure prediction by ZEFSAII (Michael W. Deem and Ramdas Pophale) SiO2 
 PCOD9354452
Probable space group: C C C 2
;
_chemical_formula_sum "Si O2"
_cell_formula_units_Z 56
_cell_length_a 21.483323
_cell_length_b 8.185874
_cell_length_c 14.444834
_cell_angle_alpha 90.000000
_cell_angle_beta 90.000000
_cell_angle_gamma 90.000000
_cell_volume 2540.265260
_symmetry_space_group_name_H-M "C C C 2"
_symmetry_group_IT_number 37
_symmetry_cell_setting 'orthorhombic'
loop_
_space_group_symop_operation_xyz
x,y,z
-x,-y,z
-x,y,1/2+z
x,-y,1/2+z
1/2+x,1/2+y,z
1/2-x,1/2-y,z
1/2-x,1/2+y,1/2+z
1/2+x,1/2-y,1/2+z
loop_
_atom_site_type_symbol
_atom_site_label
_atom_site_fract_x
_atom_site_fract_y
_atom_site_fract_z
Si Si1 0.724300 0.503794 0.160020
Si Si2 0.873416 0.153071 0.394951
Si Si3 0.609808 0.626826 0.270731
Si Si4 0.930999 0.438700 0.697639
Si Si5 0.024509 0.689473 0.518194
Si Si6 0.500000 0.500000 0.133174
Si Si7 0.750000 0.750000 0.009239
Si Si8 0.334909 0.201810 0.699890
O O1 0.676250 0.612448 0.217962
O O2 0.757871 0.597142 0.078148
O O3 0.685176 0.343753 0.129867
O O4 0.777774 0.419686 0.220645
O O5 0.935198 0.239277 0.434139
O O6 0.812647 0.201681 0.454428
O O7 0.856111 0.215254 0.293588
O O8 0.886298 0.963309 0.369820
O O9 0.592634 0.817693 0.276689
O O10 0.557127 0.541605 0.204154
O O11 0.928590 0.335366 0.603918
O O12 0.891646 0.593921 0.671595
O O13 0.000000 0.500000 0.717783
O O14 0.000000 0.500000 0.502566
O O15 0.986346 0.843138 0.565261
#
# Coordination Sequence:
#
# PCOD9354452 Si02
#       8
#     8   8   8   8   8   4   4   8
#     4  10  21  38  70  94 125 180 224 274 335 427
#     4  11  24  41  63 101 141 169 221 299 349 402
#     4  10  22  40  67 100 127 184 226 283 350 405
#     4  10  22  42  70  94 131 187 242 279 336 434
#     4  10  23  42  65  99 135 182 226 289 348 398
#     4  10  22  44  66  94 138 186 248 266 330 444
#     4  12  22  44  68  98 140 172 232 280 356 410
#     4  10  22  42  65  98 132 172 237 275 346 412
#
# _framework density 22.044941000000001
#
# number of rings (size 3 to 8) (size 9 to 14) (size 15 to 20)
#    0.000    1.714    0.000    5.143   12.000    1.143 
#    2.571    2.857    0.000    1.714    0.000    0.000 
#    0.000    0.000    0.000    0.000    0.000    0.000 
#
# Total GULP energy -155924.029329 kJ/mol
# GULP energy per Si atom -5568.715333 kJ/mol
# Density = 2.199477 g / cm^3
# Si number density = 22.044941 Si / 1000 Ang^3
#
#
#
# Elastic Constant Matrix: (Units=GPa)
#
#
# Indices 1 2 3 4 5 6 
#
# 1 70.1748 31.0231 5.1465 0.0000 0.0000 0.0000
# 2 31.0231 124.3305 33.7756 0.0000 0.0000 0.0000
# 3 5.1465 33.7756 51.3943 0.0000 0.0000 0.0000
# 4 0.0000 0.0000 0.0000 33.3004 0.0000 0.0000
# 5 0.0000 0.0000 0.0000 0.0000 25.7790 0.0000
# 6 0.0000 0.0000 0.0000 0.0000 0.0000 22.0309
#
#
#
# Elastic Compliance Matrix: (Units=1/GPa)
#
#
# Indices 1 2 3 4 5 6 
#
# 1 0.016083 -0.004353 0.001250 0.000000 0.000000 0.000000
# 2 -0.004353 0.010969 -0.006773 0.000000 0.000000 0.000000
# 3 0.001250 -0.006773 0.023783 0.000000 0.000000 0.000000
# 4 0.000000 0.000000 0.000000 0.030030 0.000000 0.000000
# 5 0.000000 0.000000 0.000000 0.000000 0.038791 0.000000
# 6 0.000000 0.000000 0.000000 0.000000 0.000000 0.045391
#
#
# Mechanical properties :
#
#
# Convention : Reuss Voigt Hill
#
# Bulk Modulus (GPa) = 32.17080 42.86557 37.51819
# Shear Modulus (GPa) = 25.62016 27.95236 26.78626
#
# Velocity S-wave (km/s) = 3.41277 3.56472 3.48957
# Velocity P-wave (km/s) = 5.49130 6.03571 5.76993
#
# Compressibility (1/GPa) = 0.03108408
#
# Stress axis : x y z
#
# Youngs Moduli (GPa) = 62.17887 91.16567 42.04636
#
# Poissons Ratio (x) = 0.39680 -0.05256
# Poissons Ratio (y) = 0.27063 0.28477
# Poissons Ratio (z) = -0.07772 0.61745
#
# Static dielectric constant tensor:
#      x y z
#    x 1.861890 0.000000 0.000000 
#    y 0.000000 1.956770 0.000000 
#    z 0.000000 0.000000 1.816880 
# 
# From -- ./inp_files/12965.got.cif
#   From: 2010.05.17/outbox.cif.g08.bks.cpg/sg37_7_cif.got.tgz:12965.got - 2010.06.03 17:53:42.
