data_PCOD9354132
_publ_section_title
;
Structure prediction by ZEFSAII (Michael W. Deem and Ramdas Pophale) SiO2 
 PCOD9354132
Probable space group: C C C 2
;
_chemical_formula_sum "Si O2"
_cell_formula_units_Z 60
_cell_length_a 20.365204
_cell_length_b 10.914460
_cell_length_c 12.736664
_cell_angle_alpha 90.000000
_cell_angle_beta 90.000000
_cell_angle_gamma 90.000000
_cell_volume 2831.044595
_symmetry_space_group_name_H-M "C C C 2"
_symmetry_group_IT_number 37
_symmetry_cell_setting 'orthorhombic'
loop_
_space_group_symop_operation_xyz
x,y,z
-x,-y,z
-x,y,1/2+z
x,-y,1/2+z
1/2+x,1/2+y,z
1/2-x,1/2-y,z
1/2-x,1/2+y,1/2+z
1/2+x,1/2-y,1/2+z
loop_
_atom_site_type_symbol
_atom_site_label
_atom_site_fract_x
_atom_site_fract_y
_atom_site_fract_z
Si Si1 0.000000 0.500000 0.994810
Si Si2 0.744283 0.435484 0.856544
Si Si3 0.724894 0.869433 0.581803
Si Si4 0.432922 0.574433 0.245246
Si Si5 0.685569 0.583412 0.153330
Si Si6 0.422522 0.834347 0.135489
Si Si7 0.122427 0.435075 0.850261
Si Si8 0.656948 0.663752 0.919921
O O1 0.935761 0.531139 0.928403
O O2 0.981102 0.384864 0.066330
O O3 0.738734 0.373878 0.969979
O O4 0.707919 0.360907 0.764856
O O5 0.820867 0.464253 0.842466
O O6 0.709977 0.569976 0.869611
O O7 0.750000 0.750000 0.643622
O O8 0.751942 0.993626 0.632315
O O9 0.647179 0.851386 0.575941
O O10 0.500000 0.500000 0.248637
O O11 0.377913 0.495149 0.185090
O O12 0.436073 0.699289 0.178515
O O13 0.408679 0.609644 0.363368
O O14 0.668660 0.654303 0.045824
O O15 0.410781 0.916042 0.238129
O O16 0.155562 0.305596 0.885615
#
# Coordination Sequence:
#
# PCOD9354132 Si02
#       8
#     4   8   8   8   8   8   8   8
#     4  12  26  42  60  98 132 180 224 262 322 392
#     4  10  20  38  63  93 124 158 211 274 324 385
#     4  11  20  38  64  93 123 163 214 266 326 383
#     4  10  22  39  63  97 132 175 217 266 325 394
#     4  10  20  38  65  93 126 160 220 267 325 387
#     4  11  23  42  66  91 128 181 220 269 323 390
#     4  11  22  41  64  90 128 173 222 262 322 395
#     4   9  22  38  62  96 123 167 211 271 328 385
#
# _framework density 21.193591000000001
#
# number of rings (size 3 to 8) (size 9 to 14) (size 15 to 20)
#    0.000    1.600    4.000    0.800    1.867    0.533 
#    2.400    4.000    0.000    0.000    0.000    0.000 
#    0.000    0.000    0.000    0.000    0.000    0.000 
#
# Total GULP energy -167331.440316 kJ/mol
# GULP energy per Si atom -5577.714677 kJ/mol
# Density = 2.114535 g / cm^3
# Si number density = 21.193591 Si / 1000 Ang^3
#
#
#
# Elastic Constant Matrix: (Units=GPa)
#
#
# Indices 1 2 3 4 5 6 
#
# 1 108.0677 27.7103 24.1544 0.0000 0.0000 0.0000
# 2 27.7103 38.4922 3.8405 0.0000 0.0000 0.0000
# 3 24.1544 3.8405 122.7557 0.0000 0.0000 0.0000
# 4 0.0000 0.0000 0.0000 12.0013 0.0000 0.0000
# 5 0.0000 0.0000 0.0000 0.0000 34.0486 0.0000
# 6 0.0000 0.0000 0.0000 0.0000 0.0000 35.8162
#
#
#
# Elastic Compliance Matrix: (Units=1/GPa)
#
#
# Indices 1 2 3 4 5 6 
#
# 1 0.011851 -0.008325 -0.002071 0.000000 0.000000 0.000000
# 2 -0.008325 0.031908 0.000640 0.000000 0.000000 0.000000
# 3 -0.002071 0.000640 0.008534 0.000000 0.000000 0.000000
# 4 0.000000 0.000000 0.000000 0.083324 0.000000 0.000000
# 5 0.000000 0.000000 0.000000 0.000000 0.029370 0.000000
# 6 0.000000 0.000000 0.000000 0.000000 0.000000 0.027920
#
#
# Mechanical properties :
#
#
# Convention : Reuss Voigt Hill
#
# Bulk Modulus (GPa) = 30.50609 42.30287 36.40448
# Shear Modulus (GPa) = 22.38667 30.61394 26.50030
#
# Velocity S-wave (km/s) = 3.25359 3.80477 3.53992
# Velocity P-wave (km/s) = 5.34226 6.26939 5.82430
#
# Compressibility (1/GPa) = 0.03278034
#
# Stress axis : x y z
#
# Youngs Moduli (GPa) = 84.38059 31.33968 117.18054
#
# Poissons Ratio (x) = 0.26090 0.24273
# Poissons Ratio (y) = 0.70245 -0.07497
# Poissons Ratio (z) = 0.17479 -0.02005
#
# Static dielectric constant tensor:
#      x y z
#    x 1.759210 0.000000 0.000000 
#    y 0.000000 1.919510 0.000000 
#    z 0.000000 0.000000 1.808280 
# 
# From -- ./inp_files/8631.got.cif
#   From: 2010.05.17/outbox.cif.g08.bks.cpg/sg37_5_cif.got.tgz:8631.got - 2010.06.03 17:53:42.
