data_PCOD9354148
_publ_section_title
;
Structure prediction by ZEFSAII (Michael W. Deem and Ramdas Pophale) SiO2 
 PCOD9354148
Probable space group: C C C 2
;
_chemical_formula_sum "Si O2"
_cell_formula_units_Z 44
_cell_length_a 11.039824
_cell_length_b 15.588054
_cell_length_c 11.522221
_cell_angle_alpha 90.000000
_cell_angle_beta 90.000000
_cell_angle_gamma 90.000000
_cell_volume 1982.851784
_symmetry_space_group_name_H-M "C C C 2"
_symmetry_group_IT_number 37
_symmetry_cell_setting 'orthorhombic'
loop_
_space_group_symop_operation_xyz
x,y,z
-x,-y,z
-x,y,1/2+z
x,-y,1/2+z
1/2+x,1/2+y,z
1/2-x,1/2-y,z
1/2-x,1/2+y,1/2+z
1/2+x,1/2-y,1/2+z
loop_
_atom_site_type_symbol
_atom_site_label
_atom_site_fract_x
_atom_site_fract_y
_atom_site_fract_z
Si Si1 0.792377 0.402008 0.245610
Si Si2 0.226675 0.593612 0.640421
Si Si3 0.527206 0.099598 0.460885
Si Si4 0.628214 0.546229 0.930201
Si Si5 0.750000 0.250000 0.076487
Si Si6 0.758909 0.630101 0.397295
O O1 0.797331 0.493982 0.180111
O O2 0.894327 0.395933 0.343744
O O3 0.664482 0.399303 0.316584
O O4 0.804969 0.321910 0.160556
O O5 0.110932 0.628071 0.568649
O O6 0.338088 0.593010 0.549708
O O7 0.253281 0.642178 0.760070
O O8 0.398371 0.141366 0.434494
O O9 0.500000 0.000000 0.483460
O O10 0.500000 0.500000 0.926180
O O11 0.722761 0.467347 0.922777
O O12 0.680694 0.310739 0.982827
#
# Coordination Sequence:
#
# PCOD9354148 Si02
#       6
#     8   8   8   8   4   8
#     4  10  22  39  64  93 130 164 213 266 325 384
#     4  10  20  38  65  97 120 164 215 272 306 386
#     4  11  19  36  69 101 119 156 220 276 321 374
#     4  10  21  41  66  94 121 173 225 260 306 390
#     4  12  24  46  54  96 140 174 202 268 336 378
#     4  11  24  38  64  95 132 168 212 263 333 380
#
# _framework density 22.190263000000002
#
# number of rings (size 3 to 8) (size 9 to 14) (size 15 to 20)
#    0.000    1.455    7.273    0.000    5.091    2.909 
#    3.273    3.636    0.000    0.000    0.000    0.000 
#    0.000    0.000    0.000    0.000    0.000    0.000 
#
# Total GULP energy -122675.052455 kJ/mol
# GULP energy per Si atom -5576.138748 kJ/mol
# Density = 2.213976 g / cm^3
# Si number density = 22.190263 Si / 1000 Ang^3
#
#
#
# Elastic Constant Matrix: (Units=GPa)
#
#
# Indices 1 2 3 4 5 6 
#
# 1 113.6425 -8.3985 46.6198 0.0000 0.0000 0.0000
# 2 -8.3985 48.1976 13.4796 0.0000 0.0000 0.0000
# 3 46.6198 13.4796 177.4929 0.0000 0.0000 0.0000
# 4 0.0000 0.0000 0.0000 38.8607 0.0000 0.0000
# 5 0.0000 0.0000 0.0000 0.0000 5.9121 0.0000
# 6 0.0000 0.0000 0.0000 0.0000 0.0000 -6.2452
#
#
#
# Elastic Compliance Matrix: (Units=1/GPa)
#
#
# Indices 1 2 3 4 5 6 
#
# 1 0.010165 0.002573 -0.002865 0.000000 0.000000 0.000000
# 2 0.002573 0.021849 -0.002335 0.000000 0.000000 0.000000
# 3 -0.002865 -0.002335 0.006564 0.000000 0.000000 0.000000
# 4 0.000000 0.000000 0.000000 0.025733 0.000000 0.000000
# 5 0.000000 0.000000 0.000000 0.000000 0.169145 0.000000
# 6 0.000000 0.000000 0.000000 0.000000 0.000000 -0.160123
#
#
# Mechanical properties :
#
#
# Convention : Reuss Voigt Hill
#
# Bulk Modulus (GPa) = 30.00946 49.19277 39.60112
# Shear Modulus (GPa) = 55.74342 26.88098 41.31220
#
# Velocity S-wave (km/s) = 5.01749 3.48427 4.31945
# Velocity P-wave (km/s) = 6.86440 6.19707 6.53925
#
# Compressibility (1/GPa) = 0.03332282
#
# Stress axis : x y z
#
# Youngs Moduli (GPa) = 98.37586 45.76817 152.34706
#
# Poissons Ratio (x) = -0.11774 0.43652
# Poissons Ratio (y) = -0.25308 0.35574
# Poissons Ratio (z) = 0.28188 0.10687
#
# Static dielectric constant tensor:
#      x y z
#    x 1.868590 0.000000 0.000000 
#    y 0.000000 1.915960 0.000000 
#    z 0.000000 0.000000 1.856680 
# 
# From -- ./inp_files/7141.got.cif
#   From: 2010.05.17/outbox.cif.g08.bks.cpg/sg37_4_cif.got.tgz:7141.got - 2010.06.03 17:53:42.
