data_PCOD9354581
_publ_section_title
;
Structure prediction by ZEFSAII (Michael W. Deem and Ramdas Pophale) SiO2 
 PCOD9354581
Probable space group: C C C 2
;
_chemical_formula_sum "Si O2"
_cell_formula_units_Z 56
_cell_length_a 13.278641
_cell_length_b 21.497370
_cell_length_c 9.341823
_cell_angle_alpha 90.000000
_cell_angle_beta 90.000000
_cell_angle_gamma 90.000000
_cell_volume 2666.678106
_symmetry_space_group_name_H-M "C C C 2"
_symmetry_group_IT_number 37
_symmetry_cell_setting 'orthorhombic'
loop_
_space_group_symop_operation_xyz
x,y,z
-x,-y,z
-x,y,1/2+z
x,-y,1/2+z
1/2+x,1/2+y,z
1/2-x,1/2-y,z
1/2-x,1/2+y,1/2+z
1/2+x,1/2-y,1/2+z
loop_
_atom_site_type_symbol
_atom_site_label
_atom_site_fract_x
_atom_site_fract_y
_atom_site_fract_z
Si Si1 0.132113 0.569954 0.031480
Si Si2 0.731761 0.816371 0.396556
Si Si3 0.935788 0.361301 0.427300
Si Si4 0.959102 0.284330 0.698538
Si Si5 0.930214 0.857471 0.227095
Si Si6 0.935536 0.938431 0.940526
Si Si7 0.712051 0.042078 0.344080
O O1 0.159750 0.545230 0.188386
O O2 0.018903 0.588929 0.984665
O O3 0.195586 0.632423 0.006587
O O4 0.171124 0.518902 0.920960
O O5 0.750000 0.750000 0.469879
O O6 0.642170 0.800818 0.285891
O O7 0.825715 0.842354 0.307711
O O8 0.942889 0.304892 0.536993
O O9 0.831148 0.396962 0.423775
O O10 0.961699 0.330721 0.274336
O O11 0.979058 0.210922 0.703195
O O12 0.998952 0.897536 0.332119
O O13 0.915285 0.896818 0.081868
O O14 0.832162 0.957113 0.859828
O O15 0.000000 0.000000 0.978985
#
# Coordination Sequence:
#
# PCOD9354581 Si02
#       7
#     8   8   8   8   8   8   8
#     4  11  26  43  70 103 136 179 226 285 348 412
#     4   9  21  43  71  97 136 182 229 282 348 403
#     4  11  22  44  69 103 137 172 223 284 352 414
#     4  10  21  41  71  99 137 177 224 286 348 412
#     4  11  24  45  67  99 134 185 233 285 339 403
#     4  12  28  44  70  96 141 184 237 285 337 408
#     4  12  28  44  69 103 141 181 231 284 341 415
#
# _framework density 20.999908999999999
#
# number of rings (size 3 to 8) (size 9 to 14) (size 15 to 20)
#    0.000    1.143    1.429    3.429   12.000    1.143 
#    0.000    2.143    0.000    0.000    0.000    0.000 
#    0.000    0.000    0.000    0.000    0.000    0.000 
#
# Total GULP energy -156519.357779 kJ/mol
# GULP energy per Si atom -5589.977064 kJ/mol
# Density = 2.095211 g / cm^3
# Si number density = 20.999909 Si / 1000 Ang^3
#
#
#
# Elastic Constant Matrix: (Units=GPa)
#
#
# Indices 1 2 3 4 5 6 
#
# 1 64.8361 41.5484 -6.1906 0.0000 0.0000 0.0000
# 2 41.5484 117.1099 37.1700 0.0000 0.0000 0.0000
# 3 -6.1906 37.1700 91.1043 0.0000 0.0000 0.0000
# 4 0.0000 0.0000 0.0000 42.2072 0.0000 0.0000
# 5 0.0000 0.0000 0.0000 0.0000 8.9330 0.0000
# 6 0.0000 0.0000 0.0000 0.0000 0.0000 26.1686
#
#
#
# Elastic Compliance Matrix: (Units=1/GPa)
#
#
# Indices 1 2 3 4 5 6 
#
# 1 0.022046 -0.009531 0.005387 0.000000 0.000000 0.000000
# 2 -0.009531 0.013930 -0.006331 0.000000 0.000000 0.000000
# 3 0.005387 -0.006331 0.013925 0.000000 0.000000 0.000000
# 4 0.000000 0.000000 0.000000 0.023693 0.000000 0.000000
# 5 0.000000 0.000000 0.000000 0.000000 0.111945 0.000000
# 6 0.000000 0.000000 0.000000 0.000000 0.000000 0.038214
#
#
# Mechanical properties :
#
#
# Convention : Reuss Voigt Hill
#
# Bulk Modulus (GPa) = 34.54221 46.45623 40.49922
# Shear Modulus (GPa) = 19.65777 28.82994 24.24385
#
# Velocity S-wave (km/s) = 3.06288 3.70923 3.40144
# Velocity P-wave (km/s) = 5.38449 6.36511 5.89523
#
# Compressibility (1/GPa) = 0.02895009
#
# Stress axis : x y z
#
# Youngs Moduli (GPa) = 45.36071 71.78844 71.81108
#
# Poissons Ratio (x) = 0.68422 -0.38682
# Poissons Ratio (y) = 0.43233 0.45463
# Poissons Ratio (z) = -0.24434 0.45449
#
# Static dielectric constant tensor:
#      x y z
#    x 1.760800 0.000000 0.000000 
#    y 0.000000 1.743860 0.000000 
#    z 0.000000 0.000000 1.759140 
# 
# From -- ./inp_files/3635.got.cif
#   From: 2010.05.17/outbox.cif.g08.bks.cpg/sg37_2_cif.got.tgz:3635.got - 2010.06.03 17:53:42.
