data_PCOD9354863
_publ_section_title
;
Structure prediction by ZEFSAII (Michael W. Deem and Ramdas Pophale) SiO2 
 PCOD9354863
Probable space group: C C C 2
;
_chemical_formula_sum "Si O2"
_cell_formula_units_Z 48
_cell_length_a 12.243865
_cell_length_b 8.662673
_cell_length_c 21.744988
_cell_angle_alpha 90.000000
_cell_angle_beta 90.000000
_cell_angle_gamma 90.000000
_cell_volume 2306.373427
_symmetry_space_group_name_H-M "C C C 2"
_symmetry_group_IT_number 37
_symmetry_cell_setting 'orthorhombic'
loop_
_space_group_symop_operation_xyz
x,y,z
-x,-y,z
-x,y,1/2+z
x,-y,1/2+z
1/2+x,1/2+y,z
1/2-x,1/2-y,z
1/2-x,1/2+y,1/2+z
1/2+x,1/2-y,1/2+z
loop_
_atom_site_type_symbol
_atom_site_label
_atom_site_fract_x
_atom_site_fract_y
_atom_site_fract_z
Si Si1 0.695346 0.972539 0.741360
Si Si2 0.619353 0.581797 0.543036
Si Si3 0.750000 0.750000 0.847145
Si Si4 0.949468 0.339872 0.130089
Si Si5 0.750000 0.250000 0.812735
Si Si6 0.129045 0.024161 0.405711
Si Si7 0.344006 0.623414 0.655277
O O1 0.687905 0.859955 0.799042
O O2 0.623685 0.900515 0.686925
O O3 0.672829 0.140996 0.770633
O O4 0.816004 0.005616 0.711291
O O5 0.500000 0.500000 0.538249
O O6 0.610574 0.747956 0.575622
O O7 0.662004 0.579882 0.473922
O O8 0.675604 0.473028 0.593181
O O9 0.820861 0.858811 0.889797
O O10 0.000000 0.500000 0.105673
O O11 0.041301 0.215044 0.152787
O O12 0.676165 0.358306 0.855324
O O13 0.000000 0.000000 0.401494
O O14 0.250000 0.750000 0.656331
#
# Coordination Sequence:
#
# PCOD9354863 Si02
#       7
#     8   8   4   8   4   8   8
#     4  11  21  39  59  92 128 154 208 249 306 379
#     4   9  22  40  63  89 123 160 206 253 317 375
#     4  10  24  38  66  94 114 172 220 240 310 384
#     4  11  21  38  61  91 124 160 198 256 321 376
#     4  10  22  42  64  92 126 168 212 248 310 374
#     4  10  23  46  63  90 127 164 213 264 304 362
#     4  11  21  38  59  90 123 159 193 257 317 369
#
# _framework density 20.811895
#
# number of rings (size 3 to 8) (size 9 to 14) (size 15 to 20)
#    0.000    1.667    2.500    1.000    1.167    5.333 
#    0.000    6.667    0.000    0.000    0.000    0.000 
#    0.000    0.000    0.000    0.000    0.000    0.000 
#
# Total GULP energy -133857.994344 kJ/mol
# GULP energy per Si atom -5577.416431 kJ/mol
# Density = 2.076453 g / cm^3
# Si number density = 20.811895 Si / 1000 Ang^3
#
#
#
# Elastic Constant Matrix: (Units=GPa)
#
#
# Indices 1 2 3 4 5 6 
#
# 1 63.4311 49.5849 48.7544 0.0000 0.0000 0.0000
# 2 49.5849 160.3365 84.4151 0.0000 0.0000 0.0000
# 3 48.7544 84.4151 165.4100 0.0000 0.0000 0.0000
# 4 0.0000 0.0000 0.0000 48.0247 0.0000 0.0000
# 5 0.0000 0.0000 0.0000 0.0000 26.7212 0.0000
# 6 0.0000 0.0000 0.0000 0.0000 0.0000 30.6361
#
#
#
# Elastic Compliance Matrix: (Units=1/GPa)
#
#
# Indices 1 2 3 4 5 6 
#
# 1 0.022802 -0.004804 -0.004269 0.000000 0.000000 0.000000
# 2 -0.004804 0.009540 -0.003453 0.000000 0.000000 0.000000
# 3 -0.004269 -0.003453 0.009066 0.000000 0.000000 0.000000
# 4 0.000000 0.000000 0.000000 0.020823 0.000000 0.000000
# 5 0.000000 0.000000 0.000000 0.000000 0.037423 0.000000
# 6 0.000000 0.000000 0.000000 0.000000 0.000000 0.032641
#
#
# Mechanical properties :
#
#
# Convention : Reuss Voigt Hill
#
# Bulk Modulus (GPa) = 61.13848 83.85404 72.49626
# Shear Modulus (GPa) = 30.71261 34.83796 32.77528
#
# Velocity S-wave (km/s) = 3.84568 4.09583 3.97272
# Velocity P-wave (km/s) = 7.01138 7.92127 7.48018
#
# Compressibility (1/GPa) = 0.01635631
#
# Stress axis : x y z
#
# Youngs Moduli (GPa) = 43.85619 104.81720 110.30139
#
# Poissons Ratio (x) = 0.50353 0.47090
# Poissons Ratio (y) = 0.21068 0.38086
# Poissons Ratio (z) = 0.18723 0.36192
#
# Static dielectric constant tensor:
#      x y z
#    x 1.795800 0.000000 0.000000 
#    y 0.000000 1.831420 0.000000 
#    z 0.000000 0.000000 1.761360 
# 
# From -- ./inp_files/18370.got.cif
#   From: 2010.05.17/outbox.cif.g08.bks.cpg/sg37_10_cif.got.tgz:18370.got - 2010.06.03 17:53:42.
