data_PCOD9354506
_publ_section_title
;
Structure prediction by ZEFSAII (Michael W. Deem and Ramdas Pophale) SiO2 
 PCOD9354506
Probable space group: C C C 2
;
_chemical_formula_sum "Si O2"
_cell_formula_units_Z 40
_cell_length_a 11.225504
_cell_length_b 12.483257
_cell_length_c 14.438932
_cell_angle_alpha 90.000000
_cell_angle_beta 90.000000
_cell_angle_gamma 90.000000
_cell_volume 2023.339834
_symmetry_space_group_name_H-M "C C C 2"
_symmetry_group_IT_number 37
_symmetry_cell_setting 'orthorhombic'
loop_
_space_group_symop_operation_xyz
x,y,z
-x,-y,z
-x,y,1/2+z
x,-y,1/2+z
1/2+x,1/2+y,z
1/2-x,1/2-y,z
1/2-x,1/2+y,1/2+z
1/2+x,1/2-y,1/2+z
loop_
_atom_site_type_symbol
_atom_site_label
_atom_site_fract_x
_atom_site_fract_y
_atom_site_fract_z
Si Si1 0.710628 0.870178 0.046610
Si Si2 0.976269 0.688965 0.439157
Si Si3 0.000000 0.500000 0.802154
Si Si4 0.159715 0.850147 0.362485
Si Si5 0.250000 0.250000 0.558569
Si Si6 0.763356 0.550777 0.694759
O O1 0.750000 0.750000 0.069395
O O2 0.736304 0.945184 0.132506
O O3 0.574925 0.860921 0.010061
O O4 0.787659 0.902305 0.956061
O O5 0.864153 0.730155 0.494982
O O6 0.948768 0.594544 0.366799
O O7 0.038634 0.788946 0.386851
O O8 0.893993 0.550944 0.742117
O O9 0.250000 0.750000 0.341220
O O10 0.169819 0.931865 0.278147
O O11 0.258743 0.352333 0.624774
#
# Coordination Sequence:
#
# PCOD9354506 Si02
#       6
#     8   8   4   8   4   8
#     4   9  20  41  66  90 128 171 211 267 324 385
#     4  10  21  40  63  91 135 172 213 263 335 381
#     4  12  20  38  70  96 122 170 226 286 306 374
#     4   9  18  41  63  88 130 169 200 266 332 372
#     4  12  24  36  64 102 130 170 216 266 324 404
#     4  12  21  37  68 102 125 163 226 268 325 381
#
# _framework density 19.769293999999999
#
# number of rings (size 3 to 8) (size 9 to 14) (size 15 to 20)
#    0.000    2.000    5.000    2.400    0.000    0.000 
#    1.800    4.000    8.800    0.000    0.000    0.000 
#    0.000    0.000    0.000    0.000    0.000    0.000 
#
# Total GULP energy -111655.737460 kJ/mol
# GULP energy per Si atom -5582.786873 kJ/mol
# Density = 1.972430 g / cm^3
# Si number density = 19.769294 Si / 1000 Ang^3
#
#
#
# Elastic Constant Matrix: (Units=GPa)
#
#
# Indices 1 2 3 4 5 6 
#
# 1 57.2767 34.7264 53.8391 0.0000 0.0000 0.0000
# 2 34.7264 77.7377 85.3939 0.0000 0.0000 0.0000
# 3 53.8391 85.3939 147.9463 0.0000 0.0000 0.0000
# 4 0.0000 0.0000 0.0000 -487.4323 0.0000 0.0000
# 5 0.0000 0.0000 0.0000 0.0000 16.9418 0.0000
# 6 0.0000 0.0000 0.0000 0.0000 0.0000 14.1072
#
#
#
# Elastic Compliance Matrix: (Units=1/GPa)
#
#
# Indices 1 2 3 4 5 6 
#
# 1 0.026870 -0.003448 -0.007788 0.000000 0.000000 0.000000
# 2 -0.003448 0.035593 -0.019290 0.000000 0.000000 0.000000
# 3 -0.007788 -0.019290 0.020727 0.000000 0.000000 0.000000
# 4 0.000000 0.000000 0.000000 -0.002052 0.000000 0.000000
# 5 0.000000 0.000000 0.000000 0.000000 0.059025 0.000000
# 6 0.000000 0.000000 0.000000 0.000000 0.000000 0.070886
#
#
# Mechanical properties :
#
#
# Convention : Reuss Voigt Hill
#
# Bulk Modulus (GPa) = 45.16839 70.09772 57.63305
# Shear Modulus (GPa) = 17.89022 -84.00990 -33.05984
#
# Velocity S-wave (km/s) = 3.01150 -6.52590 -4.09379
# Velocity P-wave (km/s) = 5.91520 4.60959 2.62118
#
# Compressibility (1/GPa) = 0.02213938
#
# Stress axis : x y z
#
# Youngs Moduli (GPa) = 37.21563 28.09507 48.24573
#
# Poissons Ratio (x) = 0.09688 0.37574
# Poissons Ratio (y) = 0.12833 0.93064
# Poissons Ratio (z) = 0.28984 0.54194
#
# Static dielectric constant tensor:
#      x y z
#    x 1.710480 0.000000 0.000000 
#    y 0.000000 1.754570 0.000000 
#    z 0.000000 0.000000 1.721240 
# 
# From -- ./inp_files/7680.got.cif
#   From: 2010.05.17/outbox.cif.g08.bks.cpg/sg37_4_cif.got.tgz:7680.got - 2010.06.03 17:53:42.
