data_PCOD9354617
_publ_section_title
;
Structure prediction by ZEFSAII (Michael W. Deem and Ramdas Pophale) SiO2 
 PCOD9354617
Probable space group: C C C 2
;
_chemical_formula_sum "Si O2"
_cell_formula_units_Z 64
_cell_length_a 24.000888
_cell_length_b 11.011440
_cell_length_c 12.543346
_cell_angle_alpha 90.000000
_cell_angle_beta 90.000000
_cell_angle_gamma 90.000000
_cell_volume 3315.009896
_symmetry_space_group_name_H-M "C C C 2"
_symmetry_group_IT_number 37
_symmetry_cell_setting 'orthorhombic'
loop_
_space_group_symop_operation_xyz
x,y,z
-x,-y,z
-x,y,1/2+z
x,-y,1/2+z
1/2+x,1/2+y,z
1/2-x,1/2-y,z
1/2-x,1/2+y,1/2+z
1/2+x,1/2-y,1/2+z
loop_
_atom_site_type_symbol
_atom_site_label
_atom_site_fract_x
_atom_site_fract_y
_atom_site_fract_z
Si Si1 0.732421 0.376831 0.357830
Si Si2 0.635532 0.526942 0.467488
Si Si3 0.145884 0.437629 0.880816
Si Si4 0.055832 0.768785 0.877949
Si Si5 0.858411 0.176455 0.183012
Si Si6 0.425576 0.309604 0.887333
Si Si7 0.395220 0.909319 0.055578
Si Si8 0.056977 0.437800 0.232114
O O1 0.750000 0.250000 0.416867
O O2 0.693098 0.472792 0.419356
O O3 0.792787 0.428745 0.333771
O O4 0.696779 0.337974 0.254430
O O5 0.601490 0.625373 0.395245
O O6 0.643250 0.588390 0.581912
O O7 0.596558 0.408955 0.469376
O O8 0.111557 0.312760 0.900811
O O9 0.107850 0.510198 0.799301
O O10 0.149488 0.514016 0.989599
O O11 0.056624 0.703395 0.762149
O O12 0.991551 0.801811 0.895898
O O13 0.070596 0.669326 0.969182
O O14 0.907970 0.149691 0.267200
O O15 0.869548 0.311168 0.136758
O O16 0.433064 0.008731 0.115194
O O17 0.000000 0.500000 0.272028
#
# Coordination Sequence:
#
# PCOD9354617 Si02
#       8
#     8   8   8   8   8   8   8   8
#     4  11  21  42  68  85 125 171 215 271 323 386
#     4  10  23  41  64  97 124 168 226 268 322 404
#     4  11  22  38  63  94 121 167 214 271 325 384
#     4  10  22  39  63  95 135 173 214 280 329 388
#     4  10  21  43  68  90 124 175 217 262 337 398
#     4  11  20  43  64  92 138 169 212 269 337 393
#     4  10  22  37  62  98 125 166 221 265 331 388
#     4  11  20  37  60  91 129 168 217 263 328 394
#
# _framework density 19.306125999999999
#
# number of rings (size 3 to 8) (size 9 to 14) (size 15 to 20)
#    0.000    1.500    5.000    0.375    1.750    2.000 
#    4.500   10.000    0.000    0.000    0.000    0.000 
#    0.000    0.000    0.000    0.000    0.000    0.000 
#
# Total GULP energy -178273.852233 kJ/mol
# GULP energy per Si atom -5571.057882 kJ/mol
# Density = 1.926218 g / cm^3
# Si number density = 19.306126 Si / 1000 Ang^3
#
#
#
# Elastic Constant Matrix: (Units=GPa)
#
#
# Indices 1 2 3 4 5 6 
#
# 1 152.3981 39.5921 34.9924 0.0000 0.0000 0.0000
# 2 39.5921 63.4127 28.2024 0.0000 0.0000 0.0000
# 3 34.9924 28.2024 65.2115 0.0000 0.0000 0.0000
# 4 0.0000 0.0000 0.0000 37.8704 0.0000 0.0000
# 5 0.0000 0.0000 0.0000 0.0000 4.7030 0.0000
# 6 0.0000 0.0000 0.0000 0.0000 0.0000 27.5537
#
#
#
# Elastic Compliance Matrix: (Units=1/GPa)
#
#
# Indices 1 2 3 4 5 6 
#
# 1 0.008201 -0.003916 -0.002707 0.000000 0.000000 0.000000
# 2 -0.003916 0.021395 -0.007152 0.000000 0.000000 0.000000
# 3 -0.002707 -0.007152 0.019880 0.000000 0.000000 0.000000
# 4 0.000000 0.000000 0.000000 0.026406 0.000000 0.000000
# 5 0.000000 0.000000 0.000000 0.000000 0.212631 0.000000
# 6 0.000000 0.000000 0.000000 0.000000 0.000000 0.036293
#
#
# Mechanical properties :
#
#
# Convention : Reuss Voigt Hill
#
# Bulk Modulus (GPa) = 45.60596 54.06624 49.83610
# Shear Modulus (GPa) = 13.90187 25.90779 19.90483
#
# Velocity S-wave (km/s) = 2.68633 3.66723 3.21442
# Velocity P-wave (km/s) = 5.77024 6.78211 6.29653
#
# Compressibility (1/GPa) = 0.02192696
#
# Stress axis : x y z
#
# Youngs Moduli (GPa) = 121.94068 46.73885 50.30180
#
# Poissons Ratio (x) = 0.18305 0.13615
# Poissons Ratio (y) = 0.47756 0.35973
# Poissons Ratio (z) = 0.33006 0.33425
#
# Static dielectric constant tensor:
#      x y z
#    x 1.696480 0.000000 0.000000 
#    y 0.000000 1.734730 0.000000 
#    z 0.000000 0.000000 1.726130 
# 
# From -- ./inp_files/8933.got.cif
#   From: 2010.05.17/outbox.cif.g08.bks.cpg/sg37_5_cif.got.tgz:8933.got - 2010.06.03 17:53:42.
