data_PCOD9354776
_publ_section_title
;
Structure prediction by ZEFSAII (Michael W. Deem and Ramdas Pophale) SiO2 
 PCOD9354776
Probable space group: C C C 2
;
_chemical_formula_sum "Si O2"
_cell_formula_units_Z 44
_cell_length_a 7.588384
_cell_length_b 11.636907
_cell_length_c 22.971096
_cell_angle_alpha 90.000000
_cell_angle_beta 90.000000
_cell_angle_gamma 90.000000
_cell_volume 2028.469957
_symmetry_space_group_name_H-M "C C C 2"
_symmetry_group_IT_number 37
_symmetry_cell_setting 'orthorhombic'
loop_
_space_group_symop_operation_xyz
x,y,z
-x,-y,z
-x,y,1/2+z
x,-y,1/2+z
1/2+x,1/2+y,z
1/2-x,1/2-y,z
1/2-x,1/2+y,1/2+z
1/2+x,1/2-y,1/2+z
loop_
_atom_site_type_symbol
_atom_site_label
_atom_site_fract_x
_atom_site_fract_y
_atom_site_fract_z
Si Si1 0.750000 0.250000 0.441600
Si Si2 0.295772 0.504568 0.488855
Si Si3 0.896445 0.847617 0.382276
Si Si4 0.000000 0.000000 0.158932
Si Si5 0.500000 0.000000 0.191715
Si Si6 0.819102 0.878417 0.252320
Si Si7 0.685587 0.119825 0.096204
O O1 0.772100 0.365209 0.480695
O O2 0.579444 0.288683 0.403538
O O3 0.500000 0.500000 0.511172
O O4 0.323887 0.444490 0.426238
O O5 0.172576 0.428314 0.530628
O O6 0.750000 0.750000 0.384122
O O7 0.896374 0.893953 0.316618
O O8 0.036962 0.104334 0.202585
O O9 0.833061 0.034289 0.121971
O O10 0.337978 0.035000 0.233379
O O11 0.534821 0.102839 0.144847
O O12 0.750000 0.750000 0.249962
O O13 0.750000 0.250000 0.093595
#
# Coordination Sequence:
#
# PCOD9354776 Si02
#       7
#     4   8   8   4   4   8   8
#     4  10  24  42  64 100 134 180 220 272 350 402
#     4  10  22  41  64  97 133 172 221 276 335 405
#     4  10  23  42  66  95 134 172 224 281 334 401
#     4  10  22  40  62  90 130 176 214 272 326 384
#     4  10  24  40  62  98 130 172 228 268 336 406
#     4  10  22  42  62  94 129 172 220 278 326 398
#     4  11  22  41  65  94 130 173 219 273 333 400
#
# _framework density 21.691224999999999
#
# number of rings (size 3 to 8) (size 9 to 14) (size 15 to 20)
#    0.000    1.818    0.909    1.636    3.818    8.000 
#   14.727    0.000    0.000    0.000    0.000    0.000 
#    0.000    0.000    0.000    0.000    0.000    0.000 
#
# Total GULP energy -122675.245821 kJ/mol
# GULP energy per Si atom -5576.147537 kJ/mol
# Density = 2.164185 g / cm^3
# Si number density = 21.691225 Si / 1000 Ang^3
#
#
#
# Elastic Constant Matrix: (Units=GPa)
#
#
# Indices 1 2 3 4 5 6 
#
# 1 72.3561 21.9127 19.8984 0.0000 0.0000 0.0000
# 2 21.9127 146.1892 47.9367 0.0000 0.0000 0.0000
# 3 19.8984 47.9367 117.1086 0.0000 0.0000 0.0000
# 4 0.0000 0.0000 0.0000 14.4467 0.0000 0.0000
# 5 0.0000 0.0000 0.0000 0.0000 -17.8087 0.0000
# 6 0.0000 0.0000 0.0000 0.0000 0.0000 37.2831
#
#
#
# Elastic Compliance Matrix: (Units=1/GPa)
#
#
# Indices 1 2 3 4 5 6 
#
# 1 0.014820 -0.001612 -0.001858 0.000000 0.000000 0.000000
# 2 -0.001612 0.008076 -0.003032 0.000000 0.000000 0.000000
# 3 -0.001858 -0.003032 0.010096 0.000000 0.000000 0.000000
# 4 0.000000 0.000000 0.000000 0.069220 0.000000 0.000000
# 5 0.000000 0.000000 0.000000 0.000000 -0.056152 0.000000
# 6 0.000000 0.000000 0.000000 0.000000 0.000000 0.026822
#
#
# Mechanical properties :
#
#
# Convention : Reuss Voigt Hill
#
# Bulk Modulus (GPa) = 50.03139 57.23881 53.63510
# Shear Modulus (GPa) = 54.02570 23.17795 38.60182
#
# Velocity S-wave (km/s) = 4.99608 3.27240 4.22311
# Velocity P-wave (km/s) = 7.50975 6.38149 6.96849
#
# Compressibility (1/GPa) = 0.01998745
#
# Stress axis : x y z
#
# Youngs Moduli (GPa) = 67.47748 123.81896 99.04983
#
# Poissons Ratio (x) = 0.19960 0.18406
# Poissons Ratio (y) = 0.10878 0.30032
# Poissons Ratio (z) = 0.12539 0.37542
#
# Static dielectric constant tensor:
#      x y z
#    x 2.393730 0.000000 0.000000 
#    y 0.000000 1.906900 0.000000 
#    z 0.000000 0.000000 1.822450 
# 
# From -- ./inp_files/18316.got.cif
#   From: 2010.05.17/outbox.cif.g08.bks.cpg/sg37_10_cif.got.tgz:18316.got - 2010.06.03 17:53:42.
