data_PCOD9354078
_publ_section_title
;
Structure prediction by ZEFSAII (Michael W. Deem and Ramdas Pophale) SiO2 
 PCOD9354078
Probable space group: C C C 2
;
_chemical_formula_sum "Si O2"
_cell_formula_units_Z 60
_cell_length_a 17.161698
_cell_length_b 19.252361
_cell_length_c 9.138206
_cell_angle_alpha 90.000000
_cell_angle_beta 90.000000
_cell_angle_gamma 90.000000
_cell_volume 3019.292553
_symmetry_space_group_name_H-M "C C C 2"
_symmetry_group_IT_number 37
_symmetry_cell_setting 'orthorhombic'
loop_
_space_group_symop_operation_xyz
x,y,z
-x,-y,z
-x,y,1/2+z
x,-y,1/2+z
1/2+x,1/2+y,z
1/2-x,1/2-y,z
1/2-x,1/2+y,1/2+z
1/2+x,1/2-y,1/2+z
loop_
_atom_site_type_symbol
_atom_site_label
_atom_site_fract_x
_atom_site_fract_y
_atom_site_fract_z
Si Si1 0.215000 0.569278 0.889090
Si Si2 0.780256 0.420817 0.240779
Si Si3 0.087677 0.670933 0.886133
Si Si4 0.654090 0.683173 0.362181
Si Si5 0.080075 0.681250 0.236253
Si Si6 0.963223 0.906063 0.223259
Si Si7 0.627477 0.664346 0.709149
Si Si8 0.500000 0.500000 0.965858
O O1 0.228664 0.494119 0.820998
O O2 0.130178 0.599213 0.848428
O O3 0.275522 0.629304 0.839154
O O4 0.218442 0.566355 0.065550
O O5 0.858560 0.378383 0.282755
O O6 0.705651 0.371436 0.265631
O O7 0.149673 0.733395 0.852988
O O8 0.005177 0.677964 0.806849
O O9 0.073511 0.674713 0.060390
O O10 0.589821 0.659717 0.244966
O O11 0.631038 0.669789 0.532053
O O12 0.115427 0.757722 0.266794
O O13 0.944643 0.957483 0.357610
O O14 0.052312 0.882455 0.242125
O O15 0.956187 0.947380 0.073280
#
# Coordination Sequence:
#
# PCOD9354078 Si02
#       8
#     8   8   8   8   8   8   8   4
#     4  10  23  40  61  87 118 156 196 244 295 348
#     4  10  23  40  61  87 118 156 196 244 295 348
#     4  10  21  40  64  88 116 152 199 246 293 348
#     4  10  20  37  61  86 115 153 196 239 289 348
#     4  10  21  40  64  88 116 152 199 246 293 348
#     4  11  20  34  52  82 115 156 190 230 283 352
#     4  10  20  37  61  86 115 153 196 239 289 348
#     4  10  24  30  48  82 124 150 188 230 288 342
#
# _framework density 19.872205000000001
#
# number of rings (size 3 to 8) (size 9 to 14) (size 15 to 20)
#    0.000    1.867    2.667    0.800    3.733    4.800 
#    0.000    2.667    0.000    3.200    0.000    0.000 
#    0.000    0.000    0.000    0.000    0.000    0.000 
#
# Total GULP energy -167345.400808 kJ/mol
# GULP energy per Si atom -5578.180027 kJ/mol
# Density = 1.982697 g / cm^3
# Si number density = 19.872205 Si / 1000 Ang^3
#
#
#
# Elastic Constant Matrix: (Units=GPa)
#
#
# Indices 1 2 3 4 5 6 
#
# 1 107.2390 56.9044 15.6792 0.0000 0.0000 0.0000
# 2 56.9044 73.2251 20.5092 0.0000 0.0000 0.0000
# 3 15.6792 20.5092 33.5916 0.0000 0.0000 0.0000
# 4 0.0000 0.0000 0.0000 29.1036 0.0000 0.0000
# 5 0.0000 0.0000 0.0000 0.0000 23.3978 0.0000
# 6 0.0000 0.0000 0.0000 0.0000 0.0000 21.7191
#
#
#
# Elastic Compliance Matrix: (Units=1/GPa)
#
#
# Indices 1 2 3 4 5 6 
#
# 1 0.015869 -0.012374 0.000148 0.000000 0.000000 0.000000
# 2 -0.012374 0.026121 -0.010173 0.000000 0.000000 0.000000
# 3 0.000148 -0.010173 0.035912 0.000000 0.000000 0.000000
# 4 0.000000 0.000000 0.000000 0.034360 0.000000 0.000000
# 5 0.000000 0.000000 0.000000 0.000000 0.042739 0.000000
# 6 0.000000 0.000000 0.000000 0.000000 0.000000 0.046042
#
#
# Mechanical properties :
#
#
# Convention : Reuss Voigt Hill
#
# Bulk Modulus (GPa) = 30.20748 44.47126 37.33937
# Shear Modulus (GPa) = 19.46462 22.90829 21.18645
#
# Velocity S-wave (km/s) = 3.13308 3.39895 3.26871
# Velocity P-wave (km/s) = 5.32185 6.15069 5.75122
#
# Compressibility (1/GPa) = 0.03310438
#
# Stress axis : x y z
#
# Youngs Moduli (GPa) = 63.01528 38.28274 27.84618
#
# Poissons Ratio (x) = 0.47369 -0.00411
# Poissons Ratio (y) = 0.77972 0.28328
# Poissons Ratio (z) = -0.00929 0.38945
#
# Static dielectric constant tensor:
#      x y z
#    x 1.712160 0.000000 0.000000 
#    y 0.000000 1.717170 0.000000 
#    z 0.000000 0.000000 1.681540 
# 
# From -- ./inp_files/4082.got.cif
#   From: 2010.05.17/outbox.cif.g08.bks.cpg/sg37_3_cif.got.tgz:4082.got - 2010.06.03 17:53:42.
