data_PCOD9354768
_publ_section_title
;
Structure prediction by ZEFSAII (Michael W. Deem and Ramdas Pophale) SiO2 
 PCOD9354768
Probable space group: C C C 2
;
_chemical_formula_sum "Si O2"
_cell_formula_units_Z 52
_cell_length_a 15.689935
_cell_length_b 13.210475
_cell_length_c 10.640826
_cell_angle_alpha 90.000000
_cell_angle_beta 90.000000
_cell_angle_gamma 90.000000
_cell_volume 2205.539903
_symmetry_space_group_name_H-M "C C C 2"
_symmetry_group_IT_number 37
_symmetry_cell_setting 'orthorhombic'
loop_
_space_group_symop_operation_xyz
x,y,z
-x,-y,z
-x,y,1/2+z
x,-y,1/2+z
1/2+x,1/2+y,z
1/2-x,1/2-y,z
1/2-x,1/2+y,1/2+z
1/2+x,1/2-y,1/2+z
loop_
_atom_site_type_symbol
_atom_site_label
_atom_site_fract_x
_atom_site_fract_y
_atom_site_fract_z
Si Si1 0.080036 0.572266 0.713420
Si Si2 0.712695 0.852920 0.034568
Si Si3 0.275153 0.084867 0.766558
Si Si4 0.363545 0.467935 0.159188
Si Si5 0.750000 0.750000 0.556667
Si Si6 0.073366 0.836974 0.033993
Si Si7 0.977172 0.787686 0.275894
O O1 0.154995 0.503800 0.770815
O O2 0.007442 0.176911 0.419364
O O3 0.056966 0.673385 0.788387
O O4 0.000000 0.500000 0.694174
O O5 0.750000 0.750000 0.090712
O O6 0.782984 0.933445 0.076877
O O7 0.621428 0.884035 0.086502
O O8 0.708579 0.847479 0.886600
O O9 0.277957 0.155445 0.644098
O O10 0.181637 0.033953 0.768401
O O11 0.415222 0.547088 0.075219
O O12 0.414322 0.373431 0.216125
O O13 0.835073 0.791337 0.489194
O O14 0.048196 0.783207 0.165880
#
# Coordination Sequence:
#
# PCOD9354768 Si02
#       7
#     8   8   8   8   4   8   8
#     4  11  26  43  65 102 149 191 243 304 380 449
#     4  11  21  42  73 103 138 190 248 307 360 447
#     4  10  22  39  70 100 140 189 248 299 370 439
#     4  10  23  43  68 105 139 187 244 312 366 440
#     4  10  22  46  66 102 142 190 242 296 372 434
#     4  11  27  45  74 102 146 193 245 304 372 445
#     4  12  26  46  70 106 147 191 243 307 374 440
#
# _framework density 23.576993999999999
#
# number of rings (size 3 to 8) (size 9 to 14) (size 15 to 20)
#    0.000    1.231    2.308    2.308    0.000   15.385 
#    0.000    0.000    0.000    0.923    0.000    0.000 
#    0.000    0.000    0.000    0.000    0.000    0.000 
#
# Total GULP energy -145265.793292 kJ/mol
# GULP energy per Si atom -5587.145896 kJ/mol
# Density = 2.352333 g / cm^3
# Si number density = 23.576994 Si / 1000 Ang^3
#
#
#
# Elastic Constant Matrix: (Units=GPa)
#
#
# Indices 1 2 3 4 5 6 
#
# 1 83.2226 37.9035 17.2319 0.0000 0.0000 0.0000
# 2 37.9035 156.4228 16.0946 0.0000 0.0000 0.0000
# 3 17.2319 16.0946 88.1016 0.0000 0.0000 0.0000
# 4 0.0000 0.0000 0.0000 19.3522 0.0000 0.0000
# 5 0.0000 0.0000 0.0000 0.0000 13.9636 0.0000
# 6 0.0000 0.0000 0.0000 0.0000 0.0000 42.6381
#
#
#
# Elastic Compliance Matrix: (Units=1/GPa)
#
#
# Indices 1 2 3 4 5 6 
#
# 1 0.013892 -0.003146 -0.002143 0.000000 0.000000 0.000000
# 2 -0.003146 0.007228 -0.000705 0.000000 0.000000 0.000000
# 3 -0.002143 -0.000705 0.011898 0.000000 0.000000 0.000000
# 4 0.000000 0.000000 0.000000 0.051674 0.000000 0.000000
# 5 0.000000 0.000000 0.000000 0.000000 0.071615 0.000000
# 6 0.000000 0.000000 0.000000 0.000000 0.000000 0.023453
#
#
# Mechanical properties :
#
#
# Convention : Reuss Voigt Hill
#
# Bulk Modulus (GPa) = 47.54758 52.24524 49.89641
# Shear Modulus (GPa) = 25.15626 32.29192 28.72409
#
# Velocity S-wave (km/s) = 3.27001 3.70488 3.49422
# Velocity P-wave (km/s) = 5.87095 6.36467 6.12279
#
# Compressibility (1/GPa) = 0.02103156
#
# Stress axis : x y z
#
# Youngs Moduli (GPa) = 71.98191 138.35530 84.04491
#
# Poissons Ratio (x) = 0.43525 0.18007
# Poissons Ratio (y) = 0.22645 0.05926
# Poissons Ratio (z) = 0.15422 0.09755
#
# Static dielectric constant tensor:
#      x y z
#    x 1.928430 0.000000 0.000000 
#    y 0.000000 1.885470 0.000000 
#    z 0.000000 0.000000 1.885830 
# 
# From -- ./inp_files/12652.got.cif
#   From: 2010.05.17/outbox.cif.g08.bks.cpg/sg37_7_cif.got.tgz:12652.got - 2010.06.03 17:53:42.
