data_PCOD9354973
_publ_section_title
;
Structure prediction by ZEFSAII (Michael W. Deem and Ramdas Pophale) SiO2 
 PCOD9354973
Probable space group: C C C 2
;
_chemical_formula_sum "Si O2"
_cell_formula_units_Z 48
_cell_length_a 5.746179
_cell_length_b 27.700769
_cell_length_c 12.919992
_cell_angle_alpha 90.000000
_cell_angle_beta 90.000000
_cell_angle_gamma 90.000000
_cell_volume 2056.521343
_symmetry_space_group_name_H-M "C C C 2"
_symmetry_group_IT_number 37
_symmetry_cell_setting 'orthorhombic'
loop_
_space_group_symop_operation_xyz
x,y,z
-x,-y,z
-x,y,1/2+z
x,-y,1/2+z
1/2+x,1/2+y,z
1/2-x,1/2-y,z
1/2-x,1/2+y,1/2+z
1/2+x,1/2-y,1/2+z
loop_
_atom_site_type_symbol
_atom_site_label
_atom_site_fract_x
_atom_site_fract_y
_atom_site_fract_z
Si Si1 0.592331 0.446829 0.908430
Si Si2 0.250000 0.750000 0.258168
Si Si3 0.618615 0.298151 0.907774
Si Si4 0.573060 0.374949 0.560191
Si Si5 0.557283 0.838098 0.228818
Si Si6 0.000000 0.500000 0.339932
Si Si7 0.301065 0.421336 0.734362
O O1 0.500000 0.500000 0.930269
O O2 0.545966 0.427649 0.792693
O O3 0.867169 0.459343 0.908754
O O4 0.406430 0.412041 0.965806
O O5 0.407180 0.717492 0.333848
O O6 0.422055 0.787783 0.200988
O O7 0.750000 0.250000 0.941511
O O8 0.788372 0.326738 0.829949
O O9 0.535697 0.328156 0.005822
O O10 0.782317 0.358223 0.634616
O O11 0.376435 0.405899 0.620394
O O12 0.368070 0.877454 0.261780
O O13 0.827826 0.470669 0.263901
#
# Coordination Sequence:
#
# PCOD9354973 Si02
#       7
#     8   4   8   8   8   4   8
#     4  10  24  44  69 100 143 189 233 291 357 426
#     4  10  22  48  68  90 134 188 232 298 360 424
#     4  10  24  48  67  95 136 184 234 297 360 426
#     4  12  24  41  68 107 136 180 238 298 357 427
#     4  11  24  44  70  98 138 187 233 301 359 430
#     4  10  22  44  70  98 144 196 230 284 362 424
#     4  11  24  43  67  99 140 184 232 289 351 425
#
# _framework density 23.340385999999999
#
# number of rings (size 3 to 8) (size 9 to 14) (size 15 to 20)
#    0.000    1.333    0.000    5.000    0.000   10.667 
#   19.500    0.000    0.000    0.000    0.000    0.000 
#    0.000    0.000    0.000    0.000    0.000    0.000 
#
# Total GULP energy -133749.365868 kJ/mol
# GULP energy per Si atom -5572.890244 kJ/mol
# Density = 2.328726 g / cm^3
# Si number density = 23.340386 Si / 1000 Ang^3
#
#
#
# Elastic Constant Matrix: (Units=GPa)
#
#
# Indices 1 2 3 4 5 6 
#
# 1 77.2188 10.2265 12.3366 0.0000 0.0000 0.0000
# 2 10.2265 85.5540 18.4409 0.0000 0.0000 0.0000
# 3 12.3366 18.4409 35.4788 0.0000 0.0000 0.0000
# 4 0.0000 0.0000 0.0000 73.0600 0.0000 0.0000
# 5 0.0000 0.0000 0.0000 0.0000 24.3780 0.0000
# 6 0.0000 0.0000 0.0000 0.0000 0.0000 64.3004
#
#
#
# Elastic Compliance Matrix: (Units=1/GPa)
#
#
# Indices 1 2 3 4 5 6 
#
# 1 0.013748 -0.000690 -0.004422 0.000000 0.000000 0.000000
# 2 -0.000690 0.013198 -0.006620 0.000000 0.000000 0.000000
# 3 -0.004422 -0.006620 0.033164 0.000000 0.000000 0.000000
# 4 0.000000 0.000000 0.000000 0.013687 0.000000 0.000000
# 5 0.000000 0.000000 0.000000 0.000000 0.041021 0.000000
# 6 0.000000 0.000000 0.000000 0.000000 0.000000 0.015552
#
#
# Mechanical properties :
#
#
# Convention : Reuss Voigt Hill
#
# Bulk Modulus (GPa) = 27.28774 31.13996 29.21385
# Shear Modulus (GPa) = 30.11157 42.83086 36.47121
#
# Velocity S-wave (km/s) = 3.59570 4.28840 3.95724
# Velocity P-wave (km/s) = 5.38102 6.15558 5.78128
#
# Compressibility (1/GPa) = 0.03664649
#
# Stress axis : x y z
#
# Youngs Moduli (GPa) = 72.73769 75.76942 30.15307
#
# Poissons Ratio (x) = 0.05230 0.13333
# Poissons Ratio (y) = 0.05021 0.19961
# Poissons Ratio (z) = 0.32162 0.50159
#
# Static dielectric constant tensor:
#      x y z
#    x 2.007430 0.000000 0.000000 
#    y 0.000000 1.838940 0.000000 
#    z 0.000000 0.000000 1.976450 
# 
# From -- ./inp_files/9800.got.cif
#   From: 2010.05.17/outbox.cif.g08.bks.cpg/sg37_5_cif.got.tgz:9800.got - 2010.06.03 17:53:42.
