data_PCOD9354917
_publ_section_title
;
Structure prediction by ZEFSAII (Michael W. Deem and Ramdas Pophale) SiO2 
 PCOD9354917
Probable space group: C C C 2
;
_chemical_formula_sum "Si O2"
_cell_formula_units_Z 36
_cell_length_a 11.782762
_cell_length_b 15.336188
_cell_length_c 9.793986
_cell_angle_alpha 90.000000
_cell_angle_beta 90.000000
_cell_angle_gamma 90.000000
_cell_volume 1769.799256
_symmetry_space_group_name_H-M "C C C 2"
_symmetry_group_IT_number 37
_symmetry_cell_setting 'orthorhombic'
loop_
_space_group_symop_operation_xyz
x,y,z
-x,-y,z
-x,y,1/2+z
x,-y,1/2+z
1/2+x,1/2+y,z
1/2-x,1/2-y,z
1/2-x,1/2+y,1/2+z
1/2+x,1/2-y,1/2+z
loop_
_atom_site_type_symbol
_atom_site_label
_atom_site_fract_x
_atom_site_fract_y
_atom_site_fract_z
Si Si1 0.250000 0.750000 0.029460
Si Si2 0.351029 0.302646 0.269468
Si Si3 0.870071 0.019371 0.609452
Si Si4 0.274919 0.398942 0.846469
Si Si5 0.906954 0.274801 0.281105
O O1 0.148104 0.723971 0.129253
O O2 0.301190 0.681101 0.921726
O O3 0.250000 0.250000 0.195901
O O4 0.377711 0.391601 0.196349
O O5 0.459911 0.240452 0.279850
O O6 0.800308 0.040215 0.473892
O O7 0.812443 0.947737 0.707471
O O8 0.000000 0.000000 0.570954
O O9 0.147324 0.361062 0.846309
O O10 0.353591 0.311860 0.851088
#
# Coordination Sequence:
#
# PCOD9354917 Si02
#       5
#     4   8   8   8   8
#     4   8  22  38  66  92 138 166 228 270 340 402
#     4  10  24  39  69  97 133 178 226 276 346 413
#     4  12  24  38  65 106 135 172 232 295 340 395
#     4  10  25  38  66  95 141 171 229 281 349 399
#     4  10  22  43  64  98 135 184 219 282 342 420
#
# _framework density 20.341287999999999
#
# number of rings (size 3 to 8) (size 9 to 14) (size 15 to 20)
#    0.667    1.333    2.222    0.667   12.444    0.000 
#    0.000    1.111    0.000    2.667    0.000    0.000 
#    0.000    0.000    0.000    0.000    0.000    0.000 
#
# Total GULP energy -100414.853524 kJ/mol
# GULP energy per Si atom -5578.602974 kJ/mol
# Density = 2.029499 g / cm^3
# Si number density = 20.341288 Si / 1000 Ang^3
#
#
#
# Elastic Constant Matrix: (Units=GPa)
#
#
# Indices 1 2 3 4 5 6 
#
# 1 127.8379 47.4106 3.4956 0.0000 0.0000 0.0000
# 2 47.4106 90.0519 28.6449 0.0000 0.0000 0.0000
# 3 3.4956 28.6449 97.4751 0.0000 0.0000 0.0000
# 4 0.0000 0.0000 0.0000 16.6106 0.0000 0.0000
# 5 0.0000 0.0000 0.0000 0.0000 12.7597 0.0000
# 6 0.0000 0.0000 0.0000 0.0000 0.0000 35.0030
#
#
#
# Elastic Compliance Matrix: (Units=1/GPa)
#
#
# Indices 1 2 3 4 5 6 
#
# 1 0.009866 -0.005606 0.001294 0.000000 0.000000 0.000000
# 2 -0.005606 0.015435 -0.004335 0.000000 0.000000 0.000000
# 3 0.001294 -0.004335 0.011486 0.000000 0.000000 0.000000
# 4 0.000000 0.000000 0.000000 0.060203 0.000000 0.000000
# 5 0.000000 0.000000 0.000000 0.000000 0.078372 0.000000
# 6 0.000000 0.000000 0.000000 0.000000 0.000000 0.028569
#
#
# Mechanical properties :
#
#
# Convention : Reuss Voigt Hill
#
# Bulk Modulus (GPa) = 51.29939 52.71857 52.00898
# Shear Modulus (GPa) = 21.95653 28.59558 25.27605
#
# Velocity S-wave (km/s) = 3.28900 3.75345 3.52888
# Velocity P-wave (km/s) = 6.30059 6.69013 6.49828
#
# Compressibility (1/GPa) = 0.01949341
#
# Stress axis : x y z
#
# Youngs Moduli (GPa) = 101.35821 64.78831 87.05873
#
# Poissons Ratio (x) = 0.36319 -0.11261
# Poissons Ratio (y) = 0.56819 0.37738
# Poissons Ratio (z) = -0.13111 0.28084
#
# Static dielectric constant tensor:
#      x y z
#    x 1.717930 0.000000 0.000000 
#    y 0.000000 1.755890 0.000000 
#    z 0.000000 0.000000 1.767590 
# 
# From -- ./inp_files/6992.got.cif
#   From: 2010.05.17/outbox.cif.g08.bks.cpg/sg37_4_cif.got.tgz:6992.got - 2010.06.03 17:53:42.
