data_PCOD9354208
_publ_section_title
;
Structure prediction by ZEFSAII (Michael W. Deem and Ramdas Pophale) SiO2 
 PCOD9354208
Probable space group: C C C 2
;
_chemical_formula_sum "Si O2"
_cell_formula_units_Z 60
_cell_length_a 6.797484
_cell_length_b 18.108283
_cell_length_c 23.716767
_cell_angle_alpha 90.000000
_cell_angle_beta 90.000000
_cell_angle_gamma 90.000000
_cell_volume 2919.314969
_symmetry_space_group_name_H-M "C C C 2"
_symmetry_group_IT_number 37
_symmetry_cell_setting 'orthorhombic'
loop_
_space_group_symop_operation_xyz
x,y,z
-x,-y,z
-x,y,1/2+z
x,-y,1/2+z
1/2+x,1/2+y,z
1/2-x,1/2-y,z
1/2-x,1/2+y,1/2+z
1/2+x,1/2-y,1/2+z
loop_
_atom_site_type_symbol
_atom_site_label
_atom_site_fract_x
_atom_site_fract_y
_atom_site_fract_z
Si Si1 0.711819 0.163520 0.715930
Si Si2 0.417740 0.418814 0.746956
Si Si3 0.500000 0.500000 0.970543
Si Si4 0.091599 0.581677 0.150450
Si Si5 0.404368 0.850713 0.839148
Si Si6 0.368513 0.075400 0.522828
Si Si7 0.963354 0.816687 0.855347
Si Si8 0.327680 0.891028 0.429708
O O1 0.750000 0.250000 0.723465
O O2 0.567855 0.143041 0.666475
O O3 0.622385 0.131598 0.774054
O O4 0.914968 0.121521 0.710410
O O5 0.500000 0.500000 0.763602
O O6 0.240665 0.422910 0.702926
O O7 0.388832 0.365770 0.801707
O O8 0.329690 0.455634 0.938657
O O9 0.354821 0.557144 0.003121
O O10 0.157622 0.600762 0.087186
O O11 0.000000 0.500000 0.147680
O O12 0.504079 0.769207 0.840702
O O13 0.532274 0.905033 0.876252
O O14 0.185848 0.845178 0.865117
O O15 0.514551 0.121555 0.480566
O O16 0.500000 0.000000 0.523968
O O17 0.822056 0.827773 0.908440
#
# Coordination Sequence:
#
# PCOD9354208 Si02
#       8
#     8   8   4   8   8   8   8   8
#     4  11  22  44  65  95 137 170 214 260 322 397
#     4  11  22  38  65 102 131 168 214 264 325 387
#     4  10  22  40  58  86 126 164 212 276 320 388
#     4  11  23  39  66  96 129 169 218 271 323 382
#     4  10  20  40  63  90 125 175 208 251 317 402
#     4   9  22  41  61  88 123 170 219 267 329 380
#     4  10  21  38  60  95 130 165 209 257 322 391
#     4  11  21  37  62  88 119 164 215 260 320 377
#
# _framework density 20.552766999999999
#
# number of rings (size 3 to 8) (size 9 to 14) (size 15 to 20)
#    0.000    1.600    4.000    2.000    1.867    1.600 
#    4.800    1.333    0.000    4.800    0.000    0.000 
#    0.000    0.000    0.000    0.000    0.000    0.000 
#
# Total GULP energy -167102.406292 kJ/mol
# GULP energy per Si atom -5570.080210 kJ/mol
# Density = 2.050599 g / cm^3
# Si number density = 20.552767 Si / 1000 Ang^3
#
#
#
# Elastic Constant Matrix: (Units=GPa)
#
#
# Indices 1 2 3 4 5 6 
#
# 1 124.7802 41.8820 69.6466 0.0000 0.0000 0.0000
# 2 41.8820 46.3903 39.8773 0.0000 0.0000 0.0000
# 3 69.6466 39.8773 97.4222 0.0000 0.0000 0.0000
# 4 0.0000 0.0000 0.0000 16.8127 0.0000 0.0000
# 5 0.0000 0.0000 0.0000 0.0000 37.2632 0.0000
# 6 0.0000 0.0000 0.0000 0.0000 0.0000 36.0881
#
#
#
# Elastic Compliance Matrix: (Units=1/GPa)
#
#
# Indices 1 2 3 4 5 6 
#
# 1 0.014484 -0.006442 -0.007718 0.000000 0.000000 0.000000
# 2 -0.006442 0.036124 -0.010181 0.000000 0.000000 0.000000
# 3 -0.007718 -0.010181 0.019949 0.000000 0.000000 0.000000
# 4 0.000000 0.000000 0.000000 0.059479 0.000000 0.000000
# 5 0.000000 0.000000 0.000000 0.000000 0.026836 0.000000
# 6 0.000000 0.000000 0.000000 0.000000 0.000000 0.027710
#
#
# Mechanical properties :
#
#
# Convention : Reuss Voigt Hill
#
# Bulk Modulus (GPa) = 45.71291 63.48940 54.60115
# Shear Modulus (GPa) = 20.78522 25.84523 23.31523
#
# Velocity S-wave (km/s) = 3.18356 3.54998 3.37175
# Velocity P-wave (km/s) = 5.98360 6.91094 6.46392
#
# Compressibility (1/GPa) = 0.02187566
#
# Stress axis : x y z
#
# Youngs Moduli (GPa) = 69.04145 27.68236 50.12767
#
# Poissons Ratio (x) = 0.17834 0.38686
# Poissons Ratio (y) = 0.44480 0.51034
# Poissons Ratio (z) = 0.53283 0.28183
#
# Static dielectric constant tensor:
#      x y z
#    x 1.757670 0.000000 0.000000 
#    y 0.000000 1.760910 0.000000 
#    z 0.000000 0.000000 1.740830 
# 
# From -- ./inp_files/18107.got.cif
#   From: 2010.05.17/outbox.cif.g08.bks.cpg/sg37_10_cif.got.tgz:18107.got - 2010.06.03 17:53:42.
