data_PCOD9354309
_publ_section_title
;
Structure prediction by ZEFSAII (Michael W. Deem and Ramdas Pophale) SiO2 
 PCOD9354309
Probable space group: C C C 2
;
_chemical_formula_sum "Si O2"
_cell_formula_units_Z 32
_cell_length_a 7.845103
_cell_length_b 11.183462
_cell_length_c 14.966795
_cell_angle_alpha 90.000000
_cell_angle_beta 90.000000
_cell_angle_gamma 90.000000
_cell_volume 1313.117915
_symmetry_space_group_name_H-M "C C C 2"
_symmetry_group_IT_number 37
_symmetry_cell_setting 'orthorhombic'
loop_
_space_group_symop_operation_xyz
x,y,z
-x,-y,z
-x,y,1/2+z
x,-y,1/2+z
1/2+x,1/2+y,z
1/2-x,1/2-y,z
1/2-x,1/2+y,1/2+z
1/2+x,1/2-y,1/2+z
loop_
_atom_site_type_symbol
_atom_site_label
_atom_site_fract_x
_atom_site_fract_y
_atom_site_fract_z
Si Si1 0.000000 0.000000 0.389691
Si Si2 0.410239 0.341221 0.223214
Si Si3 0.000000 0.500000 0.820913
Si Si4 0.193263 0.613938 0.974065
Si Si5 0.242816 0.414037 0.668831
O O1 0.969073 0.889876 0.321051
O O2 0.837947 0.985796 0.453020
O O3 0.250000 0.250000 0.227309
O O4 0.596099 0.321788 0.177042
O O5 0.330708 0.454748 0.172042
O O6 0.928911 0.404384 0.890566
O O7 0.874085 0.572721 0.756346
O O8 0.250000 0.750000 0.970448
O O9 0.141872 0.595673 0.076518
#
# Coordination Sequence:
#
# PCOD9354309 Si02
#       5
#     4   8   4   8   8
#     4  10  20  44  70 104 146 190 256 318 368 480
#     4  10  20  43  78 104 149 204 253 322 402 454
#     4  12  24  48  74 112 158 200 258 332 384 486
#     4  12  26  49  74 108 154 204 261 319 397 473
#     4  10  24  44  70 114 154 200 266 328 381 483
#
# _framework density 24.369478999999998
#
# number of rings (size 3 to 8) (size 9 to 14) (size 15 to 20)
#    0.000    1.500    5.000    3.000    0.000    4.000 
#    4.500    3.750    0.000    0.000    0.000    0.000 
#    0.000    0.000    0.000    0.000    0.000    0.000 
#
# Total GULP energy -89242.017904 kJ/mol
# GULP energy per Si atom -5577.626119 kJ/mol
# Density = 2.431401 g / cm^3
# Si number density = 24.369479 Si / 1000 Ang^3
#
#
#
# Elastic Constant Matrix: (Units=GPa)
#
#
# Indices 1 2 3 4 5 6 
#
# 1 143.6047 52.7735 77.6545 0.0000 0.0000 0.0000
# 2 52.7735 111.5491 61.7070 0.0000 0.0000 0.0000
# 3 77.6545 61.7070 227.0484 0.0000 0.0000 0.0000
# 4 0.0000 0.0000 0.0000 -14.7343 0.0000 0.0000
# 5 0.0000 0.0000 0.0000 0.0000 -626.6000 0.0000
# 6 0.0000 0.0000 0.0000 0.0000 0.0000 49.8201
#
#
#
# Elastic Compliance Matrix: (Units=1/GPa)
#
#
# Indices 1 2 3 4 5 6 
#
# 1 0.009393 -0.003138 -0.002360 0.000000 0.000000 0.000000
# 2 -0.003138 0.011600 -0.002079 0.000000 0.000000 0.000000
# 3 -0.002360 -0.002079 0.005776 0.000000 0.000000 0.000000
# 4 0.000000 0.000000 0.000000 -0.067869 0.000000 0.000000
# 5 0.000000 0.000000 0.000000 0.000000 -0.001596 0.000000
# 6 0.000000 0.000000 0.000000 0.000000 0.000000 0.020072
#
#
# Mechanical properties :
#
#
# Convention : Reuss Voigt Hill
#
# Bulk Modulus (GPa) = 86.09858 96.27468 91.18663
# Shear Modulus (GPa) = -1389.71140 -98.96502 -744.33821
#
# Velocity S-wave (km/s) = -23.90617 -6.37953 -17.49576
# Velocity P-wave (km/s) = 26.95551 3.83047 19.25191
#
# Compressibility (1/GPa) = 0.01161459
#
# Stress axis : x y z
#
# Youngs Moduli (GPa) = 106.46396 86.20997 173.11784
#
# Poissons Ratio (x) = 0.27057 0.40848
# Poissons Ratio (y) = 0.33413 0.35993
# Poissons Ratio (z) = 0.25121 0.17924
#
# Static dielectric constant tensor:
#      x y z
#    x 2.163350 0.000000 0.000000 
#    y 0.000000 2.179220 0.000000 
#    z 0.000000 0.000000 1.900430 
# 
# From -- ./inp_files/10164.got.cif
#   From: 2010.05.17/outbox.cif.g08.bks.cpg/sg37_6_cif.got.tgz:10164.got - 2010.06.03 17:53:42.
