data_PCOD9354569
_publ_section_title
;
Structure prediction by ZEFSAII (Michael W. Deem and Ramdas Pophale) SiO2 
 PCOD9354569
Probable space group: C C C 2
;
_chemical_formula_sum "Si O2"
_cell_formula_units_Z 56
_cell_length_a 8.279561
_cell_length_b 18.314520
_cell_length_c 15.565792
_cell_angle_alpha 90.000000
_cell_angle_beta 90.000000
_cell_angle_gamma 90.000000
_cell_volume 2360.337324
_symmetry_space_group_name_H-M "C C C 2"
_symmetry_group_IT_number 37
_symmetry_cell_setting 'orthorhombic'
loop_
_space_group_symop_operation_xyz
x,y,z
-x,-y,z
-x,y,1/2+z
x,-y,1/2+z
1/2+x,1/2+y,z
1/2-x,1/2-y,z
1/2-x,1/2+y,1/2+z
1/2+x,1/2-y,1/2+z
loop_
_atom_site_type_symbol
_atom_site_label
_atom_site_fract_x
_atom_site_fract_y
_atom_site_fract_z
Si Si1 0.877096 0.682398 0.811790
Si Si2 0.125507 0.936269 0.779347
Si Si3 0.532237 0.821218 0.482750
Si Si4 0.897144 0.846929 0.443650
Si Si5 0.158374 0.462997 0.700441
Si Si6 0.438922 0.765629 0.657176
Si Si7 0.045537 0.890581 0.113986
O O1 0.750000 0.750000 0.814476
O O2 0.835721 0.612281 0.754200
O O3 0.913573 0.653439 0.907445
O O4 0.028055 0.711917 0.755047
O O5 0.097082 0.873582 0.847097
O O6 0.088513 0.910984 0.683064
O O7 0.296635 0.974575 0.770912
O O8 0.000000 0.000000 0.801044
O O9 0.710670 0.852744 0.472416
O O10 0.547452 0.735773 0.455380
O O11 0.480440 0.823808 0.582018
O O12 0.994930 0.893781 0.513665
O O13 0.302654 0.442524 0.634597
O O14 0.000000 0.500000 0.659514
O O15 0.250000 0.750000 0.646007
O O16 0.557273 0.696744 0.634936
#
# Coordination Sequence:
#
# PCOD9354569 Si02
#       7
#     8   8   8   8   8   8   8
#     4  12  24  42  72  99 137 182 221 285 358 403
#     4  10  23  41  64  93 130 178 229 270 334 416
#     4  10  23  39  67 101 135 167 227 286 338 407
#     4  10  21  41  68  96 131 177 220 282 345 401
#     4  11  24  42  65  97 139 178 228 285 340 417
#     4  11  24  41  67 102 132 176 233 282 341 418
#     4  10  22  44  67  95 133 180 228 280 340 407
#
# _framework density 23.725421999999998
#
# number of rings (size 3 to 8) (size 9 to 14) (size 15 to 20)
#    0.000    1.429    1.429    3.000   10.000    1.714 
#    0.000    3.571    0.000    0.000    0.000    0.000 
#    0.000    0.000    0.000    0.000    0.000    0.000 
#
# Total GULP energy -156231.807736 kJ/mol
# GULP energy per Si atom -5579.707419 kJ/mol
# Density = 2.367142 g / cm^3
# Si number density = 23.725422 Si / 1000 Ang^3
#
#
#
# Elastic Constant Matrix: (Units=GPa)
#
#
# Indices 1 2 3 4 5 6 
#
# 1 42.0029 -9.3482 18.1338 0.0000 0.0000 0.0000
# 2 -9.3482 59.9914 24.2178 0.0000 0.0000 0.0000
# 3 18.1338 24.2178 108.0842 0.0000 0.0000 0.0000
# 4 0.0000 0.0000 0.0000 16.8847 0.0000 0.0000
# 5 0.0000 0.0000 0.0000 0.0000 25.8106 0.0000
# 6 0.0000 0.0000 0.0000 0.0000 0.0000 18.6325
#
#
#
# Elastic Compliance Matrix: (Units=1/GPa)
#
#
# Indices 1 2 3 4 5 6 
#
# 1 0.028039 0.006892 -0.006248 0.000000 0.000000 0.000000
# 2 0.006892 0.020021 -0.005642 0.000000 0.000000 0.000000
# 3 -0.006248 -0.005642 0.011565 0.000000 0.000000 0.000000
# 4 0.000000 0.000000 0.000000 0.059225 0.000000 0.000000
# 5 0.000000 0.000000 0.000000 0.000000 0.038744 0.000000
# 6 0.000000 0.000000 0.000000 0.000000 0.000000 0.053670
#
#
# Mechanical properties :
#
#
# Convention : Reuss Voigt Hill
#
# Bulk Modulus (GPa) = 20.15050 30.67616 25.41333
# Shear Modulus (GPa) = 21.02579 24.07057 22.54818
#
# Velocity S-wave (km/s) = 2.98016 3.18865 3.08617
# Velocity P-wave (km/s) = 4.51148 5.14921 4.84086
#
# Compressibility (1/GPa) = 0.04962657
#
# Stress axis : x y z
#
# Youngs Moduli (GPa) = 35.66426 49.94850 86.47096
#
# Poissons Ratio (x) = -0.34423 0.54031
# Poissons Ratio (y) = -0.24579 0.48788
# Poissons Ratio (z) = 0.22285 0.28182
#
# Static dielectric constant tensor:
#      x y z
#    x 1.999410 0.000000 0.000000 
#    y 0.000000 1.975540 0.000000 
#    z 0.000000 0.000000 1.899720 
# 
# From -- ./inp_files/10814.got.cif
#   From: 2010.05.17/outbox.cif.g08.bks.cpg/sg37_6_cif.got.tgz:10814.got - 2010.06.03 17:53:42.
