data_PCOD9354238
_publ_section_title
;
Structure prediction by ZEFSAII (Michael W. Deem and Ramdas Pophale) SiO2 
 PCOD9354238
Probable space group: C C C 2
;
_chemical_formula_sum "Si O2"
_cell_formula_units_Z 48
_cell_length_a 23.492967
_cell_length_b 8.421633
_cell_length_c 9.332917
_cell_angle_alpha 90.000000
_cell_angle_beta 90.000000
_cell_angle_gamma 90.000000
_cell_volume 1846.509660
_symmetry_space_group_name_H-M "C C C 2"
_symmetry_group_IT_number 37
_symmetry_cell_setting 'orthorhombic'
loop_
_space_group_symop_operation_xyz
x,y,z
-x,-y,z
-x,y,1/2+z
x,-y,1/2+z
1/2+x,1/2+y,z
1/2-x,1/2-y,z
1/2-x,1/2+y,1/2+z
1/2+x,1/2-y,1/2+z
loop_
_atom_site_type_symbol
_atom_site_label
_atom_site_fract_x
_atom_site_fract_y
_atom_site_fract_z
Si Si1 0.673823 0.382304 0.577310
Si Si2 0.000000 0.500000 0.190429
Si Si3 0.691505 0.857004 0.310210
Si Si4 0.541452 0.778627 0.448892
Si Si5 0.605275 0.484643 0.319410
Si Si6 0.218408 0.413311 0.597234
Si Si7 0.500000 0.500000 0.613222
O O1 0.665156 0.224495 0.670513
O O2 0.632483 0.380048 0.443189
O O3 0.653888 0.504641 0.699931
O O4 0.736715 0.449317 0.542662
O O5 0.973003 0.627004 0.302459
O O6 0.957920 0.405830 0.080029
O O7 0.750000 0.750000 0.322770
O O8 0.672728 0.880946 0.472495
O O9 0.698273 0.031879 0.250165
O O10 0.590015 0.651119 0.401479
O O11 0.493744 0.652581 0.509696
O O12 0.551069 0.455675 0.219198
O O13 0.250000 0.250000 0.615615
#
# Coordination Sequence:
#
# PCOD9354238 Si02
#       7
#     8   4   8   8   8   8   4
#     4  11  24  41  66 107 140 180 242 309 354 428
#     4  10  24  42  70  96 136 182 264 302 390 450
#     4   9  20  39  64  93 128 171 218 275 355 435
#     4  11  23  43  68  99 135 192 250 314 368 454
#     4  12  24  40  69 101 145 182 258 311 355 436
#     4  10  20  40  70  93 136 178 219 275 366 455
#     4  12  24  42  76  98 136 208 262 298 380 432
#
# _framework density 25.994990000000001
#
# number of rings (size 3 to 8) (size 9 to 14) (size 15 to 20)
#    0.000    1.333    3.333    3.500    0.000    3.333 
#    0.000    3.333    0.000    0.000    0.000    0.000 
#    0.000    0.000    0.000    0.000    0.000    0.000 
#
# Total GULP energy -133775.860568 kJ/mol
# GULP energy per Si atom -5573.994190 kJ/mol
# Density = 2.593582 g / cm^3
# Si number density = 25.994990 Si / 1000 Ang^3
#
#
#
# Elastic Constant Matrix: (Units=GPa)
#
#
# Indices 1 2 3 4 5 6 
#
# 1 49.1835 -10.8824 24.9117 0.0000 0.0000 0.0000
# 2 -10.8824 76.5502 31.1102 0.0000 0.0000 0.0000
# 3 24.9117 31.1102 176.6316 0.0000 0.0000 0.0000
# 4 0.0000 0.0000 0.0000 44.6466 0.0000 0.0000
# 5 0.0000 0.0000 0.0000 0.0000 37.8751 0.0000
# 6 0.0000 0.0000 0.0000 0.0000 0.0000 29.6860
#
#
#
# Elastic Compliance Matrix: (Units=1/GPa)
#
#
# Indices 1 2 3 4 5 6 
#
# 1 0.023591 0.005069 -0.004220 0.000000 0.000000 0.000000
# 2 0.005069 0.015160 -0.003385 0.000000 0.000000 0.000000
# 3 -0.004220 -0.003385 0.006853 0.000000 0.000000 0.000000
# 4 0.000000 0.000000 0.000000 0.022398 0.000000 0.000000
# 5 0.000000 0.000000 0.000000 0.000000 0.026403 0.000000
# 6 0.000000 0.000000 0.000000 0.000000 0.000000 0.033686
#
#
# Mechanical properties :
#
#
# Convention : Reuss Voigt Hill
#
# Bulk Modulus (GPa) = 24.67248 43.62715 34.14982
# Shear Modulus (GPa) = 34.08951 39.58993 36.83972
#
# Velocity S-wave (km/s) = 3.62524 3.90678 3.76864
# Velocity P-wave (km/s) = 5.19952 6.09671 5.66590
#
# Compressibility (1/GPa) = 0.04053099
#
# Stress axis : x y z
#
# Youngs Moduli (GPa) = 42.38907 65.96503 145.92437
#
# Poissons Ratio (x) = -0.33436 0.61580
# Poissons Ratio (y) = -0.21486 0.49394
# Poissons Ratio (z) = 0.17888 0.22329
#
# Static dielectric constant tensor:
#      x y z
#    x 2.278490 0.000000 0.000000 
#    y 0.000000 2.221810 0.000000 
#    z 0.000000 0.000000 1.968510 
# 
# From -- ./inp_files/2439.got.cif
#   From: 2010.05.17/outbox.cif.g08.bks.cpg/sg37_2_cif.got.tgz:2439.got - 2010.06.03 17:53:42.
