data_PCOD9354057
_publ_section_title
;
Structure prediction by ZEFSAII (Michael W. Deem and Ramdas Pophale) SiO2 
 PCOD9354057
Probable space group: C C C 2
;
_chemical_formula_sum "Si O2"
_cell_formula_units_Z 64
_cell_length_a 9.249374
_cell_length_b 15.753676
_cell_length_c 21.089443
_cell_angle_alpha 90.000000
_cell_angle_beta 90.000000
_cell_angle_gamma 90.000000
_cell_volume 3072.977351
_symmetry_space_group_name_H-M "C C C 2"
_symmetry_group_IT_number 37
_symmetry_cell_setting 'orthorhombic'
loop_
_space_group_symop_operation_xyz
x,y,z
-x,-y,z
-x,y,1/2+z
x,-y,1/2+z
1/2+x,1/2+y,z
1/2-x,1/2-y,z
1/2-x,1/2+y,1/2+z
1/2+x,1/2-y,1/2+z
loop_
_atom_site_type_symbol
_atom_site_label
_atom_site_fract_x
_atom_site_fract_y
_atom_site_fract_z
Si Si1 0.908139 0.713861 0.596660
Si Si2 0.333762 0.178333 0.283783
Si Si3 0.382352 0.685719 0.516541
Si Si4 0.914942 0.740286 0.412854
Si Si5 0.666790 0.520732 0.948508
Si Si6 0.086137 0.416052 0.712742
Si Si7 0.917569 0.413304 0.983498
Si Si8 0.324723 0.499608 0.303541
O O1 0.750000 0.750000 0.585861
O O2 0.896644 0.657554 0.660181
O O3 0.943253 0.644403 0.543508
O O4 0.021344 0.789963 0.578623
O O5 0.250000 0.250000 0.241550
O O6 0.396313 0.241664 0.338183
O O7 0.472225 0.129075 0.258709
O O8 0.230928 0.098638 0.302976
O O9 0.250000 0.750000 0.516694
O O10 0.481431 0.701610 0.453810
O O11 0.316654 0.593670 0.501472
O O12 0.750000 0.750000 0.437423
O O13 0.966335 0.644411 0.425423
O O14 0.500000 0.500000 0.945970
O O15 0.708443 0.536096 0.874568
O O16 0.752977 0.439118 0.972579
O O17 0.229277 0.449231 0.750628
O O18 0.000000 0.500000 0.687493
O O19 0.000000 0.500000 0.986264
O O20 0.500000 0.500000 0.293217
#
# Coordination Sequence:
#
# PCOD9354057 Si02
#       8
#     8   8   8   8   8   8   8   8
#     4  11  24  46  64  86 124 174 220 267 323 390
#     4  10  22  39  64  93 129 178 217 264 325 396
#     4  11  24  38  60  95 128 163 207 272 322 388
#     4  10  20  37  57  87 129 170 204 250 320 390
#     4  11  21  36  59  95 128 161 197 264 330 388
#     4  10  24  45  68  92 127 177 228 275 325 397
#     4  11  21  35  64  90 121 161 210 249 320 390
#     4  10  23  40  63  98 136 164 217 275 337 399
#
# _framework density 20.826706999999999
#
# number of rings (size 3 to 8) (size 9 to 14) (size 15 to 20)
#    0.000    1.500    1.250    4.875    8.750    1.500 
#    0.000    4.375    0.000    0.000    0.000    0.000 
#    0.000    0.000    0.000    0.000    0.000    0.000 
#
# Total GULP energy -178146.871397 kJ/mol
# GULP energy per Si atom -5567.089731 kJ/mol
# Density = 2.077930 g / cm^3
# Si number density = 20.826707 Si / 1000 Ang^3
#
#
#
# Elastic Constant Matrix: (Units=GPa)
#
#
# Indices 1 2 3 4 5 6 
#
# 1 82.2941 16.3536 11.1698 0.0000 0.0000 0.0000
# 2 16.3536 102.0435 28.8051 0.0000 0.0000 0.0000
# 3 11.1698 28.8051 52.9453 0.0000 0.0000 0.0000
# 4 0.0000 0.0000 0.0000 88.0379 0.0000 0.0000
# 5 0.0000 0.0000 0.0000 0.0000 14.5846 0.0000
# 6 0.0000 0.0000 0.0000 0.0000 0.0000 40.4762
#
#
#
# Elastic Compliance Matrix: (Units=1/GPa)
#
#
# Indices 1 2 3 4 5 6 
#
# 1 0.012704 -0.001512 -0.001858 0.000000 0.000000 0.000000
# 2 -0.001512 0.011758 -0.006078 0.000000 0.000000 0.000000
# 3 -0.001858 -0.006078 0.022586 0.000000 0.000000 0.000000
# 4 0.000000 0.000000 0.000000 0.011359 0.000000 0.000000
# 5 0.000000 0.000000 0.000000 0.000000 0.068566 0.000000
# 6 0.000000 0.000000 0.000000 0.000000 0.000000 0.024706
#
#
# Mechanical properties :
#
#
# Convention : Reuss Voigt Hill
#
# Bulk Modulus (GPa) = 35.51982 38.88221 37.20101
# Shear Modulus (GPa) = 27.78441 40.68336 34.23388
#
# Velocity S-wave (km/s) = 3.65646 4.42455 4.05872
# Velocity P-wave (km/s) = 5.90917 6.69418 6.31389
#
# Compressibility (1/GPa) = 0.02815330
#
# Stress axis : x y z
#
# Youngs Moduli (GPa) = 78.71490 85.05077 44.27503
#
# Poissons Ratio (x) = 0.12856 0.08225
# Poissons Ratio (y) = 0.11898 0.26910
# Poissons Ratio (z) = 0.14624 0.51693
#
# Static dielectric constant tensor:
#      x y z
#    x 1.693490 0.000000 0.000000 
#    y 0.000000 1.824240 0.000000 
#    z 0.000000 0.000000 1.807600 
# 
# From -- ./inp_files/18503.got.cif
#   From: 2010.05.17/outbox.cif.g08.bks.cpg/sg37_10_cif.got.tgz:18503.got - 2010.06.03 17:53:42.
