data_PCOD9354053
_publ_section_title
;
Structure prediction by ZEFSAII (Michael W. Deem and Ramdas Pophale) SiO2 
 PCOD9354053
Probable space group: C C C 2
;
_chemical_formula_sum "Si O2"
_cell_formula_units_Z 60
_cell_length_a 8.510205
_cell_length_b 20.744088
_cell_length_c 15.616122
_cell_angle_alpha 90.000000
_cell_angle_beta 90.000000
_cell_angle_gamma 90.000000
_cell_volume 2756.814607
_symmetry_space_group_name_H-M "C C C 2"
_symmetry_group_IT_number 37
_symmetry_cell_setting 'orthorhombic'
loop_
_space_group_symop_operation_xyz
x,y,z
-x,-y,z
-x,y,1/2+z
x,-y,1/2+z
1/2+x,1/2+y,z
1/2-x,1/2-y,z
1/2-x,1/2+y,1/2+z
1/2+x,1/2-y,1/2+z
loop_
_atom_site_type_symbol
_atom_site_label
_atom_site_fract_x
_atom_site_fract_y
_atom_site_fract_z
Si Si1 0.701358 0.944681 0.681040
Si Si2 0.000000 0.000000 0.764983
Si Si3 0.469001 0.095439 0.839664
Si Si4 0.788180 0.436644 0.986027
Si Si5 0.439447 0.755271 0.356004
Si Si6 0.545724 0.672676 0.505966
Si Si7 0.621485 0.693077 0.689361
Si Si8 0.865912 0.937631 0.919566
O O1 0.556374 0.936148 0.746447
O O2 0.652197 0.952131 0.582077
O O3 0.792732 0.875883 0.689781
O O4 0.838488 0.995707 0.710494
O O5 0.976863 0.942863 0.835007
O O6 0.595951 0.066513 0.905040
O O7 0.486811 0.172281 0.832838
O O8 0.302079 0.083322 0.884072
O O9 0.707990 0.366515 0.994565
O O10 0.664905 0.493497 0.964363
O O11 0.250000 0.750000 0.371161
O O12 0.526388 0.729883 0.439411
O O13 0.470681 0.708178 0.275996
O O14 0.524678 0.695287 0.602425
O O15 0.422116 0.617213 0.482702
O O16 0.750000 0.750000 0.684239
#
# Coordination Sequence:
#
# PCOD9354053 Si02
#       8
#     8   4   8   8   8   8   8   8
#     4  10  22  40  67  97 129 179 219 271 344 394
#     4  10  20  36  70  94 124 162 232 272 316 394
#     4  11  23  42  66  91 133 178 211 268 345 404
#     4  11  25  40  66  97 136 167 219 282 336 401
#     4  11  20  40  67  90 126 174 217 268 329 399
#     4  11  23  38  69  97 125 172 225 271 329 392
#     4  10  21  38  63  97 129 168 220 272 326 402
#     4  11  21  43  63  96 126 174 222 270 326 394
#
# _framework density 21.764251000000002
#
# number of rings (size 3 to 8) (size 9 to 14) (size 15 to 20)
#    0.000    1.333    5.333    1.200    7.467    0.000 
#    0.000    6.667    2.933    0.000    0.000    0.000 
#    0.000    0.000    0.000    0.000    0.000    0.000 
#
# Total GULP energy -167470.549237 kJ/mol
# GULP energy per Si atom -5582.351641 kJ/mol
# Density = 2.171471 g / cm^3
# Si number density = 21.764251 Si / 1000 Ang^3
#
#
#
# Elastic Constant Matrix: (Units=GPa)
#
#
# Indices 1 2 3 4 5 6 
#
# 1 45.8098 19.9688 39.3460 0.0000 0.0000 0.0000
# 2 19.9688 101.3084 35.2729 0.0000 0.0000 0.0000
# 3 39.3460 35.2729 168.2996 0.0000 0.0000 0.0000
# 4 0.0000 0.0000 0.0000 70.3874 0.0000 0.0000
# 5 0.0000 0.0000 0.0000 0.0000 33.3090 0.0000
# 6 0.0000 0.0000 0.0000 0.0000 0.0000 26.6878
#
#
#
# Elastic Compliance Matrix: (Units=1/GPa)
#
#
# Indices 1 2 3 4 5 6 
#
# 1 0.028451 -0.003551 -0.005907 0.000000 0.000000 0.000000
# 2 -0.003551 0.011091 -0.001494 0.000000 0.000000 0.000000
# 3 -0.005907 -0.001494 0.007636 0.000000 0.000000 0.000000
# 4 0.000000 0.000000 0.000000 0.014207 0.000000 0.000000
# 5 0.000000 0.000000 0.000000 0.000000 0.030022 0.000000
# 6 0.000000 0.000000 0.000000 0.000000 0.000000 0.037470
#
#
# Mechanical properties :
#
#
# Convention : Reuss Voigt Hill
#
# Bulk Modulus (GPa) = 39.56832 56.06592 47.81712
# Shear Modulus (GPa) = 31.40564 40.79884 36.10224
#
# Velocity S-wave (km/s) = 3.80279 4.33434 4.07724
# Velocity P-wave (km/s) = 6.12385 7.13198 6.64706
#
# Compressibility (1/GPa) = 0.02527274
#
# Stress axis : x y z
#
# Youngs Moduli (GPa) = 35.14806 90.16231 130.95913
#
# Poissons Ratio (x) = 0.32019 0.77360
# Poissons Ratio (y) = 0.12482 0.19569
# Poissons Ratio (z) = 0.20763 0.13473
#
# Static dielectric constant tensor:
#      x y z
#    x 1.843770 0.000000 0.000000 
#    y 0.000000 1.795020 0.000000 
#    z 0.000000 0.000000 1.820170 
# 
# From -- ./inp_files/10962.got.cif
#   From: 2010.05.17/outbox.cif.g08.bks.cpg/sg37_6_cif.got.tgz:10962.got - 2010.06.03 17:53:42.
