data_PCOD9354828
_publ_section_title
;
Structure prediction by ZEFSAII (Michael W. Deem and Ramdas Pophale) SiO2 
 PCOD9354828
Probable space group: C C C 2
;
_chemical_formula_sum "Si O2"
_cell_formula_units_Z 40
_cell_length_a 28.471918
_cell_length_b 5.166858
_cell_length_c 11.405748
_cell_angle_alpha 90.000000
_cell_angle_beta 90.000000
_cell_angle_gamma 90.000000
_cell_volume 1677.903663
_symmetry_space_group_name_H-M "C C C 2"
_symmetry_group_IT_number 37
_symmetry_cell_setting 'orthorhombic'
loop_
_space_group_symop_operation_xyz
x,y,z
-x,-y,z
-x,y,1/2+z
x,-y,1/2+z
1/2+x,1/2+y,z
1/2-x,1/2-y,z
1/2-x,1/2+y,1/2+z
1/2+x,1/2-y,1/2+z
loop_
_atom_site_type_symbol
_atom_site_label
_atom_site_fract_x
_atom_site_fract_y
_atom_site_fract_z
Si Si1 0.295299 0.379128 0.861840
Si Si2 0.677413 0.109453 0.743569
Si Si3 0.923795 0.450965 0.850661
Si Si4 0.050992 0.039031 0.710551
Si Si5 0.620136 0.278416 0.532280
O O1 0.250000 0.250000 0.929107
O O2 0.294026 0.653441 0.797730
O O3 0.344643 0.389408 0.933747
O O4 0.299708 0.165897 0.760466
O O5 0.658073 0.140552 0.614300
O O6 0.630161 0.096105 0.819728
O O7 0.947030 0.177974 0.815746
O O8 0.918894 0.583217 0.978101
O O9 0.942741 0.678051 0.765861
O O10 0.091950 0.974770 0.617033
O O11 0.000000 0.000000 0.654361
#
# Coordination Sequence:
#
# PCOD9354828 Si02
#       5
#     8   8   8   8   8
#     4  11  24  40  62  96 131 167 217 272 328 393
#     4  10  22  41  62  87 125 166 212 269 325 388
#     4  10  22  41  64  93 129 170 219 277 332 392
#     4  11  24  42  65  98 136 173 223 278 333 400
#     4  10  22  42  68  92 127 176 217 262 332 397
#
# _framework density 23.839272000000001
#
# number of rings (size 3 to 8) (size 9 to 14) (size 15 to 20)
#    0.000    1.600    0.000    6.000    0.000   16.800 
#    0.000    6.000    0.000    0.000    0.000    0.000 
#    0.000    0.000    0.000    0.000    0.000    0.000 
#
# Total GULP energy -111537.691330 kJ/mol
# GULP energy per Si atom -5576.884567 kJ/mol
# Density = 2.378501 g / cm^3
# Si number density = 23.839272 Si / 1000 Ang^3
#
#
#
# Elastic Constant Matrix: (Units=GPa)
#
#
# Indices 1 2 3 4 5 6 
#
# 1 120.2751 36.5466 3.4408 0.0000 0.0000 0.0000
# 2 36.5466 131.1558 18.7850 0.0000 0.0000 0.0000
# 3 3.4408 18.7850 67.1402 0.0000 0.0000 0.0000
# 4 0.0000 0.0000 0.0000 14.7376 0.0000 0.0000
# 5 0.0000 0.0000 0.0000 0.0000 18.5465 0.0000
# 6 0.0000 0.0000 0.0000 0.0000 0.0000 33.1846
#
#
#
# Elastic Compliance Matrix: (Units=1/GPa)
#
#
# Indices 1 2 3 4 5 6 
#
# 1 0.009087 -0.002568 0.000253 0.000000 0.000000 0.000000
# 2 -0.002568 0.008669 -0.002294 0.000000 0.000000 0.000000
# 3 0.000253 -0.002294 0.015523 0.000000 0.000000 0.000000
# 4 0.000000 0.000000 0.000000 0.067854 0.000000 0.000000
# 5 0.000000 0.000000 0.000000 0.000000 0.053918 0.000000
# 6 0.000000 0.000000 0.000000 0.000000 0.000000 0.030134
#
#
# Mechanical properties :
#
#
# Convention : Reuss Voigt Hill
#
# Bulk Modulus (GPa) = 41.56171 48.45732 45.00951
# Shear Modulus (GPa) = 24.70056 30.61366 27.65711
#
# Velocity S-wave (km/s) = 3.22239 3.58742 3.40979
# Velocity P-wave (km/s) = 5.59616 6.12619 5.86717
#
# Compressibility (1/GPa) = 0.02406061
#
# Stress axis : x y z
#
# Youngs Moduli (GPa) = 110.04144 115.35688 64.42041
#
# Poissons Ratio (x) = 0.29629 -0.01629
# Poissons Ratio (y) = 0.28264 0.14777
# Poissons Ratio (z) = -0.02783 0.26460
#
# Static dielectric constant tensor:
#      x y z
#    x 2.003590 0.000000 0.000000 
#    y 0.000000 1.857970 0.000000 
#    z 0.000000 0.000000 2.039990 
# 
# From -- ./inp_files/9137.got.cif
#   From: 2010.05.17/outbox.cif.g08.bks.cpg/sg37_5_cif.got.tgz:9137.got - 2010.06.03 17:53:42.
