data_PCOD9354965
_publ_section_title
;
Structure prediction by ZEFSAII (Michael W. Deem and Ramdas Pophale) SiO2 
 PCOD9354965
Probable space group: C C C 2
;
_chemical_formula_sum "Si O2"
_cell_formula_units_Z 36
_cell_length_a 13.479310
_cell_length_b 4.915294
_cell_length_c 23.126118
_cell_angle_alpha 90.000000
_cell_angle_beta 90.000000
_cell_angle_gamma 90.000000
_cell_volume 1532.215665
_symmetry_space_group_name_H-M "C C C 2"
_symmetry_group_IT_number 37
_symmetry_cell_setting 'orthorhombic'
loop_
_space_group_symop_operation_xyz
x,y,z
-x,-y,z
-x,y,1/2+z
x,-y,1/2+z
1/2+x,1/2+y,z
1/2-x,1/2-y,z
1/2-x,1/2+y,1/2+z
1/2+x,1/2-y,1/2+z
loop_
_atom_site_type_symbol
_atom_site_label
_atom_site_fract_x
_atom_site_fract_y
_atom_site_fract_z
Si Si1 0.250000 0.250000 0.973600
Si Si2 0.812209 0.985205 0.656319
Si Si3 0.930576 0.259333 0.259856
Si Si4 0.071934 0.253552 0.889504
Si Si5 0.567009 0.740170 0.054713
O O1 0.166540 0.157348 0.926670
O O2 0.335412 0.157897 0.019624
O O3 0.750000 0.750000 0.624139
O O4 0.853376 0.830317 0.712018
O O5 0.750000 0.250000 0.673791
O O6 0.894073 0.100034 0.613023
O O7 0.894145 0.336660 0.324307
O O8 0.000000 0.500000 0.237434
O O9 0.000000 0.000000 0.267000
O O10 0.000000 0.500000 0.912108
O O11 0.000000 0.000000 0.885534
O O12 0.500000 0.500000 0.025277
O O13 0.500000 0.000000 0.066025
#
# Coordination Sequence:
#
# PCOD9354965 Si02
#       5
#     4   8   8   8   8
#     4  12  26  48  78 106 140 196 240 310 346 434
#     4  12  25  44  72 108 146 190 247 299 364 439
#     4  10  22  44  70 103 146 188 234 294 366 434
#     4  10  24  46  72 108 143 186 239 296 363 430
#     4  12  28  48  74 106 146 190 243 300 366 431
#
# _framework density 23.495387999999998
#
# number of rings (size 3 to 8) (size 9 to 14) (size 15 to 20)
#    0.000    0.889    1.111    4.667    1.556    4.444 
#    0.000    0.000    0.000    0.000    0.000    0.000 
#    0.000    0.000    0.000    0.000    0.000    0.000 
#
# Total GULP energy -100338.149432 kJ/mol
# GULP energy per Si atom -5574.341635 kJ/mol
# Density = 2.344191 g / cm^3
# Si number density = 23.495388 Si / 1000 Ang^3
#
#
#
# Elastic Constant Matrix: (Units=GPa)
#
#
# Indices 1 2 3 4 5 6 
#
# 1 162.6537 60.2936 70.6141 0.0000 0.0000 0.0000
# 2 60.2936 157.0029 17.6507 0.0000 0.0000 0.0000
# 3 70.6141 17.6507 112.7861 0.0000 0.0000 0.0000
# 4 0.0000 0.0000 0.0000 75.5701 0.0000 0.0000
# 5 0.0000 0.0000 0.0000 0.0000 34.4679 0.0000
# 6 0.0000 0.0000 0.0000 0.0000 0.0000 46.1191
#
#
#
# Elastic Compliance Matrix: (Units=1/GPa)
#
#
# Indices 1 2 3 4 5 6 
#
# 1 0.009735 -0.003108 -0.005609 0.000000 0.000000 0.000000
# 2 -0.003108 0.007476 0.000776 0.000000 0.000000 0.000000
# 3 -0.005609 0.000776 0.012256 0.000000 0.000000 0.000000
# 4 0.000000 0.000000 0.000000 0.013233 0.000000 0.000000
# 5 0.000000 0.000000 0.000000 0.000000 0.029012 0.000000
# 6 0.000000 0.000000 0.000000 0.000000 0.000000 0.021683
#
#
# Mechanical properties :
#
#
# Convention : Reuss Voigt Hill
#
# Bulk Modulus (GPa) = 73.60633 81.06217 77.33425
# Shear Modulus (GPa) = 43.93476 50.15706 47.04591
#
# Velocity S-wave (km/s) = 4.32896 4.62536 4.47961
# Velocity P-wave (km/s) = 7.50883 7.94364 7.72930
#
# Compressibility (1/GPa) = 0.01358579
#
# Stress axis : x y z
#
# Youngs Moduli (GPa) = 102.72183 133.76802 81.59008
#
# Poissons Ratio (x) = 0.41575 0.45761
# Poissons Ratio (y) = 0.31926 -0.06331
# Poissons Ratio (z) = 0.57613 -0.10380
#
# Static dielectric constant tensor:
#      x y z
#    x 1.904050 0.000000 0.000000 
#    y 0.000000 1.876590 0.000000 
#    z 0.000000 0.000000 1.995030 
# 
# From -- ./inp_files/18588.got.cif
#   From: 2010.05.17/outbox.cif.g08.bks.cpg/sg37_10_cif.got.tgz:18588.got - 2010.06.03 17:53:42.
