data_PCOD9354614
_publ_section_title
;
Structure prediction by ZEFSAII (Michael W. Deem and Ramdas Pophale) SiO2 
 PCOD9354614
Probable space group: C C C 2
;
_chemical_formula_sum "Si O2"
_cell_formula_units_Z 40
_cell_length_a 12.335677
_cell_length_b 10.438382
_cell_length_c 14.083355
_cell_angle_alpha 90.000000
_cell_angle_beta 90.000000
_cell_angle_gamma 90.000000
_cell_volume 1813.436288
_symmetry_space_group_name_H-M "C C C 2"
_symmetry_group_IT_number 37
_symmetry_cell_setting 'orthorhombic'
loop_
_space_group_symop_operation_xyz
x,y,z
-x,-y,z
-x,y,1/2+z
x,-y,1/2+z
1/2+x,1/2+y,z
1/2-x,1/2-y,z
1/2-x,1/2+y,1/2+z
1/2+x,1/2-y,1/2+z
loop_
_atom_site_type_symbol
_atom_site_label
_atom_site_fract_x
_atom_site_fract_y
_atom_site_fract_z
Si Si1 0.000000 0.500000 0.780310
Si Si2 0.057035 0.244986 0.682806
Si Si3 0.676780 0.630369 0.172246
Si Si4 0.750000 0.250000 0.322201
Si Si5 0.216487 0.469430 0.363047
Si Si6 0.389945 0.572878 0.014738
O O1 0.952349 0.606410 0.709592
O O2 0.909766 0.437671 0.848979
O O3 0.151992 0.204623 0.754390
O O4 0.083296 0.199961 0.575856
O O5 0.941780 0.179635 0.703244
O O6 0.750000 0.750000 0.140071
O O7 0.735716 0.567278 0.260930
O O8 0.658131 0.527113 0.090915
O O9 0.781266 0.376661 0.379683
O O10 0.297318 0.406032 0.437560
O O11 0.500000 0.500000 0.978512
#
# Coordination Sequence:
#
# PCOD9354614 Si02
#       6
#     4   8   8   4   8   8
#     4  10  22  44  72 100 136 192 220 302 366 422
#     4  10  21  43  67  97 133 180 231 281 356 419
#     4  11  22  43  68  93 136 184 227 285 353 422
#     4  10  22  38  68  90 132 178 220 284 350 412
#     4  11  23  43  68  98 136 183 233 284 357 416
#     4  10  24  41  69 104 131 180 242 291 342 425
#
# _framework density 22.057570999999999
#
# number of rings (size 3 to 8) (size 9 to 14) (size 15 to 20)
#    0.000    1.600    4.000    0.000    4.200    0.000 
#    1.800    3.000    0.000    0.000    0.000    0.000 
#    0.000    0.000    0.000    0.000    0.000    0.000 
#
# Total GULP energy -111675.962328 kJ/mol
# GULP energy per Si atom -5583.798116 kJ/mol
# Density = 2.200737 g / cm^3
# Si number density = 22.057571 Si / 1000 Ang^3
#
#
#
# Elastic Constant Matrix: (Units=GPa)
#
#
# Indices 1 2 3 4 5 6 
#
# 1 147.5543 4.5045 47.5810 0.0000 0.0000 0.0000
# 2 4.5045 54.4147 12.6658 0.0000 0.0000 0.0000
# 3 47.5810 12.6658 43.9293 0.0000 0.0000 0.0000
# 4 0.0000 0.0000 0.0000 20.5368 0.0000 0.0000
# 5 0.0000 0.0000 0.0000 0.0000 25.4587 0.0000
# 6 0.0000 0.0000 0.0000 0.0000 0.0000 32.0629
#
#
#
# Elastic Compliance Matrix: (Units=1/GPa)
#
#
# Indices 1 2 3 4 5 6 
#
# 1 0.010599 0.001924 -0.012035 0.000000 0.000000 0.000000
# 2 0.001924 0.020049 -0.007864 0.000000 0.000000 0.000000
# 3 -0.012035 -0.007864 0.038067 0.000000 0.000000 0.000000
# 4 0.000000 0.000000 0.000000 0.048693 0.000000 0.000000
# 5 0.000000 0.000000 0.000000 0.000000 0.039279 0.000000
# 6 0.000000 0.000000 0.000000 0.000000 0.000000 0.031189
#
#
# Mechanical properties :
#
#
# Convention : Reuss Voigt Hill
#
# Bulk Modulus (GPa) = 30.52149 41.71121 36.11635
# Shear Modulus (GPa) = 21.29940 27.68813 24.49377
#
# Velocity S-wave (km/s) = 3.11083 3.54682 3.33595
# Velocity P-wave (km/s) = 5.17399 5.97699 5.58993
#
# Compressibility (1/GPa) = 0.03276380
#
# Stress axis : x y z
#
# Youngs Moduli (GPa) = 94.34552 49.87861 26.26953
#
# Poissons Ratio (x) = -0.09596 0.31616
# Poissons Ratio (y) = -0.18151 0.20659
# Poissons Ratio (z) = 1.13546 0.39226
#
# Static dielectric constant tensor:
#      x y z
#    x 1.846210 0.000000 0.000000 
#    y 0.000000 1.856350 0.000000 
#    z 0.000000 0.000000 1.783460 
# 
# From -- ./inp_files/11353.got.cif
#   From: 2010.05.17/outbox.cif.g08.bks.cpg/sg37_6_cif.got.tgz:11353.got - 2010.06.03 17:53:42.
