data_PCOD9354723
_publ_section_title
;
Structure prediction by ZEFSAII (Michael W. Deem and Ramdas Pophale) SiO2 
 PCOD9354723
Probable space group: C C C 2
;
_chemical_formula_sum "Si O2"
_cell_formula_units_Z 44
_cell_length_a 21.453963
_cell_length_b 7.931083
_cell_length_c 11.673117
_cell_angle_alpha 90.000000
_cell_angle_beta 90.000000
_cell_angle_gamma 90.000000
_cell_volume 1986.217759
_symmetry_space_group_name_H-M "C C C 2"
_symmetry_group_IT_number 37
_symmetry_cell_setting 'orthorhombic'
loop_
_space_group_symop_operation_xyz
x,y,z
-x,-y,z
-x,y,1/2+z
x,-y,1/2+z
1/2+x,1/2+y,z
1/2-x,1/2-y,z
1/2-x,1/2+y,1/2+z
1/2+x,1/2-y,1/2+z
loop_
_atom_site_type_symbol
_atom_site_label
_atom_site_fract_x
_atom_site_fract_y
_atom_site_fract_z
Si Si1 0.750000 0.750000 0.071491
Si Si2 0.359115 0.745667 0.152815
Si Si3 0.933793 0.912074 0.078481
Si Si4 0.624051 0.891476 0.197878
Si Si5 0.820100 0.262222 0.902352
Si Si6 0.340116 0.389251 0.891334
O O1 0.691613 0.835781 0.139288
O O2 0.715576 0.622745 0.983950
O O3 0.393924 0.570812 0.125877
O O4 0.327630 0.713033 0.275908
O O5 0.396108 0.921406 0.162844
O O6 0.320087 0.778365 0.038180
O O7 0.924971 0.752908 0.162755
O O8 0.000000 0.000000 0.061160
O O9 0.902609 0.843632 0.960827
O O10 0.640291 0.896762 0.332747
O O11 0.750000 0.250000 0.861362
O O12 0.848895 0.084635 0.864492
#
# Coordination Sequence:
#
# PCOD9354723 Si02
#       6
#     4   8   8   8   8   8
#     4  10  22  38  64  96 140 180 220 278 332 408
#     4  11  25  41  66  99 135 173 227 280 341 406
#     4  10  24  48  71  91 130 178 232 286 340 401
#     4  11  23  42  65  99 138 175 226 280 336 410
#     4  11  23  38  62  99 137 181 220 267 339 415
#     4  10  23  41  63  99 134 178 223 279 341 402
#
# _framework density 22.152657000000001
#
# number of rings (size 3 to 8) (size 9 to 14) (size 15 to 20)
#    0.000    1.455    2.727    1.091    8.909    1.455 
#    0.000    0.000    0.000    0.000    0.000    0.000 
#    0.000    0.000    0.000    0.000    0.000    0.000 
#
# Total GULP energy -122600.435194 kJ/mol
# GULP energy per Si atom -5572.747054 kJ/mol
# Density = 2.210224 g / cm^3
# Si number density = 22.152657 Si / 1000 Ang^3
#
#
#
# Elastic Constant Matrix: (Units=GPa)
#
#
# Indices 1 2 3 4 5 6 
#
# 1 51.4358 -12.5051 29.3583 0.0000 0.0000 0.0000
# 2 -12.5051 102.5109 21.0431 0.0000 0.0000 0.0000
# 3 29.3583 21.0431 127.3501 0.0000 0.0000 0.0000
# 4 0.0000 0.0000 0.0000 10.7287 0.0000 0.0000
# 5 0.0000 0.0000 0.0000 0.0000 34.8996 0.0000
# 6 0.0000 0.0000 0.0000 0.0000 0.0000 21.9608
#
#
#
# Elastic Compliance Matrix: (Units=1/GPa)
#
#
# Indices 1 2 3 4 5 6 
#
# 1 0.024023 0.004210 -0.006234 0.000000 0.000000 0.000000
# 2 0.004210 0.010835 -0.002761 0.000000 0.000000 0.000000
# 3 -0.006234 -0.002761 0.009746 0.000000 0.000000 0.000000
# 4 0.000000 0.000000 0.000000 0.093208 0.000000 0.000000
# 5 0.000000 0.000000 0.000000 0.000000 0.028654 0.000000
# 6 0.000000 0.000000 0.000000 0.000000 0.000000 0.045536
#
#
# Mechanical properties :
#
#
# Convention : Reuss Voigt Hill
#
# Bulk Modulus (GPa) = 28.54268 39.67662 34.10965
# Shear Modulus (GPa) = 21.43628 29.74452 25.59040
#
# Velocity S-wave (km/s) = 3.11410 3.66827 3.40249
# Velocity P-wave (km/s) = 5.08357 5.99091 5.55580
#
# Compressibility (1/GPa) = 0.03503526
#
# Stress axis : x y z
#
# Youngs Moduli (GPa) = 41.62600 92.28985 102.60935
#
# Poissons Ratio (x) = -0.38856 0.63965
# Poissons Ratio (y) = -0.17526 0.28331
# Poissons Ratio (z) = 0.25949 0.25481
#
# Static dielectric constant tensor:
#      x y z
#    x 1.768890 0.000000 0.000000 
#    y 0.000000 1.816170 0.000000 
#    z 0.000000 0.000000 1.869070 
# 
# From -- ./inp_files/6332.got.cif
#   From: 2010.05.17/outbox.cif.g08.bks.cpg/sg37_4_cif.got.tgz:6332.got - 2010.06.03 17:53:42.
