data_PCOD9354985
_publ_section_title
;
Structure prediction by ZEFSAII (Michael W. Deem and Ramdas Pophale) SiO2 
 PCOD9354985
Probable space group: C C C 2
;
_chemical_formula_sum "Si O2"
_cell_formula_units_Z 60
_cell_length_a 11.603502
_cell_length_b 25.928311
_cell_length_c 9.587638
_cell_angle_alpha 90.000000
_cell_angle_beta 90.000000
_cell_angle_gamma 90.000000
_cell_volume 2884.529180
_symmetry_space_group_name_H-M "C C C 2"
_symmetry_group_IT_number 37
_symmetry_cell_setting 'orthorhombic'
loop_
_space_group_symop_operation_xyz
x,y,z
-x,-y,z
-x,y,1/2+z
x,-y,1/2+z
1/2+x,1/2+y,z
1/2-x,1/2-y,z
1/2-x,1/2+y,1/2+z
1/2+x,1/2-y,1/2+z
loop_
_atom_site_type_symbol
_atom_site_label
_atom_site_fract_x
_atom_site_fract_y
_atom_site_fract_z
Si Si1 0.482554 0.853775 0.335020
Si Si2 0.237605 0.692482 0.462646
Si Si3 0.770989 0.306605 0.791979
Si Si4 0.000000 0.500000 0.261488
Si Si5 0.770595 0.507000 0.430630
Si Si6 0.115311 0.905889 0.476590
Si Si7 0.119707 0.904401 0.806059
Si Si8 0.423449 0.081741 0.582608
O O1 0.391561 0.824690 0.430349
O O2 0.594693 0.820718 0.299785
O O3 0.534185 0.898753 0.433596
O O4 0.415949 0.872753 0.195892
O O5 0.250000 0.750000 0.402120
O O6 0.258113 0.695874 0.628145
O O7 0.319849 0.645214 0.418581
O O8 0.750000 0.250000 0.854760
O O9 0.693290 0.353494 0.850249
O O10 0.888015 0.490756 0.353548
O O11 0.020791 0.452671 0.156928
O O12 0.696302 0.456410 0.462361
O O13 0.697842 0.545523 0.333671
O O14 0.814426 0.544211 0.557581
O O15 0.093318 0.899930 0.641916
O O16 0.996142 0.910977 0.394402
#
# Coordination Sequence:
#
# PCOD9354985 Si02
#       8
#     8   8   8   4   8   8   8   8
#     4  12  23  43  71 103 140 176 228 286 355 413
#     4  10  24  45  69 100 139 180 224 284 349 408
#     4  10  22  44  74  98 137 184 228 288 349 412
#     4  12  24  38  66 104 138 174 224 278 342 408
#     4  12  25  43  70  98 138 184 227 281 338 420
#     4  11  27  45  70  98 134 183 231 278 343 416
#     4  11  25  47  68  96 136 180 230 277 344 412
#     4  12  24  39  65 103 140 175 219 284 345 410
#
# _framework density 20.800621
#
# number of rings (size 3 to 8) (size 9 to 14) (size 15 to 20)
#    0.000    0.800    4.000    2.400    5.600    4.267 
#    0.000    0.667    0.000    0.000    0.000    0.000 
#    0.000    0.000    0.000    0.000    0.000    0.000 
#
# Total GULP energy -167538.292891 kJ/mol
# GULP energy per Si atom -5584.609763 kJ/mol
# Density = 2.075328 g / cm^3
# Si number density = 20.800621 Si / 1000 Ang^3
#
#
#
# Elastic Constant Matrix: (Units=GPa)
#
#
# Indices 1 2 3 4 5 6 
#
# 1 122.8128 53.8832 26.1040 0.0000 0.0000 0.0000
# 2 53.8832 129.9357 25.4487 0.0000 0.0000 0.0000
# 3 26.1040 25.4487 68.5843 0.0000 0.0000 0.0000
# 4 0.0000 0.0000 0.0000 21.9795 0.0000 0.0000
# 5 0.0000 0.0000 0.0000 0.0000 32.4995 0.0000
# 6 0.0000 0.0000 0.0000 0.0000 0.0000 -70.4351
#
#
#
# Elastic Compliance Matrix: (Units=1/GPa)
#
#
# Indices 1 2 3 4 5 6 
#
# 1 0.010345 -0.003795 -0.002529 0.000000 0.000000 0.000000
# 2 -0.003795 0.009691 -0.002152 0.000000 0.000000 0.000000
# 3 -0.002529 -0.002152 0.016342 0.000000 0.000000 0.000000
# 4 0.000000 0.000000 0.000000 0.045497 0.000000 0.000000
# 5 0.000000 0.000000 0.000000 0.000000 0.030770 0.000000
# 6 0.000000 0.000000 0.000000 0.000000 0.000000 -0.014197
#
#
# Mechanical properties :
#
#
# Convention : Reuss Voigt Hill
#
# Bulk Modulus (GPa) = 51.47624 59.13385 55.30504
# Shear Modulus (GPa) = 41.02607 11.20191 26.11399
#
# Velocity S-wave (km/s) = 4.44593 2.32316 3.54707
# Velocity P-wave (km/s) = 7.15236 5.97383 6.58950
#
# Compressibility (1/GPa) = 0.01942644
#
# Stress axis : x y z
#
# Youngs Moduli (GPa) = 96.66567 103.18740 61.19303
#
# Poissons Ratio (x) = 0.39155 0.15478
# Poissons Ratio (y) = 0.36680 0.13167
# Poissons Ratio (z) = 0.24451 0.22203
#
# Static dielectric constant tensor:
#      x y z
#    x 1.709150 0.000000 0.000000 
#    y 0.000000 1.864840 0.000000 
#    z 0.000000 0.000000 1.775290 
# 
# From -- ./inp_files/3071.got.cif
#   From: 2010.05.17/outbox.cif.g08.bks.cpg/sg37_2_cif.got.tgz:3071.got - 2010.06.03 17:53:42.
