data_PCOD9354575
_publ_section_title
;
Structure prediction by ZEFSAII (Michael W. Deem and Ramdas Pophale) SiO2 
 PCOD9354575
Probable space group: C C C 2
;
_chemical_formula_sum "Si O2"
_cell_formula_units_Z 48
_cell_length_a 6.010048
_cell_length_b 29.210514
_cell_length_c 12.045825
_cell_angle_alpha 90.000000
_cell_angle_beta 90.000000
_cell_angle_gamma 90.000000
_cell_volume 2114.723976
_symmetry_space_group_name_H-M "C C C 2"
_symmetry_group_IT_number 37
_symmetry_cell_setting 'orthorhombic'
loop_
_space_group_symop_operation_xyz
x,y,z
-x,-y,z
-x,y,1/2+z
x,-y,1/2+z
1/2+x,1/2+y,z
1/2-x,1/2-y,z
1/2-x,1/2+y,1/2+z
1/2+x,1/2-y,1/2+z
loop_
_atom_site_type_symbol
_atom_site_label
_atom_site_fract_x
_atom_site_fract_y
_atom_site_fract_z
Si Si1 0.116453 0.617801 0.091180
Si Si2 0.836319 0.464193 0.598698
Si Si3 0.464439 0.580041 0.257035
Si Si4 0.534352 0.662070 0.418245
Si Si5 0.250000 0.750000 0.925055
Si Si6 0.858776 0.295846 0.570402
Si Si7 0.500000 0.500000 0.932141
O O1 0.244147 0.590187 0.186714
O O2 0.957909 0.578732 0.040050
O O3 0.973413 0.661513 0.133884
O O4 0.297539 0.637778 0.005493
O O5 0.655601 0.439210 0.675869
O O6 0.710723 0.497508 0.513169
O O7 0.000000 0.500000 0.659992
O O8 0.502664 0.627554 0.318773
O O9 0.463027 0.543079 0.354075
O O10 0.638019 0.707782 0.365334
O O11 0.320159 0.679303 0.488640
O O12 0.441354 0.773205 0.999732
O O13 0.750000 0.250000 0.623633
#
# Coordination Sequence:
#
# PCOD9354575 Si02
#       7
#     8   8   8   8   4   8   4
#     4  11  23  40  66  99 132 175 223 281 340 408
#     4  12  26  45  67  95 132 171 228 279 340 412
#     4  12  25  41  67  98 136 171 224 285 340 408
#     4  10  21  41  69  93 133 179 221 276 340 398
#     4   8  18  36  68  94 124 172 226 268 330 396
#     4   9  18  38  69  92 129 177 223 272 332 400
#     4  12  26  46  66  96 130 182 224 278 348 412
#
# _framework density 22.697997000000001
#
# number of rings (size 3 to 8) (size 9 to 14) (size 15 to 20)
#    0.000    1.333    0.000    6.500    0.000    7.333 
#    0.000    0.000   78.833    0.000    0.000    0.000 
#    0.000    0.000    0.000    0.000    0.000    0.000 
#
# Total GULP energy -133949.969454 kJ/mol
# GULP energy per Si atom -5581.248727 kJ/mol
# Density = 2.264634 g / cm^3
# Si number density = 22.697997 Si / 1000 Ang^3
#
#
#
# Elastic Constant Matrix: (Units=GPa)
#
#
# Indices 1 2 3 4 5 6 
#
# 1 101.3330 62.8914 31.6718 0.0000 0.0000 0.0000
# 2 62.8914 187.6977 40.5886 0.0000 0.0000 0.0000
# 3 31.6718 40.5886 60.7124 0.0000 0.0000 0.0000
# 4 0.0000 0.0000 0.0000 -4.5198 0.0000 0.0000
# 5 0.0000 0.0000 0.0000 0.0000 -1.1571 0.0000
# 6 0.0000 0.0000 0.0000 0.0000 0.0000 70.5565
#
#
#
# Elastic Compliance Matrix: (Units=1/GPa)
#
#
# Indices 1 2 3 4 5 6 
#
# 1 0.013519 -0.003512 -0.004704 0.000000 0.000000 0.000000
# 2 -0.003512 0.007141 -0.002941 0.000000 0.000000 0.000000
# 3 -0.004704 -0.002941 0.020892 0.000000 0.000000 0.000000
# 4 0.000000 0.000000 0.000000 -0.221251 0.000000 0.000000
# 5 0.000000 0.000000 0.000000 0.000000 -0.864253 0.000000
# 6 0.000000 0.000000 0.000000 0.000000 0.000000 0.014173
#
#
# Mechanical properties :
#
#
# Convention : Reuss Voigt Hill
#
# Bulk Modulus (GPa) = 51.98880 68.89407 60.44144
# Shear Modulus (GPa) = -4.99475 27.28201 11.14363
#
# Velocity S-wave (km/s) = -1.48503 3.47069 2.21815
# Velocity P-wave (km/s) = 4.47369 6.81757 5.76598
#
# Compressibility (1/GPa) = 0.01923491
#
# Stress axis : x y z
#
# Youngs Moduli (GPa) = 73.97161 140.04218 47.86620
#
# Poissons Ratio (x) = 0.49189 0.22517
# Poissons Ratio (y) = 0.25982 0.14080
# Poissons Ratio (z) = 0.34797 0.41193
#
# Static dielectric constant tensor:
#      x y z
#    x 1.898100 0.000000 0.000000 
#    y 0.000000 1.919940 0.000000 
#    z 0.000000 0.000000 1.847460 
# 
# From -- ./inp_files/9790.got.cif
#   From: 2010.05.17/outbox.cif.g08.bks.cpg/sg37_5_cif.got.tgz:9790.got - 2010.06.03 17:53:42.
