data_PCOD9354837
_publ_section_title
;
Structure prediction by ZEFSAII (Michael W. Deem and Ramdas Pophale) SiO2 
 PCOD9354837
Probable space group: C C C 2
;
_chemical_formula_sum "Si O2"
_cell_formula_units_Z 64
_cell_length_a 12.182605
_cell_length_b 17.059676
_cell_length_c 14.564865
_cell_angle_alpha 90.000000
_cell_angle_beta 90.000000
_cell_angle_gamma 90.000000
_cell_volume 3027.034742
_symmetry_space_group_name_H-M "C C C 2"
_symmetry_group_IT_number 37
_symmetry_cell_setting 'orthorhombic'
loop_
_space_group_symop_operation_xyz
x,y,z
-x,-y,z
-x,y,1/2+z
x,-y,1/2+z
1/2+x,1/2+y,z
1/2-x,1/2-y,z
1/2-x,1/2+y,1/2+z
1/2+x,1/2-y,1/2+z
loop_
_atom_site_type_symbol
_atom_site_label
_atom_site_fract_x
_atom_site_fract_y
_atom_site_fract_z
Si Si1 0.434913 0.082436 0.152500
Si Si2 0.187273 0.371378 0.470098
Si Si3 0.891241 0.535640 0.958226
Si Si4 0.732646 0.407484 0.301358
Si Si5 0.596399 0.211819 0.225281
Si Si6 0.726216 0.411548 0.770374
Si Si7 0.094583 0.787358 0.030512
Si Si8 0.002116 0.160728 0.849357
O O1 0.516356 0.143315 0.196225
O O2 0.313244 0.105415 0.189621
O O3 0.500000 0.000000 0.171909
O O4 0.426812 0.088070 0.042838
O O5 0.161829 0.458202 0.505134
O O6 0.208961 0.386769 0.362914
O O7 0.105808 0.299658 0.486825
O O8 0.294939 0.336991 0.517061
O O9 0.812055 0.577976 0.888350
O O10 0.000000 0.500000 0.910119
O O11 0.789031 0.334425 0.246996
O O12 0.722275 0.494188 0.258836
O O13 0.609099 0.390225 0.330521
O O14 0.587061 0.271889 0.138890
O O15 0.542043 0.255661 0.310780
O O16 0.606224 0.372128 0.793451
O O17 0.016060 0.832427 0.959104
#
# Coordination Sequence:
#
# PCOD9354837 Si02
#       8
#     8   8   8   8   8   8   8   8
#     4  11  22  40  67 102 135 175 231 286 344 408
#     4   9  20  37  64  91 126 172 223 268 329 403
#     4  10  23  39  66 100 131 174 226 281 347 400
#     4  11  25  43  68  97 140 178 234 286 345 411
#     4  12  26  40  68 101 135 180 226 289 349 406
#     4  10  22  43  68  95 136 182 226 281 338 419
#     4  10  22  41  65  91 135 176 223 273 341 410
#     4  11  26  44  64 102 137 185 229 281 349 416
#
# _framework density 21.142804000000002
#
# number of rings (size 3 to 8) (size 9 to 14) (size 15 to 20)
#    0.000    1.500    1.250    3.000   10.500    2.500 
#    0.000    0.000    0.000    3.000    0.000    0.000 
#    0.000    0.000    0.000    0.000    0.000    0.000 
#
# Total GULP energy -178183.567083 kJ/mol
# GULP energy per Si atom -5568.236471 kJ/mol
# Density = 2.109468 g / cm^3
# Si number density = 21.142804 Si / 1000 Ang^3
#
#
#
# Elastic Constant Matrix: (Units=GPa)
#
#
# Indices 1 2 3 4 5 6 
#
# 1 115.5975 11.9286 39.2688 0.0000 0.0000 0.0000
# 2 11.9286 56.9111 -0.0734 0.0000 0.0000 0.0000
# 3 39.2688 -0.0734 60.2801 0.0000 0.0000 0.0000
# 4 0.0000 0.0000 0.0000 16.2107 0.0000 0.0000
# 5 0.0000 0.0000 0.0000 0.0000 23.2007 0.0000
# 6 0.0000 0.0000 0.0000 0.0000 0.0000 36.3568
#
#
#
# Elastic Compliance Matrix: (Units=1/GPa)
#
#
# Indices 1 2 3 4 5 6 
#
# 1 0.011429 -0.002405 -0.007448 0.000000 0.000000 0.000000
# 2 -0.002405 0.018077 0.001589 0.000000 0.000000 0.000000
# 3 -0.007448 0.001589 0.021443 0.000000 0.000000 0.000000
# 4 0.000000 0.000000 0.000000 0.061688 0.000000 0.000000
# 5 0.000000 0.000000 0.000000 0.000000 0.043102 0.000000
# 6 0.000000 0.000000 0.000000 0.000000 0.000000 0.027505
#
#
# Mechanical properties :
#
#
# Convention : Reuss Voigt Hill
#
# Bulk Modulus (GPa) = 29.05241 37.22631 33.13936
# Shear Modulus (GPa) = 23.66890 27.26461 25.46676
#
# Velocity S-wave (km/s) = 3.34949 3.59492 3.47437
# Velocity P-wave (km/s) = 5.36000 5.90564 5.63942
#
# Compressibility (1/GPa) = 0.03442056
#
# Stress axis : x y z
#
# Youngs Moduli (GPa) = 87.49593 55.31753 46.63470
#
# Poissons Ratio (x) = 0.13305 0.34735
# Poissons Ratio (y) = 0.21044 -0.07409
# Poissons Ratio (z) = 0.65170 -0.08789
#
# Static dielectric constant tensor:
#      x y z
#    x 1.808600 0.000000 0.000000 
#    y 0.000000 1.966890 0.000000 
#    z 0.000000 0.000000 1.796250 
# 
# From -- ./inp_files/11789.got.cif
#   From: 2010.05.17/outbox.cif.g08.bks.cpg/sg37_6_cif.got.tgz:11789.got - 2010.06.03 17:53:42.
