data_PCOD9354162
_publ_section_title
;
Structure prediction by ZEFSAII (Michael W. Deem and Ramdas Pophale) SiO2 
 PCOD9354162
Probable space group: C C C 2
;
_chemical_formula_sum "Si O2"
_cell_formula_units_Z 64
_cell_length_a 10.404332
_cell_length_b 10.404356
_cell_length_c 31.716650
_cell_angle_alpha 90.000000
_cell_angle_beta 90.000000
_cell_angle_gamma 90.000000
_cell_volume 3433.339227
_symmetry_space_group_name_H-M "C C C 2"
_symmetry_group_IT_number 37
_symmetry_cell_setting 'orthorhombic'
loop_
_space_group_symop_operation_xyz
x,y,z
-x,-y,z
-x,y,1/2+z
x,-y,1/2+z
1/2+x,1/2+y,z
1/2-x,1/2-y,z
1/2-x,1/2+y,1/2+z
1/2+x,1/2-y,1/2+z
loop_
_atom_site_type_symbol
_atom_site_label
_atom_site_fract_x
_atom_site_fract_y
_atom_site_fract_z
Si Si1 0.499572 0.206872 0.287760
Si Si2 0.608061 0.391940 0.719308
Si Si3 0.103811 0.103812 0.952408
Si Si4 0.893672 0.393671 0.584780
Si Si5 0.106166 0.606166 0.483376
Si Si6 0.639917 0.360082 0.354945
Si Si7 0.389647 0.389647 0.120570
Si Si8 0.793128 0.499574 0.787760
O O1 0.447010 0.273959 0.246043
O O2 0.528236 0.302216 0.325887
O O3 0.630552 0.130552 0.278090
O O4 0.395501 0.104498 0.302186
O O5 0.500000 0.500000 0.721044
O O6 0.632824 0.367176 0.670478
O O7 0.726042 0.447011 0.746042
O O8 0.074703 0.249885 0.967156
O O9 0.249885 0.074704 0.967156
O O10 0.102524 0.102524 0.901690
O O11 0.000000 0.000000 0.968343
O O12 0.890407 0.390406 0.534076
O O13 0.749401 0.426026 0.600976
O O14 0.926028 0.249401 0.600976
O O15 0.000000 0.500000 0.597786
O O16 0.000000 0.500000 0.470282
O O17 0.750000 0.250000 0.359383
O O18 0.697783 0.471762 0.325887
O O19 0.500000 0.500000 0.114965
#
# Coordination Sequence:
#
# PCOD9354162 Si02
#       8
#     8   8   8   8   8   8   8   8
#     4  10  22  37  56  81 111 156 205 253 301 353
#     4  11  22  38  59  82 123 163 202 255 304 357
#     4  11  23  39  65  95 125 170 207 259 318 380
#     4  10  23  43  68  95 129 166 207 263 326 389
#     4  10  23  45  66  95 131 164 207 265 324 389
#     4  10  20  39  58  83 124 161 201 256 308 364
#     4  10  23  40  62  96 128 166 210 260 314 381
#     4  10  22  37  56  81 111 156 205 253 301 353
#
# _framework density 18.640744999999999
#
# number of rings (size 3 to 8) (size 9 to 14) (size 15 to 20)
#    0.000    1.750    2.500    1.875    5.250    5.000 
#    0.000    5.000    0.000    0.000    0.000    0.000 
#    0.000    0.000    0.000    0.000    0.000    0.000 
#
# Total GULP energy -178581.447760 kJ/mol
# GULP energy per Si atom -5580.670242 kJ/mol
# Density = 1.859832 g / cm^3
# Si number density = 18.640745 Si / 1000 Ang^3
#
#
#
# Elastic Constant Matrix: (Units=GPa)
#
#
# Indices 1 2 3 4 5 6 
#
# 1 123.6969 91.6648 52.3836 0.0000 0.0000 0.0000
# 2 91.6648 123.6997 52.3845 0.0000 0.0000 0.0000
# 3 52.3836 52.3845 112.4271 0.0000 0.0000 0.0000
# 4 0.0000 0.0000 0.0000 22.9755 0.0000 0.0000
# 5 0.0000 0.0000 0.0000 0.0000 22.9746 0.0000
# 6 0.0000 0.0000 0.0000 0.0000 0.0000 44.2586
#
#
#
# Elastic Compliance Matrix: (Units=1/GPa)
#
#
# Indices 1 2 3 4 5 6 
#
# 1 0.018611 -0.012606 -0.002798 0.000000 0.000000 0.000000
# 2 -0.012606 0.018611 -0.002798 0.000000 0.000000 0.000000
# 3 -0.002798 -0.002798 0.011502 0.000000 0.000000 0.000000
# 4 0.000000 0.000000 0.000000 0.043525 0.000000 0.000000
# 5 0.000000 0.000000 0.000000 0.000000 0.043526 0.000000
# 6 0.000000 0.000000 0.000000 0.000000 0.000000 0.022594
#
#
# Mechanical properties :
#
#
# Convention : Reuss Voigt Hill
#
# Bulk Modulus (GPa) = 81.17038 83.63217 82.40128
# Shear Modulus (GPa) = 25.14095 28.93446 27.03770
#
# Velocity S-wave (km/s) = 3.67646 3.94409 3.81263
# Velocity P-wave (km/s) = 7.85245 8.10579 7.98012
#
# Compressibility (1/GPa) = 0.01231976
#
# Stress axis : x y z
#
# Youngs Moduli (GPa) = 53.73178 53.73285 86.94372
#
# Poissons Ratio (x) = 0.67738 0.24323
# Poissons Ratio (y) = 0.67737 0.24324
# Poissons Ratio (z) = 0.15032 0.15033
#
# Static dielectric constant tensor:
#      x y z
#    x 1.659570 0.000000 0.000000 
#    y 0.000000 1.659570 0.000000 
#    z 0.000000 0.000000 1.616990 
# 
# From -- ./inp_files/20420.got.cif
#   From: 2010.05.17/outbox.cif.g08.bks.cpg/sg37_11_cif.got.tgz:20420.got - 2010.06.03 17:53:42.
