data_PCOD9354692
_publ_section_title
;
Structure prediction by ZEFSAII (Michael W. Deem and Ramdas Pophale) SiO2 
 PCOD9354692
Probable space group: C C C 2
;
_chemical_formula_sum "Si O2"
_cell_formula_units_Z 44
_cell_length_a 22.675554
_cell_length_b 12.163954
_cell_length_c 8.030380
_cell_angle_alpha 90.000000
_cell_angle_beta 90.000000
_cell_angle_gamma 90.000000
_cell_volume 2214.974711
_symmetry_space_group_name_H-M "C C C 2"
_symmetry_group_IT_number 37
_symmetry_cell_setting 'orthorhombic'
loop_
_space_group_symop_operation_xyz
x,y,z
-x,-y,z
-x,y,1/2+z
x,-y,1/2+z
1/2+x,1/2+y,z
1/2-x,1/2-y,z
1/2-x,1/2+y,1/2+z
1/2+x,1/2-y,1/2+z
loop_
_atom_site_type_symbol
_atom_site_label
_atom_site_fract_x
_atom_site_fract_y
_atom_site_fract_z
Si Si1 0.180236 0.256225 0.816110
Si Si2 0.126737 0.644908 0.993998
Si Si3 0.491628 0.129746 0.937687
Si Si4 0.066994 0.150193 0.840992
Si Si5 0.500000 0.500000 0.593781
Si Si6 0.626305 0.101893 0.614540
O O1 0.250000 0.250000 0.824530
O O2 0.161007 0.279639 0.624550
O O3 0.137221 0.155065 0.860423
O O4 0.159681 0.341883 0.959730
O O5 0.132855 0.526913 0.083057
O O6 0.056998 0.669091 0.980738
O O7 0.145801 0.637583 0.799585
O O8 0.459629 0.225473 0.829673
O O9 0.500000 0.000000 0.883048
O O10 0.443904 0.123913 0.088649
O O11 0.046915 0.071398 0.694411
O O12 0.035971 0.091445 0.994724
#
# Coordination Sequence:
#
# PCOD9354692 Si02
#       6
#     8   8   8   8   4   8
#     4  11  25  44  62  92 128 171 229 284 331 399
#     4  11  21  38  63  97 131 169 200 262 348 413
#     4   9  21  34  66 104 136 160 204 283 361 402
#     4  10  22  43  63  97 131 170 228 277 333 416
#     4  10  22  42  68  90 130 184 224 278 334 394
#     4  10  22  37  62  96 133 165 201 261 341 416
#
# _framework density 19.864788000000001
#
# number of rings (size 3 to 8) (size 9 to 14) (size 15 to 20)
#    0.000    1.818    1.818    1.091   10.182    2.909 
#    3.273    0.000    0.000    0.000    0.000    0.000 
#    0.000    0.000    0.000    0.000    0.000    0.000 
#
# Total GULP energy -122533.113092 kJ/mol
# GULP energy per Si atom -5569.686959 kJ/mol
# Density = 1.981957 g / cm^3
# Si number density = 19.864788 Si / 1000 Ang^3
#
#
#
# Elastic Constant Matrix: (Units=GPa)
#
#
# Indices 1 2 3 4 5 6 
#
# 1 146.2176 22.3142 13.5048 0.0000 0.0000 0.0000
# 2 22.3142 55.6966 9.9877 0.0000 0.0000 0.0000
# 3 13.5048 9.9877 87.4062 0.0000 0.0000 0.0000
# 4 0.0000 0.0000 0.0000 6.0477 0.0000 0.0000
# 5 0.0000 0.0000 0.0000 0.0000 22.5776 0.0000
# 6 0.0000 0.0000 0.0000 0.0000 0.0000 12.7419
#
#
#
# Elastic Compliance Matrix: (Units=1/GPa)
#
#
# Indices 1 2 3 4 5 6 
#
# 1 0.007341 -0.002795 -0.000815 0.000000 0.000000 0.000000
# 2 -0.002795 0.019394 -0.001784 0.000000 0.000000 0.000000
# 3 -0.000815 -0.001784 0.011771 0.000000 0.000000 0.000000
# 4 0.000000 0.000000 0.000000 0.165353 0.000000 0.000000
# 5 0.000000 0.000000 0.000000 0.000000 0.044292 0.000000
# 6 0.000000 0.000000 0.000000 0.000000 0.000000 0.078481
#
#
# Mechanical properties :
#
#
# Convention : Reuss Voigt Hill
#
# Bulk Modulus (GPa) = 36.07821 42.32596 39.20209
# Shear Modulus (GPa) = 14.42339 24.50767 19.46553
#
# Velocity S-wave (km/s) = 2.69751 3.51625 3.13373
# Velocity P-wave (km/s) = 5.28236 6.15131 5.73333
#
# Compressibility (1/GPa) = 0.02771756
#
# Stress axis : x y z
#
# Youngs Moduli (GPa) = 136.22286 51.56193 84.95726
#
# Poissons Ratio (x) = 0.14411 0.06923
# Poissons Ratio (y) = 0.38073 0.15159
# Poissons Ratio (z) = 0.11100 0.09200
#
# Static dielectric constant tensor:
#      x y z
#    x 1.681010 0.000000 0.000000 
#    y 0.000000 1.730080 0.000000 
#    z 0.000000 0.000000 1.771140 
# 
# From -- ./inp_files/4569.got.cif
#   From: 2010.05.17/outbox.cif.g08.bks.cpg/sg37_3_cif.got.tgz:4569.got - 2010.06.03 17:53:42.
