data_PCOD9354664
_publ_section_title
;
Structure prediction by ZEFSAII (Michael W. Deem and Ramdas Pophale) SiO2 
 PCOD9354664
Probable space group: C C C 2
;
_chemical_formula_sum "Si O2"
_cell_formula_units_Z 64
_cell_length_a 8.841257
_cell_length_b 16.390687
_cell_length_c 20.066192
_cell_angle_alpha 90.000000
_cell_angle_beta 90.000000
_cell_angle_gamma 90.000000
_cell_volume 2907.877689
_symmetry_space_group_name_H-M "C C C 2"
_symmetry_group_IT_number 37
_symmetry_cell_setting 'orthorhombic'
loop_
_space_group_symop_operation_xyz
x,y,z
-x,-y,z
-x,y,1/2+z
x,-y,1/2+z
1/2+x,1/2+y,z
1/2-x,1/2-y,z
1/2-x,1/2+y,1/2+z
1/2+x,1/2-y,1/2+z
loop_
_atom_site_type_symbol
_atom_site_label
_atom_site_fract_x
_atom_site_fract_y
_atom_site_fract_z
Si Si1 0.606119 0.922134 0.420810
Si Si2 0.792379 0.845058 0.541248
Si Si3 0.890185 0.427863 0.155342
Si Si4 0.158416 0.668040 0.620335
Si Si5 0.390965 0.420666 0.332152
Si Si6 0.344055 0.543821 0.692146
Si Si7 0.455943 0.405625 0.961372
Si Si8 0.151849 0.329975 0.965783
O O1 0.707109 0.895529 0.483498
O O2 0.723350 0.934932 0.361154
O O3 0.486471 0.847510 0.417168
O O4 0.500000 0.000000 0.432025
O O5 0.750000 0.750000 0.541144
O O6 0.735435 0.888744 0.607601
O O7 0.967620 0.855820 0.521310
O O8 0.787567 0.476633 0.208876
O O9 0.000000 0.500000 0.126263
O O10 0.013652 0.356141 0.166030
O O11 0.250000 0.750000 0.635110
O O12 0.277521 0.595278 0.631670
O O13 0.103248 0.670962 0.543565
O O14 0.500000 0.500000 0.326706
O O15 0.370978 0.397039 0.255417
O O16 0.475428 0.372145 0.391261
O O17 0.500000 0.500000 0.675691
O O18 0.500000 0.500000 0.968094
O O19 0.277298 0.400101 0.959910
O O20 0.250000 0.250000 0.952102
#
# Coordination Sequence:
#
# PCOD9354664 Si02
#       8
#     8   8   8   8   8   8   8   8
#     4  11  21  36  64  89 120 166 201 252 312 373
#     4  11  22  34  53  87 128 156 193 248 305 366
#     4  10  22  38  59  88 121 161 212 252 296 383
#     4  10  23  39  59  87 134 170 200 256 320 373
#     4   9  20  42  61  91 122 156 214 275 307 362
#     4  10  23  41  66  88 118 166 220 266 311 364
#     4  10  22  35  59  86 120 160 204 250 309 371
#     4  11  22  37  58  92 134 165 199 249 324 384
#
# _framework density 22.009179
#
# number of rings (size 3 to 8) (size 9 to 14) (size 15 to 20)
#    0.000    1.750    1.250    3.375    8.750    1.500 
#    0.000    3.750    0.000    0.000    0.000    4.375 
#    0.000    0.000    0.000    0.000    0.000    0.000 
#
# Total GULP energy -178388.486378 kJ/mol
# GULP energy per Si atom -5574.640199 kJ/mol
# Density = 2.195909 g / cm^3
# Si number density = 22.009179 Si / 1000 Ang^3
#
#
#
# Elastic Constant Matrix: (Units=GPa)
#
#
# Indices 1 2 3 4 5 6 
#
# 1 134.6710 24.4318 17.8057 0.0000 0.0000 0.0000
# 2 24.4318 70.2125 13.8035 0.0000 0.0000 0.0000
# 3 17.8057 13.8035 41.8905 0.0000 0.0000 0.0000
# 4 0.0000 0.0000 0.0000 2.7125 0.0000 0.0000
# 5 0.0000 0.0000 0.0000 0.0000 14.2750 0.0000
# 6 0.0000 0.0000 0.0000 0.0000 0.0000 36.1532
#
#
#
# Elastic Compliance Matrix: (Units=1/GPa)
#
#
# Indices 1 2 3 4 5 6 
#
# 1 0.008207 -0.002320 -0.002724 0.000000 0.000000 0.000000
# 2 -0.002320 0.015885 -0.004248 0.000000 0.000000 0.000000
# 3 -0.002724 -0.004248 0.026429 0.000000 0.000000 0.000000
# 4 0.000000 0.000000 0.000000 0.368663 0.000000 0.000000
# 5 0.000000 0.000000 0.000000 0.000000 0.070052 0.000000
# 6 0.000000 0.000000 0.000000 0.000000 0.000000 0.027660
#
#
# Mechanical properties :
#
#
# Convention : Reuss Voigt Hill
#
# Bulk Modulus (GPa) = 31.31180 39.87288 35.59234
# Shear Modulus (GPa) = 9.15539 23.34368 16.24954
#
# Velocity S-wave (km/s) = 2.04177 3.26027 2.72013
# Velocity P-wave (km/s) = 4.45152 5.68580 5.10609
#
# Compressibility (1/GPa) = 0.03193684
#
# Stress axis : x y z
#
# Youngs Moduli (GPa) = 121.85406 62.95255 37.83682
#
# Poissons Ratio (x) = 0.14606 0.10306
# Poissons Ratio (y) = 0.28272 0.16074
# Poissons Ratio (z) = 0.33189 0.26743
#
# Static dielectric constant tensor:
#      x y z
#    x 1.873540 0.000000 0.000000 
#    y 0.000000 1.883490 0.000000 
#    z 0.000000 0.000000 1.805870 
# 
# From -- ./inp_files/16529.got.cif
#   From: 2010.05.17/outbox.cif.g08.bks.cpg/sg37_9_cif.got.tgz:16529.got - 2010.06.03 17:53:42.
