data_PCOD9354929
_publ_section_title
;
Structure prediction by ZEFSAII (Michael W. Deem and Ramdas Pophale) SiO2 
 PCOD9354929
Probable space group: C C C 2
;
_chemical_formula_sum "Si O2"
_cell_formula_units_Z 64
_cell_length_a 8.802957
_cell_length_b 13.208933
_cell_length_c 22.770923
_cell_angle_alpha 90.000000
_cell_angle_beta 90.000000
_cell_angle_gamma 90.000000
_cell_volume 2647.749852
_symmetry_space_group_name_H-M "C C C 2"
_symmetry_group_IT_number 37
_symmetry_cell_setting 'orthorhombic'
loop_
_space_group_symop_operation_xyz
x,y,z
-x,-y,z
-x,y,1/2+z
x,-y,1/2+z
1/2+x,1/2+y,z
1/2-x,1/2-y,z
1/2-x,1/2+y,1/2+z
1/2+x,1/2-y,1/2+z
loop_
_atom_site_type_symbol
_atom_site_label
_atom_site_fract_x
_atom_site_fract_y
_atom_site_fract_z
Si Si1 0.362194 0.076499 0.446510
Si Si2 0.570146 0.725695 0.951571
Si Si3 0.597560 0.598792 0.542656
Si Si4 0.497579 0.116954 0.234490
Si Si5 0.778641 0.854306 0.160322
Si Si6 0.646962 0.646158 0.354309
Si Si7 0.758418 0.417609 0.153782
Si Si8 0.457150 0.340154 0.744980
O O1 0.455326 0.180177 0.449423
O O2 0.233340 0.074572 0.496654
O O3 0.267214 0.071589 0.385615
O O4 0.500000 0.000000 0.452224
O O5 0.750000 0.750000 0.945835
O O6 0.496061 0.660232 0.898870
O O7 0.524524 0.671053 0.011791
O O8 0.500000 0.500000 0.556863
O O9 0.679836 0.639618 0.600734
O O10 0.325858 0.145357 0.219004
O O11 0.571335 0.111875 0.169109
O O12 0.562827 0.220974 0.262888
O O13 0.500000 0.000000 0.258035
O O14 0.750000 0.750000 0.126289
O O15 0.946127 0.846618 0.185393
O O16 0.751372 0.965148 0.135440
O O17 0.750000 0.750000 0.347051
O O18 0.560956 0.614111 0.295595
O O19 0.688817 0.398765 0.219629
#
# Coordination Sequence:
#
# PCOD9354929 Si02
#       8
#     8   8   8   8   8   8   8   8
#     4  10  22  43  70  99 129 169 227 290 349 408
#     4  10  22  43  67  94 128 167 218 275 337 406
#     4  11  23  42  66  92 131 173 219 283 341 404
#     4   9  20  36  56  83 122 166 212 262 314 391
#     4   9  19  38  59  81 121 167 209 258 317 395
#     4   9  20  40  65  93 130 170 215 277 332 390
#     4  11  23  39  59  93 129 165 217 270 331 402
#     4  11  20  37  62  89 129 169 208 261 326 396
#
# _framework density 24.171467
#
# number of rings (size 3 to 8) (size 9 to 14) (size 15 to 20)
#    0.000    2.000    0.000    4.500    0.000    4.500 
#    0.000   27.500    0.000    0.000    0.000    0.000 
#    0.000    0.000    0.000    0.000    0.000    0.000 
#
# Total GULP energy -178318.544170 kJ/mol
# GULP energy per Si atom -5572.454505 kJ/mol
# Density = 2.411645 g / cm^3
# Si number density = 24.171467 Si / 1000 Ang^3
#
#
#
# Elastic Constant Matrix: (Units=GPa)
#
#
# Indices 1 2 3 4 5 6 
#
# 1 138.1624 26.6127 46.6887 0.0000 0.0000 0.0000
# 2 26.6127 76.6951 5.0292 0.0000 0.0000 0.0000
# 3 46.6887 5.0292 90.9052 0.0000 0.0000 0.0000
# 4 0.0000 0.0000 0.0000 10.9970 0.0000 0.0000
# 5 0.0000 0.0000 0.0000 0.0000 39.5757 0.0000
# 6 0.0000 0.0000 0.0000 0.0000 0.0000 34.8974
#
#
#
# Elastic Compliance Matrix: (Units=1/GPa)
#
#
# Indices 1 2 3 4 5 6 
#
# 1 0.009378 -0.002949 -0.004654 0.000000 0.000000 0.000000
# 2 -0.002949 0.014013 0.000739 0.000000 0.000000 0.000000
# 3 -0.004654 0.000739 0.013350 0.000000 0.000000 0.000000
# 4 0.000000 0.000000 0.000000 0.090934 0.000000 0.000000
# 5 0.000000 0.000000 0.000000 0.000000 0.025268 0.000000
# 6 0.000000 0.000000 0.000000 0.000000 0.000000 0.028655
#
#
# Mechanical properties :
#
#
# Convention : Reuss Voigt Hill
#
# Bulk Modulus (GPa) = 43.45006 51.38043 47.41524
# Shear Modulus (GPa) = 24.63085 32.25617 28.44351
#
# Velocity S-wave (km/s) = 3.19565 3.65701 3.43408
# Velocity P-wave (km/s) = 5.62415 6.25575 5.94834
#
# Compressibility (1/GPa) = 0.02301493
#
# Stress axis : x y z
#
# Youngs Moduli (GPa) = 106.62697 71.35987 74.90837
#
# Poissons Ratio (x) = 0.21045 0.34859
# Poissons Ratio (y) = 0.31446 -0.05539
# Poissons Ratio (z) = 0.49620 -0.05276
#
# Static dielectric constant tensor:
#      x y z
#    x 1.928090 0.000000 0.000000 
#    y 0.000000 1.992670 0.000000 
#    z 0.000000 0.000000 1.964990 
# 
# From -- ./inp_files/18521.got.cif
#   From: 2010.05.17/outbox.cif.g08.bks.cpg/sg37_10_cif.got.tgz:18521.got - 2010.06.03 17:53:42.
