data_PCOD9354715
_publ_section_title
;
Structure prediction by ZEFSAII (Michael W. Deem and Ramdas Pophale) SiO2 
 PCOD9354715
Probable space group: C C C 2
;
_chemical_formula_sum "Si O2"
_cell_formula_units_Z 64
_cell_length_a 20.471991
_cell_length_b 17.890778
_cell_length_c 8.511115
_cell_angle_alpha 90.000000
_cell_angle_beta 90.000000
_cell_angle_gamma 90.000000
_cell_volume 3117.279671
_symmetry_space_group_name_H-M "C C C 2"
_symmetry_group_IT_number 37
_symmetry_cell_setting 'orthorhombic'
loop_
_space_group_symop_operation_xyz
x,y,z
-x,-y,z
-x,y,1/2+z
x,-y,1/2+z
1/2+x,1/2+y,z
1/2-x,1/2-y,z
1/2-x,1/2+y,1/2+z
1/2+x,1/2-y,1/2+z
loop_
_atom_site_type_symbol
_atom_site_label
_atom_site_fract_x
_atom_site_fract_y
_atom_site_fract_z
Si Si1 0.905539 0.746534 0.196690
Si Si2 0.652876 0.718180 0.688219
Si Si3 0.201747 0.821261 0.848830
Si Si4 0.134445 0.469548 0.690686
Si Si5 0.767040 0.353474 0.328075
Si Si6 0.528542 0.218672 0.362783
Si Si7 0.807072 0.619188 0.166835
Si Si8 0.955483 0.563963 0.430562
O O1 0.851799 0.810096 0.213500
O O2 0.867096 0.668909 0.230594
O O3 0.961491 0.759682 0.323502
O O4 0.939210 0.735195 0.029815
O O5 0.664439 0.686293 0.513567
O O6 0.690027 0.655616 0.794996
O O7 0.696618 0.791303 0.722432
O O8 0.581722 0.748619 0.739186
O O9 0.250000 0.750000 0.844191
O O10 0.251418 0.886562 0.800092
O O11 0.192842 0.426007 0.775352
O O12 0.168460 0.539772 0.607978
O O13 0.095844 0.416401 0.568719
O O14 0.084558 0.514324 0.804444
O O15 0.781179 0.339235 0.511371
O O16 0.502087 0.131677 0.369843
O O17 0.000000 0.500000 0.508600
#
# Coordination Sequence:
#
# PCOD9354715 Si02
#       8
#     8   8   8   8   8   8   8   8
#     4  11  23  36  56  85 119 167 204 265 322 392
#     4  11  23  39  61  88 113 169 219 278 328 384
#     4  10  22  38  62  86 113 160 218 281 337 384
#     4  12  25  41  60  90 129 175 224 263 329 400
#     4  11  23  40  62  84 122 163 221 277 328 384
#     4  12  24  37  58  83 127 164 216 264 321 394
#     4  11  22  41  60  89 123 167 216 276 333 395
#     4  12  26  38  55  86 129 183 217 256 316 402
#
# _framework density 20.530722000000001
#
# number of rings (size 3 to 8) (size 9 to 14) (size 15 to 20)
#    0.000    0.750    5.000    3.375   10.500    0.000 
#    0.000    0.000    0.000    0.000    0.000    0.875 
#    0.000    6.000    0.000    0.000    0.000    0.000 
#
# Total GULP energy -178305.182808 kJ/mol
# GULP energy per Si atom -5572.036963 kJ/mol
# Density = 2.048399 g / cm^3
# Si number density = 20.530722 Si / 1000 Ang^3
#
#
#
# Elastic Constant Matrix: (Units=GPa)
#
#
# Indices 1 2 3 4 5 6 
#
# 1 140.2798 35.7936 55.2666 0.0000 0.0000 0.0000
# 2 35.7936 28.1151 27.7276 0.0000 0.0000 0.0000
# 3 55.2666 27.7276 99.5306 0.0000 0.0000 0.0000
# 4 0.0000 0.0000 0.0000 21.0661 0.0000 0.0000
# 5 0.0000 0.0000 0.0000 0.0000 39.1715 0.0000
# 6 0.0000 0.0000 0.0000 0.0000 0.0000 36.4902
#
#
#
# Elastic Compliance Matrix: (Units=1/GPa)
#
#
# Indices 1 2 3 4 5 6 
#
# 1 0.011212 -0.011216 -0.003101 0.000000 0.000000 0.000000
# 2 -0.011216 0.060261 -0.010560 0.000000 0.000000 0.000000
# 3 -0.003101 -0.010560 0.014711 0.000000 0.000000 0.000000
# 4 0.000000 0.000000 0.000000 0.047470 0.000000 0.000000
# 5 0.000000 0.000000 0.000000 0.000000 0.025529 0.000000
# 6 0.000000 0.000000 0.000000 0.000000 0.000000 0.027405
#
#
# Mechanical properties :
#
#
# Convention : Reuss Voigt Hill
#
# Bulk Modulus (GPa) = 27.44955 56.16678 41.80816
# Shear Modulus (GPa) = 20.12189 29.28809 24.70499
#
# Velocity S-wave (km/s) = 3.13403 3.78107 3.47265
# Velocity P-wave (km/s) = 5.14735 6.81753 6.04045
#
# Compressibility (1/GPa) = 0.03643048
#
# Stress axis : x y z
#
# Youngs Moduli (GPa) = 89.18803 16.59436 67.97601
#
# Poissons Ratio (x) = 0.18612 0.21081
# Poissons Ratio (y) = 1.00032 0.71783
# Poissons Ratio (z) = 0.27660 0.17524
#
# Static dielectric constant tensor:
#      x y z
#    x 1.858360 0.000000 0.000000 
#    y 0.000000 1.759700 0.000000 
#    z 0.000000 0.000000 1.839890 
# 
# From -- ./inp_files/4148.got.cif
#   From: 2010.05.17/outbox.cif.g08.bks.cpg/sg37_3_cif.got.tgz:4148.got - 2010.06.03 17:53:42.
