data_PCOD9354024
_publ_section_title
;
Structure prediction by ZEFSAII (Michael W. Deem and Ramdas Pophale) SiO2 
 PCOD9354024
Probable space group: C C C 2
;
_chemical_formula_sum "Si O2"
_cell_formula_units_Z 56
_cell_length_a 20.553156
_cell_length_b 14.340255
_cell_length_c 8.858732
_cell_angle_alpha 90.000000
_cell_angle_beta 90.000000
_cell_angle_gamma 90.000000
_cell_volume 2611.000506
_symmetry_space_group_name_H-M "C C C 2"
_symmetry_group_IT_number 37
_symmetry_cell_setting 'orthorhombic'
loop_
_space_group_symop_operation_xyz
x,y,z
-x,-y,z
-x,y,1/2+z
x,-y,1/2+z
1/2+x,1/2+y,z
1/2-x,1/2-y,z
1/2-x,1/2+y,1/2+z
1/2+x,1/2-y,1/2+z
loop_
_atom_site_type_symbol
_atom_site_label
_atom_site_fract_x
_atom_site_fract_y
_atom_site_fract_z
Si Si1 0.972925 0.100277 0.637750
Si Si2 0.189453 0.551032 0.744039
Si Si3 0.178367 0.629364 0.078279
Si Si4 0.426728 0.327032 0.839350
Si Si5 0.833781 0.890888 0.271897
Si Si6 0.667442 0.657666 0.604558
Si Si7 0.179333 0.273177 0.043743
O O1 0.968716 0.118615 0.461341
O O2 0.898506 0.090237 0.683798
O O3 0.016669 0.182860 0.711928
O O4 0.000000 0.000000 0.673488
O O5 0.160976 0.450826 0.698247
O O6 0.268615 0.549132 0.750593
O O7 0.174660 0.622551 0.607212
O O8 0.168724 0.591173 0.907443
O O9 0.255403 0.646069 0.102977
O O10 0.149064 0.731943 0.100529
O O11 0.369935 0.380895 0.748771
O O12 0.382131 0.254501 0.938228
O O13 0.852425 0.886199 0.446435
O O14 0.816822 0.790194 0.196275
O O15 0.250000 0.250000 0.966772
#
# Coordination Sequence:
#
# PCOD9354024 Si02
#       7
#     8   8   8   8   8   8   8
#     4  11  24  42  59  89 123 167 224 259 302 368
#     4  10  20  36  60  96 128 165 199 257 321 376
#     4  10  22  35  61  90 132 158 205 254 319 382
#     4  11  24  38  63  84 123 171 211 263 306 378
#     4   9  19  40  63  81 126 175 205 253 306 379
#     4  10  21  39  57  89 125 170 205 249 317 383
#     4   9  19  37  59  88 125 165 207 251 318 378
#
# _framework density 21.447717000000001
#
# number of rings (size 3 to 8) (size 9 to 14) (size 15 to 20)
#    0.000    2.000    1.429    1.286    6.000    2.286 
#    5.143    0.714    0.000    0.000    0.000   17.000 
#    0.000    0.000    0.000    0.000    0.000    0.000 
#
# Total GULP energy -156040.589564 kJ/mol
# GULP energy per Si atom -5572.878199 kJ/mol
# Density = 2.139890 g / cm^3
# Si number density = 21.447717 Si / 1000 Ang^3
#
#
#
# Elastic Constant Matrix: (Units=GPa)
#
#
# Indices 1 2 3 4 5 6 
#
# 1 31.2627 7.1166 18.1270 0.0000 0.0000 0.0000
# 2 7.1166 79.5272 12.3040 0.0000 0.0000 0.0000
# 3 18.1270 12.3040 111.6466 0.0000 0.0000 0.0000
# 4 0.0000 0.0000 0.0000 -5.5836 0.0000 0.0000
# 5 0.0000 0.0000 0.0000 0.0000 32.8802 0.0000
# 6 0.0000 0.0000 0.0000 0.0000 0.0000 17.9995
#
#
#
# Elastic Compliance Matrix: (Units=1/GPa)
#
#
# Indices 1 2 3 4 5 6 
#
# 1 0.035734 -0.002340 -0.005544 0.000000 0.000000 0.000000
# 2 -0.002340 0.012946 -0.001047 0.000000 0.000000 0.000000
# 3 -0.005544 -0.001047 0.009972 0.000000 0.000000 0.000000
# 4 0.000000 0.000000 0.000000 -0.179097 0.000000 0.000000
# 5 0.000000 0.000000 0.000000 0.000000 0.030413 0.000000
# 6 0.000000 0.000000 0.000000 0.000000 0.000000 0.055557
#
#
# Mechanical properties :
#
#
# Convention : Reuss Voigt Hill
#
# Bulk Modulus (GPa) = 24.51532 33.05908 28.78720
# Shear Modulus (GPa) = -1658.08817 21.38516 -818.35150
#
# Velocity S-wave (km/s) = -27.83455 3.16109 -19.55466
# Velocity P-wave (km/s) = 31.96187 5.36382 22.27993
#
# Compressibility (1/GPa) = 0.04079082
#
# Stress axis : x y z
#
# Youngs Moduli (GPa) = 27.98437 77.24602 100.27774
#
# Poissons Ratio (x) = 0.18075 0.55593
# Poissons Ratio (y) = 0.06548 0.10497
# Poissons Ratio (z) = 0.15514 0.08086
#
# Static dielectric constant tensor:
#      x y z
#    x 1.790310 0.000000 0.000000 
#    y 0.000000 1.849410 0.000000 
#    z 0.000000 0.000000 1.828230 
# 
# From -- ./inp_files/3654.got.cif
#   From: 2010.05.17/outbox.cif.g08.bks.cpg/sg37_2_cif.got.tgz:3654.got - 2010.06.03 17:53:42.
