data_PCOD9354182
_publ_section_title
;
Structure prediction by ZEFSAII (Michael W. Deem and Ramdas Pophale) SiO2 
 PCOD9354182
Probable space group: C C C 2
;
_chemical_formula_sum "Si O2"
_cell_formula_units_Z 64
_cell_length_a 8.628242
_cell_length_b 17.851784
_cell_length_c 19.942968
_cell_angle_alpha 90.000000
_cell_angle_beta 90.000000
_cell_angle_gamma 90.000000
_cell_volume 3071.805639
_symmetry_space_group_name_H-M "C C C 2"
_symmetry_group_IT_number 37
_symmetry_cell_setting 'orthorhombic'
loop_
_space_group_symop_operation_xyz
x,y,z
-x,-y,z
-x,y,1/2+z
x,-y,1/2+z
1/2+x,1/2+y,z
1/2-x,1/2-y,z
1/2-x,1/2+y,1/2+z
1/2+x,1/2-y,1/2+z
loop_
_atom_site_type_symbol
_atom_site_label
_atom_site_fract_x
_atom_site_fract_y
_atom_site_fract_z
Si Si1 0.166590 0.831825 0.236250
Si Si2 0.561276 0.333767 0.618364
Si Si3 0.424617 0.417810 0.495135
Si Si4 0.402936 0.841532 0.653314
Si Si5 0.943358 0.172784 0.382230
Si Si6 0.473020 0.912829 0.278348
Si Si7 0.078850 0.341445 0.915638
Si Si8 0.930407 0.417971 0.040106
O O1 0.250000 0.750000 0.226898
O O2 0.057379 0.827181 0.301744
O O3 0.300214 0.889346 0.256581
O O4 0.069055 0.856645 0.172156
O O5 0.508837 0.359295 0.545159
O O6 0.577055 0.244872 0.632331
O O7 0.731771 0.366648 0.631405
O O8 0.500000 0.500000 0.501701
O O9 0.449899 0.386414 0.420255
O O10 0.246601 0.419109 0.517240
O O11 0.421569 0.860014 0.731425
O O12 0.536568 0.885378 0.613521
O O13 0.978549 0.257108 0.404607
O O14 0.764844 0.157918 0.405330
O O15 0.489997 0.892882 0.356531
O O16 0.500000 0.000000 0.265999
O O17 0.028239 0.368514 0.987960
O O18 0.000000 0.500000 0.037398
#
# Coordination Sequence:
#
# PCOD9354182 Si02
#       8
#     8   8   8   8   8   8   8   8
#     4  11  20  43  70  97 130 180 224 275 332 405
#     4  11  24  41  67  94 132 172 223 278 328 401
#     4  12  27  43  63  96 133 171 223 284 341 403
#     4  11  23  41  63  96 128 173 220 270 333 400
#     4  10  20  41  68  95 130 172 219 272 327 402
#     4  11  22  38  65  98 132 172 219 275 335 394
#     4  10  20  39  65  92 126 171 215 261 331 395
#     4  12  25  41  62  87 128 173 216 272 337 403
#
# _framework density 20.834651999999998
#
# number of rings (size 3 to 8) (size 9 to 14) (size 15 to 20)
#    0.000    1.000    3.750    4.500    0.000    6.500 
#    0.000    0.625    0.000    0.000    0.000    0.000 
#    0.000    0.000    0.000    0.000    0.000    0.000 
#
# Total GULP energy -178927.006582 kJ/mol
# GULP energy per Si atom -5591.468956 kJ/mol
# Density = 2.078723 g / cm^3
# Si number density = 20.834652 Si / 1000 Ang^3
#
#
#
# Elastic Constant Matrix: (Units=GPa)
#
#
# Indices 1 2 3 4 5 6 
#
# 1 52.8438 3.5045 -11.3680 0.0000 0.0000 0.0000
# 2 3.5045 87.0047 -1.7373 0.0000 0.0000 0.0000
# 3 -11.3680 -1.7373 67.1481 0.0000 0.0000 0.0000
# 4 0.0000 0.0000 0.0000 29.6190 0.0000 0.0000
# 5 0.0000 0.0000 0.0000 0.0000 28.9676 0.0000
# 6 0.0000 0.0000 0.0000 0.0000 0.0000 24.5106
#
#
#
# Elastic Compliance Matrix: (Units=1/GPa)
#
#
# Indices 1 2 3 4 5 6 
#
# 1 0.019685 -0.000727 0.003314 0.000000 0.000000 0.000000
# 2 -0.000727 0.011526 0.000175 0.000000 0.000000 0.000000
# 3 0.003314 0.000175 0.015458 0.000000 0.000000 0.000000
# 4 0.000000 0.000000 0.000000 0.033762 0.000000 0.000000
# 5 0.000000 0.000000 0.000000 0.000000 0.034521 0.000000
# 6 0.000000 0.000000 0.000000 0.000000 0.000000 0.040799
#
#
# Mechanical properties :
#
#
# Convention : Reuss Voigt Hill
#
# Bulk Modulus (GPa) = 19.15940 20.86610 20.01275
# Shear Modulus (GPa) = 29.82854 31.05926 30.44390
#
# Velocity S-wave (km/s) = 3.78786 3.86521 3.82673
# Velocity P-wave (km/s) = 5.32413 5.47327 5.39922
#
# Compressibility (1/GPa) = 0.05219369
#
# Stress axis : x y z
#
# Youngs Moduli (GPa) = 50.80066 86.75731 64.69139
#
# Poissons Ratio (x) = 0.06305 -0.21437
# Poissons Ratio (y) = 0.03692 -0.01133
# Poissons Ratio (z) = -0.16834 -0.01520
#
# Static dielectric constant tensor:
#      x y z
#    x 1.747760 0.000000 0.000000 
#    y 0.000000 1.707890 0.000000 
#    z 0.000000 0.000000 1.754630 
# 
# From -- ./inp_files/16549.got.cif
#   From: 2010.05.17/outbox.cif.g08.bks.cpg/sg37_9_cif.got.tgz:16549.got - 2010.06.03 17:53:42.
