data_PCOD9354460
_publ_section_title
;
Structure prediction by ZEFSAII (Michael W. Deem and Ramdas Pophale) SiO2 
 PCOD9354460
Probable space group: C C C 2
;
_chemical_formula_sum "Si O2"
_cell_formula_units_Z 40
_cell_length_a 4.931295
_cell_length_b 13.659145
_cell_length_c 24.993025
_cell_angle_alpha 90.000000
_cell_angle_beta 90.000000
_cell_angle_gamma 90.000000
_cell_volume 1683.462019
_symmetry_space_group_name_H-M "C C C 2"
_symmetry_group_IT_number 37
_symmetry_cell_setting 'orthorhombic'
loop_
_space_group_symop_operation_xyz
x,y,z
-x,-y,z
-x,y,1/2+z
x,-y,1/2+z
1/2+x,1/2+y,z
1/2-x,1/2-y,z
1/2-x,1/2+y,1/2+z
1/2+x,1/2-y,1/2+z
loop_
_atom_site_type_symbol
_atom_site_label
_atom_site_fract_x
_atom_site_fract_y
_atom_site_fract_z
Si Si1 0.477000 0.381667 0.211490
Si Si2 0.478228 0.116742 0.779406
Si Si3 0.523001 0.381667 0.593127
Si Si4 0.250000 0.750000 0.437157
Si Si5 0.478228 0.116742 0.525210
Si Si6 0.750000 0.750000 0.367460
O O1 0.500000 0.500000 0.208714
O O2 0.173037 0.359113 0.229274
O O3 0.542260 0.344256 0.152308
O O4 0.678923 0.355124 0.259745
O O5 0.600116 0.170946 0.830252
O O6 0.500000 0.000000 0.788078
O O7 0.500000 0.500000 0.595903
O O8 0.826964 0.359113 0.575343
O O9 0.321078 0.355124 0.544872
O O10 0.399884 0.829054 0.474365
O O11 0.500000 0.707486 0.402308
O O12 0.500000 0.000000 0.516538
#
# Coordination Sequence:
#
# PCOD9354460 Si02
#       6
#     8   8   8   4   8   4
#     4   9  17  33  60  91 124 159 194 241 304 377
#     4  10  21  39  61  88 121 159 204 252 309 377
#     4   9  17  33  60  91 124 159 194 241 304 377
#     4  12  26  44  63  86 121 164 216 278 322 358
#     4  10  21  39  61  88 121 159 204 252 309 377
#     4  12  26  44  63  86 121 164 216 278 322 358
#
# _framework density 23.760560000000002
#
# number of rings (size 3 to 8) (size 9 to 14) (size 15 to 20)
#    0.000    2.000    0.000    3.600    0.000    5.600 
#    0.000    8.000    0.000    0.000    0.000    0.000 
#    0.000    0.000    0.000    0.000    0.000    0.000 
#
# Total GULP energy -111924.301010 kJ/mol
# GULP energy per Si atom -5596.215050 kJ/mol
# Density = 2.370648 g / cm^3
# Si number density = 23.760560 Si / 1000 Ang^3
#
#
#
# Elastic Constant Matrix: (Units=GPa)
#
#
# Indices 1 2 3 4 5 6 
#
# 1 119.9847 -5.7898 41.7380 0.0000 0.0000 0.0000
# 2 -5.7898 97.0075 30.9763 0.0000 0.0000 0.0000
# 3 41.7380 30.9763 130.5638 0.0000 0.0000 0.0000
# 4 0.0000 0.0000 0.0000 -33.9516 0.0000 0.0000
# 5 0.0000 0.0000 0.0000 0.0000 4.0144 0.0000
# 6 0.0000 0.0000 0.0000 0.0000 0.0000 26.5533
#
#
#
# Elastic Compliance Matrix: (Units=1/GPa)
#
#
# Indices 1 2 3 4 5 6 
#
# 1 0.009625 0.001685 -0.003477 0.000000 0.000000 0.000000
# 2 0.001685 0.011448 -0.003255 0.000000 0.000000 0.000000
# 3 -0.003477 -0.003255 0.009543 0.000000 0.000000 0.000000
# 4 0.000000 0.000000 0.000000 -0.029454 0.000000 0.000000
# 5 0.000000 0.000000 0.000000 0.000000 0.249103 0.000000
# 6 0.000000 0.000000 0.000000 0.000000 0.000000 0.037660
#
#
# Mechanical properties :
#
#
# Convention : Reuss Voigt Hill
#
# Bulk Modulus (GPa) = 48.72636 53.48943 51.10790
# Shear Modulus (GPa) = 16.40100 18.03200 17.21650
#
# Velocity S-wave (km/s) = 2.63013 2.75781 2.69473
# Velocity P-wave (km/s) = 5.45667 5.71852 5.58913
#
# Compressibility (1/GPa) = 0.02052277
#
# Stress axis : x y z
#
# Youngs Moduli (GPa) = 103.89558 87.34925 104.79299
#
# Poissons Ratio (x) = -0.14715 0.36432
# Poissons Ratio (y) = -0.17502 0.34106
# Poissons Ratio (z) = 0.36120 0.28429
#
# Static dielectric constant tensor:
#      x y z
#    x 1.864920 0.000000 0.000000 
#    y 0.000000 1.945740 0.000000 
#    z 0.000000 0.000000 1.865890 
# 
# From -- ./inp_files/17867.got.cif
#   From: 2010.05.17/outbox.cif.g08.bks.cpg/sg37_9_cif.got.tgz:17867.got - 2010.06.03 17:53:42.
