data_PCOD9354600
_publ_section_title
;
Structure prediction by ZEFSAII (Michael W. Deem and Ramdas Pophale) SiO2 
 PCOD9354600
Probable space group: C C C 2
;
_chemical_formula_sum "Si O2"
_cell_formula_units_Z 52
_cell_length_a 24.969131
_cell_length_b 8.081472
_cell_length_c 10.321703
_cell_angle_alpha 90.000000
_cell_angle_beta 90.000000
_cell_angle_gamma 90.000000
_cell_volume 2082.788921
_symmetry_space_group_name_H-M "C C C 2"
_symmetry_group_IT_number 37
_symmetry_cell_setting 'orthorhombic'
loop_
_space_group_symop_operation_xyz
x,y,z
-x,-y,z
-x,y,1/2+z
x,-y,1/2+z
1/2+x,1/2+y,z
1/2-x,1/2-y,z
1/2-x,1/2+y,1/2+z
1/2+x,1/2-y,1/2+z
loop_
_atom_site_type_symbol
_atom_site_label
_atom_site_fract_x
_atom_site_fract_y
_atom_site_fract_z
Si Si1 0.304492 0.615934 0.166980
Si Si2 0.000000 0.500000 0.509906
Si Si3 0.250000 0.250000 0.910076
Si Si4 0.364099 0.129935 0.334606
Si Si5 0.750000 0.250000 0.932242
Si Si6 0.594352 0.788719 0.597379
Si Si7 0.147252 0.209917 0.076921
Si Si8 0.926145 0.278025 0.362862
O O1 0.272944 0.622184 0.301209
O O2 0.343291 0.774975 0.146891
O O3 0.338464 0.452363 0.156991
O O4 0.269166 0.613019 0.037179
O O5 0.050511 0.435791 0.590567
O O6 0.019440 0.650856 0.420310
O O7 0.199682 0.279579 0.003686
O O8 0.301039 0.175359 0.356716
O O9 0.394583 0.238844 0.444544
O O10 0.374072 0.167383 0.185273
O O11 0.387542 0.944672 0.357529
O O12 0.569444 0.695682 0.722417
O O13 0.103908 0.168154 0.967999
#
# Coordination Sequence:
#
# PCOD9354600 Si02
#       8
#     8   4   4   8   4   8   8   8
#     4  10  24  43  64  98 143 190 239 294 367 431
#     4  10  22  42  76 104 136 178 258 314 384 432
#     4  11  25  44  66 102 152 198 242 296 360 452
#     4  10  22  38  60  99 136 180 237 296 353 426
#     4   9  21  38  60  84 134 184 222 282 344 410
#     4  10  21  42  68  95 139 184 227 316 371 431
#     4  12  26  40  70 103 139 195 246 295 364 452
#     4  11  23  43  68 101 136 184 241 304 374 438
#
# _framework density 24.966525000000001
#
# number of rings (size 3 to 8) (size 9 to 14) (size 15 to 20)
#    0.000    1.538    1.538    2.769    6.462    2.462 
#    0.000    0.769    0.000    1.846    0.000    0.000 
#    0.000    0.000    0.000    0.000    0.000    0.000 
#
# Total GULP energy -144819.270811 kJ/mol
# GULP energy per Si atom -5569.971954 kJ/mol
# Density = 2.490970 g / cm^3
# Si number density = 24.966525 Si / 1000 Ang^3
#
#
#
# Elastic Constant Matrix: (Units=GPa)
#
#
# Indices 1 2 3 4 5 6 
#
# 1 123.0405 36.4997 47.2749 0.0000 0.0000 0.0000
# 2 36.4997 63.7065 20.7731 0.0000 0.0000 0.0000
# 3 47.2749 20.7731 173.7105 0.0000 0.0000 0.0000
# 4 0.0000 0.0000 0.0000 18.6523 0.0000 0.0000
# 5 0.0000 0.0000 0.0000 0.0000 -66.0611 0.0000
# 6 0.0000 0.0000 0.0000 0.0000 0.0000 37.8689
#
#
#
# Elastic Compliance Matrix: (Units=1/GPa)
#
#
# Indices 1 2 3 4 5 6 
#
# 1 0.010567 -0.005324 -0.002239 0.000000 0.000000 0.000000
# 2 -0.005324 0.019016 -0.000825 0.000000 0.000000 0.000000
# 3 -0.002239 -0.000825 0.006465 0.000000 0.000000 0.000000
# 4 0.000000 0.000000 0.000000 0.053613 0.000000 0.000000
# 5 0.000000 0.000000 0.000000 0.000000 -0.015138 0.000000
# 6 0.000000 0.000000 0.000000 0.000000 0.000000 0.026407
#
#
# Mechanical properties :
#
#
# Convention : Reuss Voigt Hill
#
# Bulk Modulus (GPa) = 51.89007 63.28365 57.58686
# Shear Modulus (GPa) = 40.28002 15.15268 27.71635
#
# Velocity S-wave (km/s) = 4.02102 2.46625 3.33549
# Velocity P-wave (km/s) = 6.51054 5.78898 6.16033
#
# Compressibility (1/GPa) = 0.01927151
#
# Stress axis : x y z
#
# Youngs Moduli (GPa) = 94.63312 52.58610 154.68506
#
# Poissons Ratio (x) = 0.27998 0.34636
# Poissons Ratio (y) = 0.50384 0.12763
# Poissons Ratio (z) = 0.21190 0.04339
#
# Static dielectric constant tensor:
#      x y z
#    x 2.056880 0.000000 0.000000 
#    y 0.000000 2.260570 0.000000 
#    z 0.000000 0.000000 2.019220 
# 
# From -- ./inp_files/9056.got.cif
#   From: 2010.05.17/outbox.cif.g08.bks.cpg/sg37_5_cif.got.tgz:9056.got - 2010.06.03 17:53:42.
