data_PCOD9354087
_publ_section_title
;
Structure prediction by ZEFSAII (Michael W. Deem and Ramdas Pophale) SiO2 
 PCOD9354087
Probable space group: C C C 2
;
_chemical_formula_sum "Si O2"
_cell_formula_units_Z 64
_cell_length_a 8.932579
_cell_length_b 15.462510
_cell_length_c 24.042706
_cell_angle_alpha 90.000000
_cell_angle_beta 90.000000
_cell_angle_gamma 90.000000
_cell_volume 3320.780767
_symmetry_space_group_name_H-M "C C C 2"
_symmetry_group_IT_number 37
_symmetry_cell_setting 'orthorhombic'
loop_
_space_group_symop_operation_xyz
x,y,z
-x,-y,z
-x,y,1/2+z
x,-y,1/2+z
1/2+x,1/2+y,z
1/2-x,1/2-y,z
1/2-x,1/2+y,1/2+z
1/2+x,1/2-y,1/2+z
loop_
_atom_site_type_symbol
_atom_site_label
_atom_site_fract_x
_atom_site_fract_y
_atom_site_fract_z
Si Si1 0.251547 0.000407 0.884770
Si Si2 0.167757 0.499513 0.764684
Si Si3 0.595330 0.411028 0.188770
Si Si4 0.669185 0.657988 0.568504
Si Si5 0.131819 0.825416 0.767115
Si Si6 0.329702 0.998204 0.508342
Si Si7 0.631646 0.673335 0.003756
Si Si8 0.011193 0.859244 0.884780
O O1 0.114860 0.067529 0.877437
O O2 0.344276 0.019315 0.830018
O O3 0.338254 0.009254 0.941666
O O4 0.169725 0.907832 0.891641
O O5 0.271042 0.433454 0.731136
O O6 0.265594 0.587799 0.766482
O O7 0.000000 0.500000 0.740989
O O8 0.500000 0.500000 0.180719
O O9 0.659462 0.378529 0.130772
O O10 0.487502 0.341552 0.218408
O O11 0.750000 0.750000 0.565946
O O12 0.746977 0.584223 0.530345
O O13 0.502361 0.674844 0.546993
O O14 0.250000 0.750000 0.758554
O O15 0.041221 0.812320 0.825670
O O16 0.500000 0.000000 0.530806
O O17 0.222481 0.915090 0.517900
O O18 0.750000 0.750000 0.007736
O O19 0.549263 0.681038 0.942649
#
# Coordination Sequence:
#
# PCOD9354087 Si02
#       8
#     8   8   8   8   8   8   8   8
#     4   9  16  34  63  89 122 166 206 254 318 388
#     4  10  20  37  62  93 122 162 214 263 316 386
#     4  10  22  43  67  86 124 173 219 262 321 384
#     4  12  26  44  66  95 129 175 221 275 325 384
#     4  10  21  39  61  91 125 166 211 263 326 382
#     4  11  22  40  65  96 130 168 216 268 328 393
#     4  11  23  42  64  93 130 171 220 270 327 386
#     4   9  17  35  60  89 125 164 203 256 323 385
#
# _framework density 19.272576000000001
#
# number of rings (size 3 to 8) (size 9 to 14) (size 15 to 20)
#    0.000    1.750    2.500    2.250    0.000    2.500 
#    9.000    3.125    0.000    0.000    0.000    0.000 
#    0.000    0.000    0.000    0.000    0.000    0.000 
#
# Total GULP energy -178202.380567 kJ/mol
# GULP energy per Si atom -5568.824393 kJ/mol
# Density = 1.922871 g / cm^3
# Si number density = 19.272576 Si / 1000 Ang^3
#
#
#
# Elastic Constant Matrix: (Units=GPa)
#
#
# Indices 1 2 3 4 5 6 
#
# 1 128.5661 45.8820 50.9203 0.0000 0.0000 0.0000
# 2 45.8820 89.5371 52.1000 0.0000 0.0000 0.0000
# 3 50.9203 52.1000 101.5212 0.0000 0.0000 0.0000
# 4 0.0000 0.0000 0.0000 -5.2185 0.0000 0.0000
# 5 0.0000 0.0000 0.0000 0.0000 28.3222 0.0000
# 6 0.0000 0.0000 0.0000 0.0000 0.0000 1.2190
#
#
#
# Elastic Compliance Matrix: (Units=1/GPa)
#
#
# Indices 1 2 3 4 5 6 
#
# 1 0.010329 -0.003248 -0.003514 0.000000 0.000000 0.000000
# 2 -0.003248 0.016945 -0.007067 0.000000 0.000000 0.000000
# 3 -0.003514 -0.007067 0.015239 0.000000 0.000000 0.000000
# 4 0.000000 0.000000 0.000000 -0.191624 0.000000 0.000000
# 5 0.000000 0.000000 0.000000 0.000000 0.035308 0.000000
# 6 0.000000 0.000000 0.000000 0.000000 0.000000 0.820371
#
#
# Mechanical properties :
#
#
# Convention : Reuss Voigt Hill
#
# Bulk Modulus (GPa) = 67.31504 68.60321 67.95912
# Shear Modulus (GPa) = 6.76427 16.24599 11.50513
#
# Velocity S-wave (km/s) = 1.87548 2.90652 2.44595
# Velocity P-wave (km/s) = 6.30029 6.85109 6.58145
#
# Compressibility (1/GPa) = 0.01485552
#
# Stress axis : x y z
#
# Youngs Moduli (GPa) = 96.81457 59.01360 65.62023
#
# Poissons Ratio (x) = 0.19170 0.23057
# Poissons Ratio (y) = 0.31449 0.46373
# Poissons Ratio (z) = 0.34018 0.41704
#
# Static dielectric constant tensor:
#      x y z
#    x 1.653950 0.000000 0.000000 
#    y 0.000000 1.928360 0.000000 
#    z 0.000000 0.000000 1.697560 
# 
# From -- ./inp_files/18500.got.cif
#   From: 2010.05.17/outbox.cif.g08.bks.cpg/sg37_10_cif.got.tgz:18500.got - 2010.06.03 17:53:42.
