data_PCOD9354380
_publ_section_title
;
Structure prediction by ZEFSAII (Michael W. Deem and Ramdas Pophale) SiO2 
 PCOD9354380
Probable space group: C C C 2
;
_chemical_formula_sum "Si O2"
_cell_formula_units_Z 64
_cell_length_a 10.657570
_cell_length_b 10.658243
_cell_length_c 28.876140
_cell_angle_alpha 90.000000
_cell_angle_beta 90.000000
_cell_angle_gamma 90.000000
_cell_volume 3280.068777
_symmetry_space_group_name_H-M "C C C 2"
_symmetry_group_IT_number 37
_symmetry_cell_setting 'orthorhombic'
loop_
_space_group_symop_operation_xyz
x,y,z
-x,-y,z
-x,y,1/2+z
x,-y,1/2+z
1/2+x,1/2+y,z
1/2-x,1/2-y,z
1/2-x,1/2+y,1/2+z
1/2+x,1/2-y,1/2+z
loop_
_atom_site_type_symbol
_atom_site_label
_atom_site_fract_x
_atom_site_fract_y
_atom_site_fract_z
Si Si1 0.202898 0.002013 0.182740
Si Si2 0.143140 0.643155 0.861182
Si Si3 0.502097 0.297098 0.682726
Si Si4 0.506020 0.289483 0.433303
Si Si5 0.896364 0.396394 0.753155
Si Si6 0.358280 0.141728 0.506288
Si Si7 0.210528 0.006007 0.933300
Si Si8 0.858011 0.642015 0.611724
O O1 0.105304 0.105254 0.165670
O O2 0.271752 0.055756 0.227655
O O3 0.299726 0.968524 0.142390
O O4 0.122744 0.877202 0.194076
O O5 0.250000 0.750000 0.863273
O O6 0.117278 0.617303 0.807866
O O7 0.201801 0.525797 0.889173
O O8 0.025782 0.701812 0.889177
O O9 0.555863 0.228201 0.727627
O O10 0.468600 0.200322 0.642362
O O11 0.472586 0.203081 0.477538
O O12 0.400086 0.400085 0.433085
O O13 0.638423 0.361593 0.433367
O O14 0.000000 0.500000 0.743172
O O15 0.250000 0.250000 0.506452
O O16 0.296938 0.027431 0.477533
O O17 0.389564 0.110427 0.559067
O O18 0.750000 0.750000 0.609415
#
# Coordination Sequence:
#
# PCOD9354380 Si02
#       8
#     8   8   8   8   8   8   8   8
#     4  10  21  37  56  79 111 149 189 236 286 340
#     4   9  18  31  47  73 103 132 178 231 275 334
#     4  10  21  37  56  79 111 149 189 236 286 340
#     4   8  14  26  45  72 107 141 174 221 278 330
#     4  12  23  37  57  78 108 147 190 238 292 343
#     4   8  14  24  43  73 109 142 175 220 270 332
#     4   8  14  26  45  72 107 141 174 221 278 330
#     4   9  17  31  49  77 114 145 185 235 281 335
#
# _framework density 19.511787000000002
#
# number of rings (size 3 to 8) (size 9 to 14) (size 15 to 20)
#    0.000    2.750    1.250    2.625    0.000    2.000 
#    0.000    7.500    0.000    0.000   13.000    0.000 
#    0.000    0.000    0.000    0.000    0.000    0.000 
#
# Total GULP energy -178501.640976 kJ/mol
# GULP energy per Si atom -5578.176280 kJ/mol
# Density = 1.946738 g / cm^3
# Si number density = 19.511787 Si / 1000 Ang^3
#
#
#
# Elastic Constant Matrix: (Units=GPa)
#
#
# Indices 1 2 3 4 5 6 
#
# 1 81.8555 62.2257 59.3727 0.0000 0.0000 0.0000
# 2 62.2257 81.6247 59.2327 0.0000 0.0000 0.0000
# 3 59.3727 59.2327 188.0835 0.0000 0.0000 0.0000
# 4 0.0000 0.0000 0.0000 17.2281 0.0000 0.0000
# 5 0.0000 0.0000 0.0000 0.0000 17.2359 0.0000
# 6 0.0000 0.0000 0.0000 0.0000 0.0000 41.4144
#
#
#
# Elastic Compliance Matrix: (Units=1/GPa)
#
#
# Indices 1 2 3 4 5 6 
#
# 1 0.030280 -0.020930 -0.002967 0.000000 0.000000 0.000000
# 2 -0.020930 0.030348 -0.002950 0.000000 0.000000 0.000000
# 3 -0.002967 -0.002950 0.007183 0.000000 0.000000 0.000000
# 4 0.000000 0.000000 0.000000 0.058045 0.000000 0.000000
# 5 0.000000 0.000000 0.000000 0.000000 0.058018 0.000000
# 6 0.000000 0.000000 0.000000 0.000000 0.000000 0.024146
#
#
# Mechanical properties :
#
#
# Convention : Reuss Voigt Hill
#
# Bulk Modulus (GPa) = 70.84592 79.24733 75.04663
# Shear Modulus (GPa) = 18.76736 26.55786 22.66261
#
# Velocity S-wave (km/s) = 3.10473 3.69334 3.41175
# Velocity P-wave (km/s) = 7.01716 7.67404 7.35294
#
# Compressibility (1/GPa) = 0.01411514
#
# Stress axis : x y z
#
# Youngs Moduli (GPa) = 33.02545 32.95085 139.22718
#
# Poissons Ratio (x) = 0.68967 0.41307
# Poissons Ratio (y) = 0.69124 0.41077
# Poissons Ratio (z) = 0.09798 0.09722
#
# Static dielectric constant tensor:
#      x y z
#    x 1.709680 0.000000 0.000000 
#    y 0.000000 1.709670 0.000000 
#    z 0.000000 0.000000 1.644140 
# 
# From -- ./inp_files/20437.got.cif
#   From: 2010.05.17/outbox.cif.g08.bks.cpg/sg37_11_cif.got.tgz:20437.got - 2010.06.03 17:53:42.
