data_PCOD9354812
_publ_section_title
;
Structure prediction by ZEFSAII (Michael W. Deem and Ramdas Pophale) SiO2 
 PCOD9354812
Probable space group: C C C 2
;
_chemical_formula_sum "Si O2"
_cell_formula_units_Z 48
_cell_length_a 14.358447
_cell_length_b 8.623714
_cell_length_c 18.361998
_cell_angle_alpha 90.000000
_cell_angle_beta 90.000000
_cell_angle_gamma 90.000000
_cell_volume 2273.640257
_symmetry_space_group_name_H-M "C C C 2"
_symmetry_group_IT_number 37
_symmetry_cell_setting 'orthorhombic'
loop_
_space_group_symop_operation_xyz
x,y,z
-x,-y,z
-x,y,1/2+z
x,-y,1/2+z
1/2+x,1/2+y,z
1/2-x,1/2-y,z
1/2-x,1/2+y,1/2+z
1/2+x,1/2-y,1/2+z
loop_
_atom_site_type_symbol
_atom_site_label
_atom_site_fract_x
_atom_site_fract_y
_atom_site_fract_z
Si Si1 0.673863 0.879112 0.161540
Si Si2 0.600328 0.080546 0.903326
Si Si3 0.993542 0.824043 0.137616
Si Si4 0.830755 0.625937 0.791535
Si Si5 0.837495 0.350335 0.062666
Si Si6 0.515906 0.329012 0.808422
O O1 0.750000 0.750000 0.180629
O O2 0.588134 0.796718 0.119064
O O3 0.651917 0.991145 0.230914
O O4 0.707629 0.003829 0.103337
O O5 0.590788 0.237534 0.856141
O O6 0.500000 0.000000 0.892852
O O7 0.678394 0.970997 0.866562
O O8 0.612051 0.107459 0.988170
O O9 0.089975 0.738119 0.116830
O O10 0.962955 0.844118 0.222622
O O11 0.000000 0.000000 0.107778
O O12 0.750000 0.750000 0.773468
O O13 0.920992 0.731762 0.803566
O O14 0.750000 0.250000 0.041241
O O15 0.500000 0.500000 0.838700
#
# Coordination Sequence:
#
# PCOD9354812 Si02
#       6
#     8   8   8   8   8   8
#     4  12  25  41  66  99 135 180 232 279 336 397
#     4  10  23  45  66  96 134 185 222 271 345 401
#     4  11  23  42  69  99 133 178 226 283 335 400
#     4  11  24  40  66  98 135 174 229 285 329 398
#     4  12  26  44  69 101 141 179 225 278 342 402
#     4  10  22  40  68  97 132 176 228 273 337 400
#
# _framework density 21.111519000000001
#
# number of rings (size 3 to 8) (size 9 to 14) (size 15 to 20)
#    0.000    1.000    3.333    3.000    4.667    3.333 
#    0.000    3.333    0.000    0.000    0.000    0.000 
#    0.000    0.000    0.000    0.000    0.000    0.000 
#
# Total GULP energy -133741.632762 kJ/mol
# GULP energy per Si atom -5572.568032 kJ/mol
# Density = 2.106347 g / cm^3
# Si number density = 21.111519 Si / 1000 Ang^3
#
#
#
# Elastic Constant Matrix: (Units=GPa)
#
#
# Indices 1 2 3 4 5 6 
#
# 1 54.8944 23.3399 -14.6144 0.0000 0.0000 0.0000
# 2 23.3399 138.8607 25.4410 0.0000 0.0000 0.0000
# 3 -14.6144 25.4410 69.0499 0.0000 0.0000 0.0000
# 4 0.0000 0.0000 0.0000 12.1021 0.0000 0.0000
# 5 0.0000 0.0000 0.0000 0.0000 10.7312 0.0000
# 6 0.0000 0.0000 0.0000 0.0000 0.0000 26.7787
#
#
#
# Elastic Compliance Matrix: (Units=1/GPa)
#
#
# Indices 1 2 3 4 5 6 
#
# 1 0.022012 -0.004883 0.006458 0.000000 0.000000 0.000000
# 2 -0.004883 0.008806 -0.004278 0.000000 0.000000 0.000000
# 3 0.006458 -0.004278 0.017425 0.000000 0.000000 0.000000
# 4 0.000000 0.000000 0.000000 0.082631 0.000000 0.000000
# 5 0.000000 0.000000 0.000000 0.000000 0.093186 0.000000
# 6 0.000000 0.000000 0.000000 0.000000 0.000000 0.037343
#
#
# Mechanical properties :
#
#
# Convention : Reuss Voigt Hill
#
# Bulk Modulus (GPa) = 23.34404 36.79313 30.06858
# Shear Modulus (GPa) = 17.78796 25.16495 21.47646
#
# Velocity S-wave (km/s) = 2.90586 3.45628 3.19295
# Velocity P-wave (km/s) = 4.72654 5.77873 5.27891
#
# Compressibility (1/GPa) = 0.04283749
#
# Stress axis : x y z
#
# Youngs Moduli (GPa) = 45.42923 113.55903 57.38777
#
# Poissons Ratio (x) = 0.55451 -0.37061
# Poissons Ratio (y) = 0.22183 0.24551
# Poissons Ratio (z) = -0.29338 0.48581
#
# Static dielectric constant tensor:
#      x y z
#    x 1.796820 0.000000 0.000000 
#    y 0.000000 1.829260 0.000000 
#    z 0.000000 0.000000 1.771170 
# 
# From -- ./inp_files/14489.got.cif
#   From: 2010.05.17/outbox.cif.g08.bks.cpg/sg37_8_cif.got.tgz:14489.got - 2010.06.03 17:53:42.
