data_PCOD9354526
_publ_section_title
;
Structure prediction by ZEFSAII (Michael W. Deem and Ramdas Pophale) SiO2 
 PCOD9354526
Probable space group: C C C 2
;
_chemical_formula_sum "Si O2"
_cell_formula_units_Z 40
_cell_length_a 29.393786
_cell_length_b 4.935735
_cell_length_c 11.802168
_cell_angle_alpha 90.000000
_cell_angle_beta 90.000000
_cell_angle_gamma 90.000000
_cell_volume 1712.257806
_symmetry_space_group_name_H-M "C C C 2"
_symmetry_group_IT_number 37
_symmetry_cell_setting 'orthorhombic'
loop_
_space_group_symop_operation_xyz
x,y,z
-x,-y,z
-x,y,1/2+z
x,-y,1/2+z
1/2+x,1/2+y,z
1/2-x,1/2-y,z
1/2-x,1/2+y,1/2+z
1/2+x,1/2-y,1/2+z
loop_
_atom_site_type_symbol
_atom_site_label
_atom_site_fract_x
_atom_site_fract_y
_atom_site_fract_z
Si Si1 0.701561 0.887420 0.222240
Si Si2 0.468120 0.755104 0.595062
Si Si3 0.610557 0.599252 0.268496
Si Si4 0.895432 0.393078 0.412809
Si Si5 0.701366 0.902929 0.980986
O O1 0.750000 0.750000 0.215992
O O2 0.660040 0.674739 0.220607
O O3 0.701194 0.996242 0.350631
O O4 0.699422 0.058132 0.103679
O O5 0.500000 0.500000 0.572462
O O6 0.430106 0.683348 0.687173
O O7 0.440297 0.838857 0.483663
O O8 0.500000 0.000000 0.634059
O O9 0.605525 0.285276 0.298895
O O10 0.606980 0.790561 0.380479
O O11 0.850244 0.287288 0.477926
O O12 0.750000 0.750000 0.985237
#
# Coordination Sequence:
#
# PCOD9354526 Si02
#       5
#     8   8   8   8   8
#     4  10  21  40  66 102 142 184 230 281 343 415
#     4  12  26  44  67  98 131 174 234 290 348 406
#     4  11  24  44  68  98 136 178 225 282 346 411
#     4  11  24  44  68  98 136 178 225 282 346 411
#     4  10  21  40  66 102 142 184 230 281 343 415
#
# _framework density 23.360966000000001
#
# number of rings (size 3 to 8) (size 9 to 14) (size 15 to 20)
#    0.000    1.200    2.000    3.600    0.000    5.600 
#    3.600    0.000    0.000    0.000    0.000    0.000 
#    0.000    0.000    0.000    0.000    0.000    0.000 
#
# Total GULP energy -111449.542455 kJ/mol
# GULP energy per Si atom -5572.477123 kJ/mol
# Density = 2.330780 g / cm^3
# Si number density = 23.360966 Si / 1000 Ang^3
#
#
#
# Elastic Constant Matrix: (Units=GPa)
#
#
# Indices 1 2 3 4 5 6 
#
# 1 158.9442 5.4368 14.4497 0.0000 0.0000 0.0000
# 2 5.4368 41.5408 2.4716 0.0000 0.0000 0.0000
# 3 14.4497 2.4716 166.5671 0.0000 0.0000 0.0000
# 4 0.0000 0.0000 0.0000 24.2555 0.0000 0.0000
# 5 0.0000 0.0000 0.0000 0.0000 -14.1158 0.0000
# 6 0.0000 0.0000 0.0000 0.0000 0.0000 29.4759
#
#
#
# Elastic Compliance Matrix: (Units=1/GPa)
#
#
# Indices 1 2 3 4 5 6 
#
# 1 0.006368 -0.000801 -0.000541 0.000000 0.000000 0.000000
# 2 -0.000801 0.024195 -0.000290 0.000000 0.000000 0.000000
# 3 -0.000541 -0.000290 0.006055 0.000000 0.000000 0.000000
# 4 0.000000 0.000000 0.000000 0.041228 0.000000 0.000000
# 5 0.000000 0.000000 0.000000 0.000000 -0.070843 0.000000
# 6 0.000000 0.000000 0.000000 0.000000 0.000000 0.033926
#
#
# Mechanical properties :
#
#
# Convention : Reuss Voigt Hill
#
# Bulk Modulus (GPa) = 29.98052 45.75205 37.86628
# Shear Modulus (GPa) = 90.40015 30.90271 60.65143
#
# Velocity S-wave (km/s) = 6.22745 3.64103 5.10089
# Velocity P-wave (km/s) = 8.03552 6.10765 7.13698
#
# Compressibility (1/GPa) = 0.03335499
#
# Stress axis : x y z
#
# Youngs Moduli (GPa) = 157.03356 41.33117 165.15887
#
# Poissons Ratio (x) = 0.03312 0.08928
# Poissons Ratio (y) = 0.12583 0.04781
# Poissons Ratio (z) = 0.08488 0.01197
#
# Static dielectric constant tensor:
#      x y z
#    x 1.849700 0.000000 0.000000 
#    y 0.000000 1.883920 0.000000 
#    z 0.000000 0.000000 1.973160 
# 
# From -- ./inp_files/5526.got.cif
#   From: 2010.05.17/outbox.cif.g08.bks.cpg/sg37_3_cif.got.tgz:5526.got - 2010.06.03 17:53:42.
