data_PCOD9354323
_publ_section_title
;
Structure prediction by ZEFSAII (Michael W. Deem and Ramdas Pophale) SiO2 
 PCOD9354323
Probable space group: C C C 2
;
_chemical_formula_sum "Si O2"
_cell_formula_units_Z 40
_cell_length_a 15.336266
_cell_length_b 12.772806
_cell_length_c 8.813231
_cell_angle_alpha 90.000000
_cell_angle_beta 90.000000
_cell_angle_gamma 90.000000
_cell_volume 1726.398706
_symmetry_space_group_name_H-M "C C C 2"
_symmetry_group_IT_number 37
_symmetry_cell_setting 'orthorhombic'
loop_
_space_group_symop_operation_xyz
x,y,z
-x,-y,z
-x,y,1/2+z
x,-y,1/2+z
1/2+x,1/2+y,z
1/2-x,1/2-y,z
1/2-x,1/2+y,1/2+z
1/2+x,1/2-y,1/2+z
loop_
_atom_site_type_symbol
_atom_site_label
_atom_site_fract_x
_atom_site_fract_y
_atom_site_fract_z
Si Si1 0.056629 0.710040 0.243580
Si Si2 0.672269 0.484497 0.409659
Si Si3 0.290595 0.916398 0.138565
Si Si4 0.431903 0.915875 0.540789
Si Si5 0.442983 0.591955 0.654767
O O1 0.143519 0.681411 0.147617
O O2 0.078627 0.673819 0.414213
O O3 0.981121 0.633427 0.182921
O O4 0.011147 0.820397 0.209651
O O5 0.742723 0.431356 0.298655
O O6 0.717696 0.574932 0.510186
O O7 0.630380 0.398254 0.523375
O O8 0.605444 0.543174 0.299263
O O9 0.349642 0.018868 0.099746
O O10 0.500000 0.000000 0.474032
O O11 0.500000 0.500000 0.584601
#
# Coordination Sequence:
#
# PCOD9354323 Si02
#       5
#     8   8   8   8   8
#     4  11  24  40  73 105 141 188 246 294 374 439
#     4  10  23  45  74 101 151 187 236 309 364 421
#     4  10  20  45  74 106 142 181 235 311 372 423
#     4  10  21  39  71 107 142 181 233 303 372 451
#     4  11  26  47  69  99 145 203 248 287 353 459
#
# _framework density 23.169619999999998
#
# number of rings (size 3 to 8) (size 9 to 14) (size 15 to 20)
#    0.000    1.600    2.000    2.400    8.400    0.000 
#    0.000   12.000    0.000    0.000    0.000    0.000 
#    0.000    0.000    0.000    0.000    0.000    0.000 
#
# Total GULP energy -111662.944076 kJ/mol
# GULP energy per Si atom -5583.147204 kJ/mol
# Density = 2.311689 g / cm^3
# Si number density = 23.169620 Si / 1000 Ang^3
#
#
#
# Elastic Constant Matrix: (Units=GPa)
#
#
# Indices 1 2 3 4 5 6 
#
# 1 118.1246 54.7300 62.2074 0.0000 0.0000 0.0000
# 2 54.7300 117.9501 39.1690 0.0000 0.0000 0.0000
# 3 62.2074 39.1690 134.6207 0.0000 0.0000 0.0000
# 4 0.0000 0.0000 0.0000 -0.6277 0.0000 0.0000
# 5 0.0000 0.0000 0.0000 0.0000 34.5502 0.0000
# 6 0.0000 0.0000 0.0000 0.0000 0.0000 43.7505
#
#
#
# Elastic Compliance Matrix: (Units=1/GPa)
#
#
# Indices 1 2 3 4 5 6 
#
# 1 0.013023 -0.004477 -0.004715 0.000000 0.000000 0.000000
# 2 -0.004477 0.010924 -0.001110 0.000000 0.000000 0.000000
# 3 -0.004715 -0.001110 0.009930 0.000000 0.000000 0.000000
# 4 0.000000 0.000000 0.000000 -1.593047 0.000000 0.000000
# 5 0.000000 0.000000 0.000000 0.000000 0.028943 0.000000
# 6 0.000000 0.000000 0.000000 0.000000 0.000000 0.022857
#
#
# Mechanical properties :
#
#
# Convention : Reuss Voigt Hill
#
# Bulk Modulus (GPa) = 75.33900 75.87869 75.60885
# Shear Modulus (GPa) = -3.37304 29.84053 13.23374
#
# Velocity S-wave (km/s) = -1.20788 3.59265 2.39250
# Velocity P-wave (km/s) = 5.53548 7.07318 6.35104
#
# Compressibility (1/GPa) = 0.01327334
#
# Stress axis : x y z
#
# Youngs Moduli (GPa) = 76.78651 91.54134 100.70459
#
# Poissons Ratio (x) = 0.40983 0.47485
# Poissons Ratio (y) = 0.34377 0.11175
# Poissons Ratio (z) = 0.36207 0.10158
#
# Static dielectric constant tensor:
#      x y z
#    x 1.941630 0.000000 0.000000 
#    y 0.000000 1.914450 0.000000 
#    z 0.000000 0.000000 1.884060 
# 
# From -- ./inp_files/3888.got.cif
#   From: 2010.05.17/outbox.cif.g08.bks.cpg/sg37_2_cif.got.tgz:3888.got - 2010.06.03 17:53:42.
