data_PCOD9354317
_publ_section_title
;
Structure prediction by ZEFSAII (Michael W. Deem and Ramdas Pophale) SiO2 
 PCOD9354317
Probable space group: C C C 2
;
_chemical_formula_sum "Si O2"
_cell_formula_units_Z 56
_cell_length_a 16.097858
_cell_length_b 11.594796
_cell_length_c 15.165616
_cell_angle_alpha 90.000000
_cell_angle_beta 90.000000
_cell_angle_gamma 90.000000
_cell_volume 2830.683148
_symmetry_space_group_name_H-M "C C C 2"
_symmetry_group_IT_number 37
_symmetry_cell_setting 'orthorhombic'
loop_
_space_group_symop_operation_xyz
x,y,z
-x,-y,z
-x,y,1/2+z
x,-y,1/2+z
1/2+x,1/2+y,z
1/2-x,1/2-y,z
1/2-x,1/2+y,1/2+z
1/2+x,1/2-y,1/2+z
loop_
_atom_site_type_symbol
_atom_site_label
_atom_site_fract_x
_atom_site_fract_y
_atom_site_fract_z
Si Si1 0.000000 0.000000 0.500000
Si Si2 0.322299 0.165584 0.358445
Si Si3 0.004231 0.247055 0.914271
Si Si4 0.422202 0.219193 0.730831
Si Si5 0.952120 0.619600 0.092912
Si Si6 0.812474 0.496858 0.696764
Si Si7 0.750000 0.250000 0.021197
Si Si8 0.140966 0.078700 0.629784
O O1 0.079014 0.012337 0.565326
O O2 0.994603 0.112842 0.439530
O O3 0.250000 0.250000 0.319988
O O4 0.411920 0.220610 0.378697
O O5 0.326658 0.059791 0.292494
O O6 0.286883 0.150521 0.457460
O O7 0.062910 0.285876 0.834611
O O8 0.032767 0.310088 0.003932
O O9 0.503109 0.184120 0.674243
O O10 0.403937 0.351722 0.707365
O O11 0.352983 0.124851 0.702137
O O12 0.861447 0.581916 0.126088
O O13 0.000000 0.500000 0.080153
O O14 0.717124 0.507010 0.668766
O O15 0.820153 0.185862 0.074988
#
# Coordination Sequence:
#
# PCOD9354317 Si02
#       8
#     4   8   8   8   8   8   4   8
#     4  12  26  46  72 104 138 196 238 284 364 426
#     4  10  23  39  66  97 137 179 239 279 350 420
#     4  12  25  44  68 105 141 182 238 292 350 425
#     4  11  23  43  70 100 142 181 232 290 357 416
#     4  10  23  40  69 104 138 179 229 286 350 414
#     4  11  24  42  70 107 135 187 234 294 353 419
#     4  10  20  44  68  90 136 188 226 286 348 424
#     4  12  24  45  71  98 147 183 234 289 356 428
#
# _framework density 19.78321
#
# number of rings (size 3 to 8) (size 9 to 14) (size 15 to 20)
#    0.429    0.571    5.714    0.000    4.000    5.143 
#    0.000    1.429    0.000    0.000    0.000    0.000 
#    0.000    0.000    0.000    0.000    0.000    0.000 
#
# Total GULP energy -156172.042954 kJ/mol
# GULP energy per Si atom -5577.572963 kJ/mol
# Density = 1.973818 g / cm^3
# Si number density = 19.783210 Si / 1000 Ang^3
#
#
#
# Elastic Constant Matrix: (Units=GPa)
#
#
# Indices 1 2 3 4 5 6 
#
# 1 76.7774 48.8878 23.3857 0.0000 0.0000 0.0000
# 2 48.8878 82.8920 51.8208 0.0000 0.0000 0.0000
# 3 23.3857 51.8208 117.6732 0.0000 0.0000 0.0000
# 4 0.0000 0.0000 0.0000 43.9484 0.0000 0.0000
# 5 0.0000 0.0000 0.0000 0.0000 21.5150 0.0000
# 6 0.0000 0.0000 0.0000 0.0000 0.0000 24.1678
#
#
#
# Elastic Compliance Matrix: (Units=1/GPa)
#
#
# Indices 1 2 3 4 5 6 
#
# 1 0.021124 -0.013570 0.001778 0.000000 0.000000 0.000000
# 2 -0.013570 0.025364 -0.008473 0.000000 0.000000 0.000000
# 3 0.001778 -0.008473 0.011876 0.000000 0.000000 0.000000
# 4 0.000000 0.000000 0.000000 0.022754 0.000000 0.000000
# 5 0.000000 0.000000 0.000000 0.000000 0.046479 0.000000
# 6 0.000000 0.000000 0.000000 0.000000 0.000000 0.041377
#
#
# Mechanical properties :
#
#
# Convention : Reuss Voigt Hill
#
# Bulk Modulus (GPa) = 56.07265 58.39237 57.23251
# Shear Modulus (GPa) = 23.20740 28.14278 25.67509
#
# Velocity S-wave (km/s) = 3.42875 3.77577 3.60644
# Velocity P-wave (km/s) = 6.63929 6.97057 6.80695
#
# Compressibility (1/GPa) = 0.01783401
#
# Stress axis : x y z
#
# Youngs Moduli (GPa) = 47.34047 39.42610 84.20248
#
# Poissons Ratio (x) = 0.53500 -0.14969
# Poissons Ratio (y) = 0.64239 0.71345
# Poissons Ratio (z) = -0.08416 0.33406
#
# Static dielectric constant tensor:
#      x y z
#    x 1.733340 0.000000 0.000000 
#    y 0.000000 1.699800 0.000000 
#    z 0.000000 0.000000 1.697950 
# 
# From -- ./inp_files/12185.got.cif
#   From: 2010.05.17/outbox.cif.g08.bks.cpg/sg37_7_cif.got.tgz:12185.got - 2010.06.03 17:53:42.
