data_PCOD9354648
_publ_section_title
;
Structure prediction by ZEFSAII (Michael W. Deem and Ramdas Pophale) SiO2 
 PCOD9354648
Probable space group: C C C 2
;
_chemical_formula_sum "Si O2"
_cell_formula_units_Z 56
_cell_length_a 18.833912
_cell_length_b 7.865672
_cell_length_c 13.994334
_cell_angle_alpha 90.000000
_cell_angle_beta 90.000000
_cell_angle_gamma 90.000000
_cell_volume 2073.139871
_symmetry_space_group_name_H-M "C C C 2"
_symmetry_group_IT_number 37
_symmetry_cell_setting 'orthorhombic'
loop_
_space_group_symop_operation_xyz
x,y,z
-x,-y,z
-x,y,1/2+z
x,-y,1/2+z
1/2+x,1/2+y,z
1/2-x,1/2-y,z
1/2-x,1/2+y,1/2+z
1/2+x,1/2-y,1/2+z
loop_
_atom_site_type_symbol
_atom_site_label
_atom_site_fract_x
_atom_site_fract_y
_atom_site_fract_z
Si Si1 0.085412 0.172131 0.137570
Si Si2 0.289949 0.531119 0.929186
Si Si3 0.202793 0.593736 0.611268
Si Si4 0.164159 0.392066 0.801076
Si Si5 0.920771 0.220768 0.141428
Si Si6 0.425773 0.429189 0.342543
Si Si7 0.886815 0.350598 0.946403
O O1 0.109419 0.155684 0.248848
O O2 0.090228 0.974470 0.107404
O O3 0.005328 0.241450 0.143271
O O4 0.133297 0.300960 0.078213
O O5 0.250000 0.250000 0.145689
O O6 0.238983 0.423727 0.858287
O O7 0.385602 0.011256 0.877958
O O8 0.317738 0.729428 0.922447
O O9 0.185393 0.491012 0.704894
O O10 0.250416 0.502249 0.530000
O O11 0.118336 0.247794 0.743231
O O12 0.109433 0.347710 0.560269
O O13 0.868963 0.039812 0.402040
O O14 0.000000 0.000000 0.307503
O O15 0.448509 0.275729 0.412842
#
# Coordination Sequence:
#
# PCOD9354648 Si02
#       7
#     8   8   8   8   8   8   8
#     4  11  24  50  76 115 158 217 275 341 422 508
#     4  10  25  44  75 116 150 207 269 338 425 491
#     4  12  24  46  74 107 156 205 266 341 413 504
#     4  12  24  48  75 110 159 208 262 353 412 495
#     4  11  26  46  79 112 161 216 277 339 424 508
#     4  10  21  45  80 109 155 210 270 337 408 506
#     4  10  23  46  78 113 158 209 272 343 415 492
#
# _framework density 27.012167999999999
#
# number of rings (size 3 to 8) (size 9 to 14) (size 15 to 20)
#    0.857    0.286    2.857    3.857    2.000    1.714 
#    2.571    5.000    0.000    0.000    0.000    0.000 
#    0.000    0.000    0.000    0.000    0.000    0.000 
#
# Total GULP energy -155960.453171 kJ/mol
# GULP energy per Si atom -5570.016185 kJ/mol
# Density = 2.695069 g / cm^3
# Si number density = 27.012168 Si / 1000 Ang^3
#
#
#
# Elastic Constant Matrix: (Units=GPa)
#
#
# Indices 1 2 3 4 5 6 
#
# 1 146.1115 32.2341 26.9939 0.0000 0.0000 0.0000
# 2 32.2341 67.8417 32.9384 0.0000 0.0000 0.0000
# 3 26.9939 32.9384 176.5386 0.0000 0.0000 0.0000
# 4 0.0000 0.0000 0.0000 47.9428 0.0000 0.0000
# 5 0.0000 0.0000 0.0000 0.0000 38.2584 0.0000
# 6 0.0000 0.0000 0.0000 0.0000 0.0000 23.5595
#
#
#
# Elastic Compliance Matrix: (Units=1/GPa)
#
#
# Indices 1 2 3 4 5 6 
#
# 1 0.007693 -0.003391 -0.000544 0.000000 0.000000 0.000000
# 2 -0.003391 0.017703 -0.002785 0.000000 0.000000 0.000000
# 3 -0.000544 -0.002785 0.006267 0.000000 0.000000 0.000000
# 4 0.000000 0.000000 0.000000 0.020858 0.000000 0.000000
# 5 0.000000 0.000000 0.000000 0.000000 0.026138 0.000000
# 6 0.000000 0.000000 0.000000 0.000000 0.000000 0.042446
#
#
# Mechanical properties :
#
#
# Convention : Reuss Voigt Hill
#
# Bulk Modulus (GPa) = 54.87066 63.86940 59.37003
# Shear Modulus (GPa) = 35.55716 41.84047 38.69882
#
# Velocity S-wave (km/s) = 3.63207 3.93994 3.78913
# Velocity P-wave (km/s) = 6.16009 6.66284 6.41639
#
# Compressibility (1/GPa) = 0.01822468
#
# Stress axis : x y z
#
# Youngs Moduli (GPa) = 129.99434 56.48630 159.56254
#
# Poissons Ratio (x) = 0.19155 0.08673
# Poissons Ratio (y) = 0.44083 0.44431
# Poissons Ratio (z) = 0.07066 0.15729
#
# Static dielectric constant tensor:
#      x y z
#    x 2.266790 0.000000 0.000000 
#    y 0.000000 2.355720 0.000000 
#    z 0.000000 0.000000 2.110780 
# 
# From -- ./inp_files/12927.got.cif
#   From: 2010.05.17/outbox.cif.g08.bks.cpg/sg37_7_cif.got.tgz:12927.got - 2010.06.03 17:53:42.
