data_PCOD9354755
_publ_section_title
;
Structure prediction by ZEFSAII (Michael W. Deem and Ramdas Pophale) SiO2 
 PCOD9354755
Probable space group: C C C 2
;
_chemical_formula_sum "Si O2"
_cell_formula_units_Z 64
_cell_length_a 6.321429
_cell_length_b 18.823629
_cell_length_c 26.236449
_cell_angle_alpha 90.000000
_cell_angle_beta 90.000000
_cell_angle_gamma 90.000000
_cell_volume 3121.933685
_symmetry_space_group_name_H-M "C C C 2"
_symmetry_group_IT_number 37
_symmetry_cell_setting 'orthorhombic'
loop_
_space_group_symop_operation_xyz
x,y,z
-x,-y,z
-x,y,1/2+z
x,-y,1/2+z
1/2+x,1/2+y,z
1/2-x,1/2-y,z
1/2-x,1/2+y,1/2+z
1/2+x,1/2-y,1/2+z
loop_
_atom_site_type_symbol
_atom_site_label
_atom_site_fract_x
_atom_site_fract_y
_atom_site_fract_z
Si Si1 0.526746 0.919554 0.497330
Si Si2 0.473254 0.919554 0.297314
Si Si3 0.158698 0.176570 0.856566
Si Si4 0.140559 0.177095 0.033935
Si Si5 0.341302 0.323429 0.438078
Si Si6 0.358538 0.570522 0.089084
Si Si7 0.640559 0.322905 0.760708
Si Si8 0.141461 0.070523 0.705559
O O1 0.313390 0.878049 0.511778
O O2 0.655460 0.874398 0.456048
O O3 0.670034 0.925458 0.548486
O O4 0.500000 0.000000 0.479217
O O5 0.344541 0.874398 0.338596
O O6 0.686610 0.878049 0.282866
O O7 0.329966 0.925457 0.246157
O O8 0.500000 0.000000 0.315426
O O9 0.250000 0.250000 0.878474
O O10 0.000000 0.143211 0.897322
O O11 0.022892 0.194627 0.806184
O O12 0.250000 0.250000 0.050271
O O13 0.010241 0.137207 0.077604
O O14 0.977108 0.194627 0.988460
O O15 0.250000 0.250000 0.416169
O O16 0.500000 0.500000 0.080371
O O17 0.283526 0.569818 0.147322
O O18 0.750000 0.250000 0.744373
O O19 0.510242 0.362793 0.717040
O O20 0.000000 0.000000 0.714273
#
# Coordination Sequence:
#
# PCOD9354755 Si02
#       8
#     8   8   8   8   8   8   8   8
#     4  11  23  42  66  93 131 168 206 264 320 370
#     4  11  23  42  66  93 131 168 206 264 320 370
#     4  11  24  41  69  93 121 165 215 258 311 389
#     4  11  22  41  64  93 127 168 208 262 320 373
#     4  11  24  41  69  93 121 165 215 258 311 389
#     4  10  22  39  64  96 127 169 218 259 310 381
#     4  11  22  41  64  93 127 168 208 262 320 373
#     4  10  22  39  64  96 127 169 218 259 310 381
#
# _framework density 20.500115000000001
#
# number of rings (size 3 to 8) (size 9 to 14) (size 15 to 20)
#    0.000    1.250    5.000    0.750    0.000    2.000 
#    0.000    5.000    0.000    0.000    0.000    0.000 
#    0.000    0.000    0.000    0.000    0.000    0.000 
#
# Total GULP energy -178974.505691 kJ/mol
# GULP energy per Si atom -5592.953303 kJ/mol
# Density = 2.045346 g / cm^3
# Si number density = 20.500115 Si / 1000 Ang^3
#
#
#
# Elastic Constant Matrix: (Units=GPa)
#
#
# Indices 1 2 3 4 5 6 
#
# 1 58.7556 13.6779 -4.0071 0.0000 0.0000 0.0000
# 2 13.6779 108.9908 -6.8674 0.0000 0.0000 0.0000
# 3 -4.0071 -6.8674 43.8304 0.0000 0.0000 0.0000
# 4 0.0000 0.0000 0.0000 16.4430 0.0000 0.0000
# 5 0.0000 0.0000 0.0000 0.0000 19.8539 0.0000
# 6 0.0000 0.0000 0.0000 0.0000 0.0000 36.1723
#
#
#
# Elastic Compliance Matrix: (Units=1/GPa)
#
#
# Indices 1 2 3 4 5 6 
#
# 1 0.017602 -0.002129 0.001276 0.000000 0.000000 0.000000
# 2 -0.002129 0.009524 0.001298 0.000000 0.000000 0.000000
# 3 0.001276 0.001298 0.023135 0.000000 0.000000 0.000000
# 4 0.000000 0.000000 0.000000 0.060816 0.000000 0.000000
# 5 0.000000 0.000000 0.000000 0.000000 0.050368 0.000000
# 6 0.000000 0.000000 0.000000 0.000000 0.000000 0.027645
#
#
# Mechanical properties :
#
#
# Convention : Reuss Voigt Hill
#
# Bulk Modulus (GPa) = 19.55003 24.13149 21.84076
# Shear Modulus (GPa) = 24.36034 28.41208 26.38621
#
# Velocity S-wave (km/s) = 3.45092 3.72687 3.59154
# Velocity P-wave (km/s) = 5.04338 5.50603 5.27977
#
# Compressibility (1/GPa) = 0.05115081
#
# Stress axis : x y z
#
# Youngs Moduli (GPa) = 56.81114 104.99808 43.22426
#
# Poissons Ratio (x) = 0.22350 -0.05514
# Poissons Ratio (y) = 0.12093 -0.05609
# Poissons Ratio (z) = -0.07248 -0.13625
#
# Static dielectric constant tensor:
#      x y z
#    x 1.741640 0.000000 0.000000 
#    y 0.000000 1.714330 0.000000 
#    z 0.000000 0.000000 1.693160 
# 
# From -- ./inp_files/19550.got.cif
#   From: 2010.05.17/outbox.cif.g08.bks.cpg/sg37_10_cif.got.tgz:19550.got - 2010.06.03 17:53:42.
