data_PCOD9354551
_publ_section_title
;
Structure prediction by ZEFSAII (Michael W. Deem and Ramdas Pophale) SiO2 
 PCOD9354551
Probable space group: C C C 2
;
_chemical_formula_sum "Si O2"
_cell_formula_units_Z 60
_cell_length_a 10.998207
_cell_length_b 28.097093
_cell_length_c 9.266905
_cell_angle_alpha 90.000000
_cell_angle_beta 90.000000
_cell_angle_gamma 90.000000
_cell_volume 2863.637159
_symmetry_space_group_name_H-M "C C C 2"
_symmetry_group_IT_number 37
_symmetry_cell_setting 'orthorhombic'
loop_
_space_group_symop_operation_xyz
x,y,z
-x,-y,z
-x,y,1/2+z
x,-y,1/2+z
1/2+x,1/2+y,z
1/2-x,1/2-y,z
1/2-x,1/2+y,1/2+z
1/2+x,1/2-y,1/2+z
loop_
_atom_site_type_symbol
_atom_site_label
_atom_site_fract_x
_atom_site_fract_y
_atom_site_fract_z
Si Si1 0.843278 0.293919 0.679360
Si Si2 0.494619 0.410999 0.608991
Si Si3 0.794769 0.122655 0.790813
Si Si4 0.330737 0.034277 0.408470
Si Si5 0.588092 0.785523 0.517071
Si Si6 0.000000 0.500000 0.160051
Si Si7 0.391488 0.536345 0.349778
Si Si8 0.657769 0.678865 0.554420
O O1 0.750000 0.250000 0.650565
O O2 0.782164 0.346107 0.680284
O O3 0.953788 0.296590 0.568378
O O4 0.892876 0.286983 0.843948
O O5 0.610126 0.410317 0.712322
O O6 0.559833 0.421787 0.456340
O O7 0.400418 0.448316 0.681247
O O8 0.425235 0.360962 0.625694
O O9 0.727823 0.086475 0.898426
O O10 0.854890 0.163674 0.887203
O O11 0.418686 0.031171 0.268674
O O12 0.409119 0.027390 0.552442
O O13 0.232469 0.991071 0.391449
O O14 0.612129 0.732071 0.572221
O O15 0.696855 0.818398 0.581144
O O16 0.500000 0.500000 0.372358
#
# Coordination Sequence:
#
# PCOD9354551 Si02
#       8
#     8   8   8   8   8   4   8   8
#     4  11  22  45  65  96 132 175 215 276 324 395
#     4  12  23  40  65 100 132 169 217 277 330 397
#     4  11  22  40  67  94 131 167 220 273 325 392
#     4  11  24  44  65  93 131 174 228 270 332 400
#     4  10  22  43  68  90 136 176 213 267 339 386
#     4  10  26  46  64  86 132 186 216 274 326 392
#     4  12  25  40  67  98 133 170 217 279 341 389
#     4  10  21  41  63  94 132 173 210 268 332 396
#
# _framework density 20.952375
#
# number of rings (size 3 to 8) (size 9 to 14) (size 15 to 20)
#    0.000    1.067    5.333    2.000    3.733    2.133 
#    7.200    0.000    0.000    0.000    0.000    0.000 
#    0.000    0.000    0.000    0.000    0.000    0.000 
#
# Total GULP energy -167232.659489 kJ/mol
# GULP energy per Si atom -5574.421983 kJ/mol
# Density = 2.090469 g / cm^3
# Si number density = 20.952375 Si / 1000 Ang^3
#
#
#
# Elastic Constant Matrix: (Units=GPa)
#
#
# Indices 1 2 3 4 5 6 
#
# 1 77.8028 18.2529 23.4492 0.0000 0.0000 0.0000
# 2 18.2529 69.8308 2.2740 0.0000 0.0000 0.0000
# 3 23.4492 2.2740 57.2616 0.0000 0.0000 0.0000
# 4 0.0000 0.0000 0.0000 30.3634 0.0000 0.0000
# 5 0.0000 0.0000 0.0000 0.0000 38.0058 0.0000
# 6 0.0000 0.0000 0.0000 0.0000 0.0000 29.5907
#
#
#
# Elastic Compliance Matrix: (Units=1/GPa)
#
#
# Indices 1 2 3 4 5 6 
#
# 1 0.015650 -0.003887 -0.006254 0.000000 0.000000 0.000000
# 2 -0.003887 0.015304 0.000984 0.000000 0.000000 0.000000
# 3 -0.006254 0.000984 0.019986 0.000000 0.000000 0.000000
# 4 0.000000 0.000000 0.000000 0.032934 0.000000 0.000000
# 5 0.000000 0.000000 0.000000 0.000000 0.026312 0.000000
# 6 0.000000 0.000000 0.000000 0.000000 0.000000 0.033794
#
#
# Mechanical properties :
#
#
# Convention : Reuss Voigt Hill
#
# Bulk Modulus (GPa) = 30.65114 32.53860 31.59487
# Shear Modulus (GPa) = 28.87322 30.31991 29.59657
#
# Velocity S-wave (km/s) = 3.71622 3.80819 3.76249
# Velocity P-wave (km/s) = 5.75104 5.90761 5.82985
#
# Compressibility (1/GPa) = 0.03262521
#
# Stress axis : x y z
#
# Youngs Moduli (GPa) = 63.89791 65.34108 50.03526
#
# Poissons Ratio (x) = 0.25398 0.31294
# Poissons Ratio (y) = 0.24837 -0.04924
# Poissons Ratio (z) = 0.39965 -0.06430
#
# Static dielectric constant tensor:
#      x y z
#    x 1.797480 0.000000 0.000000 
#    y 0.000000 1.798450 0.000000 
#    z 0.000000 0.000000 1.788020 
# 
# From -- ./inp_files/3060.got.cif
#   From: 2010.05.17/outbox.cif.g08.bks.cpg/sg37_2_cif.got.tgz:3060.got - 2010.06.03 17:53:42.
