data_PCOD9354096
_publ_section_title
;
Structure prediction by ZEFSAII (Michael W. Deem and Ramdas Pophale) SiO2 
 PCOD9354096
Probable space group: C C C 2
;
_chemical_formula_sum "Si O2"
_cell_formula_units_Z 64
_cell_length_a 24.183182
_cell_length_b 8.430971
_cell_length_c 15.288693
_cell_angle_alpha 90.000000
_cell_angle_beta 90.000000
_cell_angle_gamma 90.000000
_cell_volume 3117.176545
_symmetry_space_group_name_H-M "C C C 2"
_symmetry_group_IT_number 37
_symmetry_cell_setting 'orthorhombic'
loop_
_space_group_symop_operation_xyz
x,y,z
-x,-y,z
-x,y,1/2+z
x,-y,1/2+z
1/2+x,1/2+y,z
1/2-x,1/2-y,z
1/2-x,1/2+y,1/2+z
1/2+x,1/2-y,1/2+z
loop_
_atom_site_type_symbol
_atom_site_label
_atom_site_fract_x
_atom_site_fract_y
_atom_site_fract_z
Si Si1 0.116868 0.669133 0.778600
Si Si2 0.435808 0.490208 0.339596
Si Si3 0.625207 0.686093 0.100170
Si Si4 0.084042 0.670818 0.331763
Si Si5 0.095505 0.879553 0.024979
Si Si6 0.809645 0.669688 0.453040
Si Si7 0.983594 0.676269 0.009892
Si Si8 0.807513 0.310078 0.448437
O O1 0.142119 0.718979 0.686290
O O2 0.086415 0.497503 0.781287
O O3 0.161455 0.669658 0.857034
O O4 0.077394 0.820982 0.796691
O O5 0.500000 0.500000 0.358274
O O6 0.422626 0.654761 0.289626
O O7 0.405956 0.482554 0.434385
O O8 0.608005 0.501591 0.102601
O O9 0.569378 0.768097 0.064054
O O10 0.673317 0.702903 0.028977
O O11 0.037880 0.665217 0.409102
O O12 0.143397 0.684057 0.378839
O O13 0.036567 0.789407 0.024618
O O14 0.145433 0.756759 0.013674
O O15 0.750000 0.750000 0.450876
O O16 0.802133 0.489273 0.481596
O O17 0.000000 0.500000 0.036691
O O18 0.750000 0.250000 0.410657
#
# Coordination Sequence:
#
# PCOD9354096 Si02
#       8
#     8   8   8   8   8   8   8   8
#     4  10  25  40  56  91 129 162 201 252 316 371
#     4  11  19  36  61  88 114 161 208 247 298 364
#     4  11  22  40  56  89 128 162 199 250 317 371
#     4  10  21  38  62  89 119 159 207 255 301 366
#     4  11  19  36  65  90 119 161 213 254 309 374
#     4  10  22  40  64  90 116 155 211 263 306 364
#     4  11  20  36  63  88 122 162 208 256 304 365
#     4  10  20  37  66  89 113 152 207 256 304 368
#
# _framework density 20.531402
#
# number of rings (size 3 to 8) (size 9 to 14) (size 15 to 20)
#    0.000    1.500    3.750    4.125    1.750    1.500 
#    6.750    0.000    0.000    0.750    0.000    0.000 
#    0.000    0.000    0.000    0.000    0.000    0.000 
#
# Total GULP energy -178510.972013 kJ/mol
# GULP energy per Si atom -5578.467875 kJ/mol
# Density = 2.048467 g / cm^3
# Si number density = 20.531402 Si / 1000 Ang^3
#
#
#
# Elastic Constant Matrix: (Units=GPa)
#
#
# Indices 1 2 3 4 5 6 
#
# 1 81.8327 34.2080 -12.3371 0.0000 0.0000 0.0000
# 2 34.2080 137.8204 14.3508 0.0000 0.0000 0.0000
# 3 -12.3371 14.3508 34.1445 0.0000 0.0000 0.0000
# 4 0.0000 0.0000 0.0000 23.5967 0.0000 0.0000
# 5 0.0000 0.0000 0.0000 0.0000 5.3735 0.0000
# 6 0.0000 0.0000 0.0000 0.0000 0.0000 27.0216
#
#
#
# Elastic Compliance Matrix: (Units=1/GPa)
#
#
# Indices 1 2 3 4 5 6 
#
# 1 0.015244 -0.004557 0.007423 0.000000 0.000000 0.000000
# 2 -0.004557 0.008950 -0.005408 0.000000 0.000000 0.000000
# 3 0.007423 -0.005408 0.034242 0.000000 0.000000 0.000000
# 4 0.000000 0.000000 0.000000 0.042379 0.000000 0.000000
# 5 0.000000 0.000000 0.000000 0.000000 0.186097 0.000000
# 6 0.000000 0.000000 0.000000 0.000000 0.000000 0.037007
#
#
# Mechanical properties :
#
#
# Convention : Reuss Voigt Hill
#
# Bulk Modulus (GPa) = 18.74304 36.24900 27.49602
# Shear Modulus (GPa) = 14.41808 25.70343 20.06076
#
# Velocity S-wave (km/s) = 2.65287 3.54207 3.12921
# Velocity P-wave (km/s) = 4.30493 5.86703 5.14560
#
# Compressibility (1/GPa) = 0.05335313
#
# Stress axis : x y z
#
# Youngs Moduli (GPa) = 65.59997 111.73294 29.20358
#
# Poissons Ratio (x) = 0.50912 -0.21678
# Poissons Ratio (y) = 0.29891 0.15793
# Poissons Ratio (z) = -0.48695 0.60425
#
# Static dielectric constant tensor:
#      x y z
#    x 1.707730 0.000000 0.000000 
#    y 0.000000 1.832530 0.000000 
#    z 0.000000 0.000000 1.819170 
# 
# From -- ./inp_files/13167.got.cif
#   From: 2010.05.17/outbox.cif.g08.bks.cpg/sg37_7_cif.got.tgz:13167.got - 2010.06.03 17:53:42.
