data_PCOD9354733
_publ_section_title
;
Structure prediction by ZEFSAII (Michael W. Deem and Ramdas Pophale) SiO2 
 PCOD9354733
Probable space group: C C C 2
;
_chemical_formula_sum "Si O2"
_cell_formula_units_Z 40
_cell_length_a 5.127822
_cell_length_b 19.419575
_cell_length_c 17.903736
_cell_angle_alpha 90.000000
_cell_angle_beta 90.000000
_cell_angle_gamma 90.000000
_cell_volume 1782.856249
_symmetry_space_group_name_H-M "C C C 2"
_symmetry_group_IT_number 37
_symmetry_cell_setting 'orthorhombic'
loop_
_space_group_symop_operation_xyz
x,y,z
-x,-y,z
-x,y,1/2+z
x,-y,1/2+z
1/2+x,1/2+y,z
1/2-x,1/2-y,z
1/2-x,1/2+y,1/2+z
1/2+x,1/2-y,1/2+z
loop_
_atom_site_type_symbol
_atom_site_label
_atom_site_fract_x
_atom_site_fract_y
_atom_site_fract_z
Si Si1 0.608244 0.901840 0.451290
Si Si2 0.500000 0.000000 0.833404
Si Si3 0.500000 0.000000 0.583842
Si Si4 0.999512 0.205575 0.241902
Si Si5 0.604758 0.318125 0.416718
Si Si6 0.823634 0.942570 0.716198
O O1 0.507278 0.935307 0.528060
O O2 0.346973 0.869941 0.416386
O O3 0.850808 0.849378 0.457757
O O4 0.689460 0.961797 0.392846
O O5 0.413613 0.059800 0.774872
O O6 0.728452 0.979024 0.640736
O O7 0.750000 0.250000 0.219803
O O8 0.989478 0.196794 0.332105
O O9 0.967208 0.129514 0.207952
O O10 0.250000 0.250000 0.221183
O O11 0.750000 0.250000 0.447924
O O12 0.000000 0.000000 0.754747
#
# Coordination Sequence:
#
# PCOD9354733 Si02
#       6
#     8   4   4   8   8   8
#     4  11  23  42  67 102 135 177 234 299 347 417
#     4  10  22  38  68 104 128 176 238 300 356 404
#     4  10  28  42  68  94 144 182 246 290 356 412
#     4  11  24  42  69 108 143 175 226 295 363 419
#     4  11  22  40  69 100 138 176 225 289 360 428
#     4  11  24  43  71  99 139 189 235 296 347 433
#
# _framework density 22.435908999999999
#
# number of rings (size 3 to 8) (size 9 to 14) (size 15 to 20)
#    0.000    1.200    2.000    4.200    8.400    1.600 
#    0.000    3.000    0.000    0.000    0.000    0.000 
#    0.000    0.000    0.000    0.000    0.000    0.000 
#
# Total GULP energy -111493.203779 kJ/mol
# GULP energy per Si atom -5574.660189 kJ/mol
# Density = 2.238484 g / cm^3
# Si number density = 22.435909 Si / 1000 Ang^3
#
#
#
# Elastic Constant Matrix: (Units=GPa)
#
#
# Indices 1 2 3 4 5 6 
#
# 1 136.5839 66.8030 29.1855 0.0000 0.0000 0.0000
# 2 66.8030 131.9202 30.3156 0.0000 0.0000 0.0000
# 3 29.1855 30.3156 80.1571 0.0000 0.0000 0.0000
# 4 0.0000 0.0000 0.0000 -18.5377 0.0000 0.0000
# 5 0.0000 0.0000 0.0000 0.0000 -0.3083 0.0000
# 6 0.0000 0.0000 0.0000 0.0000 0.0000 48.6117
#
#
#
# Elastic Compliance Matrix: (Units=1/GPa)
#
#
# Indices 1 2 3 4 5 6 
#
# 1 0.009986 -0.004623 -0.001887 0.000000 0.000000 0.000000
# 2 -0.004623 0.010442 -0.002266 0.000000 0.000000 0.000000
# 3 -0.001887 -0.002266 0.014020 0.000000 0.000000 0.000000
# 4 0.000000 0.000000 0.000000 -0.053944 0.000000 0.000000
# 5 0.000000 0.000000 0.000000 0.000000 -3.243468 0.000000
# 6 0.000000 0.000000 0.000000 0.000000 0.000000 0.020571
#
#
# Mechanical properties :
#
#
# Convention : Reuss Voigt Hill
#
# Bulk Modulus (GPa) = 59.18967 66.80770 62.99869
# Shear Modulus (GPa) = -1.55318 20.77694 9.61188
#
# Velocity S-wave (km/s) = -0.83293 3.04642 2.07206
# Velocity P-wave (km/s) = 5.05113 6.49739 5.81936
#
# Compressibility (1/GPa) = 0.01689484
#
# Stress axis : x y z
#
# Youngs Moduli (GPa) = 100.14078 95.76604 71.32804
#
# Poissons Ratio (x) = 0.44273 0.13463
# Poissons Ratio (y) = 0.46295 0.16163
# Poissons Ratio (z) = 0.18901 0.21700
#
# Static dielectric constant tensor:
#      x y z
#    x 2.448580 0.000000 0.000000 
#    y 0.000000 1.984550 0.000000 
#    z 0.000000 0.000000 1.827240 
# 
# From -- ./inp_files/13762.got.cif
#   From: 2010.05.17/outbox.cif.g08.bks.cpg/sg37_7_cif.got.tgz:13762.got - 2010.06.03 17:53:42.
