data_PCOD9354838
_publ_section_title
;
Structure prediction by ZEFSAII (Michael W. Deem and Ramdas Pophale) SiO2 
 PCOD9354838
Probable space group: C C C 2
;
_chemical_formula_sum "Si O2"
_cell_formula_units_Z 48
_cell_length_a 15.833312
_cell_length_b 4.848265
_cell_length_c 27.477790
_cell_angle_alpha 90.000000
_cell_angle_beta 90.000000
_cell_angle_gamma 90.000000
_cell_volume 2109.307611
_symmetry_space_group_name_H-M "C C C 2"
_symmetry_group_IT_number 37
_symmetry_cell_setting 'orthorhombic'
loop_
_space_group_symop_operation_xyz
x,y,z
-x,-y,z
-x,y,1/2+z
x,-y,1/2+z
1/2+x,1/2+y,z
1/2-x,1/2-y,z
1/2-x,1/2+y,1/2+z
1/2+x,1/2-y,1/2+z
loop_
_atom_site_type_symbol
_atom_site_label
_atom_site_fract_x
_atom_site_fract_y
_atom_site_fract_z
Si Si1 0.062178 0.263661 0.772360
Si Si2 0.191768 0.991726 0.458901
Si Si3 0.561161 0.242651 0.384397
Si Si4 0.917464 0.683009 0.112946
Si Si5 0.148713 0.793269 0.058124
Si Si6 0.302983 0.993531 0.200809
O O1 0.087043 0.318446 0.828637
O O2 0.143686 0.312941 0.739382
O O3 0.000000 0.500000 0.755348
O O4 0.000000 0.000000 0.768608
O O5 0.250000 0.750000 0.480353
O O6 0.138265 0.840253 0.417386
O O7 0.250000 0.250000 0.441675
O O8 0.136058 0.106639 0.503028
O O9 0.500000 0.500000 0.380563
O O10 0.500000 0.000000 0.403310
O O11 0.886692 0.508888 0.066715
O O12 0.858306 0.639350 0.159552
O O13 0.000000 0.500000 0.126745
O O14 0.901061 0.997745 0.094809
O O15 0.250000 0.750000 0.064750
O O16 0.250000 0.750000 0.175602
O O17 0.250000 0.250000 0.223096
#
# Coordination Sequence:
#
# PCOD9354838 Si02
#       6
#     8   8   8   8   8   8
#     4  10  22  43  66  90 124 164 208 260 316 372
#     4  11  23  40  64  93 127 166 206 256 315 372
#     4  10  22  41  65  92 124 164 209 261 316 372
#     4  12  25  41  63  92 124 163 207 256 308 370
#     4  11  23  42  63  89 126 166 206 253 309 368
#     4  12  25  41  65  94 125 163 206 256 314 376
#
# _framework density 22.756281999999999
#
# number of rings (size 3 to 8) (size 9 to 14) (size 15 to 20)
#    0.000    1.000    0.000    8.000    0.000    4.000 
#    0.000    1.667    0.000    0.000    0.000    0.000 
#    0.000    0.000    0.000    0.000    0.000    0.000 
#
# Total GULP energy -133867.741667 kJ/mol
# GULP energy per Si atom -5577.822569 kJ/mol
# Density = 2.270449 g / cm^3
# Si number density = 22.756282 Si / 1000 Ang^3
#
#
#
# Elastic Constant Matrix: (Units=GPa)
#
#
# Indices 1 2 3 4 5 6 
#
# 1 63.0020 28.8716 32.0510 0.0000 0.0000 0.0000
# 2 28.8716 131.1967 6.3410 0.0000 0.0000 0.0000
# 3 32.0510 6.3410 85.9324 0.0000 0.0000 0.0000
# 4 0.0000 0.0000 0.0000 -28.4382 0.0000 0.0000
# 5 0.0000 0.0000 0.0000 0.0000 36.2256 0.0000
# 6 0.0000 0.0000 0.0000 0.0000 0.0000 40.5851
#
#
#
# Elastic Compliance Matrix: (Units=1/GPa)
#
#
# Indices 1 2 3 4 5 6 
#
# 1 0.021895 -0.004439 -0.007839 0.000000 0.000000 0.000000
# 2 -0.004439 0.008550 0.001025 0.000000 0.000000 0.000000
# 3 -0.007839 0.001025 0.014485 0.000000 0.000000 0.000000
# 4 0.000000 0.000000 0.000000 -0.035164 0.000000 0.000000
# 5 0.000000 0.000000 0.000000 0.000000 0.027605 0.000000
# 6 0.000000 0.000000 0.000000 0.000000 0.000000 0.024640
#
#
# Mechanical properties :
#
#
# Convention : Reuss Voigt Hill
#
# Bulk Modulus (GPa) = 44.59693 46.07315 45.33504
# Shear Modulus (GPa) = 54.35354 23.86568 39.10961
#
# Velocity S-wave (km/s) = 4.89254 3.24196 4.15013
# Velocity P-wave (km/s) = 7.18026 5.85696 6.55210
#
# Compressibility (1/GPa) = 0.02242307
#
# Stress axis : x y z
#
# Youngs Moduli (GPa) = 45.67312 116.96529 69.03648
#
# Poissons Ratio (x) = 0.51925 0.54116
# Poissons Ratio (y) = 0.20276 -0.07076
# Poissons Ratio (z) = 0.35802 -0.11988
#
# Static dielectric constant tensor:
#      x y z
#    x 1.916240 0.000000 0.000000 
#    y 0.000000 10.044190 0.000000 
#    z 0.000000 0.000000 1.848220 
# 
# From -- ./inp_files/19869.got.cif
#   From: 2010.05.17/outbox.cif.g08.bks.cpg/sg37_10_cif.got.tgz:19869.got - 2010.06.03 17:53:42.
