data_PCOD9354644
_publ_section_title
;
Structure prediction by ZEFSAII (Michael W. Deem and Ramdas Pophale) SiO2 
 PCOD9354644
Probable space group: C C C 2
;
_chemical_formula_sum "Si O2"
_cell_formula_units_Z 64
_cell_length_a 8.125041
_cell_length_b 27.860784
_cell_length_c 13.720743
_cell_angle_alpha 90.000000
_cell_angle_beta 90.000000
_cell_angle_gamma 90.000000
_cell_volume 3105.964762
_symmetry_space_group_name_H-M "C C C 2"
_symmetry_group_IT_number 37
_symmetry_cell_setting 'orthorhombic'
loop_
_space_group_symop_operation_xyz
x,y,z
-x,-y,z
-x,y,1/2+z
x,-y,1/2+z
1/2+x,1/2+y,z
1/2-x,1/2-y,z
1/2-x,1/2+y,1/2+z
1/2+x,1/2-y,1/2+z
loop_
_atom_site_type_symbol
_atom_site_label
_atom_site_fract_x
_atom_site_fract_y
_atom_site_fract_z
Si Si1 0.267478 0.333124 0.977470
Si Si2 0.113477 0.452405 0.679796
Si Si3 0.605152 0.693120 0.403723
Si Si4 0.819102 0.064832 0.370934
Si Si5 0.886378 0.634254 0.176184
Si Si6 0.686591 0.020989 0.979554
Si Si7 0.166974 0.088650 0.323266
Si Si8 0.461928 0.794364 0.856809
O O1 0.450994 0.309921 0.977875
O O2 0.286923 0.385352 0.926905
O O3 0.131972 0.305647 0.911418
O O4 0.192647 0.339164 0.084793
O O5 0.191114 0.442452 0.783969
O O6 0.229743 0.463811 0.588688
O O7 0.000000 0.500000 0.690085
O O8 0.029562 0.402348 0.646849
O O9 0.610439 0.641937 0.352572
O O10 0.555804 0.737752 0.334332
O O11 0.800519 0.698659 0.427676
O O12 0.997903 0.060733 0.323218
O O13 0.798032 0.022645 0.447002
O O14 0.758063 0.596360 0.222719
O O15 0.938418 0.671060 0.263002
O O16 0.500000 0.000000 0.977520
O O17 0.713539 0.064094 0.902686
#
# Coordination Sequence:
#
# PCOD9354644 Si02
#       8
#     8   8   8   8   8   8   8   8
#     4  11  22  41  68 100 133 178 228 272 350 408
#     4  11  23  38  62  96 127 171 221 266 320 412
#     4   9  22  41  67  91 131 172 220 281 335 400
#     4  11  22  40  64  94 132 176 216 277 339 400
#     4  11  23  39  67  97 129 177 224 276 333 411
#     4  11  23  38  64  91 127 175 220 266 330 413
#     4  10  23  42  62  90 132 171 213 287 335 393
#     4  10  21  45  66  93 134 177 217 284 348 393
#
# _framework density 20.605515
#
# number of rings (size 3 to 8) (size 9 to 14) (size 15 to 20)
#    0.000    1.500    1.250    4.125    5.250    2.000 
#    9.000    3.750    2.750    0.000    0.000    0.000 
#    0.000    0.000    0.000    0.000    0.000    0.000 
#
# Total GULP energy -178371.056383 kJ/mol
# GULP energy per Si atom -5574.095512 kJ/mol
# Density = 2.055862 g / cm^3
# Si number density = 20.605515 Si / 1000 Ang^3
#
#
#
# Elastic Constant Matrix: (Units=GPa)
#
#
# Indices 1 2 3 4 5 6 
#
# 1 55.2124 11.2872 8.5825 0.0000 0.0000 0.0000
# 2 11.2872 103.0885 7.7817 0.0000 0.0000 0.0000
# 3 8.5825 7.7817 44.9266 0.0000 0.0000 0.0000
# 4 0.0000 0.0000 0.0000 10.7884 0.0000 0.0000
# 5 0.0000 0.0000 0.0000 0.0000 24.5356 0.0000
# 6 0.0000 0.0000 0.0000 0.0000 0.0000 -4.4659
#
#
#
# Elastic Compliance Matrix: (Units=1/GPa)
#
#
# Indices 1 2 3 4 5 6 
#
# 1 0.019001 -0.001830 -0.003313 0.000000 0.000000 0.000000
# 2 -0.001830 0.010005 -0.001383 0.000000 0.000000 0.000000
# 3 -0.003313 -0.001383 0.023131 0.000000 0.000000 0.000000
# 4 0.000000 0.000000 0.000000 0.092693 0.000000 0.000000
# 5 0.000000 0.000000 0.000000 0.000000 0.040757 0.000000
# 6 0.000000 0.000000 0.000000 0.000000 0.000000 -0.223921
#
#
# Mechanical properties :
#
#
# Convention : Reuss Voigt Hill
#
# Bulk Modulus (GPa) = 25.58575 28.72559 27.15567
# Shear Modulus (GPa) = -408.04528 17.87670 -195.08429
#
# Velocity S-wave (km/s) = -14.08748 2.94865 -9.74070
# Velocity P-wave (km/s) = 15.87972 5.05605 10.64429
#
# Compressibility (1/GPa) = 0.03908425
#
# Stress axis : x y z
#
# Youngs Moduli (GPa) = 52.62875 99.94770 43.23209
#
# Poissons Ratio (x) = 0.18294 0.14322
# Poissons Ratio (y) = 0.09633 0.05980
# Poissons Ratio (z) = 0.17435 0.13826
#
# Static dielectric constant tensor:
#      x y z
#    x 1.792180 0.000000 0.000000 
#    y 0.000000 1.875670 0.000000 
#    z 0.000000 0.000000 1.706220 
# 
# From -- ./inp_files/6626.got.cif
#   From: 2010.05.17/outbox.cif.g08.bks.cpg/sg37_4_cif.got.tgz:6626.got - 2010.06.03 17:53:42.
