data_PCOD9354564
_publ_section_title
;
Structure prediction by ZEFSAII (Michael W. Deem and Ramdas Pophale) SiO2 
 PCOD9354564
Probable space group: C C C 2
;
_chemical_formula_sum "Si O2"
_cell_formula_units_Z 56
_cell_length_a 21.957513
_cell_length_b 8.450881
_cell_length_c 14.571889
_cell_angle_alpha 90.000000
_cell_angle_beta 90.000000
_cell_angle_gamma 90.000000
_cell_volume 2703.964523
_symmetry_space_group_name_H-M "C C C 2"
_symmetry_group_IT_number 37
_symmetry_cell_setting 'orthorhombic'
loop_
_space_group_symop_operation_xyz
x,y,z
-x,-y,z
-x,y,1/2+z
x,-y,1/2+z
1/2+x,1/2+y,z
1/2-x,1/2-y,z
1/2-x,1/2+y,1/2+z
1/2+x,1/2-y,1/2+z
loop_
_atom_site_type_symbol
_atom_site_label
_atom_site_fract_x
_atom_site_fract_y
_atom_site_fract_z
Si Si1 0.567046 0.861215 0.602840
Si Si2 0.539846 0.346278 0.666833
Si Si3 0.370876 0.055131 0.950785
Si Si4 0.437163 0.935697 0.789494
Si Si5 0.758323 0.065038 0.000083
Si Si6 0.315403 0.656942 0.355206
Si Si7 0.351858 0.433566 0.649756
O O1 0.502831 0.765939 0.603582
O O2 0.617223 0.722357 0.605082
O O3 0.580444 0.986744 0.523099
O O4 0.571270 0.955185 0.699242
O O5 0.500000 0.500000 0.689635
O O6 0.553413 0.240848 0.755194
O O7 0.603138 0.418480 0.632199
O O8 0.363703 0.231082 0.909204
O O9 0.382482 0.953184 0.859276
O O10 0.306360 0.019648 0.996237
O O11 0.500000 0.000000 0.833315
O O12 0.750000 0.250000 0.984407
O O13 0.789149 0.038559 0.098112
O O14 0.799761 0.988710 0.921152
O O15 0.250000 0.750000 0.342092
O O16 0.341387 0.603018 0.257031
#
# Coordination Sequence:
#
# PCOD9354564 Si02
#       7
#     8   8   8   8   8   8   8
#     4  10  21  41  67  94 135 174 228 281 344 416
#     4   9  22  40  63  98 132 176 227 278 342 428
#     4  11  23  42  69  97 136 176 233 283 340 430
#     4  10  22  41  65  98 128 179 223 279 347 409
#     4  11  24  41  63  99 133 174 231 282 345 414
#     4  10  24  42  65  97 132 185 236 282 345 418
#     4  11  21  42  68  91 139 183 217 290 356 406
#
# _framework density 20.710331
#
# number of rings (size 3 to 8) (size 9 to 14) (size 15 to 20)
#    0.000    1.714    2.857    0.429    4.000    1.714 
#    0.000    4.286    0.000    0.000    0.000    0.000 
#    0.000    0.000    0.000    0.000    0.000    0.000 
#
# Total GULP energy -156269.730477 kJ/mol
# GULP energy per Si atom -5581.061803 kJ/mol
# Density = 2.066319 g / cm^3
# Si number density = 20.710331 Si / 1000 Ang^3
#
#
#
# Elastic Constant Matrix: (Units=GPa)
#
#
# Indices 1 2 3 4 5 6 
#
# 1 73.2077 63.7792 50.6420 0.0000 0.0000 0.0000
# 2 63.7792 84.5319 62.2809 0.0000 0.0000 0.0000
# 3 50.6420 62.2809 113.1086 0.0000 0.0000 0.0000
# 4 0.0000 0.0000 0.0000 -3.2799 0.0000 0.0000
# 5 0.0000 0.0000 0.0000 0.0000 6.6452 0.0000
# 6 0.0000 0.0000 0.0000 0.0000 0.0000 36.3149
#
#
#
# Elastic Compliance Matrix: (Units=1/GPa)
#
#
# Indices 1 2 3 4 5 6 
#
# 1 0.040180 -0.028708 -0.002182 0.000000 0.000000 0.000000
# 2 -0.028708 0.040416 -0.009401 0.000000 0.000000 0.000000
# 3 -0.002182 -0.009401 0.014995 0.000000 0.000000 0.000000
# 4 0.000000 0.000000 0.000000 -0.304886 0.000000 0.000000
# 5 0.000000 0.000000 0.000000 0.000000 0.150483 0.000000
# 6 0.000000 0.000000 0.000000 0.000000 0.000000 0.027537
#
#
# Mechanical properties :
#
#
# Convention : Reuss Voigt Hill
#
# Bulk Modulus (GPa) = 66.62926 69.36139 67.99533
# Shear Modulus (GPa) = 92.06342 14.21246 53.13794
#
# Velocity S-wave (km/s) = 6.67453 2.62248 5.07084
# Velocity P-wave (km/s) = 9.57293 6.53711 8.19679
#
# Compressibility (1/GPa) = 0.01500842
#
# Stress axis : x y z
#
# Youngs Moduli (GPa) = 24.88810 24.74252 66.69021
#
# Poissons Ratio (x) = 0.71030 0.14554
# Poissons Ratio (y) = 0.71448 0.62696
# Poissons Ratio (z) = 0.05432 0.23261
#
# Static dielectric constant tensor:
#      x y z
#    x 1.889240 0.000000 0.000000 
#    y 0.000000 1.840520 0.000000 
#    z 0.000000 0.000000 1.705490 
# 
# From -- ./inp_files/12937.got.cif
#   From: 2010.05.17/outbox.cif.g08.bks.cpg/sg37_7_cif.got.tgz:12937.got - 2010.06.03 17:53:42.
