data_PCOD9354586
_publ_section_title
;
Structure prediction by ZEFSAII (Michael W. Deem and Ramdas Pophale) SiO2 
 PCOD9354586
Probable space group: C C C 2
;
_chemical_formula_sum "Si O2"
_cell_formula_units_Z 36
_cell_length_a 8.094048
_cell_length_b 16.829276
_cell_length_c 13.717424
_cell_angle_alpha 90.000000
_cell_angle_beta 90.000000
_cell_angle_gamma 90.000000
_cell_volume 1868.545903
_symmetry_space_group_name_H-M "C C C 2"
_symmetry_group_IT_number 37
_symmetry_cell_setting 'orthorhombic'
loop_
_space_group_symop_operation_xyz
x,y,z
-x,-y,z
-x,y,1/2+z
x,-y,1/2+z
1/2+x,1/2+y,z
1/2-x,1/2-y,z
1/2-x,1/2+y,1/2+z
1/2+x,1/2-y,1/2+z
loop_
_atom_site_type_symbol
_atom_site_label
_atom_site_fract_x
_atom_site_fract_y
_atom_site_fract_z
Si Si1 0.336205 0.876034 0.712280
Si Si2 0.500000 0.000000 0.078290
Si Si3 0.750000 0.750000 0.868464
Si Si4 0.492376 0.291091 0.696892
Si Si5 0.250000 0.750000 0.040912
Si Si6 0.519628 0.862537 0.426854
O O1 0.412022 0.886459 0.820547
O O2 0.433438 0.797048 0.674303
O O3 0.552950 0.931811 0.503532
O O4 0.144591 0.850826 0.708243
O O5 0.373101 0.046319 0.148596
O O6 0.606887 0.716826 0.797628
O O7 0.665533 0.824978 0.922594
O O8 0.357133 0.306207 0.612990
O O9 0.374549 0.791299 0.968721
#
# Coordination Sequence:
#
# PCOD9354586 Si02
#       6
#     8   4   4   8   4   8
#     4  10  21  42  62  91 126 169 203 262 322 369
#     4  12  24  38  64  90 132 164 204 246 322 404
#     4   9  20  38  67  94 114 164 221 270 309 360
#     4   9  19  39  68  88 123 159 217 267 305 365
#     4  11  20  36  67  98 116 160 225 262 301 376
#     4  11  23  39  67  91 123 164 213 260 315 382
#
# _framework density 19.266317999999998
#
# number of rings (size 3 to 8) (size 9 to 14) (size 15 to 20)
#    0.000    1.778    2.222    3.333    3.111    0.000 
#    0.000    1.111    0.000    0.000    0.000    0.000 
#    0.000    0.000    0.000    0.000    0.000    0.000 
#
# Total GULP energy -100304.987101 kJ/mol
# GULP energy per Si atom -5572.499283 kJ/mol
# Density = 1.922247 g / cm^3
# Si number density = 19.266318 Si / 1000 Ang^3
#
#
#
# Elastic Constant Matrix: (Units=GPa)
#
#
# Indices 1 2 3 4 5 6 
#
# 1 114.9304 41.2837 30.0745 0.0000 0.0000 0.0000
# 2 41.2837 73.6125 34.9416 0.0000 0.0000 0.0000
# 3 30.0745 34.9416 102.9322 0.0000 0.0000 0.0000
# 4 0.0000 0.0000 0.0000 -13.2842 0.0000 0.0000
# 5 0.0000 0.0000 0.0000 0.0000 46.9857 0.0000
# 6 0.0000 0.0000 0.0000 0.0000 0.0000 13.2942
#
#
#
# Elastic Compliance Matrix: (Units=1/GPa)
#
#
# Indices 1 2 3 4 5 6 
#
# 1 0.011049 -0.005560 -0.001341 0.000000 0.000000 0.000000
# 2 -0.005560 0.018992 -0.004823 0.000000 0.000000 0.000000
# 3 -0.001341 -0.004823 0.011744 0.000000 0.000000 0.000000
# 4 0.000000 0.000000 0.000000 -0.075278 0.000000 0.000000
# 5 0.000000 0.000000 0.000000 0.000000 0.021283 0.000000
# 6 0.000000 0.000000 0.000000 0.000000 0.000000 0.075221
#
#
# Mechanical properties :
#
#
# Convention : Reuss Voigt Hill
#
# Bulk Modulus (GPa) = 54.53146 56.00830 55.26988
# Shear Modulus (GPa) = 54.01286 21.74417 37.87851
#
# Velocity S-wave (km/s) = 5.30054 3.36312 4.43882
# Velocity P-wave (km/s) = 8.11335 6.64940 7.41758
#
# Compressibility (1/GPa) = 0.01833804
#
# Stress axis : x y z
#
# Youngs Moduli (GPa) = 90.50597 52.65379 85.15012
#
# Poissons Ratio (x) = 0.29276 0.11417
# Poissons Ratio (y) = 0.50322 0.41064
# Poissons Ratio (z) = 0.12135 0.25392
#
# Static dielectric constant tensor:
#      x y z
#    x 1.683930 0.000000 0.000000 
#    y 0.000000 1.760610 0.000000 
#    z 0.000000 0.000000 1.716960 
# 
# From -- ./inp_files/10434.got.cif
#   From: 2010.05.17/outbox.cif.g08.bks.cpg/sg37_6_cif.got.tgz:10434.got - 2010.06.03 17:53:42.
