data_PCOD9354349
_publ_section_title
;
Structure prediction by ZEFSAII (Michael W. Deem and Ramdas Pophale) SiO2 
 PCOD9354349
Probable space group: C C C 2
;
_chemical_formula_sum "Si O2"
_cell_formula_units_Z 48
_cell_length_a 11.238768
_cell_length_b 15.960899
_cell_length_c 15.083128
_cell_angle_alpha 90.000000
_cell_angle_beta 90.000000
_cell_angle_gamma 90.000000
_cell_volume 2705.624185
_symmetry_space_group_name_H-M "C C C 2"
_symmetry_group_IT_number 37
_symmetry_cell_setting 'orthorhombic'
loop_
_space_group_symop_operation_xyz
x,y,z
-x,-y,z
-x,y,1/2+z
x,-y,1/2+z
1/2+x,1/2+y,z
1/2-x,1/2-y,z
1/2-x,1/2+y,1/2+z
1/2+x,1/2-y,1/2+z
loop_
_atom_site_type_symbol
_atom_site_label
_atom_site_fract_x
_atom_site_fract_y
_atom_site_fract_z
Si Si1 0.465692 0.135102 0.260980
Si Si2 0.934256 0.722660 0.922066
Si Si3 0.610681 0.265628 0.614015
Si Si4 0.196608 0.111586 0.899709
Si Si5 0.873316 0.956263 0.090185
Si Si6 0.801560 0.525038 0.734548
O O1 0.474615 0.175570 0.358443
O O2 0.429968 0.207510 0.193367
O O3 0.370371 0.060679 0.257656
O O4 0.593002 0.094768 0.231566
O O5 0.898946 0.814296 0.884801
O O6 0.818808 0.662346 0.917594
O O7 0.960412 0.739626 0.025076
O O8 0.750000 0.250000 0.594327
O O9 0.605351 0.364156 0.631782
O O10 0.216085 0.054172 0.814347
O O11 0.167020 0.061148 0.989001
O O12 0.774860 0.006940 0.146415
O O13 0.000000 0.000000 0.090283
#
# Coordination Sequence:
#
# PCOD9354349 Si02
#       6
#     8   8   8   8   8   8
#     4  10  21  35  61  91 112 149 201 241 289 343
#     4   9  17  35  60  80 107 155 196 226 281 353
#     4  11  19  40  61  81 117 160 194 230 291 356
#     4   9  18  36  55  77 114 150 188 230 286 344
#     4  11  23  38  57  85 116 156 195 234 296 351
#     4  10  21  37  57  88 119 146 191 251 290 335
#
# _framework density 17.740824
#
# number of rings (size 3 to 8) (size 9 to 14) (size 15 to 20)
#    0.000    2.000    5.000    0.000    2.333    2.000 
#    3.000    3.333    0.000    0.000    0.000    0.000 
#    0.000    0.000    0.000    0.000    0.000    0.000 
#
# Total GULP energy -133773.077030 kJ/mol
# GULP energy per Si atom -5573.878210 kJ/mol
# Density = 1.770044 g / cm^3
# Si number density = 17.740824 Si / 1000 Ang^3
#
#
#
# Elastic Constant Matrix: (Units=GPa)
#
#
# Indices 1 2 3 4 5 6 
#
# 1 54.2874 27.0172 37.0063 0.0000 0.0000 0.0000
# 2 27.0172 80.1350 40.9769 0.0000 0.0000 0.0000
# 3 37.0063 40.9769 73.2038 0.0000 0.0000 0.0000
# 4 0.0000 0.0000 0.0000 35.6455 0.0000 0.0000
# 5 0.0000 0.0000 0.0000 0.0000 8.5659 0.0000
# 6 0.0000 0.0000 0.0000 0.0000 0.0000 14.7399
#
#
#
# Elastic Compliance Matrix: (Units=1/GPa)
#
#
# Indices 1 2 3 4 5 6 
#
# 1 0.028665 -0.003159 -0.012723 0.000000 0.000000 0.000000
# 2 -0.003159 0.017831 -0.008385 0.000000 0.000000 0.000000
# 3 -0.012723 -0.008385 0.024786 0.000000 0.000000 0.000000
# 4 0.000000 0.000000 0.000000 0.028054 0.000000 0.000000
# 5 0.000000 0.000000 0.000000 0.000000 0.116742 0.000000
# 6 0.000000 0.000000 0.000000 0.000000 0.000000 0.067843
#
#
# Mechanical properties :
#
#
# Convention : Reuss Voigt Hill
#
# Bulk Modulus (GPa) = 43.95597 46.40301 45.17949
# Shear Modulus (GPa) = 14.70430 18.63199 16.66815
#
# Velocity S-wave (km/s) = 2.88208 3.24425 3.06851
# Velocity P-wave (km/s) = 5.99214 6.34400 6.17058
#
# Compressibility (1/GPa) = 0.02275004
#
# Stress axis : x y z
#
# Youngs Moduli (GPa) = 34.88537 56.08122 40.34585
#
# Poissons Ratio (x) = 0.17713 0.51332
# Poissons Ratio (y) = 0.11019 0.33828
# Poissons Ratio (z) = 0.44385 0.47022
#
# Static dielectric constant tensor:
#      x y z
#    x 1.616860 0.000000 0.000000 
#    y 0.000000 1.619120 0.000000 
#    z 0.000000 0.000000 1.600650 
# 
# From -- ./inp_files/7203.got.cif
#   From: 2010.05.17/outbox.cif.g08.bks.cpg/sg37_4_cif.got.tgz:7203.got - 2010.06.03 17:53:42.
