data_PCOD9354788
_publ_section_title
;
Structure prediction by ZEFSAII (Michael W. Deem and Ramdas Pophale) SiO2 
 PCOD9354788
Probable space group: C C C 2
;
_chemical_formula_sum "Si O2"
_cell_formula_units_Z 60
_cell_length_a 8.271682
_cell_length_b 11.729551
_cell_length_c 26.554602
_cell_angle_alpha 90.000000
_cell_angle_beta 90.000000
_cell_angle_gamma 90.000000
_cell_volume 2576.410227
_symmetry_space_group_name_H-M "C C C 2"
_symmetry_group_IT_number 37
_symmetry_cell_setting 'orthorhombic'
loop_
_space_group_symop_operation_xyz
x,y,z
-x,-y,z
-x,y,1/2+z
x,-y,1/2+z
1/2+x,1/2+y,z
1/2-x,1/2-y,z
1/2-x,1/2+y,1/2+z
1/2+x,1/2-y,1/2+z
loop_
_atom_site_type_symbol
_atom_site_label
_atom_site_fract_x
_atom_site_fract_y
_atom_site_fract_z
Si Si1 0.145753 0.068384 0.234960
Si Si2 0.955501 0.382366 0.866486
Si Si3 0.919173 0.697188 0.961947
Si Si4 0.500000 0.000000 0.113314
Si Si5 0.135772 0.909837 0.930978
Si Si6 0.535485 0.194317 0.765312
Si Si7 0.184563 0.380070 0.532165
Si Si8 0.316092 0.128589 0.685564
O O1 0.313188 0.108807 0.259819
O O2 0.066903 0.194431 0.230748
O O3 0.197587 0.981880 0.189361
O O4 0.000000 0.000000 0.262166
O O5 0.778892 0.389740 0.891484
O O6 0.973997 0.284052 0.824998
O O7 0.000000 0.500000 0.839391
O O8 0.085427 0.379436 0.912222
O O9 0.750000 0.750000 0.975445
O O10 0.041729 0.793339 0.942036
O O11 0.007248 0.639549 0.008378
O O12 0.653037 0.034288 0.078264
O O13 0.522210 0.102298 0.153272
O O14 0.213360 0.934864 0.986381
O O15 0.000000 0.000000 0.916366
O O16 0.372559 0.143417 0.743067
O O17 0.250000 0.250000 0.543362
O O18 0.250000 0.250000 0.667785
#
# Coordination Sequence:
#
# PCOD9354788 Si02
#       8
#     8   8   8   4   8   8   8   8
#     4  11  23  43  71  94 131 182 221 282 338 403
#     4  11  23  40  63  98 137 182 228 284 338 408
#     4  10  22  40  64  96 134 175 226 277 341 410
#     4  12  24  42  76  94 134 178 228 292 362 412
#     4  10  22  40  68  96 135 177 228 281 345 417
#     4  11  25  44  68  99 142 179 235 279 346 411
#     4   9  22  43  66  97 133 175 224 289 348 415
#     4  12  24  46  71 102 135 183 232 288 356 420
#
# _framework density 23.288217
#
# number of rings (size 3 to 8) (size 9 to 14) (size 15 to 20)
#    0.000    1.333    2.667    3.200    9.333    1.067 
#    2.400    2.000    0.000    0.000    0.000    0.000 
#    0.000    0.000    0.000    0.000    0.000    0.000 
#
# Total GULP energy -167107.602909 kJ/mol
# GULP energy per Si atom -5570.253430 kJ/mol
# Density = 2.323521 g / cm^3
# Si number density = 23.288217 Si / 1000 Ang^3
#
#
#
# Elastic Constant Matrix: (Units=GPa)
#
#
# Indices 1 2 3 4 5 6 
#
# 1 89.5154 31.1449 20.5989 0.0000 0.0000 0.0000
# 2 31.1449 123.0371 25.3138 0.0000 0.0000 0.0000
# 3 20.5989 25.3138 92.8604 0.0000 0.0000 0.0000
# 4 0.0000 0.0000 0.0000 -1.8911 0.0000 0.0000
# 5 0.0000 0.0000 0.0000 0.0000 20.1637 0.0000
# 6 0.0000 0.0000 0.0000 0.0000 0.0000 55.2195
#
#
#
# Elastic Compliance Matrix: (Units=1/GPa)
#
#
# Indices 1 2 3 4 5 6 
#
# 1 0.012605 -0.002771 -0.002041 0.000000 0.000000 0.000000
# 2 -0.002771 0.009220 -0.001899 0.000000 0.000000 0.000000
# 3 -0.002041 -0.001899 0.011739 0.000000 0.000000 0.000000
# 4 0.000000 0.000000 0.000000 -0.528806 0.000000 0.000000
# 5 0.000000 0.000000 0.000000 0.000000 0.049594 0.000000
# 6 0.000000 0.000000 0.000000 0.000000 0.000000 0.018110
#
#
# Mechanical properties :
#
#
# Convention : Reuss Voigt Hill
#
# Bulk Modulus (GPa) = 49.64463 51.05869 50.35166
# Shear Modulus (GPa) = -12.27283 29.92213 8.82465
#
# Velocity S-wave (km/s) = -2.29813 3.58838 1.94873
# Velocity P-wave (km/s) = 3.78443 6.25627 5.17024
#
# Compressibility (1/GPa) = 0.02014317
#
# Stress axis : x y z
#
# Youngs Moduli (GPa) = 79.33403 108.46393 85.18533
#
# Poissons Ratio (x) = 0.30054 0.17384
# Poissons Ratio (y) = 0.21982 0.16174
# Poissons Ratio (z) = 0.16190 0.20593
#
# Static dielectric constant tensor:
#      x y z
#    x 1.844850 0.000000 0.000000 
#    y 0.000000 2.036890 0.000000 
#    z 0.000000 0.000000 1.921620 
# 
# From -- ./inp_files/20401.got.cif
#   From: 2010.05.17/outbox.cif.g08.bks.cpg/sg37_11_cif.got.tgz:20401.got - 2010.06.03 17:53:42.
