data_PCOD9354646
_publ_section_title
;
Structure prediction by ZEFSAII (Michael W. Deem and Ramdas Pophale) SiO2 
 PCOD9354646
Probable space group: C C C 2
;
_chemical_formula_sum "Si O2"
_cell_formula_units_Z 52
_cell_length_a 7.345856
_cell_length_b 17.704440
_cell_length_c 19.208380
_cell_angle_alpha 90.000000
_cell_angle_beta 90.000000
_cell_angle_gamma 90.000000
_cell_volume 2498.131777
_symmetry_space_group_name_H-M "C C C 2"
_symmetry_group_IT_number 37
_symmetry_cell_setting 'orthorhombic'
loop_
_space_group_symop_operation_xyz
x,y,z
-x,-y,z
-x,y,1/2+z
x,-y,1/2+z
1/2+x,1/2+y,z
1/2-x,1/2-y,z
1/2-x,1/2+y,1/2+z
1/2+x,1/2-y,1/2+z
loop_
_atom_site_type_symbol
_atom_site_label
_atom_site_fract_x
_atom_site_fract_y
_atom_site_fract_z
Si Si1 0.792865 0.164095 0.662890
Si Si2 0.127470 0.823320 0.266923
Si Si3 0.155647 0.587317 0.060986
Si Si4 0.584130 0.691496 0.925050
Si Si5 0.556513 0.920090 0.719692
Si Si6 0.250000 0.250000 0.514241
Si Si7 0.737066 0.569108 0.024681
O O1 0.750000 0.250000 0.639139
O O2 0.618580 0.133446 0.706606
O O3 0.822301 0.109825 0.596731
O O4 0.970443 0.165684 0.710715
O O5 0.250000 0.750000 0.250885
O O6 0.043569 0.818181 0.343637
O O7 0.280299 0.887337 0.264277
O O8 0.132417 0.566341 0.141668
O O9 0.280703 0.521779 0.027895
O O10 0.956506 0.582999 0.025277
O O11 0.216717 0.673829 0.057453
O O12 0.750000 0.750000 0.930021
O O13 0.419485 0.729266 0.966023
O O14 0.643557 0.613758 0.962145
O O15 0.500000 0.000000 0.749718
#
# Coordination Sequence:
#
# PCOD9354646 Si02
#       7
#     8   8   8   8   8   4   8
#     4  11  22  40  73  98 132 174 225 281 338 396
#     4  11  26  42  67 101 134 180 229 270 342 408
#     4  10  22  42  71 102 132 173 222 281 339 392
#     4  11  25  45  66 100 138 178 221 281 335 403
#     4  11  23  45  65  99 136 174 224 285 338 397
#     4  12  26  40  72 100 136 176 226 272 340 404
#     4  10  21  45  68  99 135 171 222 280 336 390
#
# _framework density 20.815555
#
# number of rings (size 3 to 8) (size 9 to 14) (size 15 to 20)
#    0.000    1.231    6.154    0.462    6.462    1.231 
#    2.769    1.538    0.000    0.000    0.000    0.000 
#    0.000    0.000    0.000    0.000    0.000    0.000 
#
# Total GULP energy -145385.938807 kJ/mol
# GULP energy per Si atom -5591.766877 kJ/mol
# Density = 2.076818 g / cm^3
# Si number density = 20.815555 Si / 1000 Ang^3
#
#
#
# Elastic Constant Matrix: (Units=GPa)
#
#
# Indices 1 2 3 4 5 6 
#
# 1 41.8583 20.9906 30.4504 0.0000 0.0000 0.0000
# 2 20.9906 157.5034 23.9949 0.0000 0.0000 0.0000
# 3 30.4504 23.9949 48.6060 0.0000 0.0000 0.0000
# 4 0.0000 0.0000 0.0000 3.9901 0.0000 0.0000
# 5 0.0000 0.0000 0.0000 0.0000 21.7544 0.0000
# 6 0.0000 0.0000 0.0000 0.0000 0.0000 33.9411
#
#
#
# Elastic Compliance Matrix: (Units=1/GPa)
#
#
# Indices 1 2 3 4 5 6 
#
# 1 0.044369 -0.001815 -0.026900 0.000000 0.000000 0.000000
# 2 -0.001815 0.006940 -0.002289 0.000000 0.000000 0.000000
# 3 -0.026900 -0.002289 0.038556 0.000000 0.000000 0.000000
# 4 0.000000 0.000000 0.000000 0.250619 0.000000 0.000000
# 5 0.000000 0.000000 0.000000 0.000000 0.045968 0.000000
# 6 0.000000 0.000000 0.000000 0.000000 0.000000 0.029463
#
#
# Mechanical properties :
#
#
# Convention : Reuss Voigt Hill
#
# Bulk Modulus (GPa) = 35.89803 44.31549 40.10676
# Shear Modulus (GPa) = 10.26256 23.43923 16.85090
#
# Velocity S-wave (km/s) = 2.22282 3.35930 2.84832
# Velocity P-wave (km/s) = 4.88581 6.03178 5.48878
#
# Compressibility (1/GPa) = 0.02785668
#
# Stress axis : x y z
#
# Youngs Moduli (GPa) = 22.53816 144.09971 25.93647
#
# Poissons Ratio (x) = 0.26154 0.69770
# Poissons Ratio (y) = 0.04091 0.05936
# Poissons Ratio (z) = 0.60628 0.32981
#
# Static dielectric constant tensor:
#      x y z
#    x 1.759400 0.000000 0.000000 
#    y 0.000000 1.788140 0.000000 
#    z 0.000000 0.000000 1.709280 
# 
# From -- ./inp_files/15838.got.cif
#   From: 2010.05.17/outbox.cif.g08.bks.cpg/sg37_8_cif.got.tgz:15838.got - 2010.06.03 17:53:42.
