data_PCOD9354587
_publ_section_title
;
Structure prediction by ZEFSAII (Michael W. Deem and Ramdas Pophale) SiO2 
 PCOD9354587
Probable space group: C C C 2
;
_chemical_formula_sum "Si O2"
_cell_formula_units_Z 52
_cell_length_a 7.817692
_cell_length_b 21.225662
_cell_length_c 15.594667
_cell_angle_alpha 90.000000
_cell_angle_beta 90.000000
_cell_angle_gamma 90.000000
_cell_volume 2587.711798
_symmetry_space_group_name_H-M "C C C 2"
_symmetry_group_IT_number 37
_symmetry_cell_setting 'orthorhombic'
loop_
_space_group_symop_operation_xyz
x,y,z
-x,-y,z
-x,y,1/2+z
x,-y,1/2+z
1/2+x,1/2+y,z
1/2-x,1/2-y,z
1/2-x,1/2+y,1/2+z
1/2+x,1/2-y,1/2+z
loop_
_atom_site_type_symbol
_atom_site_label
_atom_site_fract_x
_atom_site_fract_y
_atom_site_fract_z
Si Si1 0.000000 0.500000 0.447940
Si Si2 0.446910 0.238681 0.073135
Si Si3 0.155065 0.049225 0.372347
Si Si4 0.314596 0.886149 0.535323
Si Si5 0.407864 0.700851 0.236839
Si Si6 0.488773 0.669651 0.430328
Si Si7 0.047275 0.927202 0.680718
O O1 0.158077 0.475726 0.391919
O O2 0.084935 0.553113 0.506001
O O3 0.250000 0.250000 0.050735
O O4 0.456698 0.164257 0.065129
O O5 0.472757 0.265611 0.167109
O O6 0.542794 0.279254 0.001207
O O7 0.138690 0.066205 0.272544
O O8 0.116935 0.111170 0.427561
O O9 0.000000 0.000000 0.390403
O O10 0.196506 0.859446 0.457468
O O11 0.176849 0.900615 0.609685
O O12 0.250000 0.750000 0.236988
O O13 0.472847 0.696645 0.334419
O O14 0.403271 0.627583 0.200921
O O15 0.000000 0.000000 0.657043
#
# Coordination Sequence:
#
# PCOD9354587 Si02
#       7
#     4   8   8   8   8   8   8
#     4  12  26  40  70 110 130 188 234 290 340 428
#     4  10  21  42  62  91 132 173 222 279 337 415
#     4  10  22  44  67  95 138 177 230 286 344 414
#     4  11  23  42  67  96 139 177 233 285 345 421
#     4  11  22  40  69  98 126 181 236 282 351 419
#     4  10  21  43  69  88 130 186 217 280 354 409
#     4  10  23  42  68  94 136 191 224 284 367 418
#
# _framework density 20.094975000000002
#
# number of rings (size 3 to 8) (size 9 to 14) (size 15 to 20)
#    0.000    1.538    4.615    1.385    2.154    3.077 
#    5.538    0.769    0.000    0.000    0.000    0.000 
#    0.000    0.000    0.000    0.000    0.000    0.000 
#
# Total GULP energy -144863.828440 kJ/mol
# GULP energy per Si atom -5571.685709 kJ/mol
# Density = 2.004924 g / cm^3
# Si number density = 20.094975 Si / 1000 Ang^3
#
#
#
# Elastic Constant Matrix: (Units=GPa)
#
#
# Indices 1 2 3 4 5 6 
#
# 1 84.7954 48.5547 35.1077 0.0000 0.0000 0.0000
# 2 48.5547 135.4282 70.3698 0.0000 0.0000 0.0000
# 3 35.1077 70.3698 104.1387 0.0000 0.0000 0.0000
# 4 0.0000 0.0000 0.0000 21.3354 0.0000 0.0000
# 5 0.0000 0.0000 0.0000 0.0000 -42.3214 0.0000
# 6 0.0000 0.0000 0.0000 0.0000 0.0000 31.9961
#
#
#
# Elastic Compliance Matrix: (Units=1/GPa)
#
#
# Indices 1 2 3 4 5 6 
#
# 1 0.015165 -0.004285 -0.002217 0.000000 0.000000 0.000000
# 2 -0.004285 0.012590 -0.007063 0.000000 0.000000 0.000000
# 3 -0.002217 -0.007063 0.015123 0.000000 0.000000 0.000000
# 4 0.000000 0.000000 0.000000 0.046871 0.000000 0.000000
# 5 0.000000 0.000000 0.000000 0.000000 -0.023629 0.000000
# 6 0.000000 0.000000 0.000000 0.000000 0.000000 0.031254
#
#
# Mechanical properties :
#
#
# Convention : Reuss Voigt Hill
#
# Bulk Modulus (GPa) = 63.50134 70.26963 66.88548
# Shear Modulus (GPa) = 38.53495 13.55736 26.04615
#
# Velocity S-wave (km/s) = 4.38384 2.60025 3.60412
# Velocity P-wave (km/s) = 7.56923 6.63775 7.11874
#
# Compressibility (1/GPa) = 0.01574770
#
# Stress axis : x y z
#
# Youngs Moduli (GPa) = 65.94317 79.42592 66.12583
#
# Poissons Ratio (x) = 0.34034 0.14659
# Poissons Ratio (y) = 0.28257 0.46705
# Poissons Ratio (z) = 0.14618 0.56099
#
# Static dielectric constant tensor:
#      x y z
#    x 1.714090 0.000000 0.000000 
#    y 0.000000 1.825710 0.000000 
#    z 0.000000 0.000000 1.699190 
# 
# From -- ./inp_files/10771.got.cif
#   From: 2010.05.17/outbox.cif.g08.bks.cpg/sg37_6_cif.got.tgz:10771.got - 2010.06.03 17:53:42.
