data_PCOD9354268
_publ_section_title
;
Structure prediction by ZEFSAII (Michael W. Deem and Ramdas Pophale) SiO2 
 PCOD9354268
Probable space group: C C C 2
;
_chemical_formula_sum "Si O2"
_cell_formula_units_Z 36
_cell_length_a 24.693922
_cell_length_b 5.188496
_cell_length_c 13.615884
_cell_angle_alpha 90.000000
_cell_angle_beta 90.000000
_cell_angle_gamma 90.000000
_cell_volume 1744.525818
_symmetry_space_group_name_H-M "C C C 2"
_symmetry_group_IT_number 37
_symmetry_cell_setting 'orthorhombic'
loop_
_space_group_symop_operation_xyz
x,y,z
-x,-y,z
-x,y,1/2+z
x,-y,1/2+z
1/2+x,1/2+y,z
1/2-x,1/2-y,z
1/2-x,1/2+y,1/2+z
1/2+x,1/2-y,1/2+z
loop_
_atom_site_type_symbol
_atom_site_label
_atom_site_fract_x
_atom_site_fract_y
_atom_site_fract_z
Si Si1 0.939960 0.898352 0.777620
Si Si2 0.804514 0.368968 0.483503
Si Si3 0.250000 0.250000 0.639597
Si Si4 0.847115 0.080083 0.658660
Si Si5 0.614069 0.110299 0.830361
O O1 0.930991 0.610636 0.815775
O O2 0.901983 0.924725 0.680937
O O3 0.912747 0.111172 0.850170
O O4 0.000000 0.000000 0.759366
O O5 0.750000 0.250000 0.437075
O O6 0.782707 0.561041 0.567221
O O7 0.836450 0.154195 0.546606
O O8 0.843129 0.511062 0.408391
O O9 0.294695 0.420609 0.694769
O O10 0.855413 0.330419 0.727398
#
# Coordination Sequence:
#
# PCOD9354268 Si02
#       5
#     8   8   4   8   8
#     4  10  22  44  68  92 130 172 223 274 326 386
#     4  10  22  41  61  96 136 170 214 270 323 407
#     4  10  20  42  60  98 136 172 214 274 326 402
#     4   9  22  38  68  93 135 164 225 264 333 389
#     4  10  23  42  67  96 129 173 219 267 334 389
#
# _framework density 20.635978999999999
#
# number of rings (size 3 to 8) (size 9 to 14) (size 15 to 20)
#    1.333    0.889    0.000    2.000    6.222    0.000 
#   26.000    1.111    9.778    0.000    0.000    0.000 
#    0.000    0.000    0.000    0.000    0.000    0.000 
#
# Total GULP energy -100293.181657 kJ/mol
# GULP energy per Si atom -5571.843425 kJ/mol
# Density = 2.058901 g / cm^3
# Si number density = 20.635979 Si / 1000 Ang^3
#
#
#
# Elastic Constant Matrix: (Units=GPa)
#
#
# Indices 1 2 3 4 5 6 
#
# 1 127.7112 27.3588 29.8590 0.0000 0.0000 0.0000
# 2 27.3588 96.6670 0.4931 0.0000 0.0000 0.0000
# 3 29.8590 0.4931 25.5261 0.0000 0.0000 0.0000
# 4 0.0000 0.0000 0.0000 19.9828 0.0000 0.0000
# 5 0.0000 0.0000 0.0000 0.0000 104.5159 0.0000
# 6 0.0000 0.0000 0.0000 0.0000 0.0000 40.2726
#
#
#
# Elastic Compliance Matrix: (Units=1/GPa)
#
#
# Indices 1 2 3 4 5 6 
#
# 1 0.011715 -0.003246 -0.013640 0.000000 0.000000 0.000000
# 2 -0.003246 0.011245 0.003580 0.000000 0.000000 0.000000
# 3 -0.013640 0.003580 0.055062 0.000000 0.000000 0.000000
# 4 0.000000 0.000000 0.000000 0.050043 0.000000 0.000000
# 5 0.000000 0.000000 0.000000 0.000000 0.009568 0.000000
# 6 0.000000 0.000000 0.000000 0.000000 0.000000 0.024831
#
#
# Mechanical properties :
#
#
# Convention : Reuss Voigt Hill
#
# Bulk Modulus (GPa) = 19.45196 40.59178 30.02187
# Shear Modulus (GPa) = 24.24670 45.76714 35.00692
#
# Velocity S-wave (km/s) = 3.43151 4.71450 4.12321
# Velocity P-wave (km/s) = 5.01468 7.02484 6.10309
#
# Compressibility (1/GPa) = 0.05140869
#
# Stress axis : x y z
#
# Youngs Moduli (GPa) = 85.36304 88.92689 18.16127
#
# Poissons Ratio (x) = 0.28865 0.24773
# Poissons Ratio (y) = 0.27708 -0.06501
# Poissons Ratio (z) = 1.16439 -0.31833
#
# Static dielectric constant tensor:
#      x y z
#    x 1.703090 0.000000 0.000000 
#    y 0.000000 1.830270 0.000000 
#    z 0.000000 0.000000 1.717670 
# 
# From -- ./inp_files/8759.got.cif
#   From: 2010.05.17/outbox.cif.g08.bks.cpg/sg37_5_cif.got.tgz:8759.got - 2010.06.03 17:53:42.
