data_PCOD9354420
_publ_section_title
;
Structure prediction by ZEFSAII (Michael W. Deem and Ramdas Pophale) SiO2 
 PCOD9354420
Probable space group: C C C 2
;
_chemical_formula_sum "Si O2"
_cell_formula_units_Z 56
_cell_length_a 25.086132
_cell_length_b 5.225327
_cell_length_c 20.280033
_cell_angle_alpha 90.000000
_cell_angle_beta 90.000000
_cell_angle_gamma 90.000000
_cell_volume 2658.372491
_symmetry_space_group_name_H-M "C C C 2"
_symmetry_group_IT_number 37
_symmetry_cell_setting 'orthorhombic'
loop_
_space_group_symop_operation_xyz
x,y,z
-x,-y,z
-x,y,1/2+z
x,-y,1/2+z
1/2+x,1/2+y,z
1/2-x,1/2-y,z
1/2-x,1/2+y,1/2+z
1/2+x,1/2-y,1/2+z
loop_
_atom_site_type_symbol
_atom_site_label
_atom_site_fract_x
_atom_site_fract_y
_atom_site_fract_z
Si Si1 0.199282 0.383764 0.409780
Si Si2 0.061503 0.926438 0.706857
Si Si3 0.387829 0.487418 0.344726
Si Si4 0.876026 0.533974 0.018970
Si Si5 0.937779 0.982460 0.481125
Si Si6 0.121279 0.444796 0.664879
Si Si7 0.197336 0.366450 0.777489
O O1 0.250000 0.250000 0.442282
O O2 0.170146 0.556053 0.463919
O O3 0.221412 0.501640 0.342295
O O4 0.152750 0.205886 0.380232
O O5 0.076045 0.661018 0.671872
O O6 0.077193 0.887542 0.783919
O O7 0.096760 0.164362 0.679551
O O8 0.000000 0.000000 0.700390
O O9 0.426311 0.562757 0.404823
O O10 0.348773 0.694778 0.311544
O O11 0.856113 0.459332 0.091357
O O12 0.906104 0.803348 0.021631
O O13 0.915126 0.300891 0.996527
O O14 0.000000 0.000000 0.495226
O O15 0.165260 0.512091 0.720580
O O16 0.250000 0.250000 0.744600
#
# Coordination Sequence:
#
# PCOD9354420 Si02
#       7
#     8   8   8   8   8   8   8
#     4  11  21  39  67  92 124 168 215 264 325 383
#     4  11  23  40  65  92 127 170 214 262 318 380
#     4  10  21  38  60  94 128 158 211 270 318 370
#     4  11  25  42  62  94 132 167 210 265 319 381
#     4  11  23  40  65  92 127 170 214 262 318 380
#     4  11  25  42  62  94 132 167 210 265 319 381
#     4  11  21  39  67  92 124 168 215 264 325 383
#
# _framework density 21.065518999999998
#
# number of rings (size 3 to 8) (size 9 to 14) (size 15 to 20)
#    0.000    1.143    4.286    2.143    0.000    4.000 
#    0.000    2.857    0.000    6.000    0.000    0.000 
#    0.000    0.000    0.000    0.000    0.000    0.000 
#
# Total GULP energy -156200.532392 kJ/mol
# GULP energy per Si atom -5578.590443 kJ/mol
# Density = 2.101757 g / cm^3
# Si number density = 21.065519 Si / 1000 Ang^3
#
#
#
# Elastic Constant Matrix: (Units=GPa)
#
#
# Indices 1 2 3 4 5 6 
#
# 1 69.4704 -3.8241 -3.8415 0.0000 0.0000 0.0000
# 2 -3.8241 46.6701 -19.5180 0.0000 0.0000 0.0000
# 3 -3.8415 -19.5180 95.4418 0.0000 0.0000 0.0000
# 4 0.0000 0.0000 0.0000 21.3342 0.0000 0.0000
# 5 0.0000 0.0000 0.0000 0.0000 2.5818 0.0000
# 6 0.0000 0.0000 0.0000 0.0000 0.0000 29.3480
#
#
#
# Elastic Compliance Matrix: (Units=1/GPa)
#
#
# Indices 1 2 3 4 5 6 
#
# 1 0.014531 0.001569 0.000906 0.000000 0.000000 0.000000
# 2 0.001569 0.023600 0.004890 0.000000 0.000000 0.000000
# 3 0.000906 0.004890 0.011514 0.000000 0.000000 0.000000
# 4 0.000000 0.000000 0.000000 0.046873 0.000000 0.000000
# 5 0.000000 0.000000 0.000000 0.000000 0.387325 0.000000
# 6 0.000000 0.000000 0.000000 0.000000 0.000000 0.034074
#
#
# Mechanical properties :
#
#
# Convention : Reuss Voigt Hill
#
# Bulk Modulus (GPa) = 15.53392 17.46833 16.50113
# Shear Modulus (GPa) = 9.53024 26.57053 18.05039
#
# Velocity S-wave (km/s) = 2.12930 3.55537 2.93041
# Velocity P-wave (km/s) = 3.66542 5.01643 4.39317
#
# Compressibility (1/GPa) = 0.06437523
#
# Stress axis : x y z
#
# Youngs Moduli (GPa) = 68.81787 42.37205 86.85104
#
# Poissons Ratio (x) = -0.06650 -0.07867
# Poissons Ratio (y) = -0.10801 -0.42466
# Poissons Ratio (z) = -0.06234 -0.20718
#
# Static dielectric constant tensor:
#      x y z
#    x 1.736950 0.000000 0.000000 
#    y 0.000000 1.899810 0.000000 
#    z 0.000000 0.000000 1.770360 
# 
# From -- ./inp_files/15911.got.cif
#   From: 2010.05.17/outbox.cif.g08.bks.cpg/sg37_8_cif.got.tgz:15911.got - 2010.06.03 17:53:42.
