data_PCOD9354203
_publ_section_title
;
Structure prediction by ZEFSAII (Michael W. Deem and Ramdas Pophale) SiO2 
 PCOD9354203
Probable space group: C C C 2
;
_chemical_formula_sum "Si O2"
_cell_formula_units_Z 64
_cell_length_a 10.897308
_cell_length_b 34.742577
_cell_length_c 7.812614
_cell_angle_alpha 90.000000
_cell_angle_beta 90.000000
_cell_angle_gamma 90.000000
_cell_volume 2957.860053
_symmetry_space_group_name_H-M "C C C 2"
_symmetry_group_IT_number 37
_symmetry_cell_setting 'orthorhombic'
loop_
_space_group_symop_operation_xyz
x,y,z
-x,-y,z
-x,y,1/2+z
x,-y,1/2+z
1/2+x,1/2+y,z
1/2-x,1/2-y,z
1/2-x,1/2+y,1/2+z
1/2+x,1/2-y,1/2+z
loop_
_atom_site_type_symbol
_atom_site_label
_atom_site_fract_x
_atom_site_fract_y
_atom_site_fract_z
Si Si1 0.698886 0.928921 0.431970
Si Si2 0.751833 0.446820 0.469187
Si Si3 0.476402 0.044705 0.733722
Si Si4 0.357682 0.721856 0.458870
Si Si5 0.865412 0.775060 0.547153
Si Si6 0.362229 0.484761 0.635367
Si Si7 0.639069 0.632972 0.935351
Si Si8 0.638365 0.362528 0.024528
O O1 0.608145 0.934878 0.594146
O O2 0.604821 0.935668 0.278109
O O3 0.810969 0.957804 0.481730
O O4 0.760071 0.887554 0.431888
O O5 0.888519 0.453770 0.401208
O O6 0.717412 0.476677 0.616457
O O7 0.665575 0.461264 0.308593
O O8 0.720197 0.402430 0.501761
O O9 0.500000 0.000000 0.695640
O O10 0.250000 0.750000 0.522454
O O11 0.493670 0.736357 0.509995
O O12 0.340262 0.676516 0.505496
O O13 0.354831 0.722570 0.252468
O O14 0.750000 0.750000 0.485219
O O15 0.854087 0.818033 0.474549
O O16 0.500000 0.500000 0.623088
O O17 0.497815 0.623547 0.977891
O O18 0.654982 0.634051 0.729493
#
# Coordination Sequence:
#
# PCOD9354203 Si02
#       8
#     8   8   8   8   8   8   8   8
#     4  11  23  40  55  80 111 154 194 243 289 353
#     4  11  23  37  56  81 111 154 193 244 292 351
#     4  11  22  39  57  73 109 153 194 236 288 345
#     4   9  19  37  65  90 120 160 196 239 299 366
#     4   9  19  37  61  91 123 157 192 242 297 360
#     4  11  22  37  56  82 110 145 196 253 296 347
#     4  10  20  40  61  85 121 152 192 246 303 346
#     4  10  20  40  61  85 119 151 192 243 303 348
#
# _framework density 21.637266
#
# number of rings (size 3 to 8) (size 9 to 14) (size 15 to 20)
#    0.000    1.750    3.750    1.500    1.750    0.500 
#    4.500    0.000    0.000    0.000    0.000    0.000 
#    0.000    0.000    0.000    0.000    0.000    0.000 
#
# Total GULP energy -178854.433594 kJ/mol
# GULP energy per Si atom -5589.201050 kJ/mol
# Density = 2.158802 g / cm^3
# Si number density = 21.637266 Si / 1000 Ang^3
#
#
#
# Elastic Constant Matrix: (Units=GPa)
#
#
# Indices 1 2 3 4 5 6 
#
# 1 158.7540 83.5458 -0.5051 0.0000 0.0000 0.0000
# 2 83.5458 109.3690 9.3715 0.0000 0.0000 0.0000
# 3 -0.5051 9.3715 43.3313 0.0000 0.0000 0.0000
# 4 0.0000 0.0000 0.0000 15.3395 0.0000 0.0000
# 5 0.0000 0.0000 0.0000 0.0000 27.5039 0.0000
# 6 0.0000 0.0000 0.0000 0.0000 0.0000 48.6603
#
#
#
# Elastic Compliance Matrix: (Units=1/GPa)
#
#
# Indices 1 2 3 4 5 6 
#
# 1 0.010689 -0.008330 0.001926 0.000000 0.000000 0.000000
# 2 -0.008330 0.015808 -0.003516 0.000000 0.000000 0.000000
# 3 0.001926 -0.003516 0.023861 0.000000 0.000000 0.000000
# 4 0.000000 0.000000 0.000000 0.065191 0.000000 0.000000
# 5 0.000000 0.000000 0.000000 0.000000 0.036359 0.000000
# 6 0.000000 0.000000 0.000000 0.000000 0.000000 0.020551
#
#
# Mechanical properties :
#
#
# Convention : Reuss Voigt Hill
#
# Bulk Modulus (GPa) = 32.76771 55.14209 43.95490
# Shear Modulus (GPa) = 24.69489 32.90356 28.79922
#
# Velocity S-wave (km/s) = 3.38200 3.90383 3.65225
# Velocity P-wave (km/s) = 5.51611 6.77200 6.17606
#
# Compressibility (1/GPa) = 0.03051785
#
# Stress axis : x y z
#
# Youngs Moduli (GPa) = 93.55318 63.25869 41.90963
#
# Poissons Ratio (x) = 0.52697 -0.08073
# Poissons Ratio (y) = 0.77933 0.14735
# Poissons Ratio (z) = -0.18021 0.22242
#
# Static dielectric constant tensor:
#      x y z
#    x 1.776580 0.000000 0.000000 
#    y 0.000000 1.786460 0.000000 
#    z 0.000000 0.000000 1.903090 
# 
# From -- ./inp_files/3116.got.cif
#   From: 2010.05.17/outbox.cif.g08.bks.cpg/sg37_2_cif.got.tgz:3116.got - 2010.06.03 17:53:42.
