data_PCOD9354151
_publ_section_title
;
Structure prediction by ZEFSAII (Michael W. Deem and Ramdas Pophale) SiO2 
 PCOD9354151
Probable space group: C C C 2
;
_chemical_formula_sum "Si O2"
_cell_formula_units_Z 32
_cell_length_a 9.252687
_cell_length_b 10.006546
_cell_length_c 14.693020
_cell_angle_alpha 90.000000
_cell_angle_beta 90.000000
_cell_angle_gamma 90.000000
_cell_volume 1360.389080
_symmetry_space_group_name_H-M "C C C 2"
_symmetry_group_IT_number 37
_symmetry_cell_setting 'orthorhombic'
loop_
_space_group_symop_operation_xyz
x,y,z
-x,-y,z
-x,y,1/2+z
x,-y,1/2+z
1/2+x,1/2+y,z
1/2-x,1/2-y,z
1/2-x,1/2+y,1/2+z
1/2+x,1/2-y,1/2+z
loop_
_atom_site_type_symbol
_atom_site_label
_atom_site_fract_x
_atom_site_fract_y
_atom_site_fract_z
Si Si1 0.328065 0.105219 0.081310
Si Si2 0.811279 0.099072 0.207536
Si Si3 0.917146 0.217087 0.036151
Si Si4 0.843215 0.112803 0.410842
O O1 0.250000 0.250000 0.098334
O O2 0.298082 0.008844 0.165449
O O3 0.490285 0.149303 0.057750
O O4 0.247147 0.044220 0.992319
O O5 0.750000 0.250000 0.214818
O O6 0.850241 0.056650 0.309488
O O7 0.927865 0.126991 0.127790
O O8 0.750000 0.250000 0.019576
O O9 0.000920 0.149548 0.952373
O O10 0.750000 0.250000 0.402884
#
# Coordination Sequence:
#
# PCOD9354151 Si02
#       4
#     8   8   8   8
#     4   9  20  40  63  89 127 173 211 260 331 398
#     4  10  20  38  66  94 125 170 222 270 319 389
#     4   9  19  37  65  96 128 164 218 277 332 389
#     4   8  18  39  62  84 125 175 212 260 329 399
#
# _framework density 23.522683000000001
#
# number of rings (size 3 to 8) (size 9 to 14) (size 15 to 20)
#    0.000    3.500    0.000    0.000    0.000    8.000 
#    0.000   21.250    0.000   54.000    0.000    0.000 
#    0.000    0.000    0.000    0.000    0.000    0.000 
#
# Total GULP energy -89288.111768 kJ/mol
# GULP energy per Si atom -5580.506986 kJ/mol
# Density = 2.346914 g / cm^3
# Si number density = 23.522683 Si / 1000 Ang^3
#
#
#
# Elastic Constant Matrix: (Units=GPa)
#
#
# Indices 1 2 3 4 5 6 
#
# 1 206.6196 51.5830 88.0036 0.0000 0.0000 0.0000
# 2 51.5830 121.1752 55.8014 0.0000 0.0000 0.0000
# 3 88.0036 55.8014 245.7576 0.0000 0.0000 0.0000
# 4 0.0000 0.0000 0.0000 19.7538 0.0000 0.0000
# 5 0.0000 0.0000 0.0000 0.0000 18.7487 0.0000
# 6 0.0000 0.0000 0.0000 0.0000 0.0000 32.7179
#
#
#
# Elastic Compliance Matrix: (Units=1/GPa)
#
#
# Indices 1 2 3 4 5 6 
#
# 1 0.006028 -0.001755 -0.001760 0.000000 0.000000 0.000000
# 2 -0.001755 0.009727 -0.001580 0.000000 0.000000 0.000000
# 3 -0.001760 -0.001580 0.005058 0.000000 0.000000 0.000000
# 4 0.000000 0.000000 0.000000 0.050623 0.000000 0.000000
# 5 0.000000 0.000000 0.000000 0.000000 0.053337 0.000000
# 6 0.000000 0.000000 0.000000 0.000000 0.000000 0.030564
#
#
# Mechanical properties :
#
#
# Convention : Reuss Voigt Hill
#
# Bulk Modulus (GPa) = 94.14193 107.14760 100.64477
# Shear Modulus (GPa) = 29.57366 39.45502 34.51434
#
# Velocity S-wave (km/s) = 3.54960 4.09995 3.83466
# Velocity P-wave (km/s) = 7.54376 8.25000 7.90477
#
# Compressibility (1/GPa) = 0.01062226
#
# Stress axis : x y z
#
# Youngs Moduli (GPa) = 165.90284 102.80204 197.70646
#
# Poissons Ratio (x) = 0.18047 0.34793
# Poissons Ratio (y) = 0.29124 0.31239
# Poissons Ratio (z) = 0.29196 0.16244
#
# Static dielectric constant tensor:
#      x y z
#    x 1.974200 0.000000 0.000000 
#    y 0.000000 2.026490 0.000000 
#    z 0.000000 0.000000 1.898260 
# 
# From -- ./inp_files/10100.got.cif
#   From: 2010.05.17/outbox.cif.g08.bks.cpg/sg37_6_cif.got.tgz:10100.got - 2010.06.03 17:53:42.
