data_PCOD9354947
_publ_section_title
;
Structure prediction by ZEFSAII (Michael W. Deem and Ramdas Pophale) SiO2 
 PCOD9354947
Probable space group: C C C 2
;
_chemical_formula_sum "Si O2"
_cell_formula_units_Z 52
_cell_length_a 17.631521
_cell_length_b 15.060056
_cell_length_c 8.798428
_cell_angle_alpha 90.000000
_cell_angle_beta 90.000000
_cell_angle_gamma 90.000000
_cell_volume 2336.261488
_symmetry_space_group_name_H-M "C C C 2"
_symmetry_group_IT_number 37
_symmetry_cell_setting 'orthorhombic'
loop_
_space_group_symop_operation_xyz
x,y,z
-x,-y,z
-x,y,1/2+z
x,-y,1/2+z
1/2+x,1/2+y,z
1/2-x,1/2-y,z
1/2-x,1/2+y,1/2+z
1/2+x,1/2-y,1/2+z
loop_
_atom_site_type_symbol
_atom_site_label
_atom_site_fract_x
_atom_site_fract_y
_atom_site_fract_z
Si Si1 0.356627 0.757014 0.588750
Si Si2 0.599266 0.052969 0.154773
Si Si3 0.750000 0.750000 0.354757
Si Si4 0.388990 0.559460 0.579788
Si Si5 0.037509 0.386148 0.987304
Si Si6 0.500000 0.500000 0.825040
Si Si7 0.750000 0.750000 0.839750
Si Si8 0.274027 0.605135 0.106061
O O1 0.319295 0.780529 0.747825
O O2 0.346557 0.651877 0.577545
O O3 0.439525 0.788902 0.545044
O O4 0.308102 0.798306 0.451361
O O5 0.551215 0.101942 0.021636
O O6 0.564721 0.084471 0.318298
O O7 0.688431 0.071718 0.140820
O O8 0.579913 0.951550 0.108825
O O9 0.726553 0.665647 0.455517
O O10 0.448849 0.560937 0.717618
O O11 0.440292 0.549668 0.430975
O O12 0.332562 0.475875 0.596393
O O13 0.708341 0.677684 0.736336
#
# Coordination Sequence:
#
# PCOD9354947 Si02
#       8
#     8   8   4   8   8   4   4   8
#     4  11  24  43  66 104 140 182 240 298 357 423
#     4  11  25  44  70  98 134 193 233 293 369 421
#     4  10  26  40  66 106 138 180 250 286 352 422
#     4  11  24  44  72  99 143 184 234 295 360 427
#     4  11  25  44  67  99 142 179 246 294 355 441
#     4  10  24  46  64 106 132 186 240 272 366 438
#     4  10  22  44  62 102 134 176 244 288 354 420
#     4  11  24  45  73  98 143 185 236 294 356 432
#
# _framework density 22.257783
#
# number of rings (size 3 to 8) (size 9 to 14) (size 15 to 20)
#    0.000    1.231    1.538    3.692    8.615    2.462 
#   11.077    0.000    0.000    0.000    0.000    0.000 
#    0.000    0.000    0.000    0.000    0.000    0.000 
#
# Total GULP energy -145180.485169 kJ/mol
# GULP energy per Si atom -5583.864814 kJ/mol
# Density = 2.220712 g / cm^3
# Si number density = 22.257783 Si / 1000 Ang^3
#
#
#
# Elastic Constant Matrix: (Units=GPa)
#
#
# Indices 1 2 3 4 5 6 
#
# 1 105.0908 21.9969 38.9901 0.0000 0.0000 0.0000
# 2 21.9969 85.4769 28.9762 0.0000 0.0000 0.0000
# 3 38.9901 28.9762 144.4027 0.0000 0.0000 0.0000
# 4 0.0000 0.0000 0.0000 11.2229 0.0000 0.0000
# 5 0.0000 0.0000 0.0000 0.0000 114.1980 0.0000
# 6 0.0000 0.0000 0.0000 0.0000 0.0000 35.4187
#
#
#
# Elastic Compliance Matrix: (Units=1/GPa)
#
#
# Indices 1 2 3 4 5 6 
#
# 1 0.010865 -0.001933 -0.002546 0.000000 0.000000 0.000000
# 2 -0.001933 0.012897 -0.002066 0.000000 0.000000 0.000000
# 3 -0.002546 -0.002066 0.008027 0.000000 0.000000 0.000000
# 4 0.000000 0.000000 0.000000 0.089103 0.000000 0.000000
# 5 0.000000 0.000000 0.000000 0.000000 0.008757 0.000000
# 6 0.000000 0.000000 0.000000 0.000000 0.000000 0.028234
#
#
# Mechanical properties :
#
#
# Convention : Reuss Voigt Hill
#
# Bulk Modulus (GPa) = 53.47816 57.21076 55.34446
# Shear Modulus (GPa) = 28.21597 48.50174 38.35885
#
# Velocity S-wave (km/s) = 3.56433 4.67314 4.15588
# Velocity P-wave (km/s) = 6.40454 7.40791 6.92442
#
# Compressibility (1/GPa) = 0.01869922
#
# Stress axis : x y z
#
# Youngs Moduli (GPa) = 92.04156 77.53825 124.57940
#
# Poissons Ratio (x) = 0.14988 0.31714
# Poissons Ratio (y) = 0.17791 0.25738
# Poissons Ratio (z) = 0.23431 0.16019
#
# Static dielectric constant tensor:
#      x y z
#    x 1.821110 0.000000 0.000000 
#    y 0.000000 1.862430 0.000000 
#    z 0.000000 0.000000 1.861080 
# 
# From -- ./inp_files/4075.got.cif
#   From: 2010.05.17/outbox.cif.g08.bks.cpg/sg37_3_cif.got.tgz:4075.got - 2010.06.03 17:53:42.
