data_PCOD9354325
_publ_section_title
;
Structure prediction by ZEFSAII (Michael W. Deem and Ramdas Pophale) SiO2 
 PCOD9354325
Probable space group: C C C 2
;
_chemical_formula_sum "Si O2"
_cell_formula_units_Z 24
_cell_length_a 8.208701
_cell_length_b 12.048786
_cell_length_c 8.975426
_cell_angle_alpha 90.000000
_cell_angle_beta 90.000000
_cell_angle_gamma 90.000000
_cell_volume 887.713447
_symmetry_space_group_name_H-M "C C C 2"
_symmetry_group_IT_number 37
_symmetry_cell_setting 'orthorhombic'
loop_
_space_group_symop_operation_xyz
x,y,z
-x,-y,z
-x,y,1/2+z
x,-y,1/2+z
1/2+x,1/2+y,z
1/2-x,1/2-y,z
1/2-x,1/2+y,1/2+z
1/2+x,1/2-y,1/2+z
loop_
_atom_site_type_symbol
_atom_site_label
_atom_site_fract_x
_atom_site_fract_y
_atom_site_fract_z
Si Si1 0.270989 0.440992 0.062880
Si Si2 0.913915 0.670238 0.562885
Si Si3 0.500001 0.335676 0.812884
O O1 0.214350 0.569187 0.062884
O O2 0.377762 0.405036 0.206210
O O3 0.098135 0.378920 0.062879
O O4 0.377760 0.405042 0.919545
O O5 0.910791 0.750628 0.422458
O O6 0.910794 0.750616 0.703323
#
# Coordination Sequence:
#
# PCOD9354325 Si02
#       3
#     8   8   8
#     4  10  23  45  80 121 159 212 266 327 403 478
#     4  10  23  47  82 114 160 212 262 329 406 475
#     4  10  20  45  84 119 156 206 268 328 396 478
#
# _framework density 27.035748999999999
#
# number of rings (size 3 to 8) (size 9 to 14) (size 15 to 20)
#    0.000    2.000    0.000    4.000    0.000    5.333 
#    0.000   40.000    0.000  124.000    0.000   14.000 
#    0.000    0.000    0.000    0.000    0.000    0.000 
#
# Total GULP energy -67373.979946 kJ/mol
# GULP energy per Si atom -5614.498329 kJ/mol
# Density = 2.697421 g / cm^3
# Si number density = 27.035749 Si / 1000 Ang^3
#
#
#
# Elastic Constant Matrix: (Units=GPa)
#
#
# Indices 1 2 3 4 5 6 
#
# 1 259.5655 185.0745 123.9212 0.0000 0.0000 0.0000
# 2 185.0745 265.2041 169.8080 0.0000 0.0000 0.0000
# 3 123.9212 169.8080 280.2473 0.0000 0.0000 0.0000
# 4 0.0000 0.0000 0.0000 182.2781 0.0000 0.0000
# 5 0.0000 0.0000 0.0000 0.0000 -11.5562 0.0000
# 6 0.0000 0.0000 0.0000 0.0000 0.0000 93.1884
#
#
#
# Elastic Compliance Matrix: (Units=1/GPa)
#
#
# Indices 1 2 3 4 5 6 
#
# 1 0.007678 -0.005203 -0.000243 0.000000 0.000000 0.000000
# 2 -0.005203 0.009687 -0.003569 0.000000 0.000000 0.000000
# 3 -0.000243 -0.003569 0.005838 0.000000 0.000000 0.000000
# 4 0.000000 0.000000 0.000000 0.005486 0.000000 0.000000
# 5 0.000000 0.000000 0.000000 0.000000 -0.086534 0.000000
# 6 0.000000 0.000000 0.000000 0.000000 0.000000 0.010731
#
#
# Mechanical properties :
#
#
# Convention : Reuss Voigt Hill
#
# Bulk Modulus (GPa) = 193.26454 195.84713 194.55584
# Shear Modulus (GPa) = -182.74080 74.52961 -54.10559
#
# Velocity S-wave (km/s) = -8.23037 5.25613 -4.47840
# Velocity P-wave (km/s) = 4.32189 10.46103 6.73626
#
# Compressibility (1/GPa) = 0.00517425
#
# Stress axis : x y z
#
# Youngs Moduli (GPa) = 130.23875 103.23585 171.29550
#
# Poissons Ratio (x) = 0.53713 0.04156
# Poissons Ratio (y) = 0.67763 0.61129
# Poissons Ratio (z) = 0.03160 0.36841
#
# Static dielectric constant tensor:
#      x y z
#    x 2.152130 0.000000 0.000000 
#    y 0.000000 2.097700 0.000000 
#    z 0.000000 0.000000 2.171150 
# 
# From -- ./inp_files/2514.got.cif
#   From: 2010.05.17/outbox.cif.g08.bks.cpg/sg37_2_cif.got.tgz:2514.got - 2010.06.03 17:53:42.
