data_PCOD9354839
_publ_section_title
;
Structure prediction by ZEFSAII (Michael W. Deem and Ramdas Pophale) SiO2 
 PCOD9354839
Probable space group: C C C 2
;
_chemical_formula_sum "Si O2"
_cell_formula_units_Z 56
_cell_length_a 10.423679
_cell_length_b 24.229616
_cell_length_c 8.934434
_cell_angle_alpha 90.000000
_cell_angle_beta 90.000000
_cell_angle_gamma 90.000000
_cell_volume 2256.496192
_symmetry_space_group_name_H-M "C C C 2"
_symmetry_group_IT_number 37
_symmetry_cell_setting 'orthorhombic'
loop_
_space_group_symop_operation_xyz
x,y,z
-x,-y,z
-x,y,1/2+z
x,-y,1/2+z
1/2+x,1/2+y,z
1/2-x,1/2-y,z
1/2-x,1/2+y,1/2+z
1/2+x,1/2-y,1/2+z
loop_
_atom_site_type_symbol
_atom_site_label
_atom_site_fract_x
_atom_site_fract_y
_atom_site_fract_z
Si Si1 0.916295 0.363384 0.625000
Si Si2 0.051523 0.294394 0.389531
Si Si3 0.218144 0.663264 0.341693
Si Si4 0.459852 0.598911 0.719900
Si Si5 0.515143 0.321351 0.465872
Si Si6 0.196530 0.455127 0.293793
Si Si7 0.232786 0.062559 0.639986
O O1 0.869303 0.318262 0.749358
O O2 0.818812 0.372584 0.488750
O O3 0.919823 0.418632 0.724501
O O4 0.033343 0.336514 0.529095
O O5 0.906495 0.299577 0.323605
O O6 0.073255 0.232248 0.444394
O O7 0.347852 0.691793 0.392504
O O8 0.240867 0.623493 0.203527
O O9 0.464792 0.657708 0.633287
O O10 0.473155 0.621608 0.888199
O O11 0.325111 0.568658 0.714424
O O12 0.578642 0.560644 0.670127
O O13 0.219092 0.447124 0.470941
O O14 0.195905 0.518261 0.244696
#
# Coordination Sequence:
#
# PCOD9354839 Si02
#       7
#     8   8   8   8   8   8   8
#     4  10  23  40  68  90 131 168 223 271 315 394
#     4  10  22  41  65  92 127 176 213 270 318 379
#     4   9  22  40  65  91 128 170 212 273 315 389
#     4  11  22  38  64 100 134 169 212 264 318 409
#     4  11  20  40  62  98 134 171 213 256 327 384
#     4  12  24  42  66  95 130 173 215 271 338 390
#     4  11  25  40  67  92 132 169 216 274 330 402
#
# _framework density 24.817236000000001
#
# number of rings (size 3 to 8) (size 9 to 14) (size 15 to 20)
#    0.857    0.571    2.857    2.571    4.000    1.143 
#    0.000    0.714    3.143    0.000    0.000    0.000 
#    0.000    0.000    0.000    0.000    0.000    0.000 
#
# Total GULP energy -156084.124596 kJ/mol
# GULP energy per Si atom -5574.433021 kJ/mol
# Density = 2.476075 g / cm^3
# Si number density = 24.817236 Si / 1000 Ang^3
#
#
#
# Elastic Constant Matrix: (Units=GPa)
#
#
# Indices 1 2 3 4 5 6 
#
# 1 29.4819 15.6825 24.5117 0.0000 0.0000 0.0000
# 2 15.6825 69.0993 28.1040 0.0000 0.0000 0.0000
# 3 24.5117 28.1040 132.5713 0.0000 0.0000 0.0000
# 4 0.0000 0.0000 0.0000 17.3282 0.0000 0.0000
# 5 0.0000 0.0000 0.0000 0.0000 16.0795 0.0000
# 6 0.0000 0.0000 0.0000 0.0000 0.0000 21.2288
#
#
#
# Elastic Compliance Matrix: (Units=1/GPa)
#
#
# Indices 1 2 3 4 5 6 
#
# 1 0.043088 -0.007156 -0.006450 0.000000 0.000000 0.000000
# 2 -0.007156 0.017026 -0.002286 0.000000 0.000000 0.000000
# 3 -0.006450 -0.002286 0.009220 0.000000 0.000000 0.000000
# 4 0.000000 0.000000 0.000000 0.057709 0.000000 0.000000
# 5 0.000000 0.000000 0.000000 0.000000 0.062191 0.000000
# 6 0.000000 0.000000 0.000000 0.000000 0.000000 0.047106
#
#
# Mechanical properties :
#
#
# Convention : Reuss Voigt Hill
#
# Bulk Modulus (GPa) = 26.63087 40.86099 33.74593
# Shear Modulus (GPa) = 17.81638 21.78426 19.80032
#
# Velocity S-wave (km/s) = 2.68228 2.96596 2.82768
# Velocity P-wave (km/s) = 4.51076 5.31317 4.92832
#
# Compressibility (1/GPa) = 0.03755041
#
# Stress axis : x y z
#
# Youngs Moduli (GPa) = 23.20837 58.73419 108.45638
#
# Poissons Ratio (x) = 0.42029 0.69951
# Poissons Ratio (y) = 0.16608 0.24796
# Poissons Ratio (z) = 0.14969 0.13428
#
# Static dielectric constant tensor:
#      x y z
#    x 2.064120 0.000000 0.000000 
#    y 0.000000 1.944640 0.000000 
#    z 0.000000 0.000000 1.953900 
# 
# From -- ./inp_files/3663.got.cif
#   From: 2010.05.17/outbox.cif.g08.bks.cpg/sg37_2_cif.got.tgz:3663.got - 2010.06.03 17:53:42.
