data_PCOD9354281
_publ_section_title
;
Structure prediction by ZEFSAII (Michael W. Deem and Ramdas Pophale) SiO2 
 PCOD9354281
Probable space group: C C C 2
;
_chemical_formula_sum "Si O2"
_cell_formula_units_Z 28
_cell_length_a 7.755766
_cell_length_b 12.373091
_cell_length_c 13.288747
_cell_angle_alpha 90.000000
_cell_angle_beta 90.000000
_cell_angle_gamma 90.000000
_cell_volume 1275.225351
_symmetry_space_group_name_H-M "C C C 2"
_symmetry_group_IT_number 37
_symmetry_cell_setting 'orthorhombic'
loop_
_space_group_symop_operation_xyz
x,y,z
-x,-y,z
-x,y,1/2+z
x,-y,1/2+z
1/2+x,1/2+y,z
1/2-x,1/2-y,z
1/2-x,1/2+y,1/2+z
1/2+x,1/2-y,1/2+z
loop_
_atom_site_type_symbol
_atom_site_label
_atom_site_fract_x
_atom_site_fract_y
_atom_site_fract_z
Si Si1 0.614533 0.664463 0.479530
Si Si2 0.000000 0.500000 0.191564
Si Si3 0.242895 0.065190 0.019818
Si Si4 0.920361 0.690696 0.841342
O O1 0.750000 0.750000 0.527086
O O2 0.433848 0.633565 0.534955
O O3 0.699547 0.547827 0.464676
O O4 0.557223 0.719984 0.375349
O O5 0.160693 0.470999 0.120009
O O6 0.025528 0.602811 0.261998
O O7 0.366298 0.132406 0.946270
O O8 0.750000 0.750000 0.803322
#
# Coordination Sequence:
#
# PCOD9354281 Si02
#       4
#     8   4   8   8
#     4  10  20  42  67  88 127 176 217 266 331 399
#     4  12  22  40  68 100 134 170 224 284 334 402
#     4  10  23  41  64  95 133 173 216 274 338 399
#     4  10  23  43  66  95 129 168 216 272 334 398
#
# _framework density 21.956904000000002
#
# number of rings (size 3 to 8) (size 9 to 14) (size 15 to 20)
#    0.000    1.714    0.000    4.286    0.000    3.429 
#    0.000   44.286    0.000    0.000    0.000    0.000 
#    0.000    0.000    0.000    0.000    0.000    0.000 
#
# Total GULP energy -78239.839409 kJ/mol
# GULP energy per Si atom -5588.559958 kJ/mol
# Density = 2.190693 g / cm^3
# Si number density = 21.956904 Si / 1000 Ang^3
#
#
#
# Elastic Constant Matrix: (Units=GPa)
#
#
# Indices 1 2 3 4 5 6 
#
# 1 117.3971 65.9477 39.1715 0.0000 0.0000 0.0000
# 2 65.9477 172.0228 62.4025 0.0000 0.0000 0.0000
# 3 39.1715 62.4025 76.8440 0.0000 0.0000 0.0000
# 4 0.0000 0.0000 0.0000 -47.0443 0.0000 0.0000
# 5 0.0000 0.0000 0.0000 0.0000 13.5410 0.0000
# 6 0.0000 0.0000 0.0000 0.0000 0.0000 55.1826
#
#
#
# Elastic Compliance Matrix: (Units=1/GPa)
#
#
# Indices 1 2 3 4 5 6 
#
# 1 0.011386 -0.003203 -0.003203 0.000000 0.000000 0.000000
# 2 -0.003203 0.009142 -0.005791 0.000000 0.000000 0.000000
# 3 -0.003203 -0.005791 0.019349 0.000000 0.000000 0.000000
# 4 0.000000 0.000000 0.000000 -0.021257 0.000000 0.000000
# 5 0.000000 0.000000 0.000000 0.000000 0.073850 0.000000
# 6 0.000000 0.000000 0.000000 0.000000 0.000000 0.018122
#
#
# Mechanical properties :
#
#
# Convention : Reuss Voigt Hill
#
# Bulk Modulus (GPa) = 64.58864 77.92303 71.25583
# Shear Modulus (GPa) = 35.67680 17.58534 26.63107
#
# Velocity S-wave (km/s) = 4.03532 2.83309 3.48642
# Velocity P-wave (km/s) = 7.15484 6.80206 6.98068
#
# Compressibility (1/GPa) = 0.01548260
#
# Stress axis : x y z
#
# Youngs Moduli (GPa) = 87.82556 109.38641 51.68280
#
# Poissons Ratio (x) = 0.35039 0.16554
# Poissons Ratio (y) = 0.28132 0.29930
# Poissons Ratio (z) = 0.28130 0.63346
#
# Static dielectric constant tensor:
#      x y z
#    x 1.865790 0.000000 0.000000 
#    y 0.000000 1.784470 0.000000 
#    z 0.000000 0.000000 1.748920 
# 
# From -- ./inp_files/7517.got.cif
#   From: 2010.05.17/outbox.cif.g08.bks.cpg/sg37_4_cif.got.tgz:7517.got - 2010.06.03 17:53:42.
