data_PCOD9354497
_publ_section_title
;
Structure prediction by ZEFSAII (Michael W. Deem and Ramdas Pophale) SiO2 
 PCOD9354497
Probable space group: C C C 2
;
_chemical_formula_sum "Si O2"
_cell_formula_units_Z 40
_cell_length_a 15.774659
_cell_length_b 8.370089
_cell_length_c 15.324219
_cell_angle_alpha 90.000000
_cell_angle_beta 90.000000
_cell_angle_gamma 90.000000
_cell_volume 2023.337849
_symmetry_space_group_name_H-M "C C C 2"
_symmetry_group_IT_number 37
_symmetry_cell_setting 'orthorhombic'
loop_
_space_group_symop_operation_xyz
x,y,z
-x,-y,z
-x,y,1/2+z
x,-y,1/2+z
1/2+x,1/2+y,z
1/2-x,1/2-y,z
1/2-x,1/2+y,1/2+z
1/2+x,1/2-y,1/2+z
loop_
_atom_site_type_symbol
_atom_site_label
_atom_site_fract_x
_atom_site_fract_y
_atom_site_fract_z
Si Si1 0.645617 0.507584 0.075040
Si Si2 0.172795 0.127665 0.263257
Si Si3 0.568250 0.891631 0.349413
Si Si4 0.259022 0.940996 0.415767
Si Si5 0.501205 0.328851 0.992905
O O1 0.662559 0.526061 0.176262
O O2 0.582258 0.360303 0.054942
O O3 0.587180 0.659950 0.044436
O O4 0.726647 0.504439 0.011592
O O5 0.250000 0.250000 0.248053
O O6 0.097064 0.244487 0.289966
O O7 0.194657 0.019402 0.346356
O O8 0.518047 0.816809 0.431277
O O9 0.500000 0.000000 0.301080
O O10 0.650145 0.987814 0.385827
O O11 0.250000 0.750000 0.411254
O O12 0.500000 0.500000 0.941212
#
# Coordination Sequence:
#
# PCOD9354497 Si02
#       5
#     8   8   8   8   8
#     4   9  19  40  63  87 121 161 201 250 312 358
#     4  10  21  40  61  86 126 160 206 256 306 366
#     4  11  22  39  64  92 125 162 207 256 308 367
#     4  11  22  40  62  91 122 165 206 249 308 367
#     4   8  19  39  59  91 116 159 202 245 311 355
#
# _framework density 19.769314000000001
#
# number of rings (size 3 to 8) (size 9 to 14) (size 15 to 20)
#    1.200    0.800    2.000    1.800    0.000    0.000 
#   21.600    5.000    0.000    0.000    0.000    0.000 
#    0.000    0.000    0.000    0.000    0.000    0.000 
#
# Total GULP energy -111370.422504 kJ/mol
# GULP energy per Si atom -5568.521125 kJ/mol
# Density = 1.972432 g / cm^3
# Si number density = 19.769314 Si / 1000 Ang^3
#
#
#
# Elastic Constant Matrix: (Units=GPa)
#
#
# Indices 1 2 3 4 5 6 
#
# 1 62.1352 6.4878 19.8116 0.0000 0.0000 0.0000
# 2 6.4878 45.9044 11.4185 0.0000 0.0000 0.0000
# 3 19.8116 11.4185 85.2744 0.0000 0.0000 0.0000
# 4 0.0000 0.0000 0.0000 24.6608 0.0000 0.0000
# 5 0.0000 0.0000 0.0000 0.0000 -10.8390 0.0000
# 6 0.0000 0.0000 0.0000 0.0000 0.0000 27.1950
#
#
#
# Elastic Compliance Matrix: (Units=1/GPa)
#
#
# Indices 1 2 3 4 5 6 
#
# 1 0.017482 -0.001511 -0.003859 0.000000 0.000000 0.000000
# 2 -0.001511 0.022666 -0.002684 0.000000 0.000000 0.000000
# 3 -0.003859 -0.002684 0.012983 0.000000 0.000000 0.000000
# 4 0.000000 0.000000 0.000000 0.040550 0.000000 0.000000
# 5 0.000000 0.000000 0.000000 0.000000 -0.092259 0.000000
# 6 0.000000 0.000000 0.000000 0.000000 0.000000 0.036771
#
#
# Mechanical properties :
#
#
# Convention : Reuss Voigt Hill
#
# Bulk Modulus (GPa) = 27.01065 29.86108 28.43586
# Shear Modulus (GPa) = 75.02755 18.57643 46.80199
#
# Velocity S-wave (km/s) = 6.16716 3.06871 4.87088
# Velocity P-wave (km/s) = 8.02524 5.26247 6.78594
#
# Compressibility (1/GPa) = 0.03702243
#
# Stress axis : x y z
#
# Youngs Moduli (GPa) = 57.20099 44.11983 77.02460
#
# Poissons Ratio (x) = 0.06666 0.29726
# Poissons Ratio (y) = 0.08642 0.20673
# Poissons Ratio (z) = 0.22076 0.11842
#
# Static dielectric constant tensor:
#      x y z
#    x 1.766900 0.000000 0.000000 
#    y 0.000000 1.683650 0.000000 
#    z 0.000000 0.000000 1.668860 
# 
# From -- ./inp_files/10340.got.cif
#   From: 2010.05.17/outbox.cif.g08.bks.cpg/sg37_6_cif.got.tgz:10340.got - 2010.06.03 17:53:42.
