data_PCOD9354967
_publ_section_title
;
Structure prediction by ZEFSAII (Michael W. Deem and Ramdas Pophale) SiO2 
 PCOD9354967
Probable space group: C C C 2
;
_chemical_formula_sum "Si O2"
_cell_formula_units_Z 36
_cell_length_a 7.497463
_cell_length_b 21.951643
_cell_length_c 9.485461
_cell_angle_alpha 90.000000
_cell_angle_beta 90.000000
_cell_angle_gamma 90.000000
_cell_volume 1561.132644
_symmetry_space_group_name_H-M "C C C 2"
_symmetry_group_IT_number 37
_symmetry_cell_setting 'orthorhombic'
loop_
_space_group_symop_operation_xyz
x,y,z
-x,-y,z
-x,y,1/2+z
x,-y,1/2+z
1/2+x,1/2+y,z
1/2-x,1/2-y,z
1/2-x,1/2+y,1/2+z
1/2+x,1/2-y,1/2+z
loop_
_atom_site_type_symbol
_atom_site_label
_atom_site_fract_x
_atom_site_fract_y
_atom_site_fract_z
Si Si1 0.408753 0.794041 0.419490
Si Si2 0.062169 0.930417 0.999390
Si Si3 0.779069 0.113082 0.706837
Si Si4 0.094569 0.379019 0.653067
Si Si5 0.750000 0.750000 0.299309
O O1 0.250000 0.750000 0.465007
O O2 0.508855 0.840687 0.523739
O O3 0.354042 0.832699 0.279864
O O4 0.568603 0.747731 0.385351
O O5 0.235872 0.915565 0.095614
O O6 0.894763 0.895374 0.067084
O O7 0.113181 0.911494 0.841123
O O8 0.000000 0.000000 0.003593
O O9 0.580989 0.083755 0.702975
O O10 0.744285 0.184780 0.726033
#
# Coordination Sequence:
#
# PCOD9354967 Si02
#       5
#     8   8   8   8   4
#     4  11  25  40  71 109 159 202 242 311 384 465
#     4  12  27  52  78 108 149 208 264 317 379 464
#     4  11  27  46  75 116 151 203 254 315 396 454
#     4  11  25  47  68 115 151 200 262 312 388 454
#     4  10  22  44  70 112 160 192 240 314 380 464
#
# _framework density 23.060179000000002
#
# number of rings (size 3 to 8) (size 9 to 14) (size 15 to 20)
#    0.000    0.889    4.444    2.000   14.000    0.889 
#    0.000    2.222    0.000    0.000    0.000    0.000 
#    0.000    0.000    0.000    0.000    0.000    0.000 
#
# Total GULP energy -100590.864525 kJ/mol
# GULP energy per Si atom -5588.381363 kJ/mol
# Density = 2.300769 g / cm^3
# Si number density = 23.060179 Si / 1000 Ang^3
#
#
#
# Elastic Constant Matrix: (Units=GPa)
#
#
# Indices 1 2 3 4 5 6 
#
# 1 135.3588 55.0301 9.9812 0.0000 0.0000 0.0000
# 2 55.0301 95.2428 26.3725 0.0000 0.0000 0.0000
# 3 9.9812 26.3725 79.2479 0.0000 0.0000 0.0000
# 4 0.0000 0.0000 0.0000 14.0332 0.0000 0.0000
# 5 0.0000 0.0000 0.0000 0.0000 57.9055 0.0000
# 6 0.0000 0.0000 0.0000 0.0000 0.0000 39.1637
#
#
#
# Elastic Compliance Matrix: (Units=1/GPa)
#
#
# Indices 1 2 3 4 5 6 
#
# 1 0.009692 -0.005796 0.000708 0.000000 0.000000 0.000000
# 2 -0.005796 0.015031 -0.004272 0.000000 0.000000 0.000000
# 3 0.000708 -0.004272 0.013951 0.000000 0.000000 0.000000
# 4 0.000000 0.000000 0.000000 0.071260 0.000000 0.000000
# 5 0.000000 0.000000 0.000000 0.000000 0.017270 0.000000
# 6 0.000000 0.000000 0.000000 0.000000 0.000000 0.025534
#
#
# Mechanical properties :
#
#
# Convention : Reuss Voigt Hill
#
# Bulk Modulus (GPa) = 50.11446 54.73521 52.42484
# Shear Modulus (GPa) = 28.07274 36.78486 32.42880
#
# Velocity S-wave (km/s) = 3.49287 3.99829 3.75409
# Velocity P-wave (km/s) = 6.16815 6.71583 6.44781
#
# Compressibility (1/GPa) = 0.01995432
#
# Stress axis : x y z
#
# Youngs Moduli (GPa) = 103.17906 66.52811 71.67867
#
# Poissons Ratio (x) = 0.38559 -0.05076
# Poissons Ratio (y) = 0.59802 0.30622
# Poissons Ratio (z) = -0.07306 0.28422
#
# Static dielectric constant tensor:
#      x y z
#    x 1.892350 0.000000 0.000000 
#    y 0.000000 1.954140 0.000000 
#    z 0.000000 0.000000 1.977240 
# 
# From -- ./inp_files/2122.got.cif
#   From: 2010.05.17/outbox.cif.g08.bks.cpg/sg37_2_cif.got.tgz:2122.got - 2010.06.03 17:53:42.
