data_PCOD9354350
_publ_section_title
;
Structure prediction by ZEFSAII (Michael W. Deem and Ramdas Pophale) SiO2 
 PCOD9354350
Probable space group: C C C 2
;
_chemical_formula_sum "Si O2"
_cell_formula_units_Z 56
_cell_length_a 13.004205
_cell_length_b 13.902055
_cell_length_c 15.613037
_cell_angle_alpha 90.000000
_cell_angle_beta 90.000000
_cell_angle_gamma 90.000000
_cell_volume 2822.605597
_symmetry_space_group_name_H-M "C C C 2"
_symmetry_group_IT_number 37
_symmetry_cell_setting 'orthorhombic'
loop_
_space_group_symop_operation_xyz
x,y,z
-x,-y,z
-x,y,1/2+z
x,-y,1/2+z
1/2+x,1/2+y,z
1/2-x,1/2-y,z
1/2-x,1/2+y,1/2+z
1/2+x,1/2-y,1/2+z
loop_
_atom_site_type_symbol
_atom_site_label
_atom_site_fract_x
_atom_site_fract_y
_atom_site_fract_z
Si Si1 0.371962 0.229038 0.740410
Si Si2 0.315556 0.974906 0.204673
Si Si3 0.830181 0.167926 0.975905
Si Si4 0.091963 0.922602 0.148246
Si Si5 0.163355 0.546130 0.893241
Si Si6 0.488742 0.201587 0.918190
Si Si7 0.903259 0.572129 0.048487
O O1 0.250000 0.250000 0.746974
O O2 0.373665 0.127512 0.688561
O O3 0.426810 0.317846 0.692097
O O4 0.418010 0.218982 0.835874
O O5 0.193884 0.962483 0.194225
O O6 0.337768 0.996720 0.302549
O O7 0.351326 0.058320 0.140193
O O8 0.750000 0.250000 0.010764
O O9 0.761837 0.113379 0.906189
O O10 0.930110 0.214583 0.934286
O O11 0.869211 0.101239 0.052450
O O12 0.000000 0.000000 0.151333
O O13 0.060277 0.609128 0.899427
O O14 0.165904 0.473849 0.973110
O O15 0.433766 0.174437 0.008134
O O16 0.000000 0.500000 0.053717
#
# Coordination Sequence:
#
# PCOD9354350 Si02
#       7
#     8   8   8   8   8   8   8
#     4  10  23  41  63  89 128 169 215 264 328 393
#     4  11  22  40  67  93 128 171 214 276 325 385
#     4  10  21  43  67  90 130 175 214 265 330 399
#     4  11  25  43  62  92 124 173 226 263 327 405
#     4  10  21  38  65  95 128 163 217 264 325 384
#     4  10  22  39  62  99 130 163 214 267 325 393
#     4  10  21  35  64 100 127 159 211 268 317 380
#
# _framework density 19.839825000000001
#
# number of rings (size 3 to 8) (size 9 to 14) (size 15 to 20)
#    0.000    1.714    2.857    1.286    8.000    0.000 
#    7.714    0.000    0.000    0.000    0.000    0.000 
#    0.000    0.000    0.000    0.000    0.000    0.000 
#
# Total GULP energy -156224.814754 kJ/mol
# GULP energy per Si atom -5579.457670 kJ/mol
# Density = 1.979467 g / cm^3
# Si number density = 19.839825 Si / 1000 Ang^3
#
#
#
# Elastic Constant Matrix: (Units=GPa)
#
#
# Indices 1 2 3 4 5 6 
#
# 1 59.6726 41.5165 32.1417 0.0000 0.0000 0.0000
# 2 41.5165 72.0855 29.1264 0.0000 0.0000 0.0000
# 3 32.1417 29.1264 80.8473 0.0000 0.0000 0.0000
# 4 0.0000 0.0000 0.0000 -27.5433 0.0000 0.0000
# 5 0.0000 0.0000 0.0000 0.0000 19.9865 0.0000
# 6 0.0000 0.0000 0.0000 0.0000 0.0000 33.9269
#
#
#
# Elastic Compliance Matrix: (Units=1/GPa)
#
#
# Indices 1 2 3 4 5 6 
#
# 1 0.030918 -0.015028 -0.006878 0.000000 0.000000 0.000000
# 2 -0.015028 0.023540 -0.002506 0.000000 0.000000 0.000000
# 3 -0.006878 -0.002506 0.016006 0.000000 0.000000 0.000000
# 4 0.000000 0.000000 0.000000 -0.036307 0.000000 0.000000
# 5 0.000000 0.000000 0.000000 0.000000 0.050034 0.000000
# 6 0.000000 0.000000 0.000000 0.000000 0.000000 0.029475
#
#
# Mechanical properties :
#
#
# Convention : Reuss Voigt Hill
#
# Bulk Modulus (GPa) = 46.20902 46.46383 46.33643
# Shear Modulus (GPa) = 29.46302 12.59541 21.02922
#
# Velocity S-wave (km/s) = 3.85781 2.52237 3.25922
# Velocity P-wave (km/s) = 6.57154 5.65274 6.12938
#
# Compressibility (1/GPa) = 0.02164080
#
# Stress axis : x y z
#
# Youngs Moduli (GPa) = 32.34341 42.48072 62.47556
#
# Poissons Ratio (x) = 0.63839 0.42970
# Poissons Ratio (y) = 0.48605 0.15658
# Poissons Ratio (z) = 0.22245 0.10646
#
# Static dielectric constant tensor:
#      x y z
#    x 1.698730 0.000000 0.000000 
#    y 0.000000 1.771610 0.000000 
#    z 0.000000 0.000000 1.716530 
# 
# From -- ./inp_files/11571.got.cif
#   From: 2010.05.17/outbox.cif.g08.bks.cpg/sg37_6_cif.got.tgz:11571.got - 2010.06.03 17:53:42.
