data_PCOD9354044
_publ_section_title
;
Structure prediction by ZEFSAII (Michael W. Deem and Ramdas Pophale) SiO2 
 PCOD9354044
Probable space group: C C C 2
;
_chemical_formula_sum "Si O2"
_cell_formula_units_Z 60
_cell_length_a 5.236269
_cell_length_b 21.382974
_cell_length_c 20.252573
_cell_angle_alpha 90.000000
_cell_angle_beta 90.000000
_cell_angle_gamma 90.000000
_cell_volume 2267.619920
_symmetry_space_group_name_H-M "C C C 2"
_symmetry_group_IT_number 37
_symmetry_cell_setting 'orthorhombic'
loop_
_space_group_symop_operation_xyz
x,y,z
-x,-y,z
-x,y,1/2+z
x,-y,1/2+z
1/2+x,1/2+y,z
1/2-x,1/2-y,z
1/2-x,1/2+y,1/2+z
1/2+x,1/2-y,1/2+z
loop_
_atom_site_type_symbol
_atom_site_label
_atom_site_fract_x
_atom_site_fract_y
_atom_site_fract_z
Si Si1 0.304314 0.652327 0.813500
Si Si2 0.064371 0.642145 0.585790
Si Si3 0.047400 0.429456 0.880822
Si Si4 0.393058 0.314132 0.924870
Si Si5 0.406837 0.433152 0.587838
Si Si6 0.001746 0.710077 0.711008
Si Si7 0.352744 0.561871 0.244182
Si Si8 0.250000 0.250000 0.520343
O O1 0.492323 0.695777 0.852592
O O2 0.462038 0.620621 0.755411
O O3 0.225198 0.602717 0.869044
O O4 0.061511 0.685632 0.783632
O O5 0.857262 0.592937 0.558280
O O6 0.003102 0.651009 0.663302
O O7 0.968177 0.710792 0.560118
O O8 0.353955 0.615907 0.581082
O O9 0.224042 0.378290 0.920235
O O10 0.146074 0.433771 0.803538
O O11 0.000000 0.500000 0.905809
O O12 0.250000 0.250000 0.939525
O O13 0.622149 0.304603 0.976600
O O14 0.500000 0.500000 0.561037
O O15 0.329942 0.445250 0.665280
O O16 0.750000 0.750000 0.704502
O O17 0.250000 0.750000 0.692436
O O18 0.500000 0.500000 0.265392
#
# Coordination Sequence:
#
# PCOD9354044 Si02
#       8
#     8   8   8   8   8   8   8   4
#     4  11  24  41  66 107 157 198 251 311 398 487
#     4  12  26  48  77 113 152 205 270 339 398 484
#     4  11  23  41  74 108 162 206 261 320 395 492
#     4  11  28  49  75 111 148 211 275 341 411 482
#     4  11  25  45  77 114 160 205 259 320 401 493
#     4  12  27  41  66 111 162 209 254 323 405 480
#     4  10  20  36  65 107 157 206 244 294 388 490
#     4  12  30  50  84 104 148 210 286 352 422 476
#
# _framework density 26.459458000000001
#
# number of rings (size 3 to 8) (size 9 to 14) (size 15 to 20)
#    0.000    0.800    3.333    2.800    8.400    0.000 
#    0.000    0.000    5.867    0.000    0.000    0.000 
#    0.000    0.000    0.000    0.000    0.000    0.000 
#
# Total GULP energy -167587.343643 kJ/mol
# GULP energy per Si atom -5586.244788 kJ/mol
# Density = 2.639924 g / cm^3
# Si number density = 26.459458 Si / 1000 Ang^3
#
#
#
# Elastic Constant Matrix: (Units=GPa)
#
#
# Indices 1 2 3 4 5 6 
#
# 1 105.9299 41.4051 4.3307 0.0000 0.0000 0.0000
# 2 41.4051 129.1479 30.4414 0.0000 0.0000 0.0000
# 3 4.3307 30.4414 47.0894 0.0000 0.0000 0.0000
# 4 0.0000 0.0000 0.0000 12.7674 0.0000 0.0000
# 5 0.0000 0.0000 0.0000 0.0000 27.2658 0.0000
# 6 0.0000 0.0000 0.0000 0.0000 0.0000 58.0012
#
#
#
# Elastic Compliance Matrix: (Units=1/GPa)
#
#
# Indices 1 2 3 4 5 6 
#
# 1 0.010879 -0.003837 0.001480 0.000000 0.000000 0.000000
# 2 -0.003837 0.010488 -0.006427 0.000000 0.000000 0.000000
# 3 0.001480 -0.006427 0.025255 0.000000 0.000000 0.000000
# 4 0.000000 0.000000 0.000000 0.078324 0.000000 0.000000
# 5 0.000000 0.000000 0.000000 0.000000 0.036676 0.000000
# 6 0.000000 0.000000 0.000000 0.000000 0.000000 0.017241
#
#
# Mechanical properties :
#
#
# Convention : Reuss Voigt Hill
#
# Bulk Modulus (GPa) = 34.41859 48.28016 41.34938
# Shear Modulus (GPa) = 24.25803 33.33954 28.79879
#
# Velocity S-wave (km/s) = 3.03116 3.55353 3.30269
# Velocity P-wave (km/s) = 5.02860 5.92649 5.49591
#
# Compressibility (1/GPa) = 0.02905406
#
# Stress axis : x y z
#
# Youngs Moduli (GPa) = 91.91688 95.34602 39.59592
#
# Poissons Ratio (x) = 0.36582 -0.05859
# Poissons Ratio (y) = 0.35266 0.25449
# Poissons Ratio (z) = -0.13602 0.61282
#
# Static dielectric constant tensor:
#      x y z
#    x 2.263920 0.000000 0.000000 
#    y 0.000000 2.146750 0.000000 
#    z 0.000000 0.000000 2.082670 
# 
# From -- ./inp_files/18100.got.cif
#   From: 2010.05.17/outbox.cif.g08.bks.cpg/sg37_10_cif.got.tgz:18100.got - 2010.06.03 17:53:42.
