data_PCOD9354179
_publ_section_title
;
Structure prediction by ZEFSAII (Michael W. Deem and Ramdas Pophale) SiO2 
 PCOD9354179
Probable space group: C C C 2
;
_chemical_formula_sum "Si O2"
_cell_formula_units_Z 60
_cell_length_a 13.474209
_cell_length_b 7.712947
_cell_length_c 27.169665
_cell_angle_alpha 90.000000
_cell_angle_beta 90.000000
_cell_angle_gamma 90.000000
_cell_volume 2823.630798
_symmetry_space_group_name_H-M "C C C 2"
_symmetry_group_IT_number 37
_symmetry_cell_setting 'orthorhombic'
loop_
_space_group_symop_operation_xyz
x,y,z
-x,-y,z
-x,y,1/2+z
x,-y,1/2+z
1/2+x,1/2+y,z
1/2-x,1/2-y,z
1/2-x,1/2+y,1/2+z
1/2+x,1/2-y,1/2+z
loop_
_atom_site_type_symbol
_atom_site_label
_atom_site_fract_x
_atom_site_fract_y
_atom_site_fract_z
Si Si1 0.670755 0.406711 0.524940
Si Si2 0.334126 0.628478 0.118881
Si Si3 0.365400 0.276248 0.171108
Si Si4 0.250000 0.250000 0.352083
Si Si5 0.423182 0.722160 0.780041
Si Si6 0.523019 0.181175 0.579339
Si Si7 0.134782 0.170417 0.812219
Si Si8 0.683975 0.577865 0.914356
O O1 0.750000 0.250000 0.525915
O O2 0.702186 0.541025 0.567471
O O3 0.568994 0.320675 0.543085
O O4 0.656296 0.474435 0.469711
O O5 0.250000 0.750000 0.141497
O O6 0.374103 0.475419 0.153417
O O7 0.425241 0.745597 0.103665
O O8 0.250000 0.250000 0.178271
O O9 0.414826 0.237232 0.222648
O O10 0.401883 0.161919 0.125235
O O11 0.342016 0.196443 0.316800
O O12 0.267995 0.413813 0.387219
O O13 0.536539 0.768574 0.793817
O O14 0.385441 0.518542 0.786621
O O15 0.500000 0.000000 0.554244
O O16 0.250000 0.250000 0.806690
O O17 0.112110 0.140189 0.870461
O O18 0.750000 0.750000 0.921012
#
# Coordination Sequence:
#
# PCOD9354179 Si02
#       8
#     8   8   8   4   8   8   8   8
#     4  10  20  39  65  91 130 167 204 272 327 389
#     4  11  23  39  63  91 122 169 214 265 332 401
#     4  11  22  40  62  87 128 165 214 271 330 391
#     4  10  20  42  64  98 134 172 226 276 342 404
#     4  10  21  39  64  92 129 176 214 279 338 390
#     4  11  23  42  59  92 129 163 216 272 326 398
#     4   9  20  40  62  92 131 170 217 272 326 397
#     4   9  20  40  64  94 131 170 217 271 329 395
#
# _framework density 21.249237999999998
#
# number of rings (size 3 to 8) (size 9 to 14) (size 15 to 20)
#    0.000    1.867    0.667    4.800    4.667    0.533 
#   12.000    6.000    0.000    0.000    0.000    0.000 
#    0.000    0.000    0.000    0.000    0.000    0.000 
#
# Total GULP energy -167153.408068 kJ/mol
# GULP energy per Si atom -5571.780269 kJ/mol
# Density = 2.120087 g / cm^3
# Si number density = 21.249238 Si / 1000 Ang^3
#
#
#
# Elastic Constant Matrix: (Units=GPa)
#
#
# Indices 1 2 3 4 5 6 
#
# 1 112.3489 10.3284 28.1070 0.0000 0.0000 0.0000
# 2 10.3284 60.7504 11.5629 0.0000 0.0000 0.0000
# 3 28.1070 11.5629 140.5757 0.0000 0.0000 0.0000
# 4 0.0000 0.0000 0.0000 9.4380 0.0000 0.0000
# 5 0.0000 0.0000 0.0000 0.0000 14.8350 0.0000
# 6 0.0000 0.0000 0.0000 0.0000 0.0000 21.9583
#
#
#
# Elastic Compliance Matrix: (Units=1/GPa)
#
#
# Indices 1 2 3 4 5 6 
#
# 1 0.009465 -0.001269 -0.001788 0.000000 0.000000 0.000000
# 2 -0.001269 0.016893 -0.001136 0.000000 0.000000 0.000000
# 3 -0.001788 -0.001136 0.007565 0.000000 0.000000 0.000000
# 4 0.000000 0.000000 0.000000 0.105954 0.000000 0.000000
# 5 0.000000 0.000000 0.000000 0.000000 0.067408 0.000000
# 6 0.000000 0.000000 0.000000 0.000000 0.000000 0.045541
#
#
# Mechanical properties :
#
#
# Convention : Reuss Voigt Hill
#
# Bulk Modulus (GPa) = 39.15932 45.96352 42.56142
# Shear Modulus (GPa) = 18.53754 26.82471 22.68112
#
# Velocity S-wave (km/s) = 2.95682 3.55686 3.27063
# Velocity P-wave (km/s) = 5.48868 6.20854 5.85968
#
# Compressibility (1/GPa) = 0.02553671
#
# Stress axis : x y z
#
# Youngs Moduli (GPa) = 105.65448 59.19717 132.19577
#
# Poissons Ratio (x) = 0.07511 0.23637
# Poissons Ratio (y) = 0.13406 0.15015
# Poissons Ratio (z) = 0.18892 0.06724
#
# Static dielectric constant tensor:
#      x y z
#    x 1.833040 0.000000 0.000000 
#    y 0.000000 1.866920 0.000000 
#    z 0.000000 0.000000 1.780820 
# 
# From -- ./inp_files/19795.got.cif
#   From: 2010.05.17/outbox.cif.g08.bks.cpg/sg37_10_cif.got.tgz:19795.got - 2010.06.03 17:53:42.
