data_PCOD9354389
_publ_section_title
;
Structure prediction by ZEFSAII (Michael W. Deem and Ramdas Pophale) SiO2 
 PCOD9354389
Probable space group: C C C 2
;
_chemical_formula_sum "Si O2"
_cell_formula_units_Z 60
_cell_length_a 23.052211
_cell_length_b 8.606858
_cell_length_c 15.661167
_cell_angle_alpha 90.000000
_cell_angle_beta 90.000000
_cell_angle_gamma 90.000000
_cell_volume 3107.286831
_symmetry_space_group_name_H-M "C C C 2"
_symmetry_group_IT_number 37
_symmetry_cell_setting 'orthorhombic'
loop_
_space_group_symop_operation_xyz
x,y,z
-x,-y,z
-x,y,1/2+z
x,-y,1/2+z
1/2+x,1/2+y,z
1/2-x,1/2-y,z
1/2-x,1/2+y,1/2+z
1/2+x,1/2-y,1/2+z
loop_
_atom_site_type_symbol
_atom_site_label
_atom_site_fract_x
_atom_site_fract_y
_atom_site_fract_z
Si Si1 0.435738 0.548985 0.334440
Si Si2 0.750000 0.750000 0.256776
Si Si3 0.067434 0.548265 0.648559
Si Si4 0.870121 0.939672 0.996358
Si Si5 0.872310 0.132135 0.685446
Si Si6 0.436682 0.920813 0.324297
Si Si7 0.252041 0.423833 0.426541
Si Si8 0.135991 0.432635 0.983616
O O1 0.500000 0.500000 0.310602
O O2 0.420755 0.503624 0.432614
O O3 0.391974 0.467611 0.267593
O O4 0.436044 0.735480 0.330658
O O5 0.808727 0.789181 0.203799
O O6 0.757536 0.606961 0.324831
O O7 0.080509 0.730119 0.668611
O O8 0.088712 0.462840 0.732936
O O9 0.105216 0.502577 0.567294
O O10 0.000000 0.500000 0.635188
O O11 0.868764 0.752837 0.990656
O O12 0.812786 0.002961 0.951009
O O13 0.871729 0.968855 0.097930
O O14 0.399214 0.987715 0.401125
O O15 0.500000 0.000000 0.328133
O O16 0.250000 0.250000 0.463286
O O17 0.201630 0.521776 0.469002
#
# Coordination Sequence:
#
# PCOD9354389 Si02
#       8
#     8   4   8   8   8   8   8   8
#     4  11  22  41  63  91 128 163 207 261 314 380
#     4  10  22  40  68  88 122 170 214 256 316 380
#     4  10  21  38  61  91 120 158 210 252 308 377
#     4  10  23  40  62  92 123 162 211 255 315 375
#     4  11  23  41  66  93 123 173 210 261 321 375
#     4  10  21  37  59  88 120 159 200 254 308 368
#     4  10  21  38  60  87 119 158 205 256 301 366
#     4  10  21  37  61  84 121 161 200 253 309 364
#
# _framework density 19.309450999999999
#
# number of rings (size 3 to 8) (size 9 to 14) (size 15 to 20)
#    0.400    1.333    1.333    3.200    3.733    2.667 
#    0.000    2.667    0.000    0.000    0.000    0.000 
#    0.000    0.000    0.000    0.000    0.000    0.000 
#
# Total GULP energy -167191.418747 kJ/mol
# GULP energy per Si atom -5573.047292 kJ/mol
# Density = 1.926550 g / cm^3
# Si number density = 19.309451 Si / 1000 Ang^3
#
#
#
# Elastic Constant Matrix: (Units=GPa)
#
#
# Indices 1 2 3 4 5 6 
#
# 1 77.3720 15.1324 29.3416 0.0000 0.0000 0.0000
# 2 15.1324 22.6271 14.7620 0.0000 0.0000 0.0000
# 3 29.3416 14.7620 122.7395 0.0000 0.0000 0.0000
# 4 0.0000 0.0000 0.0000 34.3025 0.0000 0.0000
# 5 0.0000 0.0000 0.0000 0.0000 19.4485 0.0000
# 6 0.0000 0.0000 0.0000 0.0000 0.0000 18.8361
#
#
#
# Elastic Compliance Matrix: (Units=1/GPa)
#
#
# Indices 1 2 3 4 5 6 
#
# 1 0.015649 -0.008708 -0.002694 0.000000 0.000000 0.000000
# 2 -0.008708 0.052804 -0.004269 0.000000 0.000000 0.000000
# 3 -0.002694 -0.004269 0.009305 0.000000 0.000000 0.000000
# 4 0.000000 0.000000 0.000000 0.029152 0.000000 0.000000
# 5 0.000000 0.000000 0.000000 0.000000 0.051418 0.000000
# 6 0.000000 0.000000 0.000000 0.000000 0.000000 0.053090
#
#
# Mechanical properties :
#
#
# Convention : Reuss Voigt Hill
#
# Bulk Modulus (GPa) = 21.54443 37.91230 29.72836
# Shear Modulus (GPa) = 19.36243 25.41758 22.39000
#
# Velocity S-wave (km/s) = 3.17005 3.63206 3.40889
# Velocity P-wave (km/s) = 4.95788 6.10457 5.56087
#
# Compressibility (1/GPa) = 0.04641572
#
# Stress axis : x y z
#
# Youngs Moduli (GPa) = 63.90065 18.93796 107.47247
#
# Poissons Ratio (x) = 0.16492 0.28950
# Poissons Ratio (y) = 0.55648 0.45880
# Poissons Ratio (z) = 0.17213 0.08085
#
# Static dielectric constant tensor:
#      x y z
#    x 1.663470 0.000000 0.000000 
#    y 0.000000 1.837450 0.000000 
#    z 0.000000 0.000000 1.706120 
# 
# From -- ./inp_files/13145.got.cif
#   From: 2010.05.17/outbox.cif.g08.bks.cpg/sg37_7_cif.got.tgz:13145.got - 2010.06.03 17:53:42.
