data_PCOD9354312
_publ_section_title
;
Structure prediction by ZEFSAII (Michael W. Deem and Ramdas Pophale) SiO2 
 PCOD9354312
Probable space group: C C C 2
;
_chemical_formula_sum "Si O2"
_cell_formula_units_Z 56
_cell_length_a 14.879009
_cell_length_b 5.286442
_cell_length_c 32.168750
_cell_angle_alpha 90.000000
_cell_angle_beta 90.000000
_cell_angle_gamma 90.000000
_cell_volume 2530.297951
_symmetry_space_group_name_H-M "C C C 2"
_symmetry_group_IT_number 37
_symmetry_cell_setting 'orthorhombic'
loop_
_space_group_symop_operation_xyz
x,y,z
-x,-y,z
-x,y,1/2+z
x,-y,1/2+z
1/2+x,1/2+y,z
1/2-x,1/2-y,z
1/2-x,1/2+y,1/2+z
1/2+x,1/2-y,1/2+z
loop_
_atom_site_type_symbol
_atom_site_label
_atom_site_fract_x
_atom_site_fract_y
_atom_site_fract_z
Si Si1 0.441007 0.743645 0.012880
Si Si2 0.500000 0.500000 0.346779
Si Si3 0.328818 0.435772 0.801137
Si Si4 0.640811 0.246617 0.646487
Si Si5 0.643834 0.249437 0.099755
Si Si6 0.915150 0.319975 0.920230
Si Si7 0.438895 0.750957 0.737881
Si Si8 0.250000 0.750000 0.875055
O O1 0.500000 0.500000 0.022280
O O2 0.372005 0.755102 0.050603
O O3 0.500000 0.000000 0.013790
O O4 0.404743 0.701527 0.965954
O O5 0.571974 0.345282 0.318460
O O6 0.555753 0.663915 0.379497
O O7 0.250000 0.250000 0.783203
O O8 0.361826 0.665548 0.771070
O O9 0.284716 0.543095 0.842632
O O10 0.750000 0.250000 0.647231
O O11 0.609347 0.503187 0.623864
O O12 0.606521 0.214860 0.693166
O O13 0.608611 0.007492 0.619934
O O14 0.750000 0.250000 0.106900
O O15 0.817684 0.402143 0.905162
O O16 0.000000 0.500000 0.925233
O O17 0.500000 0.500000 0.734588
O O18 0.500000 0.000000 0.746979
#
# Coordination Sequence:
#
# PCOD9354312 Si02
#       8
#     8   4   8   8   8   8   8   4
#     4  11  23  39  65  98 133 175 219 275 339 403
#     4  10  20  44  64  92 140 176 234 288 340 416
#     4  11  25  42  69  99 137 183 237 285 357 413
#     4  10  23  44  67  96 132 180 221 280 345 416
#     4  10  22  41  67  95 135 173 223 276 340 407
#     4  10  21  39  64  93 135 175 231 281 341 404
#     4  12  28  45  70 103 140 178 232 294 352 416
#     4  10  24  40  68  96 126 190 228 278 352 410
#
# _framework density 22.131781
#
# number of rings (size 3 to 8) (size 9 to 14) (size 15 to 20)
#    0.000    1.429    1.429    2.571    4.000    7.429 
#    0.000    0.000    0.000    0.000    0.000    0.000 
#    0.000    0.000    0.000    0.000    0.000    0.000 
#
# Total GULP energy -156050.130059 kJ/mol
# GULP energy per Si atom -5573.218931 kJ/mol
# Density = 2.208141 g / cm^3
# Si number density = 22.131781 Si / 1000 Ang^3
#
#
#
# Elastic Constant Matrix: (Units=GPa)
#
#
# Indices 1 2 3 4 5 6 
#
# 1 91.1306 43.2729 44.5312 0.0000 0.0000 0.0000
# 2 43.2729 132.1668 40.2585 0.0000 0.0000 0.0000
# 3 44.5312 40.2585 133.1374 0.0000 0.0000 0.0000
# 4 0.0000 0.0000 0.0000 33.2012 0.0000 0.0000
# 5 0.0000 0.0000 0.0000 0.0000 72.9928 0.0000
# 6 0.0000 0.0000 0.0000 0.0000 0.0000 15.1202
#
#
#
# Elastic Compliance Matrix: (Units=1/GPa)
#
#
# Indices 1 2 3 4 5 6 
#
# 1 0.014528 -0.003609 -0.003768 0.000000 0.000000 0.000000
# 2 -0.003609 0.009230 -0.001584 0.000000 0.000000 0.000000
# 3 -0.003768 -0.001584 0.009250 0.000000 0.000000 0.000000
# 4 0.000000 0.000000 0.000000 0.030119 0.000000 0.000000
# 5 0.000000 0.000000 0.000000 0.000000 0.013700 0.000000
# 6 0.000000 0.000000 0.000000 0.000000 0.000000 0.066137
#
#
# Mechanical properties :
#
#
# Convention : Reuss Voigt Hill
#
# Bulk Modulus (GPa) = 66.28272 68.06223 67.17247
# Shear Modulus (GPa) = 30.13573 39.48764 34.81168
#
# Velocity S-wave (km/s) = 3.69406 4.22857 3.97032
# Velocity P-wave (km/s) = 6.94326 7.39331 7.17181
#
# Compressibility (1/GPa) = 0.01508689
#
# Stress axis : x y z
#
# Youngs Moduli (GPa) = 68.83161 108.33893 108.10428
#
# Poissons Ratio (x) = 0.39099 0.40734
# Poissons Ratio (y) = 0.24841 0.17124
# Poissons Ratio (z) = 0.25936 0.17161
#
# Static dielectric constant tensor:
#      x y z
#    x 1.213640 0.000000 0.000000 
#    y 0.000000 1.843780 0.000000 
#    z 0.000000 0.000000 1.797020 
# 
# From -- ./inp_files/20579.got.cif
#   From: 2010.05.17/outbox.cif.g08.bks.cpg/sg37_11_cif.got.tgz:20579.got - 2010.06.03 17:53:42.
