data_PCOD9354365
_publ_section_title
;
Structure prediction by ZEFSAII (Michael W. Deem and Ramdas Pophale) SiO2 
 PCOD9354365
Probable space group: C C C 2
;
_chemical_formula_sum "Si O2"
_cell_formula_units_Z 44
_cell_length_a 10.727588
_cell_length_b 23.071862
_cell_length_c 9.232566
_cell_angle_alpha 90.000000
_cell_angle_beta 90.000000
_cell_angle_gamma 90.000000
_cell_volume 2285.110217
_symmetry_space_group_name_H-M "C C C 2"
_symmetry_group_IT_number 37
_symmetry_cell_setting 'orthorhombic'
loop_
_space_group_symop_operation_xyz
x,y,z
-x,-y,z
-x,y,1/2+z
x,-y,1/2+z
1/2+x,1/2+y,z
1/2-x,1/2-y,z
1/2-x,1/2+y,1/2+z
1/2+x,1/2-y,1/2+z
loop_
_atom_site_type_symbol
_atom_site_label
_atom_site_fract_x
_atom_site_fract_y
_atom_site_fract_z
Si Si1 0.346577 0.419120 0.109410
Si Si2 0.095255 0.081916 0.441541
Si Si3 0.000000 0.500000 0.316699
Si Si4 0.377238 0.720758 0.943769
Si Si5 0.871069 0.780469 0.107003
Si Si6 0.675084 0.021023 0.066879
O O1 0.383270 0.435731 0.274535
O O2 0.343455 0.349371 0.103721
O O3 0.220210 0.453645 0.072074
O O4 0.457657 0.433464 0.997580
O O5 0.121093 0.150807 0.450330
O O6 0.196193 0.054008 0.548117
O O7 0.092724 0.533439 0.208099
O O8 0.090362 0.466302 0.426737
O O9 0.250000 0.750000 0.000633
O O10 0.385828 0.736897 0.774828
O O11 0.502857 0.736861 0.026726
O O12 0.750000 0.750000 0.043187
#
# Coordination Sequence:
#
# PCOD9354365 Si02
#       6
#     8   8   4   8   8   8
#     4  10  21  36  59  82 109 142 185 231 272 323
#     4  10  21  36  59  82 109 142 185 231 272 323
#     4  10  24  38  54  74 120 146 180 224 264 336
#     4   9  19  38  57  82 112 144 184 229 273 326
#     4   9  19  38  57  82 112 144 184 229 273 326
#     4  11  21  40  54  80 111 147 182 222 276 327
#
# _framework density 19.255089000000002
#
# number of rings (size 3 to 8) (size 9 to 14) (size 15 to 20)
#    0.000    2.182    1.818    0.545    2.545    2.182 
#    6.545    0.000    0.000    0.000    0.000    0.000 
#    0.000    0.000    0.000    0.000    0.000    0.000 
#
# Total GULP energy -122640.069430 kJ/mol
# GULP energy per Si atom -5574.548610 kJ/mol
# Density = 1.921126 g / cm^3
# Si number density = 19.255089 Si / 1000 Ang^3
#
#
#
# Elastic Constant Matrix: (Units=GPa)
#
#
# Indices 1 2 3 4 5 6 
#
# 1 135.0794 33.5012 44.8502 0.0000 0.0000 0.0000
# 2 33.5012 21.9087 17.0790 0.0000 0.0000 0.0000
# 3 44.8502 17.0790 81.9819 0.0000 0.0000 0.0000
# 4 0.0000 0.0000 0.0000 -174.9023 0.0000 0.0000
# 5 0.0000 0.0000 0.0000 0.0000 38.7389 0.0000
# 6 0.0000 0.0000 0.0000 0.0000 0.0000 22.6398
#
#
#
# Elastic Compliance Matrix: (Units=1/GPa)
#
#
# Indices 1 2 3 4 5 6 
#
# 1 0.012700 -0.016719 -0.003465 0.000000 0.000000 0.000000
# 2 -0.016719 0.076503 -0.006791 0.000000 0.000000 0.000000
# 3 -0.003465 -0.006791 0.015508 0.000000 0.000000 0.000000
# 4 0.000000 0.000000 0.000000 -0.005717 0.000000 0.000000
# 5 0.000000 0.000000 0.000000 0.000000 0.025814 0.000000
# 6 0.000000 0.000000 0.000000 0.000000 0.000000 0.044170
#
#
# Mechanical properties :
#
#
# Convention : Reuss Voigt Hill
#
# Bulk Modulus (GPa) = 19.69992 47.75899 33.72946
# Shear Modulus (GPa) = 20.84651 -13.13542 3.85555
#
# Velocity S-wave (km/s) = 3.29393 -2.61469 1.41658
# Velocity P-wave (km/s) = 4.97191 3.96758 4.49787
#
# Compressibility (1/GPa) = 0.05076163
#
# Stress axis : x y z
#
# Youngs Moduli (GPa) = 78.74053 13.07131 64.48230
#
# Poissons Ratio (x) = 0.21854 0.22342
# Poissons Ratio (y) = 1.31645 0.43792
# Poissons Ratio (z) = 0.27282 0.08877
#
# Static dielectric constant tensor:
#      x y z
#    x 1.664180 0.000000 0.000000 
#    y 0.000000 1.688550 0.000000 
#    z 0.000000 0.000000 1.676700 
# 
# From -- ./inp_files/2342.got.cif
#   From: 2010.05.17/outbox.cif.g08.bks.cpg/sg37_2_cif.got.tgz:2342.got - 2010.06.03 17:53:42.
