data_PCOD9354546
_publ_section_title
;
Structure prediction by ZEFSAII (Michael W. Deem and Ramdas Pophale) SiO2 
 PCOD9354546
Probable space group: C C C 2
;
_chemical_formula_sum "Si O2"
_cell_formula_units_Z 64
_cell_length_a 9.959329
_cell_length_b 14.795671
_cell_length_c 22.991872
_cell_angle_alpha 90.000000
_cell_angle_beta 90.000000
_cell_angle_gamma 90.000000
_cell_volume 3387.966270
_symmetry_space_group_name_H-M "C C C 2"
_symmetry_group_IT_number 37
_symmetry_cell_setting 'orthorhombic'
loop_
_space_group_symop_operation_xyz
x,y,z
-x,-y,z
-x,y,1/2+z
x,-y,1/2+z
1/2+x,1/2+y,z
1/2-x,1/2-y,z
1/2-x,1/2+y,1/2+z
1/2+x,1/2-y,1/2+z
loop_
_atom_site_type_symbol
_atom_site_label
_atom_site_fract_x
_atom_site_fract_y
_atom_site_fract_z
Si Si1 0.872323 0.037669 0.049140
Si Si2 0.588229 0.255677 0.038633
Si Si3 0.850655 0.508009 0.456399
Si Si4 0.391133 0.919537 0.737445
Si Si5 0.610895 0.196829 0.432332
Si Si6 0.879601 0.056659 0.674600
Si Si7 0.638211 0.170836 0.863039
Si Si8 0.593589 0.238805 0.643587
O O1 0.915949 0.139967 0.057245
O O2 0.856415 0.983620 0.109391
O O3 0.000000 0.000000 0.014620
O O4 0.745055 0.028233 0.009412
O O5 0.750000 0.250000 0.026742
O O6 0.514807 0.211897 0.094483
O O7 0.491129 0.225670 0.985445
O O8 0.838277 0.407322 0.431282
O O9 0.839090 0.589178 0.409806
O O10 0.000000 0.500000 0.480851
O O11 0.252080 0.956844 0.712125
O O12 0.366933 0.875440 0.800276
O O13 0.419457 0.837103 0.692866
O O14 0.500000 0.000000 0.739096
O O15 0.750000 0.250000 0.434887
O O16 0.510003 0.209332 0.378146
O O17 0.923407 0.161082 0.670121
O O18 0.000000 0.000000 0.700769
O O19 0.750000 0.250000 0.867193
O O20 0.750000 0.250000 0.620885
#
# Coordination Sequence:
#
# PCOD9354546 Si02
#       8
#     8   8   8   8   8   8   8   8
#     4  11  21  37  58  90 132 168 204 265 319 391
#     4  12  23  36  59  94 135 169 211 264 330 393
#     4  10  22  38  62  92 129 165 216 260 322 388
#     4  11  25  43  70  92 126 171 226 270 329 387
#     4  11  23  39  65  97 131 171 216 271 324 394
#     4  10  21  41  62  93 130 170 215 268 324 390
#     4  11  23  48  68  92 128 175 216 280 327 395
#     4  10  22  40  60  90 127 174 215 263 323 390
#
# _framework density 18.890388999999999
#
# number of rings (size 3 to 8) (size 9 to 14) (size 15 to 20)
#    0.000    1.250    2.500    6.000    5.250    0.500 
#    0.000    6.250    0.000    0.000    0.000    0.000 
#    0.000    0.000    0.000    0.000    0.000    0.000 
#
# Total GULP energy -178194.604540 kJ/mol
# GULP energy per Si atom -5568.581392 kJ/mol
# Density = 1.884739 g / cm^3
# Si number density = 18.890389 Si / 1000 Ang^3
#
#
#
# Elastic Constant Matrix: (Units=GPa)
#
#
# Indices 1 2 3 4 5 6 
#
# 1 139.4519 78.0918 83.6419 0.0000 0.0000 0.0000
# 2 78.0918 110.5788 36.8973 0.0000 0.0000 0.0000
# 3 83.6419 36.8973 115.1073 0.0000 0.0000 0.0000
# 4 0.0000 0.0000 0.0000 -105.5953 0.0000 0.0000
# 5 0.0000 0.0000 0.0000 0.0000 41.1284 0.0000
# 6 0.0000 0.0000 0.0000 0.0000 0.0000 39.6491
#
#
#
# Elastic Compliance Matrix: (Units=1/GPa)
#
#
# Indices 1 2 3 4 5 6 
#
# 1 0.019214 -0.009978 -0.010764 0.000000 0.000000 0.000000
# 2 -0.009978 0.015308 0.002343 0.000000 0.000000 0.000000
# 3 -0.010764 0.002343 0.015758 0.000000 0.000000 0.000000
# 4 0.000000 0.000000 0.000000 -0.009470 0.000000 0.000000
# 5 0.000000 0.000000 0.000000 0.000000 0.024314 0.000000
# 6 0.000000 0.000000 0.000000 0.000000 0.000000 0.025221
#
#
# Mechanical properties :
#
#
# Convention : Reuss Voigt Hill
#
# Bulk Modulus (GPa) = 74.16285 84.71111 79.43698
# Shear Modulus (GPa) = 37.98370 6.13690 22.06030
#
# Velocity S-wave (km/s) = 4.48899 1.80437 3.42102
# Velocity P-wave (km/s) = 8.13713 7.02010 7.59917
#
# Compressibility (1/GPa) = 0.01348384
#
# Stress axis : x y z
#
# Youngs Moduli (GPa) = 52.04464 65.32623 63.46127
#
# Poissons Ratio (x) = 0.65181 0.68307
# Poissons Ratio (y) = 0.51929 -0.14872
# Poissons Ratio (z) = 0.56019 -0.15309
#
# Static dielectric constant tensor:
#      x y z
#    x 1.687060 0.000000 0.000000 
#    y 0.000000 2.307860 0.000000 
#    z 0.000000 0.000000 1.648900 
# 
# From -- ./inp_files/18501.got.cif
#   From: 2010.05.17/outbox.cif.g08.bks.cpg/sg37_10_cif.got.tgz:18501.got - 2010.06.03 17:53:42.
