data_PCOD9354851
_publ_section_title
;
Structure prediction by ZEFSAII (Michael W. Deem and Ramdas Pophale) SiO2 
 PCOD9354851
Probable space group: C C C 2
;
_chemical_formula_sum "Si O2"
_cell_formula_units_Z 64
_cell_length_a 16.714538
_cell_length_b 20.262431
_cell_length_c 8.906998
_cell_angle_alpha 90.000000
_cell_angle_beta 90.000000
_cell_angle_gamma 90.000000
_cell_volume 3016.596902
_symmetry_space_group_name_H-M "C C C 2"
_symmetry_group_IT_number 37
_symmetry_cell_setting 'orthorhombic'
loop_
_space_group_symop_operation_xyz
x,y,z
-x,-y,z
-x,y,1/2+z
x,-y,1/2+z
1/2+x,1/2+y,z
1/2-x,1/2-y,z
1/2-x,1/2+y,1/2+z
1/2+x,1/2-y,1/2+z
loop_
_atom_site_type_symbol
_atom_site_label
_atom_site_fract_x
_atom_site_fract_y
_atom_site_fract_z
Si Si1 0.929884 0.373043 0.232110
Si Si2 0.410274 0.581866 0.639076
Si Si3 0.805573 0.463752 0.344987
Si Si4 0.452025 0.631635 0.329078
Si Si5 0.840832 0.237929 0.171134
Si Si6 0.061092 0.561919 0.904336
Si Si7 0.376186 0.342293 0.402595
Si Si8 0.693284 0.531619 0.577690
O O1 0.870798 0.406094 0.355713
O O2 0.896566 0.301152 0.196927
O O3 0.018039 0.382741 0.302491
O O4 0.926454 0.413364 0.074605
O O5 0.414162 0.590804 0.462560
O O6 0.498438 0.588696 0.709343
O O7 0.369933 0.512371 0.667369
O O8 0.362849 0.640169 0.727340
O O9 0.858223 0.531314 0.332934
O O10 0.744620 0.481130 0.476258
O O11 0.755479 0.442640 0.199864
O O12 0.386971 0.678353 0.254245
O O13 0.527639 0.669160 0.407506
O O14 0.750000 0.250000 0.223231
O O15 0.837347 0.216087 0.996136
O O16 0.000000 0.500000 0.908081
O O17 0.347674 0.410164 0.483779
#
# Coordination Sequence:
#
# PCOD9354851 Si02
#       8
#     8   8   8   8   8   8   8   8
#     4  11  25  41  67  99 131 186 232 276 351 417
#     4  10  23  42  70  95 134 176 223 282 342 415
#     4  11  22  41  67 101 145 166 219 293 342 411
#     4  10  22  48  66  92 138 175 234 278 337 407
#     4  12  27  45  70  97 139 186 237 294 345 405
#     4  10  22  41  67  99 134 175 227 283 348 412
#     4  10  23  47  65  97 136 181 225 282 339 417
#     4  12  23  39  69 105 137 175 221 279 363 400
#
# _framework density 21.215959999999999
#
# number of rings (size 3 to 8) (size 9 to 14) (size 15 to 20)
#    0.750    0.500    3.750    1.875    7.000    0.500 
#    4.500    0.625    0.000    0.000    0.000    0.000 
#    0.000    0.000    0.000    0.000    0.000    0.000 
#
# Total GULP energy -178412.248131 kJ/mol
# GULP energy per Si atom -5575.382754 kJ/mol
# Density = 2.116767 g / cm^3
# Si number density = 21.215960 Si / 1000 Ang^3
#
#
#
# Elastic Constant Matrix: (Units=GPa)
#
#
# Indices 1 2 3 4 5 6 
#
# 1 114.6777 38.4130 25.9111 0.0000 0.0000 0.0000
# 2 38.4130 53.4530 16.8665 0.0000 0.0000 0.0000
# 3 25.9111 16.8665 62.6768 0.0000 0.0000 0.0000
# 4 0.0000 0.0000 0.0000 19.4751 0.0000 0.0000
# 5 0.0000 0.0000 0.0000 0.0000 36.6922 0.0000
# 6 0.0000 0.0000 0.0000 0.0000 0.0000 29.0199
#
#
#
# Elastic Compliance Matrix: (Units=1/GPa)
#
#
# Indices 1 2 3 4 5 6 
#
# 1 0.011939 -0.007674 -0.002871 0.000000 0.000000 0.000000
# 2 -0.007674 0.025377 -0.003656 0.000000 0.000000 0.000000
# 3 -0.002871 -0.003656 0.018126 0.000000 0.000000 0.000000
# 4 0.000000 0.000000 0.000000 0.051348 0.000000 0.000000
# 5 0.000000 0.000000 0.000000 0.000000 0.027254 0.000000
# 6 0.000000 0.000000 0.000000 0.000000 0.000000 0.034459
#
#
# Mechanical properties :
#
#
# Convention : Reuss Voigt Hill
#
# Bulk Modulus (GPa) = 36.98345 43.68764 40.33554
# Shear Modulus (GPa) = 24.28160 27.01191 25.64676
#
# Velocity S-wave (km/s) = 3.38671 3.57205 3.48061
# Velocity P-wave (km/s) = 5.72388 6.13590 5.93347
#
# Compressibility (1/GPa) = 0.02703912
#
# Stress axis : x y z
#
# Youngs Moduli (GPa) = 83.75716 39.40636 55.17066
#
# Poissons Ratio (x) = 0.30241 0.15838
# Poissons Ratio (y) = 0.64276 0.20172
# Poissons Ratio (z) = 0.24044 0.14408
#
# Static dielectric constant tensor:
#      x y z
#    x 1.815440 0.000000 0.000000 
#    y 0.000000 1.757950 0.000000 
#    z 0.000000 0.000000 1.783520 
# 
# From -- ./inp_files/4165.got.cif
#   From: 2010.05.17/outbox.cif.g08.bks.cpg/sg37_3_cif.got.tgz:4165.got - 2010.06.03 17:53:42.
