data_PCOD9354447
_publ_section_title
;
Structure prediction by ZEFSAII (Michael W. Deem and Ramdas Pophale) SiO2 
 PCOD9354447
Probable space group: C C C 2
;
_chemical_formula_sum "Si O2"
_cell_formula_units_Z 64
_cell_length_a 15.959299
_cell_length_b 8.877479
_cell_length_c 22.323198
_cell_angle_alpha 90.000000
_cell_angle_beta 90.000000
_cell_angle_gamma 90.000000
_cell_volume 3162.713675
_symmetry_space_group_name_H-M "C C C 2"
_symmetry_group_IT_number 37
_symmetry_cell_setting 'orthorhombic'
loop_
_space_group_symop_operation_xyz
x,y,z
-x,-y,z
-x,y,1/2+z
x,-y,1/2+z
1/2+x,1/2+y,z
1/2-x,1/2-y,z
1/2-x,1/2+y,1/2+z
1/2+x,1/2-y,1/2+z
loop_
_atom_site_type_symbol
_atom_site_label
_atom_site_fract_x
_atom_site_fract_y
_atom_site_fract_z
Si Si1 0.339720 0.331814 0.104220
Si Si2 0.300189 0.114597 0.259635
Si Si3 0.955376 0.658812 0.196057
Si Si4 0.938942 0.857139 0.773898
Si Si5 0.287913 0.598672 0.187806
Si Si6 0.253956 0.922414 0.892610
Si Si7 0.424042 0.881997 0.383926
Si Si8 0.340002 0.661513 0.467285
O O1 0.250000 0.250000 0.100089
O O2 0.401576 0.220701 0.140515
O O3 0.329240 0.486127 0.140991
O O4 0.363603 0.368310 0.035802
O O5 0.250000 0.250000 0.229063
O O6 0.397331 0.153259 0.256859
O O7 0.250587 0.091675 0.320749
O O8 0.295068 0.974580 0.216313
O O9 0.000000 0.500000 0.185790
O O10 0.020632 0.784504 0.214708
O O11 0.848157 0.895482 0.746163
O O12 0.927356 0.726741 0.824794
O O13 0.000000 0.000000 0.791439
O O14 0.250000 0.750000 0.161038
O O15 0.250000 0.750000 0.915347
O O16 0.341857 0.012821 0.894430
O O17 0.182461 0.018696 0.925257
O O18 0.412366 0.761564 0.437148
O O19 0.500000 0.000000 0.384259
O O20 0.250000 0.750000 0.466981
#
# Coordination Sequence:
#
# PCOD9354447 Si02
#       8
#     8   8   8   8   8   8   8   8
#     4  11  22  43  64  88 124 173 223 268 317 393
#     4  11  19  37  59  91 122 160 205 256 315 396
#     4  12  22  37  61  92 127 166 209 264 331 395
#     4  12  24  39  62  95 138 164 196 270 345 387
#     4  12  22  36  61  91 125 163 212 261 324 386
#     4  10  21  38  67  95 127 165 218 273 327 383
#     4  11  23  41  63  96 130 170 220 265 326 400
#     4   9  22  42  65  88 125 173 223 272 318 380
#
# _framework density 20.235787999999999
#
# number of rings (size 3 to 8) (size 9 to 14) (size 15 to 20)
#    0.000    1.000    3.750    4.125    0.000    5.000 
#    0.000    0.000    8.250    0.000    0.000    0.000 
#    0.000    0.000    0.000    0.000    0.000    0.000 
#
# Total GULP energy -178183.967070 kJ/mol
# GULP energy per Si atom -5568.248971 kJ/mol
# Density = 2.018973 g / cm^3
# Si number density = 20.235788 Si / 1000 Ang^3
#
#
#
# Elastic Constant Matrix: (Units=GPa)
#
#
# Indices 1 2 3 4 5 6 
#
# 1 64.8047 41.7321 24.2316 0.0000 0.0000 0.0000
# 2 41.7321 148.0803 56.6067 0.0000 0.0000 0.0000
# 3 24.2316 56.6067 122.3719 0.0000 0.0000 0.0000
# 4 0.0000 0.0000 0.0000 49.5874 0.0000 0.0000
# 5 0.0000 0.0000 0.0000 0.0000 21.2018 0.0000
# 6 0.0000 0.0000 0.0000 0.0000 0.0000 38.4851
#
#
#
# Elastic Compliance Matrix: (Units=1/GPa)
#
#
# Indices 1 2 3 4 5 6 
#
# 1 0.019097 -0.004782 -0.001570 0.000000 0.000000 0.000000
# 2 -0.004782 0.009401 -0.003402 0.000000 0.000000 0.000000
# 3 -0.001570 -0.003402 0.010056 0.000000 0.000000 0.000000
# 4 0.000000 0.000000 0.000000 0.020166 0.000000 0.000000
# 5 0.000000 0.000000 0.000000 0.000000 0.047166 0.000000
# 6 0.000000 0.000000 0.000000 0.000000 0.000000 0.025984
#
#
# Mechanical properties :
#
#
# Convention : Reuss Voigt Hill
#
# Bulk Modulus (GPa) = 52.49921 64.48863 58.49392
# Shear Modulus (GPa) = 31.70029 36.03395 33.86712
#
# Velocity S-wave (km/s) = 3.96226 4.22442 4.09543
# Velocity P-wave (km/s) = 6.85074 7.46539 7.16466
#
# Compressibility (1/GPa) = 0.01904791
#
# Stress axis : x y z
#
# Youngs Moduli (GPa) = 52.36337 106.36926 99.44074
#
# Poissons Ratio (x) = 0.50866 0.15607
# Poissons Ratio (y) = 0.25040 0.33829
# Poissons Ratio (z) = 0.08218 0.36186
#
# Static dielectric constant tensor:
#      x y z
#    x 1.698040 0.000000 0.000000 
#    y 0.000000 1.498730 0.000000 
#    z 0.000000 0.000000 1.745270 
# 
# From -- ./inp_files/18918.got.cif
#   From: 2010.05.17/outbox.cif.g08.bks.cpg/sg37_10_cif.got.tgz:18918.got - 2010.06.03 17:53:42.
