data_PCOD9354529
_publ_section_title
;
Structure prediction by ZEFSAII (Michael W. Deem and Ramdas Pophale) SiO2 
 PCOD9354529
Probable space group: C C C 2
;
_chemical_formula_sum "Si O2"
_cell_formula_units_Z 64
_cell_length_a 13.971640
_cell_length_b 11.381072
_cell_length_c 19.414524
_cell_angle_alpha 90.000000
_cell_angle_beta 90.000000
_cell_angle_gamma 90.000000
_cell_volume 3087.146965
_symmetry_space_group_name_H-M "C C C 2"
_symmetry_group_IT_number 37
_symmetry_cell_setting 'orthorhombic'
loop_
_space_group_symop_operation_xyz
x,y,z
-x,-y,z
-x,y,1/2+z
x,-y,1/2+z
1/2+x,1/2+y,z
1/2-x,1/2-y,z
1/2-x,1/2+y,1/2+z
1/2+x,1/2-y,1/2+z
loop_
_atom_site_type_symbol
_atom_site_label
_atom_site_fract_x
_atom_site_fract_y
_atom_site_fract_z
Si Si1 0.892748 0.206157 0.199660
Si Si2 0.203916 0.444471 0.734814
Si Si3 0.648401 0.047037 0.592140
Si Si4 0.036104 0.689622 0.064559
Si Si5 0.761716 0.113761 0.850678
Si Si6 0.923116 0.254766 0.428841
Si Si7 0.252311 0.920577 0.457323
Si Si8 0.971877 0.871625 0.309452
O O1 0.870780 0.336048 0.230551
O O2 0.805176 0.123303 0.223923
O O3 0.910054 0.224378 0.118095
O O4 0.985217 0.152447 0.235054
O O5 0.186586 0.520547 0.667108
O O6 0.198589 0.529535 0.800740
O O7 0.563615 0.141877 0.596694
O O8 0.730212 0.082663 0.538740
O O9 0.601924 0.927120 0.560588
O O10 0.999788 0.737604 0.991162
O O11 0.750000 0.250000 0.866135
O O12 0.859632 0.121326 0.808476
O O13 0.765624 0.045060 0.922476
O O14 0.840382 0.156669 0.439025
O O15 0.853848 0.368944 0.428456
O O16 0.982231 0.223640 0.360857
O O17 0.000000 0.000000 0.336483
#
# Coordination Sequence:
#
# PCOD9354529 Si02
#       8
#     8   8   8   8   8   8   8   8
#     4  10  21  40  66  87 119 161 204 247 301 373
#     4  10  21  42  62  89 120 166 201 244 310 364
#     4   9  20  38  60  87 126 156 202 249 292 364
#     4   9  20  38  61  90 116 158 205 249 294 354
#     4  12  27  41  59  93 128 161 203 258 307 362
#     4  10  21  40  66  87 119 161 204 247 301 373
#     4  10  21  42  62  89 120 166 201 244 310 364
#     4  12  23  41  59  89 122 154 199 256 304 355
#
# _framework density 20.731114999999999
#
# number of rings (size 3 to 8) (size 9 to 14) (size 15 to 20)
#    0.000    1.750    2.500    0.750    3.500    4.000 
#    4.500    1.250    0.000    0.000    0.000    0.000 
#    0.000    0.000    0.000    0.000    0.000    0.000 
#
# Total GULP energy -178420.296646 kJ/mol
# GULP energy per Si atom -5575.634270 kJ/mol
# Density = 2.068393 g / cm^3
# Si number density = 20.731115 Si / 1000 Ang^3
#
#
#
# Elastic Constant Matrix: (Units=GPa)
#
#
# Indices 1 2 3 4 5 6 
#
# 1 19.3698 -5.3556 -7.6735 0.0000 0.0000 0.0000
# 2 -5.3556 66.2669 13.1385 0.0000 0.0000 0.0000
# 3 -7.6735 13.1385 43.9637 0.0000 0.0000 0.0000
# 4 0.0000 0.0000 0.0000 32.8689 0.0000 0.0000
# 5 0.0000 0.0000 0.0000 0.0000 26.2211 0.0000
# 6 0.0000 0.0000 0.0000 0.0000 0.0000 9.4944
#
#
#
# Elastic Compliance Matrix: (Units=1/GPa)
#
#
# Indices 1 2 3 4 5 6 
#
# 1 0.055928 0.002747 0.008941 0.000000 0.000000 0.000000
# 2 0.002747 0.016176 -0.004355 0.000000 0.000000 0.000000
# 3 0.008941 -0.004355 0.025608 0.000000 0.000000 0.000000
# 4 0.000000 0.000000 0.000000 0.030424 0.000000 0.000000
# 5 0.000000 0.000000 0.000000 0.000000 0.038137 0.000000
# 6 0.000000 0.000000 0.000000 0.000000 0.000000 0.105325
#
#
# Mechanical properties :
#
#
# Convention : Reuss Voigt Hill
#
# Bulk Modulus (GPa) = 8.89847 14.42438 11.66143
# Shear Modulus (GPa) = 16.98420 22.34962 19.66691
#
# Velocity S-wave (km/s) = 2.86538 3.28696 3.08338
# Velocity P-wave (km/s) = 3.90498 4.62368 4.27944
#
# Compressibility (1/GPa) = 0.11237883
#
# Stress axis : x y z
#
# Youngs Moduli (GPa) = 17.88008 61.82033 39.05044
#
# Poissons Ratio (x) = -0.16984 -0.34914
# Poissons Ratio (y) = -0.04912 0.17005
# Poissons Ratio (z) = -0.15986 0.26920
#
# Static dielectric constant tensor:
#      x y z
#    x 1.752990 0.000000 0.000000 
#    y 0.000000 1.755230 0.000000 
#    z 0.000000 0.000000 1.719160 
# 
# From -- ./inp_files/15298.got.cif
#   From: 2010.05.17/outbox.cif.g08.bks.cpg/sg37_8_cif.got.tgz:15298.got - 2010.06.03 17:53:42.
