data_PCOD9354265
_publ_section_title
;
Structure prediction by ZEFSAII (Michael W. Deem and Ramdas Pophale) SiO2 
 PCOD9354265
Probable space group: C C C 2
;
_chemical_formula_sum "Si O2"
_cell_formula_units_Z 40
_cell_length_a 9.881813
_cell_length_b 11.005531
_cell_length_c 14.312700
_cell_angle_alpha 90.000000
_cell_angle_beta 90.000000
_cell_angle_gamma 90.000000
_cell_volume 1556.571954
_symmetry_space_group_name_H-M "C C C 2"
_symmetry_group_IT_number 37
_symmetry_cell_setting 'orthorhombic'
loop_
_space_group_symop_operation_xyz
x,y,z
-x,-y,z
-x,y,1/2+z
x,-y,1/2+z
1/2+x,1/2+y,z
1/2-x,1/2-y,z
1/2-x,1/2+y,1/2+z
1/2+x,1/2-y,1/2+z
loop_
_atom_site_type_symbol
_atom_site_label
_atom_site_fract_x
_atom_site_fract_y
_atom_site_fract_z
Si Si1 0.141978 0.034250 0.004580
Si Si2 0.145264 0.360125 0.457488
Si Si3 0.570482 0.230672 0.604750
Si Si4 0.156343 0.130588 0.690513
Si Si5 0.644237 0.062306 0.756001
O O1 0.354922 0.553050 0.095414
O O2 0.007819 0.808670 0.186196
O O3 0.129483 0.172891 0.031936
O O4 0.034826 0.655813 0.038645
O O5 0.250000 0.250000 0.473090
O O6 0.219063 0.491015 0.460229
O O7 0.113745 0.357511 0.347695
O O8 0.500000 0.500000 0.453603
O O9 0.665292 0.142839 0.663706
O O10 0.250000 0.250000 0.688167
O O11 0.232324 0.035598 0.759119
O O12 0.500000 0.000000 0.737247
#
# Coordination Sequence:
#
# PCOD9354265 Si02
#       5
#     8   8   8   8   8
#     4  10  20  41  73 101 133 203 234 288 370 428
#     4  12  24  47  69 110 153 184 249 315 356 442
#     4  11  24  49  78 101 147 203 234 303 376 428
#     4  11  20  45  71  97 144 188 238 301 354 430
#     4  12  28  43  73 110 144 195 248 303 370 439
#
# _framework density 25.697496000000001
#
# number of rings (size 3 to 8) (size 9 to 14) (size 15 to 20)
#    0.000    0.800    8.000    0.000    2.800    4.000 
#    0.000    0.000    0.000    0.000    0.000    0.000 
#    0.000    0.000    0.000    0.000    0.000    0.000 
#
# Total GULP energy -111623.761311 kJ/mol
# GULP energy per Si atom -5581.188066 kJ/mol
# Density = 2.563901 g / cm^3
# Si number density = 25.697496 Si / 1000 Ang^3
#
#
#
# Elastic Constant Matrix: (Units=GPa)
#
#
# Indices 1 2 3 4 5 6 
#
# 1 76.5609 58.6023 23.0654 0.0000 0.0000 0.0000
# 2 58.6023 133.4851 34.8580 0.0000 0.0000 0.0000
# 3 23.0654 34.8580 108.5211 0.0000 0.0000 0.0000
# 4 0.0000 0.0000 0.0000 -1.6169 0.0000 0.0000
# 5 0.0000 0.0000 0.0000 0.0000 17.5695 0.0000
# 6 0.0000 0.0000 0.0000 0.0000 0.0000 67.6349
#
#
#
# Elastic Compliance Matrix: (Units=1/GPa)
#
#
# Indices 1 2 3 4 5 6 
#
# 1 0.019909 -0.008335 -0.001554 0.000000 0.000000 0.000000
# 2 -0.008335 0.011667 -0.001976 0.000000 0.000000 0.000000
# 3 -0.001554 -0.001976 0.010180 0.000000 0.000000 0.000000
# 4 0.000000 0.000000 0.000000 -0.618457 0.000000 0.000000
# 5 0.000000 0.000000 0.000000 0.000000 0.056917 0.000000
# 6 0.000000 0.000000 0.000000 0.000000 0.000000 0.014785
#
#
# Mechanical properties :
#
#
# Convention : Reuss Voigt Hill
#
# Bulk Modulus (GPa) = 55.47614 61.29095 58.38355
# Shear Modulus (GPa) = -10.52055 30.18693 9.83319
#
# Velocity S-wave (km/s) = -2.02556 3.43111 1.95827
# Velocity P-wave (km/s) = 4.02051 6.29281 5.28034
#
# Compressibility (1/GPa) = 0.01802577
#
# Stress axis : x y z
#
# Youngs Moduli (GPa) = 50.22742 85.71536 98.23313
#
# Poissons Ratio (x) = 0.71441 0.15270
# Poissons Ratio (y) = 0.41863 0.19410
# Poissons Ratio (z) = 0.07808 0.16937
#
# Static dielectric constant tensor:
#      x y z
#    x 2.213420 0.000000 0.000000 
#    y 0.000000 2.106890 0.000000 
#    z 0.000000 0.000000 1.983160 
# 
# From -- ./inp_files/12451.got.cif
#   From: 2010.05.17/outbox.cif.g08.bks.cpg/sg37_7_cif.got.tgz:12451.got - 2010.06.03 17:53:42.
