data_PCOD9354220
_publ_section_title
;
Structure prediction by ZEFSAII (Michael W. Deem and Ramdas Pophale) SiO2 
 PCOD9354220
Probable space group: C C C 2
;
_chemical_formula_sum "Si O2"
_cell_formula_units_Z 64
_cell_length_a 15.423090
_cell_length_b 14.601198
_cell_length_c 12.843248
_cell_angle_alpha 90.000000
_cell_angle_beta 90.000000
_cell_angle_gamma 90.000000
_cell_volume 2892.242822
_symmetry_space_group_name_H-M "C C C 2"
_symmetry_group_IT_number 37
_symmetry_cell_setting 'orthorhombic'
loop_
_space_group_symop_operation_xyz
x,y,z
-x,-y,z
-x,y,1/2+z
x,-y,1/2+z
1/2+x,1/2+y,z
1/2-x,1/2-y,z
1/2-x,1/2+y,1/2+z
1/2+x,1/2-y,1/2+z
loop_
_atom_site_type_symbol
_atom_site_label
_atom_site_fract_x
_atom_site_fract_y
_atom_site_fract_z
Si Si1 0.773797 0.018901 0.330050
Si Si2 0.880205 0.880690 0.994345
Si Si3 0.767113 0.848167 0.482244
Si Si4 0.580236 0.151896 0.074776
Si Si5 0.922088 0.563081 0.778919
Si Si6 0.894666 0.060090 0.130251
Si Si7 0.502128 0.233573 0.380410
Si Si8 0.456507 0.694072 0.676845
O O1 0.804811 0.097596 0.412298
O O2 0.673604 0.028396 0.301362
O O3 0.834598 0.027422 0.227329
O O4 0.779240 0.924816 0.394876
O O5 0.953033 0.822119 0.933024
O O6 0.875018 0.821337 0.100936
O O7 0.903328 0.979747 0.043930
O O8 0.750000 0.750000 0.432405
O O9 0.683298 0.854266 0.557697
O O10 0.846641 0.860437 0.562818
O O11 0.565035 0.070363 0.154899
O O12 0.521656 0.230795 0.128975
O O13 0.545911 0.166106 0.958860
O O14 0.928705 0.665695 0.826561
O O15 0.000000 0.500000 0.820041
O O16 0.982683 0.103307 0.176368
O O17 0.438560 0.273091 0.292569
#
# Coordination Sequence:
#
# PCOD9354220 Si02
#       8
#     8   8   8   8   8   8   8   8
#     4  11  24  42  69  99 139 179 238 291 361 423
#     4  10  23  41  63 100 136 177 230 291 350 422
#     4  11  22  39  66  95 133 181 229 286 348 422
#     4  10  21  39  66  98 133 176 232 281 346 421
#     4  11  24  43  71 100 134 187 238 296 352 422
#     4  11  21  41  64  97 136 182 226 285 354 427
#     4  10  22  42  69  98 136 182 239 287 354 428
#     4  10  20  40  65  97 133 179 230 282 344 431
#
# _framework density 22.128155
#
# number of rings (size 3 to 8) (size 9 to 14) (size 15 to 20)
#    0.000    1.500    3.750    1.125    0.000    3.000 
#    4.500    1.250    5.500    0.000    0.000    0.000 
#    0.000    0.000    0.000    0.000    0.000    0.000 
#
# Total GULP energy -178142.577696 kJ/mol
# GULP energy per Si atom -5566.955553 kJ/mol
# Density = 2.207779 g / cm^3
# Si number density = 22.128155 Si / 1000 Ang^3
#
#
#
# Elastic Constant Matrix: (Units=GPa)
#
#
# Indices 1 2 3 4 5 6 
#
# 1 89.3505 35.2689 35.6656 0.0000 0.0000 0.0000
# 2 35.2689 57.0437 55.7210 0.0000 0.0000 0.0000
# 3 35.6656 55.7210 124.9220 0.0000 0.0000 0.0000
# 4 0.0000 0.0000 0.0000 34.4909 0.0000 0.0000
# 5 0.0000 0.0000 0.0000 0.0000 19.0568 0.0000
# 6 0.0000 0.0000 0.0000 0.0000 0.0000 -10.7936
#
#
#
# Elastic Compliance Matrix: (Units=1/GPa)
#
#
# Indices 1 2 3 4 5 6 
#
# 1 0.014810 -0.008907 -0.000255 0.000000 0.000000 0.000000
# 2 -0.008907 0.036423 -0.013703 0.000000 0.000000 0.000000
# 3 -0.000255 -0.013703 0.014190 0.000000 0.000000 0.000000
# 4 0.000000 0.000000 0.000000 0.028993 0.000000 0.000000
# 5 0.000000 0.000000 0.000000 0.000000 0.052475 0.000000
# 6 0.000000 0.000000 0.000000 0.000000 0.000000 -0.092647
#
#
# Mechanical properties :
#
#
# Convention : Reuss Voigt Hill
#
# Bulk Modulus (GPa) = 50.78344 58.29190 54.53767
# Shear Modulus (GPa) = 46.93135 18.19489 32.56312
#
# Velocity S-wave (km/s) = 4.61031 2.87060 3.84027
# Velocity P-wave (km/s) = 7.16515 6.11451 6.66058
#
# Compressibility (1/GPa) = 0.01969146
#
# Stress axis : x y z
#
# Youngs Moduli (GPa) = 67.52361 27.45505 70.47130
#
# Poissons Ratio (x) = 0.24455 0.01798
# Poissons Ratio (y) = 0.60145 0.96569
# Poissons Ratio (z) = 0.01723 0.37623
#
# Static dielectric constant tensor:
#      x y z
#    x 1.837390 0.000000 0.000000 
#    y 0.000000 1.852340 0.000000 
#    z 0.000000 0.000000 1.870440 
# 
# From -- ./inp_files/8353.got.cif
#   From: 2010.05.17/outbox.cif.g08.bks.cpg/sg37_5_cif.got.tgz:8353.got - 2010.06.03 17:53:42.
