data_PCOD9354386
_publ_section_title
;
Structure prediction by ZEFSAII (Michael W. Deem and Ramdas Pophale) SiO2 
 PCOD9354386
Probable space group: C C C 2
;
_chemical_formula_sum "Si O2"
_cell_formula_units_Z 64
_cell_length_a 8.763050
_cell_length_b 14.934530
_cell_length_c 25.186104
_cell_angle_alpha 90.000000
_cell_angle_beta 90.000000
_cell_angle_gamma 90.000000
_cell_volume 3296.156637
_symmetry_space_group_name_H-M "C C C 2"
_symmetry_group_IT_number 37
_symmetry_cell_setting 'orthorhombic'
loop_
_space_group_symop_operation_xyz
x,y,z
-x,-y,z
-x,y,1/2+z
x,-y,1/2+z
1/2+x,1/2+y,z
1/2-x,1/2-y,z
1/2-x,1/2+y,1/2+z
1/2+x,1/2-y,1/2+z
loop_
_atom_site_type_symbol
_atom_site_label
_atom_site_fract_x
_atom_site_fract_y
_atom_site_fract_z
Si Si1 0.815337 0.651016 0.538320
Si Si2 0.377285 0.915907 0.659781
Si Si3 0.684754 0.004860 0.461925
Si Si4 0.683741 0.151803 0.154575
Si Si5 0.688684 0.648794 0.259391
Si Si6 0.177793 0.849178 0.261107
Si Si7 0.819323 0.650861 0.046467
Si Si8 0.316561 0.500078 0.344667
O O1 0.750000 0.750000 0.532284
O O2 0.762101 0.583699 0.493186
O O3 0.780076 0.611671 0.597055
O O4 0.998428 0.658435 0.538462
O O5 0.503676 0.837464 0.663162
O O6 0.263024 0.900207 0.708164
O O7 0.299855 0.901312 0.602548
O O8 0.500000 0.000000 0.660952
O O9 0.735421 0.090058 0.497260
O O10 0.500000 0.000000 0.462177
O O11 0.742831 0.005502 0.402216
O O12 0.750000 0.250000 0.151541
O O13 0.757905 0.109192 0.206310
O O14 0.750000 0.750000 0.263160
O O15 0.504926 0.653018 0.256621
O O16 0.728100 0.587842 0.310700
O O17 0.250000 0.750000 0.266994
O O18 0.223728 0.913349 0.309248
O O19 0.750000 0.750000 0.048582
O O20 0.500000 0.500000 0.350073
#
# Coordination Sequence:
#
# PCOD9354386 Si02
#       8
#     8   8   8   8   8   8   8   8
#     4   9  19  36  58  84 114 148 185 232 289 346
#     4  11  21  36  60  88 122 157 193 238 289 349
#     4  10  22  40  59  80 110 151 197 240 288 346
#     4   9  17  32  56  83 113 145 177 221 281 341
#     4  11  23  38  59  89 119 152 197 242 291 353
#     4  10  21  39  60  84 118 152 188 240 297 350
#     4  10  21  37  58  87 119 151 190 239 292 350
#     4  10  24  42  57  79 114 152 195 244 290 343
#
# _framework density 19.416553
#
# number of rings (size 3 to 8) (size 9 to 14) (size 15 to 20)
#    0.000    2.000    0.000    4.500    0.000    7.500 
#    0.000    5.000    0.000    6.000    0.000    0.000 
#    0.000    0.000    0.000    0.000    0.000    0.000 
#
# Total GULP energy -178463.326676 kJ/mol
# GULP energy per Si atom -5576.978959 kJ/mol
# Density = 1.937236 g / cm^3
# Si number density = 19.416553 Si / 1000 Ang^3
#
#
#
# Elastic Constant Matrix: (Units=GPa)
#
#
# Indices 1 2 3 4 5 6 
#
# 1 36.9430 35.4630 53.7822 0.0000 0.0000 0.0000
# 2 35.4630 149.9909 93.8497 0.0000 0.0000 0.0000
# 3 53.7822 93.8497 209.2904 0.0000 0.0000 0.0000
# 4 0.0000 0.0000 0.0000 -20.7369 0.0000 0.0000
# 5 0.0000 0.0000 0.0000 0.0000 34.8752 0.0000
# 6 0.0000 0.0000 0.0000 0.0000 0.0000 31.3445
#
#
#
# Elastic Compliance Matrix: (Units=1/GPa)
#
#
# Indices 1 2 3 4 5 6 
#
# 1 0.045601 -0.004795 -0.009568 0.000000 0.000000 0.000000
# 2 -0.004795 0.009771 -0.003150 0.000000 0.000000 0.000000
# 3 -0.009568 -0.003150 0.008649 0.000000 0.000000 0.000000
# 4 0.000000 0.000000 0.000000 -0.048223 0.000000 0.000000
# 5 0.000000 0.000000 0.000000 0.000000 0.028674 0.000000
# 6 0.000000 0.000000 0.000000 0.000000 0.000000 0.031904
#
#
# Mechanical properties :
#
#
# Convention : Reuss Voigt Hill
#
# Bulk Modulus (GPa) = 34.48703 84.71269 59.59986
# Shear Modulus (GPa) = 41.29984 23.30518 32.30251
#
# Velocity S-wave (km/s) = 4.61699 3.46826 4.08322
# Velocity P-wave (km/s) = 6.79870 7.73060 7.27958
#
# Compressibility (1/GPa) = 0.02899640
#
# Stress axis : x y z
#
# Youngs Moduli (GPa) = 21.92940 102.33944 115.61857
#
# Poissons Ratio (x) = 0.49070 1.10626
# Poissons Ratio (y) = 0.10515 0.36415
# Poissons Ratio (z) = 0.20982 0.32232
#
# Static dielectric constant tensor:
#      x y z
#    x 1.684070 0.000000 0.000000 
#    y 0.000000 1.753340 0.000000 
#    z 0.000000 0.000000 1.693730 
# 
# From -- ./inp_files/18481.got.cif
#   From: 2010.05.17/outbox.cif.g08.bks.cpg/sg37_10_cif.got.tgz:18481.got - 2010.06.03 17:53:42.
