data_PCOD9354255
_publ_section_title
;
Structure prediction by ZEFSAII (Michael W. Deem and Ramdas Pophale) SiO2 
 PCOD9354255
Probable space group: C C C 2
;
_chemical_formula_sum "Si O2"
_cell_formula_units_Z 48
_cell_length_a 9.152553
_cell_length_b 13.052520
_cell_length_c 18.537929
_cell_angle_alpha 90.000000
_cell_angle_beta 90.000000
_cell_angle_gamma 90.000000
_cell_volume 2214.612946
_symmetry_space_group_name_H-M "C C C 2"
_symmetry_group_IT_number 37
_symmetry_cell_setting 'orthorhombic'
loop_
_space_group_symop_operation_xyz
x,y,z
-x,-y,z
-x,y,1/2+z
x,-y,1/2+z
1/2+x,1/2+y,z
1/2-x,1/2-y,z
1/2-x,1/2+y,1/2+z
1/2+x,1/2-y,1/2+z
loop_
_atom_site_type_symbol
_atom_site_label
_atom_site_fract_x
_atom_site_fract_y
_atom_site_fract_z
Si Si1 0.563531 0.886812 0.054170
Si Si2 0.667320 0.486786 0.038564
Si Si3 0.818187 0.358108 0.159008
Si Si4 0.582594 0.212742 0.406894
Si Si5 0.386842 0.589866 0.876990
Si Si6 0.153658 0.473050 0.798127
O O1 0.486799 0.854933 0.129385
O O2 0.500000 0.000000 0.037130
O O3 0.737361 0.909861 0.050308
O O4 0.527405 0.814163 0.987153
O O5 0.500000 0.500000 0.058414
O O6 0.738687 0.405237 0.090466
O O7 0.665072 0.443308 0.957238
O O8 0.750000 0.250000 0.173187
O O9 0.772849 0.420541 0.229979
O O10 0.750000 0.250000 0.411535
O O11 0.474054 0.302130 0.377033
O O12 0.605428 0.109305 0.359614
O O13 0.500000 0.500000 0.855429
O O14 0.245163 0.568445 0.828191
O O15 0.000000 0.500000 0.764074
#
# Coordination Sequence:
#
# PCOD9354255 Si02
#       6
#     8   8   8   8   8   8
#     4  10  21  41  69 102 138 181 225 290 344 416
#     4  10  20  41  67 102 135 178 225 281 345 407
#     4  11  25  44  68  97 138 185 229 284 358 429
#     4  12  22  41  72 102 137 183 237 293 351 428
#     4  11  23  41  70 102 135 183 236 287 350 421
#     4  12  26  46  66 100 139 186 233 297 363 422
#
# _framework density 21.674216000000001
#
# number of rings (size 3 to 8) (size 9 to 14) (size 15 to 20)
#    0.000    1.000    3.333    4.500    2.333    1.333 
#    0.000    0.000    7.333    0.000    0.000    0.000 
#    0.000    0.000    0.000    0.000    0.000    0.000 
#
# Total GULP energy -133827.903996 kJ/mol
# GULP energy per Si atom -5576.162667 kJ/mol
# Density = 2.162488 g / cm^3
# Si number density = 21.674216 Si / 1000 Ang^3
#
#
#
# Elastic Constant Matrix: (Units=GPa)
#
#
# Indices 1 2 3 4 5 6 
#
# 1 27.4216 336.0614 427.9722 0.0000 0.0000 0.0000
# 2 336.0614-1013.7606-1427.2318 0.0000 0.0000 0.0000
# 3 427.9722-1427.2318-1833.1966 0.0000 0.0000 0.0000
# 4 0.0000 0.0000 0.0000 -243.3043 0.0000 0.0000
# 5 0.0000 0.0000 0.0000 0.0000 51.1497 0.0000
# 6 0.0000 0.0000 0.0000 0.0000 0.0000 56.7509
#
#
#
# Elastic Compliance Matrix: (Units=1/GPa)
#
#
# Indices 1 2 3 4 5 6 
#
# 1 0.007859 -0.000231 0.002015 0.000000 0.000000 0.000000
# 2 -0.000231 0.010273 -0.008052 0.000000 0.000000 0.000000
# 3 0.002015 -0.008052 0.006194 0.000000 0.000000 0.000000
# 4 0.000000 0.000000 0.000000 -0.004110 0.000000 0.000000
# 5 0.000000 0.000000 0.000000 0.000000 0.019550 0.000000
# 6 0.000000 0.000000 0.000000 0.000000 0.000000 0.017621
#
#
# Mechanical properties :
#
#
# Convention : Reuss Voigt Hill
#
# Bulk Modulus (GPa) = 84.83109 -460.65912 -187.91401
# Shear Modulus (GPa) = 67.70258 -170.83656 -51.56699
#
# Velocity S-wave (km/s) = 5.59502 -8.88770 -4.88298
# Velocity P-wave (km/s) = 8.99795 17.84155 10.89398
#
# Compressibility (1/GPa) = 0.01178813
#
# Stress axis : x y z
#
# Youngs Moduli (GPa) = 127.25040 97.34373 161.45736
#
# Poissons Ratio (x) = 0.02249 -0.32526
# Poissons Ratio (y) = 0.02941 1.30003
# Poissons Ratio (z) = -0.25635 0.78380
#
# Static dielectric constant tensor:
#      x y z
#    x 1.836240 0.000000 0.000000 
#    y 0.000000 2.134330 0.000000 
#    z 0.000000 0.000000 2.595220 
# 
# From -- ./inp_files/14515.got.cif
#   From: 2010.05.17/outbox.cif.g08.bks.cpg/sg37_8_cif.got.tgz:14515.got - 2010.06.03 17:53:42.
