data_PCOD9354279
_publ_section_title
;
Structure prediction by ZEFSAII (Michael W. Deem and Ramdas Pophale) SiO2 
 PCOD9354279
Probable space group: C C C 2
;
_chemical_formula_sum "Si O2"
_cell_formula_units_Z 40
_cell_length_a 7.460346
_cell_length_b 11.798547
_cell_length_c 20.935938
_cell_angle_alpha 90.000000
_cell_angle_beta 90.000000
_cell_angle_gamma 90.000000
_cell_volume 1842.807284
_symmetry_space_group_name_H-M "C C C 2"
_symmetry_group_IT_number 37
_symmetry_cell_setting 'orthorhombic'
loop_
_space_group_symop_operation_xyz
x,y,z
-x,-y,z
-x,y,1/2+z
x,-y,1/2+z
1/2+x,1/2+y,z
1/2-x,1/2-y,z
1/2-x,1/2+y,1/2+z
1/2+x,1/2-y,1/2+z
loop_
_atom_site_type_symbol
_atom_site_label
_atom_site_fract_x
_atom_site_fract_y
_atom_site_fract_z
Si Si1 0.147455 0.402091 0.662950
Si Si2 0.962056 0.758050 0.922434
Si Si3 0.500000 0.500000 0.370970
Si Si4 0.360990 0.899567 0.307252
Si Si5 0.500000 0.500000 0.600796
Si Si6 0.036270 0.754402 0.558455
O O1 0.159073 0.357300 0.735125
O O2 0.330141 0.465989 0.643843
O O3 0.000000 0.500000 0.660425
O O4 0.075397 0.307334 0.613811
O O5 0.750000 0.750000 0.938106
O O6 0.039587 0.883906 0.910198
O O7 0.953655 0.689577 0.855964
O O8 0.032017 0.708314 0.989536
O O9 0.673419 0.453904 0.332042
O O10 0.500000 0.000000 0.304957
O O11 0.514151 0.389212 0.557784
O O12 0.250000 0.750000 0.572084
#
# Coordination Sequence:
#
# PCOD9354279 Si02
#       6
#     8   8   4   8   4   8
#     4  11  24  44  67  99 137 176 225 278 334 400
#     4   9  21  41  65  94 129 171 221 272 329 394
#     4  10  20  42  66  92 129 173 212 280 328 388
#     4  10  23  42  65  98 130 170 219 268 331 390
#     4  12  24  42  70 100 129 183 220 276 342 392
#     4  11  23  44  68  98 136 178 224 278 333 401
#
# _framework density 21.706012999999999
#
# number of rings (size 3 to 8) (size 9 to 14) (size 15 to 20)
#    0.000    1.600    2.000    1.800    0.000    8.000 
#   10.800    0.000    0.000    0.000    0.000    0.000 
#    0.000    0.000    0.000    0.000    0.000    0.000 
#
# Total GULP energy -111384.494947 kJ/mol
# GULP energy per Si atom -5569.224747 kJ/mol
# Density = 2.165661 g / cm^3
# Si number density = 21.706013 Si / 1000 Ang^3
#
#
#
# Elastic Constant Matrix: (Units=GPa)
#
#
# Indices 1 2 3 4 5 6 
#
# 1 110.4964 41.0691 50.5593 0.0000 0.0000 0.0000
# 2 41.0691 134.2856 62.2921 0.0000 0.0000 0.0000
# 3 50.5593 62.2921 200.4748 0.0000 0.0000 0.0000
# 4 0.0000 0.0000 0.0000 38.4727 0.0000 0.0000
# 5 0.0000 0.0000 0.0000 0.0000 99.1434 0.0000
# 6 0.0000 0.0000 0.0000 0.0000 0.0000 38.8028
#
#
#
# Elastic Compliance Matrix: (Units=1/GPa)
#
#
# Indices 1 2 3 4 5 6 
#
# 1 0.010852 -0.002394 -0.001993 0.000000 0.000000 0.000000
# 2 -0.002394 0.009229 -0.002264 0.000000 0.000000 0.000000
# 3 -0.001993 -0.002264 0.006194 0.000000 0.000000 0.000000
# 4 0.000000 0.000000 0.000000 0.025992 0.000000 0.000000
# 5 0.000000 0.000000 0.000000 0.000000 0.010086 0.000000
# 6 0.000000 0.000000 0.000000 0.000000 0.000000 0.025771
#
#
# Mechanical properties :
#
#
# Convention : Reuss Voigt Hill
#
# Bulk Modulus (GPa) = 77.08277 83.67752 80.38014
# Shear Modulus (GPa) = 47.28035 54.70618 50.99327
#
# Velocity S-wave (km/s) = 4.67220 5.02573 4.85218
# Velocity P-wave (km/s) = 8.04333 8.50361 8.27667
#
# Compressibility (1/GPa) = 0.01297307
#
# Stress axis : x y z
#
# Youngs Moduli (GPa) = 92.14999 108.35081 161.44199
#
# Poissons Ratio (x) = 0.25944 0.32172
# Poissons Ratio (y) = 0.22065 0.36548
# Poissons Ratio (z) = 0.18364 0.24529
#
# Static dielectric constant tensor:
#      x y z
#    x 1.780830 0.000000 0.000000 
#    y 0.000000 1.773800 0.000000 
#    z 0.000000 0.000000 1.871490 
# 
# From -- ./inp_files/16238.got.cif
#   From: 2010.05.17/outbox.cif.g08.bks.cpg/sg37_9_cif.got.tgz:16238.got - 2010.06.03 17:53:42.
