data_PCOD9354590
_publ_section_title
;
Structure prediction by ZEFSAII (Michael W. Deem and Ramdas Pophale) SiO2 
 PCOD9354590
Probable space group: C C C 2
;
_chemical_formula_sum "Si O2"
_cell_formula_units_Z 56
_cell_length_a 8.784305
_cell_length_b 12.256652
_cell_length_c 26.730615
_cell_angle_alpha 90.000000
_cell_angle_beta 90.000000
_cell_angle_gamma 90.000000
_cell_volume 2877.982924
_symmetry_space_group_name_H-M "C C C 2"
_symmetry_group_IT_number 37
_symmetry_cell_setting 'orthorhombic'
loop_
_space_group_symop_operation_xyz
x,y,z
-x,-y,z
-x,y,1/2+z
x,-y,1/2+z
1/2+x,1/2+y,z
1/2-x,1/2-y,z
1/2-x,1/2+y,1/2+z
1/2+x,1/2-y,1/2+z
loop_
_atom_site_type_symbol
_atom_site_label
_atom_site_fract_x
_atom_site_fract_y
_atom_site_fract_z
Si Si1 0.842300 0.945597 0.161750
Si Si2 0.987125 0.369451 0.484632
Si Si3 0.250000 0.750000 0.416845
Si Si4 0.865634 0.347795 0.189445
Si Si5 0.994488 0.871018 0.355587
Si Si6 0.918763 0.777775 0.251007
Si Si7 0.932744 0.622623 0.096886
Si Si8 0.750000 0.250000 0.923353
O O1 0.894365 0.861155 0.204664
O O2 0.737832 0.887043 0.119562
O O3 0.729079 0.039913 0.184192
O O4 0.000000 0.000000 0.142812
O O5 0.136270 0.317183 0.459281
O O6 0.000000 0.500000 0.484328
O O7 0.847362 0.330308 0.451217
O O8 0.954377 0.331148 0.541583
O O9 0.361994 0.680814 0.382871
O O10 0.750000 0.250000 0.198324
O O11 0.992514 0.330180 0.232152
O O12 0.957764 0.324725 0.138264
O O13 0.997263 0.833428 0.298013
O O14 0.849783 0.826382 0.386832
O O15 0.000000 0.000000 0.357701
O O16 0.750000 0.750000 0.268127
O O17 0.000000 0.500000 0.094133
#
# Coordination Sequence:
#
# PCOD9354590 Si02
#       8
#     8   8   4   8   8   8   8   4
#     4  11  22  40  59  90 129 167 205 251 303 371
#     4  10  21  42  65  90 124 159 202 262 313 366
#     4  10  24  42  64  92 120 160 210 262 318 372
#     4  11  23  38  59  90 125 163 203 245 301 371
#     4  11  24  42  63  91 123 158 209 261 311 372
#     4  12  24  40  63  89 125 166 207 254 309 367
#     4   9  21  39  60  90 126 158 204 250 304 371
#     4  10  22  42  66  90 116 162 208 250 326 374
#
# _framework density 19.458072999999999
#
# number of rings (size 3 to 8) (size 9 to 14) (size 15 to 20)
#    0.000    1.429    3.571    1.286    2.000    1.143 
#    0.000    3.571    0.000    0.000    0.000    0.000 
#    0.000    0.000    0.000    0.000    0.000    0.000 
#
# Total GULP energy -156334.535196 kJ/mol
# GULP energy per Si atom -5583.376257 kJ/mol
# Density = 1.941379 g / cm^3
# Si number density = 19.458073 Si / 1000 Ang^3
#
#
#
# Elastic Constant Matrix: (Units=GPa)
#
#
# Indices 1 2 3 4 5 6 
#
# 1 118.5764 25.9960 50.8107 0.0000 0.0000 0.0000
# 2 25.9960 73.6281 36.0784 0.0000 0.0000 0.0000
# 3 50.8107 36.0784 132.2983 0.0000 0.0000 0.0000
# 4 0.0000 0.0000 0.0000 29.5176 0.0000 0.0000
# 5 0.0000 0.0000 0.0000 0.0000 19.6087 0.0000
# 6 0.0000 0.0000 0.0000 0.0000 0.0000 7.1332
#
#
#
# Elastic Compliance Matrix: (Units=1/GPa)
#
#
# Indices 1 2 3 4 5 6 
#
# 1 0.010336 -0.001967 -0.003433 0.000000 0.000000 0.000000
# 2 -0.001967 0.016051 -0.003622 0.000000 0.000000 0.000000
# 3 -0.003433 -0.003622 0.009865 0.000000 0.000000 0.000000
# 4 0.000000 0.000000 0.000000 0.033878 0.000000 0.000000
# 5 0.000000 0.000000 0.000000 0.000000 0.050998 0.000000
# 6 0.000000 0.000000 0.000000 0.000000 0.000000 0.140190
#
#
# Mechanical properties :
#
#
# Convention : Reuss Voigt Hill
#
# Bulk Modulus (GPa) = 54.92145 61.14146 58.03145
# Shear Modulus (GPa) = 17.51737 25.35973 21.43855
#
# Velocity S-wave (km/s) = 3.00369 3.61404 3.32291
# Velocity P-wave (km/s) = 6.34952 6.99324 6.67914
#
# Compressibility (1/GPa) = 0.01820782
#
# Stress axis : x y z
#
# Youngs Moduli (GPa) = 96.75168 62.30173 101.36973
#
# Poissons Ratio (x) = 0.12255 0.34802
# Poissons Ratio (y) = 0.19031 0.36713
# Poissons Ratio (z) = 0.33216 0.22564
#
# Static dielectric constant tensor:
#      x y z
#    x 1.696900 0.000000 0.000000 
#    y 0.000000 1.649160 0.000000 
#    z 0.000000 0.000000 1.663420 
# 
# From -- ./inp_files/19685.got.cif
#   From: 2010.05.17/outbox.cif.g08.bks.cpg/sg37_10_cif.got.tgz:19685.got - 2010.06.03 17:53:42.
