data_PCOD9354750
_publ_section_title
;
Structure prediction by ZEFSAII (Michael W. Deem and Ramdas Pophale) SiO2 
 PCOD9354750
Probable space group: C C C 2
;
_chemical_formula_sum "Si O2"
_cell_formula_units_Z 64
_cell_length_a 9.688575
_cell_length_b 24.995231
_cell_length_c 14.031056
_cell_angle_alpha 90.000000
_cell_angle_beta 90.000000
_cell_angle_gamma 90.000000
_cell_volume 3397.875157
_symmetry_space_group_name_H-M "C C C 2"
_symmetry_group_IT_number 37
_symmetry_cell_setting 'orthorhombic'
loop_
_space_group_symop_operation_xyz
x,y,z
-x,-y,z
-x,y,1/2+z
x,-y,1/2+z
1/2+x,1/2+y,z
1/2-x,1/2-y,z
1/2-x,1/2+y,1/2+z
1/2+x,1/2-y,1/2+z
loop_
_atom_site_type_symbol
_atom_site_label
_atom_site_fract_x
_atom_site_fract_y
_atom_site_fract_z
Si Si1 0.664925 0.493704 0.607440
Si Si2 0.275190 0.413171 0.755871
Si Si3 0.414833 0.744817 0.621016
Si Si4 0.530772 0.660262 0.271353
Si Si5 0.724810 0.086829 0.763040
Si Si6 0.585167 0.244817 0.397896
Si Si7 0.969228 0.339738 0.247559
Si Si8 0.335075 0.006296 0.911472
O O1 0.500000 0.500000 0.592191
O O2 0.712436 0.543858 0.671860
O O3 0.705178 0.442240 0.672074
O O4 0.750000 0.491920 0.509456
O O5 0.424216 0.388612 0.777893
O O6 0.205178 0.442240 0.846838
O O7 0.180120 0.363608 0.726983
O O8 0.250000 0.750000 0.636889
O O9 0.464552 0.689441 0.668491
O O10 0.441466 0.750000 0.509456
O O11 0.487270 0.793512 0.675230
O O12 0.680121 0.636392 0.291928
O O13 0.487270 0.706489 0.343682
O O14 0.575783 0.111388 0.741019
O O15 0.712438 0.043858 0.847052
O O16 0.750000 0.250000 0.382022
O O17 0.535448 0.189441 0.350420
O O18 0.500000 0.000000 0.926720
#
# Coordination Sequence:
#
# PCOD9354750 Si02
#       8
#     8   8   8   8   8   8   8   8
#     4  11  26  42  64  96 127 163 210 261 311 370
#     4  11  24  43  64  88 130 167 209 252 313 375
#     4  10  22  39  63  93 124 160 210 260 308 369
#     4  11  22  41  64  91 124 168 204 257 311 368
#     4  11  24  43  64  88 130 167 209 252 313 375
#     4  10  22  39  63  93 124 160 210 260 308 369
#     4  11  22  41  64  91 124 168 204 257 311 368
#     4  11  26  42  64  96 127 163 210 261 311 370
#
# _framework density 18.8353
#
# number of rings (size 3 to 8) (size 9 to 14) (size 15 to 20)
#    0.000    1.250    5.000    0.000    3.500    4.000 
#    0.000    1.250    0.000    0.000    0.000    0.000 
#    0.000    0.000    0.000    0.000    0.000    0.000 
#
# Total GULP energy -178727.743358 kJ/mol
# GULP energy per Si atom -5585.241980 kJ/mol
# Density = 1.879243 g / cm^3
# Si number density = 18.835300 Si / 1000 Ang^3
#
#
#
# Elastic Constant Matrix: (Units=GPa)
#
#
# Indices 1 2 3 4 5 6 
#
# 1 62.3523 -2.0649 58.9997 0.0000 0.0000 0.0000
# 2 -2.0649 64.2786 35.8354 0.0000 0.0000 0.0000
# 3 58.9997 35.8354 112.8106 0.0000 0.0000 0.0000
# 4 0.0000 0.0000 0.0000 9.7186 0.0000 0.0000
# 5 0.0000 0.0000 0.0000 0.0000 29.4690 0.0000
# 6 0.0000 0.0000 0.0000 0.0000 0.0000 46.6922
#
#
#
# Elastic Compliance Matrix: (Units=1/GPa)
#
#
# Indices 1 2 3 4 5 6 
#
# 1 0.042898 0.016874 -0.027796 0.000000 0.000000 0.000000
# 2 0.016874 0.025543 -0.016939 0.000000 0.000000 0.000000
# 3 -0.027796 -0.016939 0.028783 0.000000 0.000000 0.000000
# 4 0.000000 0.000000 0.000000 0.102895 0.000000 0.000000
# 5 0.000000 0.000000 0.000000 0.000000 0.033934 0.000000
# 6 0.000000 0.000000 0.000000 0.000000 0.000000 0.021417
#
#
# Mechanical properties :
#
#
# Convention : Reuss Voigt Hill
#
# Bulk Modulus (GPa) = 24.09515 47.22021 35.65768
# Shear Modulus (GPa) = 15.38337 26.95404 21.16871
#
# Velocity S-wave (km/s) = 2.86095 3.78701 3.35608
# Velocity P-wave (km/s) = 4.87173 6.65180 5.83010
#
# Compressibility (1/GPa) = 0.04150213
#
# Stress axis : x y z
#
# Youngs Moduli (GPa) = 23.31096 39.14959 34.74315
#
# Poissons Ratio (x) = -0.66063 0.96572
# Poissons Ratio (y) = -0.39336 0.58853
# Poissons Ratio (z) = 0.64795 0.66317
#
# Static dielectric constant tensor:
#      x y z
#    x 1.637240 0.000000 0.000000 
#    y 0.000000 1.642500 0.000000 
#    z 0.000000 0.000000 1.618020 
# 
# From -- ./inp_files/11001.got.cif
#   From: 2010.05.17/outbox.cif.g08.bks.cpg/sg37_6_cif.got.tgz:11001.got - 2010.06.03 17:53:42.
