data_PCOD9354367
_publ_section_title
;
Structure prediction by ZEFSAII (Michael W. Deem and Ramdas Pophale) SiO2 
 PCOD9354367
Probable space group: C C C 2
;
_chemical_formula_sum "Si O2"
_cell_formula_units_Z 64
_cell_length_a 15.200828
_cell_length_b 23.333282
_cell_length_c 9.326454
_cell_angle_alpha 90.000000
_cell_angle_beta 90.000000
_cell_angle_gamma 90.000000
_cell_volume 3307.955262
_symmetry_space_group_name_H-M "C C C 2"
_symmetry_group_IT_number 37
_symmetry_cell_setting 'orthorhombic'
loop_
_space_group_symop_operation_xyz
x,y,z
-x,-y,z
-x,y,1/2+z
x,-y,1/2+z
1/2+x,1/2+y,z
1/2-x,1/2-y,z
1/2-x,1/2+y,1/2+z
1/2+x,1/2-y,1/2+z
loop_
_atom_site_type_symbol
_atom_site_label
_atom_site_fract_x
_atom_site_fract_y
_atom_site_fract_z
Si Si1 0.418282 0.124146 0.104600
Si Si2 0.622195 0.395054 0.813830
Si Si3 0.507389 0.584211 0.568145
Si Si4 0.381831 0.532353 0.325345
Si Si5 0.288029 0.812356 0.804493
Si Si6 0.118774 0.366306 0.553123
Si Si7 0.412297 0.031500 0.348048
Si Si8 0.191065 0.581112 0.332600
O O1 0.363658 0.170978 0.192134
O O2 0.514288 0.144627 0.056560
O O3 0.435886 0.071888 0.214664
O O4 0.356909 0.101891 0.976631
O O5 0.558421 0.384377 0.678097
O O6 0.637355 0.464235 0.822908
O O7 0.711154 0.359951 0.795999
O O8 0.571260 0.380560 0.961880
O O9 0.445963 0.549567 0.456046
O O10 0.569165 0.548258 0.676985
O O11 0.294769 0.570637 0.342109
O O12 0.250000 0.750000 0.779421
O O13 0.331268 0.819166 0.960857
O O14 0.127562 0.426630 0.466948
O O15 0.161059 0.376487 0.707142
O O16 0.500000 0.000000 0.402620
O O17 0.347258 0.981952 0.300310
#
# Coordination Sequence:
#
# PCOD9354367 Si02
#       8
#     8   8   8   8   8   8   8   8
#     4  11  22  39  62  89 129 166 203 245 306 375
#     4  11  20  38  58  86 115 155 195 245 300 353
#     4  10  21  36  60  86 124 156 186 240 297 366
#     4  11  20  33  55  90 125 157 194 227 297 368
#     4  11  26  47  63  82 115 158 217 275 313 352
#     4  11  22  39  62  89 129 166 203 245 306 375
#     4  11  20  34  56  96 140 176 190 219 293 393
#     4  12  22  32  59  99 131 169 200 237 297 382
#
# _framework density 19.347299
#
# number of rings (size 3 to 8) (size 9 to 14) (size 15 to 20)
#    0.000    1.000    2.500    7.500    0.000    2.000 
#    2.250    0.625    0.000    0.000    0.000    0.000 
#    0.000    0.000    0.000    0.000    0.000    0.000 
#
# Total GULP energy -178836.939609 kJ/mol
# GULP energy per Si atom -5588.654363 kJ/mol
# Density = 1.930326 g / cm^3
# Si number density = 19.347299 Si / 1000 Ang^3
#
#
#
# Elastic Constant Matrix: (Units=GPa)
#
#
# Indices 1 2 3 4 5 6 
#
# 1 116.7377 26.6863 11.4956 0.0000 0.0000 0.0000
# 2 26.6863 55.6730 8.1543 0.0000 0.0000 0.0000
# 3 11.4956 8.1543 81.7895 0.0000 0.0000 0.0000
# 4 0.0000 0.0000 0.0000 7.6665 0.0000 0.0000
# 5 0.0000 0.0000 0.0000 0.0000 27.2208 0.0000
# 6 0.0000 0.0000 0.0000 0.0000 0.0000 3.1084
#
#
#
# Elastic Compliance Matrix: (Units=1/GPa)
#
#
# Indices 1 2 3 4 5 6 
#
# 1 0.009687 -0.004510 -0.000912 0.000000 0.000000 0.000000
# 2 -0.004510 0.020328 -0.001393 0.000000 0.000000 0.000000
# 3 -0.000912 -0.001393 0.012494 0.000000 0.000000 0.000000
# 4 0.000000 0.000000 0.000000 0.130437 0.000000 0.000000
# 5 0.000000 0.000000 0.000000 0.000000 0.036737 0.000000
# 6 0.000000 0.000000 0.000000 0.000000 0.000000 0.321710
#
#
# Mechanical properties :
#
#
# Convention : Reuss Voigt Hill
#
# Bulk Modulus (GPa) = 34.62690 38.54141 36.58415
# Shear Modulus (GPa) = 9.01474 21.45674 15.23574
#
# Velocity S-wave (km/s) = 2.16091 3.33382 2.80926
# Velocity P-wave (km/s) = 4.91553 5.89773 5.42889
#
# Compressibility (1/GPa) = 0.02887928
#
# Stress axis : x y z
#
# Youngs Moduli (GPa) = 103.23164 49.19384 80.04141
#
# Poissons Ratio (x) = 0.22185 0.07299
# Poissons Ratio (y) = 0.46555 0.11148
# Poissons Ratio (z) = 0.09414 0.06852
#
# Static dielectric constant tensor:
#      x y z
#    x 1.707300 0.000000 0.000000 
#    y 0.000000 1.652320 0.000000 
#    z 0.000000 0.000000 1.692130 
# 
# From -- ./inp_files/3747.got.cif
#   From: 2010.05.17/outbox.cif.g08.bks.cpg/sg37_2_cif.got.tgz:3747.got - 2010.06.03 17:53:42.
