data_PCOD9354683
_publ_section_title
;
Structure prediction by ZEFSAII (Michael W. Deem and Ramdas Pophale) SiO2 
 PCOD9354683
Probable space group: C C C 2
;
_chemical_formula_sum "Si O2"
_cell_formula_units_Z 60
_cell_length_a 8.999980
_cell_length_b 25.928874
_cell_length_c 11.759724
_cell_angle_alpha 90.000000
_cell_angle_beta 90.000000
_cell_angle_gamma 90.000000
_cell_volume 2744.241519
_symmetry_space_group_name_H-M "C C C 2"
_symmetry_group_IT_number 37
_symmetry_cell_setting 'orthorhombic'
loop_
_space_group_symop_operation_xyz
x,y,z
-x,-y,z
-x,y,1/2+z
x,-y,1/2+z
1/2+x,1/2+y,z
1/2-x,1/2-y,z
1/2-x,1/2+y,1/2+z
1/2+x,1/2-y,1/2+z
loop_
_atom_site_type_symbol
_atom_site_label
_atom_site_fract_x
_atom_site_fract_y
_atom_site_fract_z
Si Si1 0.415496 0.393888 0.039660
Si Si2 0.371872 0.187612 0.604883
Si Si3 0.579808 0.709696 0.492046
Si Si4 0.730005 0.595725 0.650538
Si Si5 0.250000 0.250000 0.300097
Si Si6 0.275899 0.961846 0.377609
Si Si7 0.164283 0.643611 0.697915
Si Si8 0.108715 0.427455 0.415794
O O1 0.462231 0.336350 0.993816
O O2 0.562531 0.409738 0.107865
O O3 0.282467 0.388712 0.128137
O O4 0.357975 0.433788 0.944819
O O5 0.421376 0.247896 0.594152
O O6 0.246589 0.185998 0.505198
O O7 0.271720 0.154085 0.694328
O O8 0.526629 0.158433 0.617389
O O9 0.599472 0.741144 0.375651
O O10 0.765953 0.555868 0.747873
O O11 0.830995 0.587136 0.539650
O O12 0.234387 0.301666 0.229901
O O13 0.435512 0.942300 0.423841
O O14 0.289821 0.023210 0.383781
O O15 0.121060 0.613987 0.813797
#
# Coordination Sequence:
#
# PCOD9354683 Si02
#       8
#     8   8   8   8   4   8   8   8
#     4  11  26  42  70 103 150 181 245 299 367 437
#     4   9  18  39  68  93 135 188 234 284 358 417
#     4   9  20  42  64  98 146 190 233 297 361 432
#     4  11  24  47  70 100 150 181 236 308 361 430
#     4  10  22  36  68  96 144 188 238 286 370 430
#     4  11  27  47  73 108 135 197 245 295 364 429
#     4  12  22  41  69 105 136 195 239 301 358 440
#     4  11  26  46  74 100 142 188 251 297 358 429
#
# _framework density 21.863965
#
# number of rings (size 3 to 8) (size 9 to 14) (size 15 to 20)
#    0.000    1.600    1.333    4.000    5.600    1.600 
#    0.000    0.000    0.000    0.000    0.000    0.000 
#    0.000    0.000    0.000    0.000    0.000    0.000 
#
# Total GULP energy -167049.351141 kJ/mol
# GULP energy per Si atom -5568.311705 kJ/mol
# Density = 2.181420 g / cm^3
# Si number density = 21.863965 Si / 1000 Ang^3
#
#
#
# Elastic Constant Matrix: (Units=GPa)
#
#
# Indices 1 2 3 4 5 6 
#
# 1 111.7448 19.0407 29.1822 0.0000 0.0000 0.0000
# 2 19.0407 123.7418 32.0092 0.0000 0.0000 0.0000
# 3 29.1822 32.0092 65.9585 0.0000 0.0000 0.0000
# 4 0.0000 0.0000 0.0000 30.2339 0.0000 0.0000
# 5 0.0000 0.0000 0.0000 0.0000 17.5286 0.0000
# 6 0.0000 0.0000 0.0000 0.0000 0.0000 36.0031
#
#
#
# Elastic Compliance Matrix: (Units=1/GPa)
#
#
# Indices 1 2 3 4 5 6 
#
# 1 0.010141 -0.000457 -0.004265 0.000000 0.000000 0.000000
# 2 -0.000457 0.009262 -0.004293 0.000000 0.000000 0.000000
# 3 -0.004265 -0.004293 0.019131 0.000000 0.000000 0.000000
# 4 0.000000 0.000000 0.000000 0.033076 0.000000 0.000000
# 5 0.000000 0.000000 0.000000 0.000000 0.057049 0.000000
# 6 0.000000 0.000000 0.000000 0.000000 0.000000 0.027775
#
#
# Mechanical properties :
#
#
# Convention : Reuss Voigt Hill
#
# Bulk Modulus (GPa) = 48.76887 51.32326 50.04607
# Shear Modulus (GPa) = 27.57893 31.50065 29.53979
#
# Velocity S-wave (km/s) = 3.55545 3.79985 3.67968
# Velocity P-wave (km/s) = 6.26171 6.54039 6.40257
#
# Compressibility (1/GPa) = 0.02050488
#
# Stress axis : x y z
#
# Youngs Moduli (GPa) = 98.61363 107.96711 52.27111
#
# Poissons Ratio (x) = 0.04936 0.22292
# Poissons Ratio (y) = 0.04509 0.22438
# Poissons Ratio (z) = 0.42055 0.46345
#
# Static dielectric constant tensor:
#      x y z
#    x 1.788970 0.000000 0.000000 
#    y 0.000000 1.996060 0.000000 
#    z 0.000000 0.000000 1.845840 
# 
# From -- ./inp_files/6541.got.cif
#   From: 2010.05.17/outbox.cif.g08.bks.cpg/sg37_4_cif.got.tgz:6541.got - 2010.06.03 17:53:42.
