data_PCOD9354710
_publ_section_title
;
Structure prediction by ZEFSAII (Michael W. Deem and Ramdas Pophale) SiO2 
 PCOD9354710
Probable space group: C C C 2
;
_chemical_formula_sum "Si O2"
_cell_formula_units_Z 52
_cell_length_a 9.189471
_cell_length_b 20.647578
_cell_length_c 14.035546
_cell_angle_alpha 90.000000
_cell_angle_beta 90.000000
_cell_angle_gamma 90.000000
_cell_volume 2663.108979
_symmetry_space_group_name_H-M "C C C 2"
_symmetry_group_IT_number 37
_symmetry_cell_setting 'orthorhombic'
loop_
_space_group_symop_operation_xyz
x,y,z
-x,-y,z
-x,y,1/2+z
x,-y,1/2+z
1/2+x,1/2+y,z
1/2-x,1/2-y,z
1/2-x,1/2+y,1/2+z
1/2+x,1/2-y,1/2+z
loop_
_atom_site_type_symbol
_atom_site_label
_atom_site_fract_x
_atom_site_fract_y
_atom_site_fract_z
Si Si1 0.358339 0.590922 0.883540
Si Si2 0.691270 0.441586 0.398152
Si Si3 0.809290 0.824079 0.571993
Si Si4 0.701001 0.821380 0.237701
Si Si5 0.633323 0.860430 0.757548
Si Si6 0.361387 0.336654 0.049683
Si Si7 0.750000 0.750000 0.894215
O O1 0.306006 0.518552 0.907434
O O2 0.530834 0.582131 0.864848
O O3 0.292374 0.623994 0.791324
O O4 0.312618 0.637043 0.972000
O O5 0.813197 0.421016 0.321349
O O6 0.690719 0.403387 0.499174
O O7 0.750000 0.750000 0.562451
O O8 0.713284 0.856502 0.655506
O O9 0.980796 0.830633 0.598826
O O10 0.750000 0.750000 0.275161
O O11 0.535637 0.844218 0.247219
O O12 0.741806 0.820779 0.127216
O O13 0.687520 0.803035 0.825245
O O14 0.363678 0.284629 0.964082
#
# Coordination Sequence:
#
# PCOD9354710 Si02
#       7
#     8   8   8   8   8   8   4
#     4  10  23  41  66  90 127 163 219 255 306 372
#     4   9  22  45  64  90 119 175 212 258 306 368
#     4  11  22  37  63  95 125 164 205 260 309 378
#     4  12  25  38  62  97 129 164 202 264 314 375
#     4  11  24  38  64  91 130 161 209 254 318 366
#     4  10  22  39  64  87 127 160 211 253 313 363
#     4  10  22  38  60  88 124 162 194 260 304 370
#
# _framework density 19.526050999999999
#
# number of rings (size 3 to 8) (size 9 to 14) (size 15 to 20)
#    0.000    1.538    1.538    2.308    8.615    3.077 
#    0.000    3.077    0.000    0.000    0.000    0.000 
#    0.000    0.000    0.000    0.000    0.000    0.000 
#
# Total GULP energy -144906.641873 kJ/mol
# GULP energy per Si atom -5573.332380 kJ/mol
# Density = 1.948161 g / cm^3
# Si number density = 19.526051 Si / 1000 Ang^3
#
#
#
# Elastic Constant Matrix: (Units=GPa)
#
#
# Indices 1 2 3 4 5 6 
#
# 1 87.0085 18.3022 27.7161 0.0000 0.0000 0.0000
# 2 18.3022 80.1312 5.3290 0.0000 0.0000 0.0000
# 3 27.7161 5.3290 50.6236 0.0000 0.0000 0.0000
# 4 0.0000 0.0000 0.0000 13.8834 0.0000 0.0000
# 5 0.0000 0.0000 0.0000 0.0000 37.4419 0.0000
# 6 0.0000 0.0000 0.0000 0.0000 0.0000 15.6434
#
#
#
# Elastic Compliance Matrix: (Units=1/GPa)
#
#
# Indices 1 2 3 4 5 6 
#
# 1 0.014522 -0.002808 -0.007655 0.000000 0.000000 0.000000
# 2 -0.002808 0.013110 0.000157 0.000000 0.000000 0.000000
# 3 -0.007655 0.000157 0.023928 0.000000 0.000000 0.000000
# 4 0.000000 0.000000 0.000000 0.072028 0.000000 0.000000
# 5 0.000000 0.000000 0.000000 0.000000 0.026708 0.000000
# 6 0.000000 0.000000 0.000000 0.000000 0.000000 0.063925
#
#
# Mechanical properties :
#
#
# Convention : Reuss Voigt Hill
#
# Bulk Modulus (GPa) = 32.31108 35.60641 33.95875
# Shear Modulus (GPa) = 20.39563 24.48814 22.44189
#
# Velocity S-wave (km/s) = 3.23543 3.54521 3.39386
# Velocity P-wave (km/s) = 5.52639 5.91886 5.72599
#
# Compressibility (1/GPa) = 0.03094914
#
# Stress axis : x y z
#
# Youngs Moduli (GPa) = 68.85955 76.27533 41.79147
#
# Poissons Ratio (x) = 0.21417 0.31993
# Poissons Ratio (y) = 0.19335 -0.00657
# Poissons Ratio (z) = 0.52714 -0.01199
#
# Static dielectric constant tensor:
#      x y z
#    x 1.749620 0.000000 0.000000 
#    y 0.000000 1.738450 0.000000 
#    z 0.000000 0.000000 1.686080 
# 
# From -- ./inp_files/10764.got.cif
#   From: 2010.05.17/outbox.cif.g08.bks.cpg/sg37_6_cif.got.tgz:10764.got - 2010.06.03 17:53:42.
