data_PCOD9354344
_publ_section_title
;
Structure prediction by ZEFSAII (Michael W. Deem and Ramdas Pophale) SiO2 
 PCOD9354344
Probable space group: C C C 2
;
_chemical_formula_sum "Si O2"
_cell_formula_units_Z 56
_cell_length_a 12.455117
_cell_length_b 14.291004
_cell_length_c 17.655566
_cell_angle_alpha 90.000000
_cell_angle_beta 90.000000
_cell_angle_gamma 90.000000
_cell_volume 3142.622366
_symmetry_space_group_name_H-M "C C C 2"
_symmetry_group_IT_number 37
_symmetry_cell_setting 'orthorhombic'
loop_
_space_group_symop_operation_xyz
x,y,z
-x,-y,z
-x,y,1/2+z
x,-y,1/2+z
1/2+x,1/2+y,z
1/2-x,1/2-y,z
1/2-x,1/2+y,1/2+z
1/2+x,1/2-y,1/2+z
loop_
_atom_site_type_symbol
_atom_site_label
_atom_site_fract_x
_atom_site_fract_y
_atom_site_fract_z
Si Si1 0.957850 0.104663 0.695600
Si Si2 0.475094 0.894742 0.707530
Si Si3 0.376175 0.248541 0.634305
Si Si4 0.311322 0.351821 0.050627
Si Si5 0.876803 0.759812 0.318677
Si Si6 0.095480 0.575912 0.540144
Si Si7 0.998429 0.242402 0.976355
O O1 0.871931 0.119999 0.627822
O O2 0.904223 0.148299 0.769848
O O3 0.061210 0.168421 0.676215
O O4 0.000000 0.000000 0.701994
O O5 0.582097 0.845013 0.675741
O O6 0.420639 0.828458 0.769451
O O7 0.406084 0.897654 0.629784
O O8 0.500000 0.000000 0.733067
O O9 0.250000 0.250000 0.637450
O O10 0.417842 0.255567 0.548023
O O11 0.250000 0.250000 0.059604
O O12 0.223507 0.429630 0.026335
O O13 0.408049 0.333465 0.991616
O O14 0.750000 0.750000 0.329145
O O15 0.937537 0.765574 0.398172
O O16 0.057805 0.658406 0.485136
O O17 0.000000 0.500000 0.533136
#
# Coordination Sequence:
#
# PCOD9354344 Si02
#       7
#     8   8   8   8   8   8   8
#     4  10  21  35  54  80 107 140 183 223 271 327
#     4   9  19  34  55  82 107 133 177 223 264 313
#     4   9  18  34  53  75 104 136 177 229 272 311
#     4   9  17  36  60  76 102 140 178 222 270 320
#     4  11  21  36  55  76 110 149 182 217 265 328
#     4   9  17  32  57  84 102 129 178 227 266 314
#     4   9  19  33  51  77 106 141 178 215 266 321
#
# _framework density 17.819512
#
# number of rings (size 3 to 8) (size 9 to 14) (size 15 to 20)
#    0.000    2.571    0.000    4.286    0.000    5.143 
#    0.000   12.857    0.000    0.000    0.000    0.000 
#    0.000    0.000    0.000    0.000    0.000    0.000 
#
# Total GULP energy -155933.356372 kJ/mol
# GULP energy per Si atom -5569.048442 kJ/mol
# Density = 1.777895 g / cm^3
# Si number density = 17.819512 Si / 1000 Ang^3
#
#
#
# Elastic Constant Matrix: (Units=GPa)
#
#
# Indices 1 2 3 4 5 6 
#
# 1 176.1313 47.7767 65.7906 0.0000 0.0000 0.0000
# 2 47.7767 91.3432 39.7923 0.0000 0.0000 0.0000
# 3 65.7906 39.7923 110.4901 0.0000 0.0000 0.0000
# 4 0.0000 0.0000 0.0000 1.6972 0.0000 0.0000
# 5 0.0000 0.0000 0.0000 0.0000 8.5653 0.0000
# 6 0.0000 0.0000 0.0000 0.0000 0.0000 24.2085
#
#
#
# Elastic Compliance Matrix: (Units=1/GPa)
#
#
# Indices 1 2 3 4 5 6 
#
# 1 0.007726 -0.002416 -0.003730 0.000000 0.000000 0.000000
# 2 -0.002416 0.013740 -0.003510 0.000000 0.000000 0.000000
# 3 -0.003730 -0.003510 0.012536 0.000000 0.000000 0.000000
# 4 0.000000 0.000000 0.000000 0.589209 0.000000 0.000000
# 5 0.000000 0.000000 0.000000 0.000000 0.116750 0.000000
# 6 0.000000 0.000000 0.000000 0.000000 0.000000 0.041308
#
#
# Mechanical properties :
#
#
# Convention : Reuss Voigt Hill
#
# Bulk Modulus (GPa) = 68.07423 76.07598 72.07510
# Shear Modulus (GPa) = 6.20748 21.86786 14.03767
#
# Velocity S-wave (km/s) = 1.86845 3.50692 2.80977
# Velocity P-wave (km/s) = 6.55285 7.69306 7.14573
#
# Compressibility (1/GPa) = 0.01468985
#
# Stress axis : x y z
#
# Youngs Moduli (GPa) = 129.42580 72.77757 79.77065
#
# Poissons Ratio (x) = 0.17584 0.29758
# Poissons Ratio (y) = 0.31271 0.27998
# Poissons Ratio (z) = 0.48282 0.25544
#
# Static dielectric constant tensor:
#      x y z
#    x 1.632610 0.000000 0.000000 
#    y 0.000000 1.653000 0.000000 
#    z 0.000000 0.000000 1.587150 
# 
# From -- ./inp_files/11592.got.cif
#   From: 2010.05.17/outbox.cif.g08.bks.cpg/sg37_6_cif.got.tgz:11592.got - 2010.06.03 17:53:42.
