data_PCOD9354136
_publ_section_title
;
Structure prediction by ZEFSAII (Michael W. Deem and Ramdas Pophale) SiO2 
 PCOD9354136
Probable space group: C C C 2
;
_chemical_formula_sum "Si O2"
_cell_formula_units_Z 32
_cell_length_a 5.025752
_cell_length_b 14.467455
_cell_length_c 18.613262
_cell_angle_alpha 90.000000
_cell_angle_beta 90.000000
_cell_angle_gamma 90.000000
_cell_volume 1353.367319
_symmetry_space_group_name_H-M "C C C 2"
_symmetry_group_IT_number 37
_symmetry_cell_setting 'orthorhombic'
loop_
_space_group_symop_operation_xyz
x,y,z
-x,-y,z
-x,y,1/2+z
x,-y,1/2+z
1/2+x,1/2+y,z
1/2-x,1/2-y,z
1/2-x,1/2+y,1/2+z
1/2+x,1/2-y,1/2+z
loop_
_atom_site_type_symbol
_atom_site_label
_atom_site_fract_x
_atom_site_fract_y
_atom_site_fract_z
Si Si1 0.487859 0.388270 0.715840
Si Si2 0.495095 0.314911 0.376863
Si Si3 0.006840 0.387245 0.128106
Si Si4 0.761980 0.941335 0.495456
O O1 0.500000 0.500000 0.719885
O O2 0.524034 0.350938 0.795562
O O3 0.201065 0.358206 0.688229
O O4 0.706356 0.358223 0.656696
O O5 0.250000 0.250000 0.390038
O O6 0.438058 0.397093 0.432498
O O7 0.750000 0.250000 0.387867
O O8 0.000000 0.500000 0.126958
O O9 0.877856 0.368458 0.050233
O O10 0.500000 0.000000 0.470255
O O11 0.000000 0.000000 0.534994
#
# Coordination Sequence:
#
# PCOD9354136 Si02
#       4
#     8   8   8   8
#     4  10  20  38  64  90 118 159 211 263 317 377
#     4  12  26  42  60  93 137 175 211 263 324 394
#     4   9  18  35  63  93 116 148 209 275 316 366
#     4  11  22  41  67  94 123 166 218 271 328 391
#
# _framework density 23.644725999999999
#
# number of rings (size 3 to 8) (size 9 to 14) (size 15 to 20)
#    0.000    1.500    0.000    7.500    0.000    3.000 
#    0.000    5.000    0.000    0.000    0.000    0.000 
#    0.000    0.000    0.000    0.000    0.000    0.000 
#
# Total GULP energy -89356.381866 kJ/mol
# GULP energy per Si atom -5584.773867 kJ/mol
# Density = 2.359091 g / cm^3
# Si number density = 23.644726 Si / 1000 Ang^3
#
#
#
# Elastic Constant Matrix: (Units=GPa)
#
#
# Indices 1 2 3 4 5 6 
#
# 1 176.0676 24.1569 23.1510 0.0000 0.0000 0.0000
# 2 24.1569 74.2579 16.0444 0.0000 0.0000 0.0000
# 3 23.1510 16.0444 116.5016 0.0000 0.0000 0.0000
# 4 0.0000 0.0000 0.0000 -28.5315 0.0000 0.0000
# 5 0.0000 0.0000 0.0000 0.0000 40.8846 0.0000
# 6 0.0000 0.0000 0.0000 0.0000 0.0000 23.5797
#
#
#
# Elastic Compliance Matrix: (Units=1/GPa)
#
#
# Indices 1 2 3 4 5 6 
#
# 1 0.006047 -0.001760 -0.000959 0.000000 0.000000 0.000000
# 2 -0.001760 0.014392 -0.001632 0.000000 0.000000 0.000000
# 3 -0.000959 -0.001632 0.008999 0.000000 0.000000 0.000000
# 4 0.000000 0.000000 0.000000 -0.035049 0.000000 0.000000
# 5 0.000000 0.000000 0.000000 0.000000 0.024459 0.000000
# 6 0.000000 0.000000 0.000000 0.000000 0.000000 0.042409
#
#
# Mechanical properties :
#
#
# Convention : Reuss Voigt Hill
#
# Bulk Modulus (GPa) = 48.22780 54.83685 51.53232
# Shear Modulus (GPa) = 65.04292 27.41820 46.23056
#
# Velocity S-wave (km/s) = 5.25054 3.40897 4.42658
# Velocity P-wave (km/s) = 7.56298 6.22392 6.92589
#
# Compressibility (1/GPa) = 0.02073493
#
# Stress axis : x y z
#
# Youngs Moduli (GPa) = 165.36444 69.48403 111.12342
#
# Poissons Ratio (x) = 0.12229 0.10660
# Poissons Ratio (y) = 0.29104 0.18138
# Poissons Ratio (z) = 0.15864 0.11342
#
# Static dielectric constant tensor:
#      x y z
#    x 1.862560 0.000000 0.000000 
#    y 0.000000 2.027100 0.000000 
#    z 0.000000 0.000000 1.959470 
# 
# From -- ./inp_files/13581.got.cif
#   From: 2010.05.17/outbox.cif.g08.bks.cpg/sg37_7_cif.got.tgz:13581.got - 2010.06.03 17:53:42.
