data_PCOD9354361
_publ_section_title
;
Structure prediction by ZEFSAII (Michael W. Deem and Ramdas Pophale) SiO2 
 PCOD9354361
Probable space group: C C C 2
;
_chemical_formula_sum "Si O2"
_cell_formula_units_Z 40
_cell_length_a 24.771141
_cell_length_b 8.156698
_cell_length_c 9.898893
_cell_angle_alpha 90.000000
_cell_angle_beta 90.000000
_cell_angle_gamma 90.000000
_cell_volume 2000.078421
_symmetry_space_group_name_H-M "C C C 2"
_symmetry_group_IT_number 37
_symmetry_cell_setting 'orthorhombic'
loop_
_space_group_symop_operation_xyz
x,y,z
-x,-y,z
-x,y,1/2+z
x,-y,1/2+z
1/2+x,1/2+y,z
1/2-x,1/2-y,z
1/2-x,1/2+y,1/2+z
1/2+x,1/2-y,1/2+z
loop_
_atom_site_type_symbol
_atom_site_label
_atom_site_fract_x
_atom_site_fract_y
_atom_site_fract_z
Si Si1 0.138249 0.510986 0.449050
Si Si2 0.810090 0.316786 0.710590
Si Si3 0.093754 0.091441 0.178667
Si Si4 0.965022 0.659056 0.359058
Si Si5 0.428829 0.669754 0.393135
O O1 0.166704 0.571577 0.586587
O O2 0.179122 0.421864 0.346373
O O3 0.085110 0.392833 0.454295
O O4 0.111059 0.674824 0.386380
O O5 0.750000 0.250000 0.691894
O O6 0.846829 0.153438 0.715973
O O7 0.058651 0.248048 0.228870
O O8 0.074453 0.935699 0.259756
O O9 0.090091 0.064864 0.020420
O O10 0.000000 0.500000 0.319163
O O11 0.010123 0.775316 0.422517
#
# Coordination Sequence:
#
# PCOD9354361 Si02
#       5
#     8   8   8   8   8
#     4   9  21  40  61  85 114 153 199 241 295 363
#     4  10  22  41  62  85 115 152 199 249 296 348
#     4  10  22  36  54  86 117 149 196 243 290 354
#     4   9  19  35  57  83 116 155 191 237 297 359
#     4  10  21  36  57  85 120 153 190 242 298 356
#
# _framework density 19.999217999999999
#
# number of rings (size 3 to 8) (size 9 to 14) (size 15 to 20)
#    0.000    2.400    0.000    0.600    0.000   16.800 
#    0.000    1.000    0.000    0.000    0.000    0.000 
#    0.000    0.000    0.000    0.000    0.000    0.000 
#
# Total GULP energy -111561.965016 kJ/mol
# GULP energy per Si atom -5578.098251 kJ/mol
# Density = 1.995370 g / cm^3
# Si number density = 19.999218 Si / 1000 Ang^3
#
#
#
# Elastic Constant Matrix: (Units=GPa)
#
#
# Indices 1 2 3 4 5 6 
#
# 1 123.7925 33.6859 24.0690 0.0000 0.0000 0.0000
# 2 33.6859 59.4706 22.0333 0.0000 0.0000 0.0000
# 3 24.0690 22.0333 35.2233 0.0000 0.0000 0.0000
# 4 0.0000 0.0000 0.0000 23.6990 0.0000 0.0000
# 5 0.0000 0.0000 0.0000 0.0000 16.2543 0.0000
# 6 0.0000 0.0000 0.0000 0.0000 0.0000 22.1259
#
#
#
# Elastic Compliance Matrix: (Units=1/GPa)
#
#
# Indices 1 2 3 4 5 6 
#
# 1 0.010025 -0.004088 -0.004293 0.000000 0.000000 0.000000
# 2 -0.004088 0.023554 -0.011941 0.000000 0.000000 0.000000
# 3 -0.004293 -0.011941 0.038793 0.000000 0.000000 0.000000
# 4 0.000000 0.000000 0.000000 0.042196 0.000000 0.000000
# 5 0.000000 0.000000 0.000000 0.000000 0.061522 0.000000
# 6 0.000000 0.000000 0.000000 0.000000 0.000000 0.045196
#
#
# Mechanical properties :
#
#
# Convention : Reuss Voigt Hill
#
# Bulk Modulus (GPa) = 31.51683 42.00698 36.76190
# Shear Modulus (GPa) = 18.34813 21.66237 20.00525
#
# Velocity S-wave (km/s) = 3.03222 3.29471 3.16619
# Velocity P-wave (km/s) = 5.29645 5.96015 5.63807
#
# Compressibility (1/GPa) = 0.03172908
#
# Stress axis : x y z
#
# Youngs Moduli (GPa) = 99.74885 42.45480 25.77762
#
# Poissons Ratio (x) = 0.17355 0.11067
# Poissons Ratio (y) = 0.40777 0.30780
# Poissons Ratio (z) = 0.42826 0.50694
#
# Static dielectric constant tensor:
#      x y z
#    x 1.712790 0.000000 0.000000 
#    y 0.000000 1.751820 0.000000 
#    z 0.000000 0.000000 1.687860 
# 
# From -- ./inp_files/2194.got.cif
#   From: 2010.05.17/outbox.cif.g08.bks.cpg/sg37_2_cif.got.tgz:2194.got - 2010.06.03 17:53:42.
