data_PCOD9354921
_publ_section_title
;
Structure prediction by ZEFSAII (Michael W. Deem and Ramdas Pophale) SiO2 
 PCOD9354921
Probable space group: C C C 2
;
_chemical_formula_sum "Si O2"
_cell_formula_units_Z 32
_cell_length_a 11.908731
_cell_length_b 9.033483
_cell_length_c 13.837589
_cell_angle_alpha 90.000000
_cell_angle_beta 90.000000
_cell_angle_gamma 90.000000
_cell_volume 1488.610727
_symmetry_space_group_name_H-M "C C C 2"
_symmetry_group_IT_number 37
_symmetry_cell_setting 'orthorhombic'
loop_
_space_group_symop_operation_xyz
x,y,z
-x,-y,z
-x,y,1/2+z
x,-y,1/2+z
1/2+x,1/2+y,z
1/2-x,1/2-y,z
1/2-x,1/2+y,1/2+z
1/2+x,1/2-y,1/2+z
loop_
_atom_site_type_symbol
_atom_site_label
_atom_site_fract_x
_atom_site_fract_y
_atom_site_fract_z
Si Si1 0.130507 0.169923 0.042730
Si Si2 0.953954 0.836524 0.258231
Si Si3 0.720854 0.601435 0.422801
Si Si4 0.631669 0.160718 0.362560
O O1 0.250000 0.250000 0.059031
O O2 0.073884 0.165223 0.145496
O O3 0.076317 0.272063 0.960033
O O4 0.152643 0.012013 0.991422
O O5 0.849549 0.837777 0.331575
O O6 0.043901 0.708120 0.281614
O O7 0.000000 0.000000 0.279299
O O8 0.750000 0.750000 0.480259
O O9 0.825953 0.504542 0.382820
O O10 0.750000 0.250000 0.346377
#
# Coordination Sequence:
#
# PCOD9354921 Si02
#       4
#     8   8   8   8
#     4   9  21  41  62  91 131 168 213 271 329 400
#     4  12  21  36  71  95 123 176 223 270 335 402
#     4  10  22  43  66  96 132 169 220 280 336 394
#     4   9  20  42  64  91 128 171 213 266 327 399
#
# _framework density 21.496552999999999
#
# number of rings (size 3 to 8) (size 9 to 14) (size 15 to 20)
#    0.000    2.500    5.000    0.750    3.500    1.000 
#    4.500    0.000    5.500    0.000    0.000    0.000 
#    0.000    0.000    0.000    0.000    0.000    0.000 
#
# Total GULP energy -89236.895305 kJ/mol
# GULP energy per Si atom -5577.305957 kJ/mol
# Density = 2.144763 g / cm^3
# Si number density = 21.496553 Si / 1000 Ang^3
#
#
#
# Elastic Constant Matrix: (Units=GPa)
#
#
# Indices 1 2 3 4 5 6 
#
# 1 66.7035 49.1024 59.6549 0.0000 0.0000 0.0000
# 2 49.1024 152.0630 44.2987 0.0000 0.0000 0.0000
# 3 59.6549 44.2987 136.5884 0.0000 0.0000 0.0000
# 4 0.0000 0.0000 0.0000 12.3462 0.0000 0.0000
# 5 0.0000 0.0000 0.0000 0.0000 37.0525 0.0000
# 6 0.0000 0.0000 0.0000 0.0000 0.0000 26.0013
#
#
#
# Elastic Compliance Matrix: (Units=1/GPa)
#
#
# Indices 1 2 3 4 5 6 
#
# 1 0.029223 -0.006315 -0.010715 0.000000 0.000000 0.000000
# 2 -0.006315 0.008627 -0.000040 0.000000 0.000000 0.000000
# 3 -0.010715 -0.000040 0.012014 0.000000 0.000000 0.000000
# 4 0.000000 0.000000 0.000000 0.080997 0.000000 0.000000
# 5 0.000000 0.000000 0.000000 0.000000 0.026989 0.000000
# 6 0.000000 0.000000 0.000000 0.000000 0.000000 0.038460
#
#
# Mechanical properties :
#
#
# Convention : Reuss Voigt Hill
#
# Bulk Modulus (GPa) = 63.59574 73.49631 68.54603
# Shear Modulus (GPa) = 21.21428 28.56660 24.89044
#
# Velocity S-wave (km/s) = 3.14485 3.64935 3.40646
# Velocity P-wave (km/s) = 6.54486 7.21256 6.88681
#
# Compressibility (1/GPa) = 0.01572432
#
# Stress axis : x y z
#
# Youngs Moduli (GPa) = 34.21949 115.91559 83.23602
#
# Poissons Ratio (x) = 0.73199 0.89188
# Poissons Ratio (y) = 0.21609 0.00332
# Poissons Ratio (z) = 0.36667 0.00463
#
# Static dielectric constant tensor:
#      x y z
#    x 1.980210 0.000000 0.000000 
#    y 0.000000 1.931830 0.000000 
#    z 0.000000 0.000000 1.779800 
# 
# From -- ./inp_files/5939.got.cif
#   From: 2010.05.17/outbox.cif.g08.bks.cpg/sg37_3_cif.got.tgz:5939.got - 2010.06.03 17:53:42.
