data_PCOD9354503
_publ_section_title
;
Structure prediction by ZEFSAII (Michael W. Deem and Ramdas Pophale) SiO2 
 PCOD9354503
Probable space group: C C C 2
;
_chemical_formula_sum "Si O2"
_cell_formula_units_Z 48
_cell_length_a 11.366280
_cell_length_b 7.979128
_cell_length_c 26.615422
_cell_angle_alpha 90.000000
_cell_angle_beta 90.000000
_cell_angle_gamma 90.000000
_cell_volume 2413.832547
_symmetry_space_group_name_H-M "C C C 2"
_symmetry_group_IT_number 37
_symmetry_cell_setting 'orthorhombic'
loop_
_space_group_symop_operation_xyz
x,y,z
-x,-y,z
-x,y,1/2+z
x,-y,1/2+z
1/2+x,1/2+y,z
1/2-x,1/2-y,z
1/2-x,1/2+y,1/2+z
1/2+x,1/2-y,1/2+z
loop_
_atom_site_type_symbol
_atom_site_label
_atom_site_fract_x
_atom_site_fract_y
_atom_site_fract_z
Si Si1 0.000000 0.000000 0.092760
Si Si2 0.884253 0.296591 0.155627
Si Si3 0.500000 0.500000 0.929115
Si Si4 0.500000 0.000000 0.577706
Si Si5 0.385211 0.292841 0.013750
Si Si6 0.994141 0.811684 0.752253
Si Si7 0.250000 0.750000 0.792521
Si Si8 0.823278 0.085196 0.344629
O O1 0.895917 0.941673 0.055049
O O2 0.043687 0.848390 0.126798
O O3 0.750000 0.250000 0.160881
O O4 0.935074 0.308910 0.211667
O O5 0.898676 0.449502 0.117337
O O6 0.609131 0.498630 0.890898
O O7 0.463588 0.349206 0.966209
O O8 0.449510 0.858709 0.541581
O O9 0.250000 0.250000 0.001576
O O10 0.915960 0.842698 0.802662
O O11 0.126571 0.755930 0.763348
O O12 0.000000 0.000000 0.730071
O O13 0.251187 0.570839 0.821449
O O14 0.750000 0.250000 0.359724
#
# Coordination Sequence:
#
# PCOD9354503 Si02
#       8
#     4   8   4   4   8   8   4   8
#     4   9  20  37  60  84 122 165 208 259 322 374
#     4  11  21  37  62  92 128 170 210 261 314 381
#     4  11  22  45  64  94 124 167 222 263 342 390
#     4  10  24  40  60 102 122 162 230 254 326 396
#     4  10  21  42  63  87 125 164 209 275 325 382
#     4  10  21  40  62  95 134 172 216 260 321 386
#     4  10  22  44  66  92 138 176 216 274 320 390
#     4  11  23  44  67  95 132 169 218 273 327 395
#
# _framework density 19.885390000000001
#
# number of rings (size 3 to 8) (size 9 to 14) (size 15 to 20)
#    0.000    1.667    3.333    2.000    0.000    4.667 
#   12.000    0.000    0.000    0.000    0.000    0.000 
#    0.000    0.000    0.000    0.000    0.000    0.000 
#
# Total GULP energy -133716.307504 kJ/mol
# GULP energy per Si atom -5571.512813 kJ/mol
# Density = 1.984013 g / cm^3
# Si number density = 19.885390 Si / 1000 Ang^3
#
#
#
# Elastic Constant Matrix: (Units=GPa)
#
#
# Indices 1 2 3 4 5 6 
#
# 1 126.5034 46.5482 56.7743 0.0000 0.0000 0.0000
# 2 46.5482 68.0284 44.2228 0.0000 0.0000 0.0000
# 3 56.7743 44.2228 125.3642 0.0000 0.0000 0.0000
# 4 0.0000 0.0000 0.0000 20.2189 0.0000 0.0000
# 5 0.0000 0.0000 0.0000 0.0000 16.1383 0.0000
# 6 0.0000 0.0000 0.0000 0.0000 0.0000 31.6836
#
#
#
# Elastic Compliance Matrix: (Units=1/GPa)
#
#
# Indices 1 2 3 4 5 6 
#
# 1 0.011445 -0.005789 -0.003141 0.000000 0.000000 0.000000
# 2 -0.005789 0.022002 -0.005140 0.000000 0.000000 0.000000
# 3 -0.003141 -0.005140 0.011212 0.000000 0.000000 0.000000
# 4 0.000000 0.000000 0.000000 0.049459 0.000000 0.000000
# 5 0.000000 0.000000 0.000000 0.000000 0.061964 0.000000
# 6 0.000000 0.000000 0.000000 0.000000 0.000000 0.031562
#
#
# Mechanical properties :
#
#
# Convention : Reuss Voigt Hill
#
# Bulk Modulus (GPa) = 60.53381 68.33185 64.43283
# Shear Modulus (GPa) = 22.59479 25.09820 23.84649
#
# Velocity S-wave (km/s) = 3.37449 3.55652 3.46670
# Velocity P-wave (km/s) = 6.75946 7.16258 6.96394
#
# Compressibility (1/GPa) = 0.01651969
#
# Stress axis : x y z
#
# Youngs Moduli (GPa) = 87.37631 45.45028 89.18892
#
# Poissons Ratio (x) = 0.26312 0.28013
# Poissons Ratio (y) = 0.50585 0.45839
# Poissons Ratio (z) = 0.27444 0.23359
#
# Static dielectric constant tensor:
#      x y z
#    x 1.670060 0.000000 0.000000 
#    y 0.000000 1.735920 0.000000 
#    z 0.000000 0.000000 1.719720 
# 
# From -- ./inp_files/18388.got.cif
#   From: 2010.05.17/outbox.cif.g08.bks.cpg/sg37_10_cif.got.tgz:18388.got - 2010.06.03 17:53:42.
