data_PCOD9354333
_publ_section_title
;
Structure prediction by ZEFSAII (Michael W. Deem and Ramdas Pophale) SiO2 
 PCOD9354333
Probable space group: C C C 2
;
_chemical_formula_sum "Si O2"
_cell_formula_units_Z 48
_cell_length_a 20.903506
_cell_length_b 11.860185
_cell_length_c 9.114116
_cell_angle_alpha 90.000000
_cell_angle_beta 90.000000
_cell_angle_gamma 90.000000
_cell_volume 2259.566611
_symmetry_space_group_name_H-M "C C C 2"
_symmetry_group_IT_number 37
_symmetry_cell_setting 'orthorhombic'
loop_
_space_group_symop_operation_xyz
x,y,z
-x,-y,z
-x,y,1/2+z
x,-y,1/2+z
1/2+x,1/2+y,z
1/2-x,1/2-y,z
1/2-x,1/2+y,1/2+z
1/2+x,1/2-y,1/2+z
loop_
_atom_site_type_symbol
_atom_site_label
_atom_site_fract_x
_atom_site_fract_y
_atom_site_fract_z
Si Si1 0.697474 0.152219 0.647610
Si Si2 0.395714 0.500000 0.397610
Si Si3 0.618014 0.645715 0.147610
Si Si4 0.059566 0.589347 0.147610
Si Si5 0.348398 0.000000 0.897610
Si Si6 0.033696 0.144561 0.647610
O O1 0.750000 0.250000 0.647610
O O2 0.631529 0.223467 0.647611
O O3 0.694574 0.077504 0.792837
O O4 0.694574 0.077504 0.502383
O O5 0.356723 0.418624 0.290242
O O6 0.356723 0.581376 0.504979
O O7 0.435418 0.415193 0.504191
O O8 0.435418 0.584807 0.291029
O O9 0.542038 0.625692 0.147610
O O10 0.104200 0.566923 0.288808
O O11 0.041628 0.720925 0.147610
O O12 0.000000 0.500000 0.147609
O O13 0.104200 0.566924 0.006412
#
# Coordination Sequence:
#
# PCOD9354333 Si02
#       6
#     8   8   8   8   8   8
#     4  11  25  44  64  83 115 162 210 270 317 357
#     4  10  21  33  53  86 121 155 190 238 299 372
#     4  11  20  34  54  81 116 153 196 242 297 361
#     4  11  22  37  64  97 131 168 199 247 325 404
#     4  10  23  43  61  92 125 155 211 264 312 384
#     4  11  19  33  54  85 123 157 191 235 301 382
#
# _framework density 21.243010000000002
#
# number of rings (size 3 to 8) (size 9 to 14) (size 15 to 20)
#    0.000    1.333    0.000    8.500    0.000    4.000 
#    0.000    3.333    0.000    0.000    0.000    0.000 
#    0.000    0.000    0.000    0.000    0.000    0.000 
#
# Total GULP energy -134073.998261 kJ/mol
# GULP energy per Si atom -5586.416594 kJ/mol
# Density = 2.119466 g / cm^3
# Si number density = 21.243010 Si / 1000 Ang^3
#
#
#
# Elastic Constant Matrix: (Units=GPa)
#
#
# Indices 1 2 3 4 5 6 
#
# 1 69.9512 41.7850 36.7436 0.0000 0.0000 0.0000
# 2 41.7850 180.3469 81.8314 0.0000 0.0000 0.0000
# 3 36.7436 81.8314 178.0853 0.0000 0.0000 0.0000
# 4 0.0000 0.0000 0.0000 22.8614 0.0000 0.0000
# 5 0.0000 0.0000 0.0000 0.0000 -53.2498 0.0000
# 6 0.0000 0.0000 0.0000 0.0000 0.0000 45.5872
#
#
#
# Elastic Compliance Matrix: (Units=1/GPa)
#
#
# Indices 1 2 3 4 5 6 
#
# 1 0.017234 -0.003006 -0.002174 0.000000 0.000000 0.000000
# 2 -0.003006 0.007530 -0.002840 0.000000 0.000000 0.000000
# 3 -0.002174 -0.002840 0.007369 0.000000 0.000000 0.000000
# 4 0.000000 0.000000 0.000000 0.043742 0.000000 0.000000
# 5 0.000000 0.000000 0.000000 0.000000 -0.018779 0.000000
# 6 0.000000 0.000000 0.000000 0.000000 0.000000 0.021936
#
#
# Mechanical properties :
#
#
# Convention : Reuss Voigt Hill
#
# Bulk Modulus (GPa) = 62.14449 83.23372 72.68910
# Shear Modulus (GPa) = 49.78324 20.90799 35.34562
#
# Velocity S-wave (km/s) = 4.84623 3.14065 4.08348
# Velocity P-wave (km/s) = 7.78667 7.24005 7.51833
#
# Compressibility (1/GPa) = 0.01609153
#
# Stress axis : x y z
#
# Youngs Moduli (GPa) = 58.02617 132.80309 135.70718
#
# Poissons Ratio (x) = 0.39925 0.29507
# Poissons Ratio (y) = 0.17444 0.38538
# Poissons Ratio (z) = 0.12617 0.37713
#
# Static dielectric constant tensor:
#      x y z
#    x 1.817220 0.000000 0.000000 
#    y 0.000000 1.765220 0.000000 
#    z 0.000000 0.000000 1.827020 
# 
# From -- ./inp_files/4583.got.cif
#   From: 2010.05.17/outbox.cif.g08.bks.cpg/sg37_3_cif.got.tgz:4583.got - 2010.06.03 17:53:42.
