data_PCOD9354797
_publ_section_title
;
Structure prediction by ZEFSAII (Michael W. Deem and Ramdas Pophale) SiO2 
 PCOD9354797
Probable space group: C C C 2
;
_chemical_formula_sum "Si O2"
_cell_formula_units_Z 60
_cell_length_a 13.761545
_cell_length_b 13.947547
_cell_length_c 12.926429
_cell_angle_alpha 90.000000
_cell_angle_beta 90.000000
_cell_angle_gamma 90.000000
_cell_volume 2481.096141
_symmetry_space_group_name_H-M "C C C 2"
_symmetry_group_IT_number 37
_symmetry_cell_setting 'orthorhombic'
loop_
_space_group_symop_operation_xyz
x,y,z
-x,-y,z
-x,y,1/2+z
x,-y,1/2+z
1/2+x,1/2+y,z
1/2-x,1/2-y,z
1/2-x,1/2+y,1/2+z
1/2+x,1/2-y,1/2+z
loop_
_atom_site_type_symbol
_atom_site_label
_atom_site_fract_x
_atom_site_fract_y
_atom_site_fract_z
Si Si1 0.627160 0.898841 0.592730
Si Si2 0.000000 0.500000 0.730825
Si Si3 0.622377 0.169771 0.772287
Si Si4 0.963249 0.258009 0.566590
Si Si5 0.239719 0.952082 0.902350
Si Si6 0.943472 0.910673 0.686926
Si Si7 0.454845 0.652054 0.892807
Si Si8 0.244971 0.357205 0.783793
O O1 0.592067 0.991041 0.655678
O O2 0.530120 0.850451 0.548502
O O3 0.700660 0.920218 0.502716
O O4 0.668935 0.840220 0.690106
O O5 0.970041 0.403394 0.788728
O O6 0.614750 0.212744 0.654919
O O7 0.718119 0.112260 0.807134
O O8 0.606019 0.256691 0.851505
O O9 0.035169 0.183123 0.622225
O O10 0.956403 0.197508 0.460613
O O11 0.127813 0.924514 0.927698
O O12 0.268144 0.061369 0.871607
O O13 0.831960 0.908621 0.718581
O O14 0.997737 0.895762 0.794519
O O15 0.000000 0.000000 0.636383
O O16 0.250000 0.250000 0.829687
#
# Coordination Sequence:
#
# PCOD9354797 Si02
#       8
#     8   4   8   8   8   8   8   8
#     4  11  23  43  72  98 133 185 236 291 356 441
#     4  10  22  44  62 100 136 172 222 284 366 416
#     4  10  22  40  66 102 136 171 227 301 350 418
#     4  10  22  42  69 101 133 183 234 289 359 436
#     4  12  24  42  72 101 138 190 240 300 355 437
#     4  11  23  43  66  97 140 183 234 299 355 429
#     4  11  23  42  70  99 136 185 240 288 359 438
#     4  12  25  47  70 100 144 185 247 301 367 435
#
# _framework density 24.182858
#
# number of rings (size 3 to 8) (size 9 to 14) (size 15 to 20)
#    0.000    1.067    5.333    1.200    0.000    1.067 
#    7.200    0.000    0.000    0.000    0.000    0.000 
#    0.000    0.000    0.000    0.000    0.000    0.000 
#
# Total GULP energy -167121.783976 kJ/mol
# GULP energy per Si atom -5570.726133 kJ/mol
# Density = 2.412782 g / cm^3
# Si number density = 24.182858 Si / 1000 Ang^3
#
#
#
# Elastic Constant Matrix: (Units=GPa)
#
#
# Indices 1 2 3 4 5 6 
#
# 1 36.1300 -15.5105 -5.1497 0.0000 0.0000 0.0000
# 2 -15.5105 99.3484 10.4259 0.0000 0.0000 0.0000
# 3 -5.1497 10.4259 49.6811 0.0000 0.0000 0.0000
# 4 0.0000 0.0000 0.0000 28.0202 0.0000 0.0000
# 5 0.0000 0.0000 0.0000 0.0000 -49.3661 0.0000
# 6 0.0000 0.0000 0.0000 0.0000 0.0000 28.2350
#
#
#
# Elastic Compliance Matrix: (Units=1/GPa)
#
#
# Indices 1 2 3 4 5 6 
#
# 1 0.029893 0.004439 0.002167 0.000000 0.000000 0.000000
# 2 0.004439 0.010952 -0.001838 0.000000 0.000000 0.000000
# 3 0.002167 -0.001838 0.020739 0.000000 0.000000 0.000000
# 4 0.000000 0.000000 0.000000 0.035689 0.000000 0.000000
# 5 0.000000 0.000000 0.000000 0.000000 -0.020257 0.000000
# 6 0.000000 0.000000 0.000000 0.000000 0.000000 0.035417
#
#
# Mechanical properties :
#
#
# Convention : Reuss Voigt Hill
#
# Bulk Modulus (GPa) = 14.06085 18.29898 16.17991
# Shear Modulus (GPa) = 39.49398 14.40406 26.94902
#
# Velocity S-wave (km/s) = 4.04560 2.44320 3.34186
# Velocity P-wave (km/s) = 5.25828 3.94238 4.64714
#
# Compressibility (1/GPa) = 0.07111946
#
# Stress axis : x y z
#
# Youngs Moduli (GPa) = 33.45314 91.31105 48.21895
#
# Poissons Ratio (x) = -0.40537 -0.10449
# Poissons Ratio (y) = -0.14851 0.08863
# Poissons Ratio (z) = -0.07249 0.16784
#
# Static dielectric constant tensor:
#      x y z
#    x 2.047940 0.000000 0.000000 
#    y 0.000000 -0.160850 0.000000 
#    z 0.000000 0.000000 2.009270 
# 
# From -- ./inp_files/12252.got.cif
#   From: 2010.05.17/outbox.cif.g08.bks.cpg/sg37_7_cif.got.tgz:12252.got - 2010.06.03 17:53:42.
