data_PCOD9354629
_publ_section_title
;
Structure prediction by ZEFSAII (Michael W. Deem and Ramdas Pophale) SiO2 
 PCOD9354629
Probable space group: C C C 2
;
_chemical_formula_sum "Si O2"
_cell_formula_units_Z 28
_cell_length_a 16.133940
_cell_length_b 7.211667
_cell_length_c 10.084482
_cell_angle_alpha 90.000000
_cell_angle_beta 90.000000
_cell_angle_gamma 90.000000
_cell_volume 1173.355727
_symmetry_space_group_name_H-M "C C C 2"
_symmetry_group_IT_number 37
_symmetry_cell_setting 'orthorhombic'
loop_
_space_group_symop_operation_xyz
x,y,z
-x,-y,z
-x,y,1/2+z
x,-y,1/2+z
1/2+x,1/2+y,z
1/2-x,1/2-y,z
1/2-x,1/2+y,1/2+z
1/2+x,1/2-y,1/2+z
loop_
_atom_site_type_symbol
_atom_site_label
_atom_site_fract_x
_atom_site_fract_y
_atom_site_fract_z
Si Si1 0.500000 0.000000 0.787990
Si Si2 0.734766 0.467740 0.153870
Si Si3 0.072938 0.869605 0.258510
Si Si4 0.162238 0.432363 0.908858
O O1 0.470118 0.179038 0.705616
O O2 0.422127 0.953219 0.882995
O O3 0.750000 0.250000 0.125686
O O4 0.635549 0.480511 0.163438
O O5 0.774899 0.505223 0.296939
O O6 0.792137 0.565800 0.046998
O O7 0.131648 0.774870 0.369559
O O8 0.000000 0.000000 0.306987
#
# Coordination Sequence:
#
# PCOD9354629 Si02
#       4
#     4   8   8   8
#     4   8  20  40  70 104 136 194 242 290 378 422
#     4  10  21  43  71 101 148 191 239 305 369 437
#     4   9  20  44  73 102 146 190 248 300 367 434
#     4   9  21  42  70 103 142 193 240 302 369 428
#
# _framework density 23.863178000000001
#
# number of rings (size 3 to 8) (size 9 to 14) (size 15 to 20)
#    1.714    1.143    0.000    0.000    0.000    3.429 
#    0.000   20.000    6.286    0.000    0.000    0.000 
#    0.000    0.000    0.000    0.000    0.000    0.000 
#
# Total GULP energy -77974.909713 kJ/mol
# GULP energy per Si atom -5569.636408 kJ/mol
# Density = 2.380886 g / cm^3
# Si number density = 23.863178 Si / 1000 Ang^3
#
#
#
# Elastic Constant Matrix: (Units=GPa)
#
#
# Indices 1 2 3 4 5 6 
#
# 1 178.4915 36.0115 51.6068 0.0000 0.0000 0.0000
# 2 36.0115 41.9898 5.2898 0.0000 0.0000 0.0000
# 3 51.6068 5.2898 77.1984 0.0000 0.0000 0.0000
# 4 0.0000 0.0000 0.0000 6.8174 0.0000 0.0000
# 5 0.0000 0.0000 0.0000 0.0000 -13.3817 0.0000
# 6 0.0000 0.0000 0.0000 0.0000 0.0000 48.3657
#
#
#
# Elastic Compliance Matrix: (Units=1/GPa)
#
#
# Indices 1 2 3 4 5 6 
#
# 1 0.008428 -0.006575 -0.005183 0.000000 0.000000 0.000000
# 2 -0.006575 0.029152 0.002398 0.000000 0.000000 0.000000
# 3 -0.005183 0.002398 0.016254 0.000000 0.000000 0.000000
# 4 0.000000 0.000000 0.000000 0.146684 0.000000 0.000000
# 5 0.000000 0.000000 0.000000 0.000000 -0.074729 0.000000
# 6 0.000000 0.000000 0.000000 0.000000 0.000000 0.020676
#
#
# Mechanical properties :
#
#
# Convention : Reuss Voigt Hill
#
# Bulk Modulus (GPa) = 28.47940 53.72175 41.10057
# Shear Modulus (GPa) = 28.26612 22.01171 25.13892
#
# Velocity S-wave (km/s) = 3.44540 3.04042 3.24923
# Velocity P-wave (km/s) = 5.27144 5.90651 5.59799
#
# Compressibility (1/GPa) = 0.03511310
#
# Stress axis : x y z
#
# Youngs Moduli (GPa) = 118.65718 34.30300 61.52192
#
# Poissons Ratio (x) = 0.22553 0.31889
# Poissons Ratio (y) = 0.78014 -0.14751
# Poissons Ratio (z) = 0.61504 -0.08225
#
# Static dielectric constant tensor:
#      x y z
#    x 1.970130 0.000000 0.000000 
#    y 0.000000 2.036860 0.000000 
#    z 0.000000 0.000000 1.911060 
# 
# From -- ./inp_files/3860.got.cif
#   From: 2010.05.17/outbox.cif.g08.bks.cpg/sg37_2_cif.got.tgz:3860.got - 2010.06.03 17:53:42.
