data_PCOD9354815
_publ_section_title
;
Structure prediction by ZEFSAII (Michael W. Deem and Ramdas Pophale) SiO2 
 PCOD9354815
Probable space group: C C C 2
;
_chemical_formula_sum "Si O2"
_cell_formula_units_Z 48
_cell_length_a 5.285580
_cell_length_b 13.731760
_cell_length_c 27.389910
_cell_angle_alpha 90.000000
_cell_angle_beta 90.000000
_cell_angle_gamma 90.000000
_cell_volume 1987.968324
_symmetry_space_group_name_H-M "C C C 2"
_symmetry_group_IT_number 37
_symmetry_cell_setting 'orthorhombic'
loop_
_space_group_symop_operation_xyz
x,y,z
-x,-y,z
-x,y,1/2+z
x,-y,1/2+z
1/2+x,1/2+y,z
1/2-x,1/2-y,z
1/2-x,1/2+y,1/2+z
1/2+x,1/2-y,1/2+z
loop_
_atom_site_type_symbol
_atom_site_label
_atom_site_fract_x
_atom_site_fract_y
_atom_site_fract_z
Si Si1 0.866513 0.896676 0.474190
Si Si2 0.000000 0.500000 0.728735
Si Si3 0.354063 0.602879 0.161698
Si Si4 0.598101 0.346537 0.755820
Si Si5 0.750000 0.250000 0.889741
Si Si6 0.500000 0.000000 0.043120
Si Si7 0.893503 0.845572 0.070567
Si Si8 0.750000 0.750000 0.826133
O O1 0.813208 0.839436 0.425453
O O2 0.030270 0.838004 0.514011
O O3 0.622335 0.922183 0.506424
O O4 0.000000 0.000000 0.464619
O O5 0.099306 0.418331 0.690727
O O6 0.225003 0.556545 0.757648
O O7 0.500000 0.500000 0.162171
O O8 0.508580 0.666647 0.200238
O O9 0.370249 0.640760 0.107014
O O10 0.750000 0.250000 0.769002
O O11 0.352145 0.337837 0.791146
O O12 0.494271 0.226870 0.859533
O O13 0.288121 0.059111 0.072850
O O14 0.750000 0.750000 0.086593
#
# Coordination Sequence:
#
# PCOD9354815 Si02
#       8
#     8   4   8   8   4   4   8   4
#     4  10  24  44  75 108 150 194 248 316 383 465
#     4  10  24  45  75 106 156 198 255 304 393 466
#     4  10  22  40  70 106 152 197 245 305 370 457
#     4  11  23  48  76 109 146 199 250 319 387 458
#     4  12  28  50  81 112 149 200 260 328 408 462
#     4  10  22  43  69  98 158 188 253 304 379 454
#     4  11  23  41  68 110 147 202 249 301 372 457
#     4  12  28  50  83 108 149 196 262 334 398 470
#
# _framework density 24.145254000000001
#
# number of rings (size 3 to 8) (size 9 to 14) (size 15 to 20)
#    0.000    1.333    0.833    4.000    5.833    6.000 
#    0.000   17.500    0.000    0.000    0.000    0.000 
#    0.000    0.000    0.000    0.000    0.000    0.000 
#
# Total GULP energy -134155.096764 kJ/mol
# GULP energy per Si atom -5589.795699 kJ/mol
# Density = 2.409030 g / cm^3
# Si number density = 24.145254 Si / 1000 Ang^3
#
#
#
# Elastic Constant Matrix: (Units=GPa)
#
#
# Indices 1 2 3 4 5 6 
#
# 1 136.6520 46.1302 67.8368 0.0000 0.0000 0.0000
# 2 46.1302 98.7794 58.3033 0.0000 0.0000 0.0000
# 3 67.8368 58.3033 157.9285 0.0000 0.0000 0.0000
# 4 0.0000 0.0000 0.0000 19.3984 0.0000 0.0000
# 5 0.0000 0.0000 0.0000 0.0000 32.1870 0.0000
# 6 0.0000 0.0000 0.0000 0.0000 0.0000 41.3287
#
#
#
# Elastic Compliance Matrix: (Units=1/GPa)
#
#
# Indices 1 2 3 4 5 6 
#
# 1 0.009827 -0.002682 -0.003231 0.000000 0.000000 0.000000
# 2 -0.002682 0.013676 -0.003897 0.000000 0.000000 0.000000
# 3 -0.003231 -0.003897 0.009158 0.000000 0.000000 0.000000
# 4 0.000000 0.000000 0.000000 0.051551 0.000000 0.000000
# 5 0.000000 0.000000 0.000000 0.000000 0.031068 0.000000
# 6 0.000000 0.000000 0.000000 0.000000 0.000000 0.024196
#
#
# Mechanical properties :
#
#
# Convention : Reuss Voigt Hill
#
# Bulk Modulus (GPa) = 76.67653 81.98895 79.33274
# Shear Modulus (GPa) = 30.59143 33.32214 31.95678
#
# Velocity S-wave (km/s) = 3.56332 3.71896 3.64197
# Velocity P-wave (km/s) = 6.98248 7.24370 7.11429
#
# Compressibility (1/GPa) = 0.01304180
#
# Stress axis : x y z
#
# Youngs Moduli (GPa) = 101.75787 73.11959 109.18935
#
# Poissons Ratio (x) = 0.19613 0.35279
# Poissons Ratio (y) = 0.27295 0.42549
# Poissons Ratio (z) = 0.32878 0.28493
#
# Static dielectric constant tensor:
#      x y z
#    x 2.103310 0.000000 0.000000 
#    y 0.000000 1.193760 0.000000 
#    z 0.000000 0.000000 1.884310 
# 
# From -- ./inp_files/19408.got.cif
#   From: 2010.05.17/outbox.cif.g08.bks.cpg/sg37_10_cif.got.tgz:19408.got - 2010.06.03 17:53:42.
