data_PCOD9354230
_publ_section_title
;
Structure prediction by ZEFSAII (Michael W. Deem and Ramdas Pophale) SiO2 
 PCOD9354230
Probable space group: C C C 2
;
_chemical_formula_sum "Si O2"
_cell_formula_units_Z 32
_cell_length_a 13.324314
_cell_length_b 5.526164
_cell_length_c 18.845444
_cell_angle_alpha 90.000000
_cell_angle_beta 90.000000
_cell_angle_gamma 90.000000
_cell_volume 1387.634222
_symmetry_space_group_name_H-M "C C C 2"
_symmetry_group_IT_number 37
_symmetry_cell_setting 'orthorhombic'
loop_
_space_group_symop_operation_xyz
x,y,z
-x,-y,z
-x,y,1/2+z
x,-y,1/2+z
1/2+x,1/2+y,z
1/2-x,1/2-y,z
1/2-x,1/2+y,1/2+z
1/2+x,1/2-y,1/2+z
loop_
_atom_site_type_symbol
_atom_site_label
_atom_site_fract_x
_atom_site_fract_y
_atom_site_fract_z
Si Si1 0.361708 0.651274 0.422060
Si Si2 0.110801 0.890774 0.783672
Si Si3 0.750000 0.750000 0.175273
Si Si4 0.500000 0.000000 0.330792
Si Si5 0.059163 0.758725 0.577413
O O1 0.250000 0.750000 0.424474
O O2 0.360086 0.431237 0.365981
O O3 0.440407 0.822199 0.381856
O O4 0.400911 0.638398 0.501796
O O5 0.198493 0.944796 0.729070
O O6 0.084816 0.608575 0.780264
O O7 0.000000 0.000000 0.770133
O O8 0.843991 0.692541 0.124858
O O9 0.000000 0.500000 0.568951
O O10 0.000000 0.000000 0.606472
#
# Coordination Sequence:
#
# PCOD9354230 Si02
#       5
#     8   8   4   4   8
#     4  11  22  43  71 108 141 197 256 316 373 452
#     4  10  23  43  71 106 150 192 254 313 380 450
#     4  12  26  50  72 114 152 210 252 320 394 482
#     4  10  20  40  68 102 146 182 248 316 360 444
#     4  12  28  52  78 110 159 203 259 321 391 458
#
# _framework density 23.060834
#
# number of rings (size 3 to 8) (size 9 to 14) (size 15 to 20)
#    0.000    1.000    2.500    4.500    1.750    1.000 
#   13.500    0.000    0.000    0.000    0.000    0.000 
#    0.000    0.000    0.000    0.000    0.000    0.000 
#
# Total GULP energy -89073.332803 kJ/mol
# GULP energy per Si atom -5567.083300 kJ/mol
# Density = 2.300835 g / cm^3
# Si number density = 23.060834 Si / 1000 Ang^3
#
#
#
# Elastic Constant Matrix: (Units=GPa)
#
#
# Indices 1 2 3 4 5 6 
#
# 1 184.0457 34.0397 73.3589 0.0000 0.0000 0.0000
# 2 34.0397 46.1601 26.0082 0.0000 0.0000 0.0000
# 3 73.3589 26.0082 157.8364 0.0000 0.0000 0.0000
# 4 0.0000 0.0000 0.0000 -312.1969 0.0000 0.0000
# 5 0.0000 0.0000 0.0000 0.0000 73.9106 0.0000
# 6 0.0000 0.0000 0.0000 0.0000 0.0000 23.0307
#
#
#
# Elastic Compliance Matrix: (Units=1/GPa)
#
#
# Indices 1 2 3 4 5 6 
#
# 1 0.007223 -0.003787 -0.002733 0.000000 0.000000 0.000000
# 2 -0.003787 0.025866 -0.002502 0.000000 0.000000 0.000000
# 3 -0.002733 -0.002502 0.008018 0.000000 0.000000 0.000000
# 4 0.000000 0.000000 0.000000 -0.003203 0.000000 0.000000
# 5 0.000000 0.000000 0.000000 0.000000 0.013530 0.000000
# 6 0.000000 0.000000 0.000000 0.000000 0.000000 0.043420
#
#
# Mechanical properties :
#
#
# Convention : Reuss Voigt Hill
#
# Bulk Modulus (GPa) = 43.35889 72.76173 58.06031
# Shear Modulus (GPa) = 41.46404 -26.07542 7.69431
#
# Velocity S-wave (km/s) = 4.24492 -3.36627 1.82860
# Velocity P-wave (km/s) = 6.54741 4.06344 5.44886
#
# Compressibility (1/GPa) = 0.02306332
#
# Stress axis : x y z
#
# Youngs Moduli (GPa) = 138.44258 38.66094 124.71406
#
# Poissons Ratio (x) = 0.14639 0.34087
# Poissons Ratio (y) = 0.52422 0.31207
# Poissons Ratio (z) = 0.37840 0.09674
#
# Static dielectric constant tensor:
#      x y z
#    x 1.824560 0.000000 0.000000 
#    y 0.000000 3.374910 0.000000 
#    z 0.000000 0.000000 1.946300 
# 
# From -- ./inp_files/13599.got.cif
#   From: 2010.05.17/outbox.cif.g08.bks.cpg/sg37_7_cif.got.tgz:13599.got - 2010.06.03 17:53:42.
