data_PCOD9354746
_publ_section_title
;
Structure prediction by ZEFSAII (Michael W. Deem and Ramdas Pophale) SiO2 
 PCOD9354746
Probable space group: C C C 2
;
_chemical_formula_sum "Si O2"
_cell_formula_units_Z 64
_cell_length_a 16.085536
_cell_length_b 9.457940
_cell_length_c 22.156918
_cell_angle_alpha 90.000000
_cell_angle_beta 90.000000
_cell_angle_gamma 90.000000
_cell_volume 3370.865638
_symmetry_space_group_name_H-M "C C C 2"
_symmetry_group_IT_number 37
_symmetry_cell_setting 'orthorhombic'
loop_
_space_group_symop_operation_xyz
x,y,z
-x,-y,z
-x,y,1/2+z
x,-y,1/2+z
1/2+x,1/2+y,z
1/2-x,1/2-y,z
1/2-x,1/2+y,1/2+z
1/2+x,1/2-y,1/2+z
loop_
_atom_site_type_symbol
_atom_site_label
_atom_site_fract_x
_atom_site_fract_y
_atom_site_fract_z
Si Si1 0.661401 0.181372 0.910100
Si Si2 0.027392 0.162119 0.487652
Si Si3 0.413811 0.075277 0.982328
Si Si4 0.929921 0.118566 0.125369
Si Si5 0.683485 0.134892 0.767952
Si Si6 0.678087 0.864950 0.096741
Si Si7 0.743862 0.582181 0.683919
Si Si8 0.966089 0.343664 0.677775
O O1 0.750000 0.250000 0.930238
O O2 0.594010 0.289526 0.937681
O O3 0.669370 0.162228 0.838227
O O4 0.626033 0.028102 0.932270
O O5 0.068312 0.176229 0.555672
O O6 0.948062 0.264918 0.475256
O O7 0.000000 0.000000 0.482048
O O8 0.500000 0.000000 0.003268
O O9 0.341356 0.082305 0.030852
O O10 0.845277 0.054874 0.152385
O O11 0.957383 0.238379 0.173061
O O12 0.000000 0.000000 0.126165
O O13 0.750000 0.250000 0.744504
O O14 0.595221 0.156489 0.734899
O O15 0.728311 0.989108 0.747285
O O16 0.750000 0.750000 0.099402
O O17 0.593118 0.799825 0.122295
O O18 0.695260 0.000328 0.138283
O O19 0.750000 0.750000 0.686174
O O20 0.000000 0.500000 0.669388
#
# Coordination Sequence:
#
# PCOD9354746 Si02
#       8
#     8   8   8   8   8   8   8   8
#     4  10  24  43  66  89 122 176 220 267 319 382
#     4  10  23  39  62  93 136 159 213 271 325 389
#     4  10  22  39  62  89 126 169 212 263 319 385
#     4  11  21  35  58  93 126 157 192 260 325 376
#     4  10  22  46  64  85 125 169 215 260 315 385
#     4  11  22  36  57  86 126 166 203 248 318 385
#     4  11  24  36  60  94 124 161 201 265 316 381
#     4  11  21  36  62  89 121 159 204 246 313 383
#
# _framework density 18.986222000000001
#
# number of rings (size 3 to 8) (size 9 to 14) (size 15 to 20)
#    0.000    1.500    1.250    4.875    8.750    1.500 
#    0.000    6.250    0.000    0.000    0.000    0.000 
#    0.000    0.000    0.000    0.000    0.000    0.000 
#
# Total GULP energy -178205.268364 kJ/mol
# GULP energy per Si atom -5568.914636 kJ/mol
# Density = 1.894301 g / cm^3
# Si number density = 18.986222 Si / 1000 Ang^3
#
#
#
# Elastic Constant Matrix: (Units=GPa)
#
#
# Indices 1 2 3 4 5 6 
#
# 1 84.9996 26.2653 45.6912 0.0000 0.0000 0.0000
# 2 26.2653 118.6860 34.7997 0.0000 0.0000 0.0000
# 3 45.6912 34.7997 90.8041 0.0000 0.0000 0.0000
# 4 0.0000 0.0000 0.0000 16.0727 0.0000 0.0000
# 5 0.0000 0.0000 0.0000 0.0000 24.2871 0.0000
# 6 0.0000 0.0000 0.0000 0.0000 0.0000 34.6064
#
#
#
# Elastic Compliance Matrix: (Units=1/GPa)
#
#
# Indices 1 2 3 4 5 6 
#
# 1 0.016318 -0.001356 -0.007691 0.000000 0.000000 0.000000
# 2 -0.001356 0.009605 -0.002999 0.000000 0.000000 0.000000
# 3 -0.007691 -0.002999 0.016032 0.000000 0.000000 0.000000
# 4 0.000000 0.000000 0.000000 0.062217 0.000000 0.000000
# 5 0.000000 0.000000 0.000000 0.000000 0.041174 0.000000
# 6 0.000000 0.000000 0.000000 0.000000 0.000000 0.028896
#
#
# Mechanical properties :
#
#
# Convention : Reuss Voigt Hill
#
# Bulk Modulus (GPa) = 55.98134 56.44469 56.21301
# Shear Modulus (GPa) = 24.47504 27.50881 25.99193
#
# Velocity S-wave (km/s) = 3.59429 3.81055 3.70400
# Velocity P-wave (km/s) = 6.83919 7.01101 6.92563
#
# Compressibility (1/GPa) = 0.01786310
#
# Stress axis : x y z
#
# Youngs Moduli (GPa) = 61.28099 104.11340 62.37488
#
# Poissons Ratio (x) = 0.14119 0.47975
# Poissons Ratio (y) = 0.08310 0.18704
# Poissons Ratio (z) = 0.47134 0.31220
#
# Static dielectric constant tensor:
#      x y z
#    x 1.692910 0.000000 0.000000 
#    y 0.000000 1.707980 0.000000 
#    z 0.000000 0.000000 1.674050 
# 
# From -- ./inp_files/18470.got.cif
#   From: 2010.05.17/outbox.cif.g08.bks.cpg/sg37_10_cif.got.tgz:18470.got - 2010.06.03 17:53:42.
