data_PCOD9354938
_publ_section_title
;
Structure prediction by ZEFSAII (Michael W. Deem and Ramdas Pophale) SiO2 
 PCOD9354938
Probable space group: C C C 2
;
_chemical_formula_sum "Si O2"
_cell_formula_units_Z 48
_cell_length_a 15.969697
_cell_length_b 9.485519
_cell_length_c 14.698951
_cell_angle_alpha 90.000000
_cell_angle_beta 90.000000
_cell_angle_gamma 90.000000
_cell_volume 2226.609802
_symmetry_space_group_name_H-M "C C C 2"
_symmetry_group_IT_number 37
_symmetry_cell_setting 'orthorhombic'
loop_
_space_group_symop_operation_xyz
x,y,z
-x,-y,z
-x,y,1/2+z
x,-y,1/2+z
1/2+x,1/2+y,z
1/2-x,1/2-y,z
1/2-x,1/2+y,1/2+z
1/2+x,1/2-y,1/2+z
loop_
_atom_site_type_symbol
_atom_site_label
_atom_site_fract_x
_atom_site_fract_y
_atom_site_fract_z
Si Si1 0.598958 0.520846 0.117390
Si Si2 0.688596 0.619279 0.461139
Si Si3 0.153346 0.299003 0.032017
Si Si4 0.427215 0.616414 0.797817
Si Si5 0.798784 0.606505 0.849692
Si Si6 0.088602 0.425691 0.211038
O O1 0.500000 0.500000 0.127866
O O2 0.603149 0.660257 0.056821
O O3 0.631914 0.543976 0.220086
O O4 0.653435 0.411906 0.060956
O O5 0.750000 0.750000 0.462146
O O6 0.611394 0.646371 0.394957
O O7 0.736012 0.490998 0.409705
O O8 0.250000 0.250000 0.039331
O O9 0.132280 0.406579 0.112608
O O10 0.136795 0.346082 0.929458
O O11 0.500000 0.500000 0.811326
O O12 0.435889 0.771459 0.752553
O O13 0.750000 0.750000 0.819161
O O14 0.848251 0.514490 0.775499
O O15 0.000000 0.500000 0.199718
#
# Coordination Sequence:
#
# PCOD9354938 Si02
#       6
#     8   8   8   8   8   8
#     4  10  22  43  69  97 132 180 224 270 342 405
#     4  12  23  42  70 104 130 177 230 280 329 408
#     4  10  22  47  70  90 137 180 216 277 345 396
#     4  10  24  44  68  94 139 182 220 278 346 405
#     4  11  24  44  70  99 137 180 224 275 349 399
#     4  11  26  44  68 103 133 179 229 281 339 409
#
# _framework density 21.557437
#
# number of rings (size 3 to 8) (size 9 to 14) (size 15 to 20)
#    0.000    1.333    5.000    0.500    7.000    2.000 
#    9.000    1.667    0.000    0.000    0.000    0.000 
#    0.000    0.000    0.000    0.000    0.000    0.000 
#
# Total GULP energy -133853.505349 kJ/mol
# GULP energy per Si atom -5577.229390 kJ/mol
# Density = 2.150837 g / cm^3
# Si number density = 21.557437 Si / 1000 Ang^3
#
#
#
# Elastic Constant Matrix: (Units=GPa)
#
#
# Indices 1 2 3 4 5 6 
#
# 1 68.1975 40.0847 28.9630 0.0000 0.0000 0.0000
# 2 40.0847 112.5417 40.2289 0.0000 0.0000 0.0000
# 3 28.9630 40.2289 105.2423 0.0000 0.0000 0.0000
# 4 0.0000 0.0000 0.0000 44.7955 0.0000 0.0000
# 5 0.0000 0.0000 0.0000 0.0000 -28.8147 0.0000
# 6 0.0000 0.0000 0.0000 0.0000 0.0000 43.4614
#
#
#
# Elastic Compliance Matrix: (Units=1/GPa)
#
#
# Indices 1 2 3 4 5 6 
#
# 1 0.019394 -0.005791 -0.003124 0.000000 0.000000 0.000000
# 2 -0.005791 0.012021 -0.003001 0.000000 0.000000 0.000000
# 3 -0.003124 -0.003001 0.011509 0.000000 0.000000 0.000000
# 4 0.000000 0.000000 0.000000 0.022324 0.000000 0.000000
# 5 0.000000 0.000000 0.000000 0.000000 -0.034705 0.000000
# 6 0.000000 0.000000 0.000000 0.000000 0.000000 0.023009
#
#
# Mechanical properties :
#
#
# Convention : Reuss Voigt Hill
#
# Bulk Modulus (GPa) = 52.37905 56.05943 54.21924
# Shear Modulus (GPa) = 59.70340 23.66877 41.68609
#
# Velocity S-wave (km/s) = 5.26832 3.31711 4.40218
# Velocity P-wave (km/s) = 7.83307 6.38217 7.14455
#
# Compressibility (1/GPa) = 0.01909160
#
# Stress axis : x y z
#
# Youngs Moduli (GPa) = 51.56327 83.18727 86.89024
#
# Poissons Ratio (x) = 0.48174 0.27141
# Poissons Ratio (y) = 0.29860 0.26079
# Poissons Ratio (z) = 0.16106 0.24967
#
# Static dielectric constant tensor:
#      x y z
#    x 2.429430 0.000000 0.000000 
#    y 0.000000 1.801540 0.000000 
#    z 0.000000 0.000000 1.810610 
# 
# From -- ./inp_files/12538.got.cif
#   From: 2010.05.17/outbox.cif.g08.bks.cpg/sg37_7_cif.got.tgz:12538.got - 2010.06.03 17:53:42.
