data_PCOD9354067
_publ_section_title
;
Structure prediction by ZEFSAII (Michael W. Deem and Ramdas Pophale) SiO2 
 PCOD9354067
Probable space group: C C C 2
;
_chemical_formula_sum "Si O2"
_cell_formula_units_Z 48
_cell_length_a 9.704408
_cell_length_b 17.106594
_cell_length_c 15.436537
_cell_angle_alpha 90.000000
_cell_angle_beta 90.000000
_cell_angle_gamma 90.000000
_cell_volume 2562.609746
_symmetry_space_group_name_H-M "C C C 2"
_symmetry_group_IT_number 37
_symmetry_cell_setting 'orthorhombic'
loop_
_space_group_symop_operation_xyz
x,y,z
-x,-y,z
-x,y,1/2+z
x,-y,1/2+z
1/2+x,1/2+y,z
1/2-x,1/2-y,z
1/2-x,1/2+y,1/2+z
1/2+x,1/2-y,1/2+z
loop_
_atom_site_type_symbol
_atom_site_label
_atom_site_fract_x
_atom_site_fract_y
_atom_site_fract_z
Si Si1 0.916252 0.580022 0.793300
Si Si2 0.865786 0.156714 0.088179
Si Si3 0.673470 0.835280 0.965697
Si Si4 0.596180 0.426682 0.260224
Si Si5 0.547390 0.409422 0.444112
Si Si6 0.558079 0.834798 0.613411
O O1 0.903259 0.637328 0.876916
O O2 0.757890 0.557015 0.772406
O O3 0.969044 0.625321 0.706813
O O4 0.000000 0.500000 0.809850
O O5 0.926046 0.107012 0.166286
O O6 0.705435 0.133287 0.079077
O O7 0.899274 0.244050 0.119856
O O8 0.943062 0.140881 0.999747
O O9 0.750000 0.750000 0.959750
O O10 0.798420 0.896685 0.979532
O O11 0.566023 0.839790 0.045074
O O12 0.500000 0.500000 0.266997
O O13 0.555124 0.377948 0.345493
O O14 0.500000 0.500000 0.448182
#
# Coordination Sequence:
#
# PCOD9354067 Si02
#       6
#     8   8   8   8   8   8
#     4  10  24  41  63  91 125 165 207 260 319 373
#     4  10  20  37  59  89 122 162 198 257 311 370
#     4  11  23  42  67  92 126 169 214 259 314 381
#     4   9  20  37  60  85 119 161 204 247 308 372
#     4  10  21  37  61  90 120 158 206 253 309 369
#     4  10  23  38  62  90 125 160 211 252 316 369
#
# _framework density 18.730906000000001
#
# number of rings (size 3 to 8) (size 9 to 14) (size 15 to 20)
#    0.000    2.000    1.667    0.500    7.000    8.667 
#    0.000    0.000    3.667    0.000    0.000    0.000 
#    0.000    0.000    0.000    0.000    0.000    0.000 
#
# Total GULP energy -133606.775339 kJ/mol
# GULP energy per Si atom -5566.948972 kJ/mol
# Density = 1.868827 g / cm^3
# Si number density = 18.730906 Si / 1000 Ang^3
#
#
#
# Elastic Constant Matrix: (Units=GPa)
#
#
# Indices 1 2 3 4 5 6 
#
# 1 66.3821 32.7117 73.2562 0.0000 0.0000 0.0000
# 2 32.7117 69.3071 40.0131 0.0000 0.0000 0.0000
# 3 73.2562 40.0131 108.5535 0.0000 0.0000 0.0000
# 4 0.0000 0.0000 0.0000 23.3226 0.0000 0.0000
# 5 0.0000 0.0000 0.0000 0.0000 54.6716 0.0000
# 6 0.0000 0.0000 0.0000 0.0000 0.0000 36.4638
#
#
#
# Elastic Compliance Matrix: (Units=1/GPa)
#
#
# Indices 1 2 3 4 5 6 
#
# 1 0.061168 -0.006401 -0.038919 0.000000 0.000000 0.000000
# 2 -0.006401 0.018999 -0.002683 0.000000 0.000000 0.000000
# 3 -0.038919 -0.002683 0.036465 0.000000 0.000000 0.000000
# 4 0.000000 0.000000 0.000000 0.042877 0.000000 0.000000
# 5 0.000000 0.000000 0.000000 0.000000 0.018291 0.000000
# 6 0.000000 0.000000 0.000000 0.000000 0.000000 0.027424
#
#
# Mechanical properties :
#
#
# Convention : Reuss Voigt Hill
#
# Bulk Modulus (GPa) = 48.48455 59.57831 54.03143
# Shear Modulus (GPa) = 16.22812 29.44239 22.83526
#
# Velocity S-wave (km/s) = 2.94663 3.96897 3.49538
# Velocity P-wave (km/s) = 6.12518 7.27188 6.72302
#
# Compressibility (1/GPa) = 0.02062513
#
# Stress axis : x y z
#
# Youngs Moduli (GPa) = 16.34839 52.63467 27.42323
#
# Poissons Ratio (x) = 0.33691 1.06729
# Poissons Ratio (y) = 0.10465 0.07359
# Poissons Ratio (z) = 0.63627 0.14124
#
# Static dielectric constant tensor:
#      x y z
#    x 1.649200 0.000000 0.000000 
#    y 0.000000 1.659740 0.000000 
#    z 0.000000 0.000000 1.676390 
# 
# From -- ./inp_files/10587.got.cif
#   From: 2010.05.17/outbox.cif.g08.bks.cpg/sg37_6_cif.got.tgz:10587.got - 2010.06.03 17:53:42.
