data_PCOD9354216
_publ_section_title
;
Structure prediction by ZEFSAII (Michael W. Deem and Ramdas Pophale) SiO2 
 PCOD9354216
Probable space group: C C C 2
;
_chemical_formula_sum "Si O2"
_cell_formula_units_Z 60
_cell_length_a 14.266915
_cell_length_b 14.773392
_cell_length_c 15.644171
_cell_angle_alpha 90.000000
_cell_angle_beta 90.000000
_cell_angle_gamma 90.000000
_cell_volume 3297.333309
_symmetry_space_group_name_H-M "C C C 2"
_symmetry_group_IT_number 37
_symmetry_cell_setting 'orthorhombic'
loop_
_space_group_symop_operation_xyz
x,y,z
-x,-y,z
-x,y,1/2+z
x,-y,1/2+z
1/2+x,1/2+y,z
1/2-x,1/2-y,z
1/2-x,1/2+y,1/2+z
1/2+x,1/2-y,1/2+z
loop_
_atom_site_type_symbol
_atom_site_label
_atom_site_fract_x
_atom_site_fract_y
_atom_site_fract_z
Si Si1 0.504698 0.751698 0.754150
Si Si2 0.500000 0.000000 0.662464
Si Si3 0.059199 0.406216 0.393026
Si Si4 0.816982 0.838340 0.197102
Si Si5 0.155541 0.191275 0.012650
Si Si6 0.686004 0.660468 0.829474
Si Si7 0.504977 0.825410 0.563478
Si Si8 0.689941 0.995412 0.270458
O O1 0.484589 0.836479 0.820433
O O2 0.408696 0.693917 0.748482
O O3 0.590011 0.690676 0.785592
O O4 0.530021 0.780625 0.655703
O O5 0.532839 0.080527 0.601008
O O6 0.406812 0.017661 0.719226
O O7 0.069963 0.355418 0.483924
O O8 0.155414 0.444577 0.355706
O O9 0.000000 0.500000 0.403464
O O10 0.750000 0.750000 0.196169
O O11 0.848905 0.861087 0.101017
O O12 0.755732 0.921926 0.226495
O O13 0.250000 0.250000 0.014328
O O14 0.071226 0.262688 0.017650
O O15 0.159146 0.134849 0.926534
O O16 0.750000 0.750000 0.832348
O O17 0.748855 0.583697 0.787171
#
# Coordination Sequence:
#
# PCOD9354216 Si02
#       8
#     8   4   8   8   8   8   8   8
#     4  11  22  42  63  86 130 171 206 262 316 371
#     4  12  20  36  60  94 126 150 212 274 322 360
#     4  12  21  35  62  96 125 158 209 265 317 366
#     4  10  20  40  65  87 122 168 216 251 310 382
#     4   9  19  33  57  89 118 158 205 248 308 381
#     4  11  23  38  61  92 129 161 204 261 324 378
#     4  11  21  34  62  91 121 170 201 259 323 370
#     4  12  24  37  65  94 125 165 210 263 320 378
#
# _framework density 18.196522000000002
#
# number of rings (size 3 to 8) (size 9 to 14) (size 15 to 20)
#    0.000    1.067    5.333    3.200    1.867    1.600 
#    0.000    0.000   11.733    1.600    0.000    0.000 
#    0.000    0.000    0.000    0.000    0.000    0.000 
#
# Total GULP energy -167007.690424 kJ/mol
# GULP energy per Si atom -5566.923014 kJ/mol
# Density = 1.815511 g / cm^3
# Si number density = 18.196522 Si / 1000 Ang^3
#
#
#
# Elastic Constant Matrix: (Units=GPa)
#
#
# Indices 1 2 3 4 5 6 
#
# 1 100.6904 44.5227 36.0760 0.0000 0.0000 0.0000
# 2 44.5227 95.7199 35.3145 0.0000 0.0000 0.0000
# 3 36.0760 35.3145 76.9266 0.0000 0.0000 0.0000
# 4 0.0000 0.0000 0.0000 12.8717 0.0000 0.0000
# 5 0.0000 0.0000 0.0000 0.0000 45.5024 0.0000
# 6 0.0000 0.0000 0.0000 0.0000 0.0000 30.4512
#
#
#
# Elastic Compliance Matrix: (Units=1/GPa)
#
#
# Indices 1 2 3 4 5 6 
#
# 1 0.013525 -0.004756 -0.004159 0.000000 0.000000 0.000000
# 2 -0.004756 0.014250 -0.004311 0.000000 0.000000 0.000000
# 3 -0.004159 -0.004311 0.016929 0.000000 0.000000 0.000000
# 4 0.000000 0.000000 0.000000 0.077690 0.000000 0.000000
# 5 0.000000 0.000000 0.000000 0.000000 0.021977 0.000000
# 6 0.000000 0.000000 0.000000 0.000000 0.000000 0.032839
#
#
# Mechanical properties :
#
#
# Convention : Reuss Voigt Hill
#
# Bulk Modulus (GPa) = 54.79316 56.12923 55.46120
# Shear Modulus (GPa) = 23.83829 28.25999 26.04914
#
# Velocity S-wave (km/s) = 3.62338 3.94514 3.78768
# Velocity P-wave (km/s) = 6.90525 7.18786 7.04797
#
# Compressibility (1/GPa) = 0.01825045
#
# Stress axis : x y z
#
# Youngs Moduli (GPa) = 73.93851 70.17526 59.07014
#
# Poissons Ratio (x) = 0.33378 0.24568
# Poissons Ratio (y) = 0.35168 0.25466
# Poissons Ratio (z) = 0.30752 0.30254
#
# Static dielectric constant tensor:
#      x y z
#    x 1.330860 0.000000 0.000000 
#    y 0.000000 1.643430 0.000000 
#    z 0.000000 0.000000 1.703630 
# 
# From -- ./inp_files/12262.got.cif
#   From: 2010.05.17/outbox.cif.g08.bks.cpg/sg37_7_cif.got.tgz:12262.got - 2010.06.03 17:53:42.
