data_PCOD9354735
_publ_section_title
;
Structure prediction by ZEFSAII (Michael W. Deem and Ramdas Pophale) SiO2 
 PCOD9354735
Probable space group: C C C 2
;
_chemical_formula_sum "Si O2"
_cell_formula_units_Z 56
_cell_length_a 12.312606
_cell_length_b 15.108874
_cell_length_c 14.476350
_cell_angle_alpha 90.000000
_cell_angle_beta 90.000000
_cell_angle_gamma 90.000000
_cell_volume 2693.029783
_symmetry_space_group_name_H-M "C C C 2"
_symmetry_group_IT_number 37
_symmetry_cell_setting 'orthorhombic'
loop_
_space_group_symop_operation_xyz
x,y,z
-x,-y,z
-x,y,1/2+z
x,-y,1/2+z
1/2+x,1/2+y,z
1/2-x,1/2-y,z
1/2-x,1/2+y,1/2+z
1/2+x,1/2-y,1/2+z
loop_
_atom_site_type_symbol
_atom_site_label
_atom_site_fract_x
_atom_site_fract_y
_atom_site_fract_z
Si Si1 0.376706 0.225758 0.095610
Si Si2 0.130370 0.712041 0.802505
Si Si3 0.542145 0.310751 0.418061
Si Si4 0.727891 0.555689 0.749021
Si Si5 0.378532 0.020181 0.092489
Si Si6 0.750000 0.250000 0.296059
Si Si7 0.125368 0.475144 0.390455
Si Si8 0.000000 0.000000 0.327361
O O1 0.250000 0.250000 0.097253
O O2 0.419444 0.227984 0.200889
O O3 0.381224 0.123409 0.064941
O O4 0.436428 0.290496 0.025012
O O5 0.250000 0.750000 0.800932
O O6 0.140999 0.610755 0.829005
O O7 0.059080 0.756250 0.880619
O O8 0.646144 0.269444 0.362893
O O9 0.513520 0.411820 0.390323
O O10 0.790701 0.503646 0.668980
O O11 0.742230 0.661124 0.733671
O O12 0.792128 0.544556 0.846163
O O13 0.608832 0.512551 0.764849
O O14 0.500000 0.000000 0.127692
O O15 0.355437 0.965642 0.999239
O O16 0.000000 0.500000 0.380948
#
# Coordination Sequence:
#
# PCOD9354735 Si02
#       8
#     8   8   8   8   8   4   8   4
#     4  11  24  43  72 103 132 185 236 284 354 432
#     4  11  24  43  68  98 138 174 219 290 356 408
#     4  11  22  45  68 100 135 180 239 280 349 424
#     4  11  22  44  64  96 142 180 232 282 353 421
#     4  11  24  41  71 104 130 172 232 295 353 414
#     4  10  22  38  68  94 132 186 228 288 334 414
#     4  11  22  41  70 100 129 171 223 295 348 400
#     4  10  26  42  66  98 144 192 232 288 348 426
#
# _framework density 20.794422000000001
#
# number of rings (size 3 to 8) (size 9 to 14) (size 15 to 20)
#    0.000    1.143    2.143    4.714    6.000    0.000 
#    1.286    5.714    0.000    0.000    0.000    0.000 
#    0.000    0.000    0.000    0.000    0.000    0.000 
#
# Total GULP energy -156324.699911 kJ/mol
# GULP energy per Si atom -5583.024997 kJ/mol
# Density = 2.074709 g / cm^3
# Si number density = 20.794422 Si / 1000 Ang^3
#
#
#
# Elastic Constant Matrix: (Units=GPa)
#
#
# Indices 1 2 3 4 5 6 
#
# 1 106.6647 45.0190 56.7896 0.0000 0.0000 0.0000
# 2 45.0190 115.2954 15.1043 0.0000 0.0000 0.0000
# 3 56.7896 15.1043 89.6904 0.0000 0.0000 0.0000
# 4 0.0000 0.0000 0.0000 24.0911 0.0000 0.0000
# 5 0.0000 0.0000 0.0000 0.0000 11.4924 0.0000
# 6 0.0000 0.0000 0.0000 0.0000 0.0000 27.6637
#
#
#
# Elastic Compliance Matrix: (Units=1/GPa)
#
#
# Indices 1 2 3 4 5 6 
#
# 1 0.016790 -0.005280 -0.009742 0.000000 0.000000 0.000000
# 2 -0.005280 0.010529 0.001570 0.000000 0.000000 0.000000
# 3 -0.009742 0.001570 0.017054 0.000000 0.000000 0.000000
# 4 0.000000 0.000000 0.000000 0.041509 0.000000 0.000000
# 5 0.000000 0.000000 0.000000 0.000000 0.087014 0.000000
# 6 0.000000 0.000000 0.000000 0.000000 0.000000 0.036148
#
#
# Mechanical properties :
#
#
# Convention : Reuss Voigt Hill
#
# Bulk Modulus (GPa) = 57.24385 60.60848 58.92616
# Shear Modulus (GPa) = 20.68062 25.63194 23.15628
#
# Velocity S-wave (km/s) = 3.15703 3.51470 3.34066
# Velocity P-wave (km/s) = 6.39354 6.75874 6.57868
#
# Compressibility (1/GPa) = 0.01746912
#
# Stress axis : x y z
#
# Youngs Moduli (GPa) = 59.55796 94.97302 58.63889
#
# Poissons Ratio (x) = 0.50144 0.57126
# Poissons Ratio (y) = 0.31445 -0.09205
# Poissons Ratio (z) = 0.58022 -0.14909
#
# Static dielectric constant tensor:
#      x y z
#    x 1.739400 0.000000 0.000000 
#    y 0.000000 1.813680 0.000000 
#    z 0.000000 0.000000 1.758270 
# 
# From -- ./inp_files/11638.got.cif
#   From: 2010.05.17/outbox.cif.g08.bks.cpg/sg37_6_cif.got.tgz:11638.got - 2010.06.03 17:53:42.
