data_PCOD9354098
_publ_section_title
;
Structure prediction by ZEFSAII (Michael W. Deem and Ramdas Pophale) SiO2 
 PCOD9354098
Probable space group: C C C 2
;
_chemical_formula_sum "Si O2"
_cell_formula_units_Z 48
_cell_length_a 8.368682
_cell_length_b 30.963321
_cell_length_c 8.491675
_cell_angle_alpha 90.000000
_cell_angle_beta 90.000000
_cell_angle_gamma 90.000000
_cell_volume 2200.381398
_symmetry_space_group_name_H-M "C C C 2"
_symmetry_group_IT_number 37
_symmetry_cell_setting 'orthorhombic'
loop_
_space_group_symop_operation_xyz
x,y,z
-x,-y,z
-x,y,1/2+z
x,-y,1/2+z
1/2+x,1/2+y,z
1/2-x,1/2-y,z
1/2-x,1/2+y,1/2+z
1/2+x,1/2-y,1/2+z
loop_
_atom_site_type_symbol
_atom_site_label
_atom_site_fract_x
_atom_site_fract_y
_atom_site_fract_z
Si Si1 0.272463 0.386178 0.854230
Si Si2 0.833230 0.975121 0.271420
Si Si3 0.318514 0.293770 0.816435
Si Si4 0.635654 0.033749 0.473577
Si Si5 0.324217 0.296032 0.439029
Si Si6 0.366362 0.608643 0.983676
O O1 0.223474 0.336298 0.865215
O O2 0.128893 0.416758 0.915161
O O3 0.323501 0.395256 0.670336
O O4 0.440890 0.388544 0.952166
O O5 0.821623 0.934429 0.387834
O O6 0.704141 0.009596 0.323880
O O7 0.779459 0.963387 0.098024
O O8 0.000000 0.000000 0.276046
O O9 0.250000 0.250000 0.883598
O O10 0.320268 0.292514 0.627749
O O11 0.498278 0.296438 0.873137
O O12 0.500000 0.000000 0.528681
O O13 0.250000 0.250000 0.379883
O O14 0.280928 0.347479 0.416534
#
# Coordination Sequence:
#
# PCOD9354098 Si02
#       6
#     8   8   8   8   8   8
#     4  10  20  38  64  93 125 164 211 264 318 373
#     4  12  24  41  67  92 118 168 221 263 314 390
#     4   9  19  37  62  90 126 164 203 249 306 380
#     4  12  26  43  62  91 130 165 207 270 333 381
#     4   9  19  37  61  93 127 159 202 258 310 363
#     4  10  20  37  66  96 120 160 219 268 306 377
#
# _framework density 21.814399999999999
#
# number of rings (size 3 to 8) (size 9 to 14) (size 15 to 20)
#    0.000    1.667    1.667    3.000    0.000    2.000 
#    3.000    0.833    0.000    0.000    0.000    0.000 
#    0.000    0.000    0.000    0.000    0.000    0.000 
#
# Total GULP energy -133601.121517 kJ/mol
# GULP energy per Si atom -5566.713397 kJ/mol
# Density = 2.176475 g / cm^3
# Si number density = 21.814400 Si / 1000 Ang^3
#
#
#
# Elastic Constant Matrix: (Units=GPa)
#
#
# Indices 1 2 3 4 5 6 
#
# 1 40.7419 47.0051 8.0833 0.0000 0.0000 0.0000
# 2 47.0051 224.0646 36.7088 0.0000 0.0000 0.0000
# 3 8.0833 36.7088 42.2853 0.0000 0.0000 0.0000
# 4 0.0000 0.0000 0.0000 25.7047 0.0000 0.0000
# 5 0.0000 0.0000 0.0000 0.0000 6.4089 0.0000
# 6 0.0000 0.0000 0.0000 0.0000 0.0000 35.2212
#
#
#
# Elastic Compliance Matrix: (Units=1/GPa)
#
#
# Indices 1 2 3 4 5 6 
#
# 1 0.032387 -0.006738 -0.000341 0.000000 0.000000 0.000000
# 2 -0.006738 0.006605 -0.004446 0.000000 0.000000 0.000000
# 3 -0.000341 -0.004446 0.027574 0.000000 0.000000 0.000000
# 4 0.000000 0.000000 0.000000 0.038903 0.000000 0.000000
# 5 0.000000 0.000000 0.000000 0.000000 0.156033 0.000000
# 6 0.000000 0.000000 0.000000 0.000000 0.000000 0.028392
#
#
# Mechanical properties :
#
#
# Convention : Reuss Voigt Hill
#
# Bulk Modulus (GPa) = 22.98099 54.52068 38.75083
# Shear Modulus (GPa) = 15.26956 27.81994 21.54475
#
# Velocity S-wave (km/s) = 2.64858 3.57501 3.14608
# Velocity P-wave (km/s) = 4.46217 6.48754 5.56772
#
# Compressibility (1/GPa) = 0.04351424
#
# Stress axis : x y z
#
# Youngs Moduli (GPa) = 30.87692 151.40204 36.26655
#
# Poissons Ratio (x) = 1.02018 0.01238
# Poissons Ratio (y) = 0.20806 0.16123
# Poissons Ratio (z) = 0.01054 0.67310
#
# Static dielectric constant tensor:
#      x y z
#    x 1.809220 0.000000 0.000000 
#    y 0.000000 1.987740 0.000000 
#    z 0.000000 0.000000 1.786530 
# 
# From -- ./inp_files/2419.got.cif
#   From: 2010.05.17/outbox.cif.g08.bks.cpg/sg37_2_cif.got.tgz:2419.got - 2010.06.03 17:53:42.
