data_PCOD9354894
_publ_section_title
;
Structure prediction by ZEFSAII (Michael W. Deem and Ramdas Pophale) SiO2 
 PCOD9354894
Probable space group: C C C 2
;
_chemical_formula_sum "Si O2"
_cell_formula_units_Z 52
_cell_length_a 22.617538
_cell_length_b 10.060248
_cell_length_c 9.154020
_cell_angle_alpha 90.000000
_cell_angle_beta 90.000000
_cell_angle_gamma 90.000000
_cell_volume 2082.887782
_symmetry_space_group_name_H-M "C C C 2"
_symmetry_group_IT_number 37
_symmetry_cell_setting 'orthorhombic'
loop_
_space_group_symop_operation_xyz
x,y,z
-x,-y,z
-x,y,1/2+z
x,-y,1/2+z
1/2+x,1/2+y,z
1/2-x,1/2-y,z
1/2-x,1/2+y,1/2+z
1/2+x,1/2-y,1/2+z
loop_
_atom_site_type_symbol
_atom_site_label
_atom_site_fract_x
_atom_site_fract_y
_atom_site_fract_z
Si Si1 0.750000 0.750000 0.391800
Si Si2 0.998385 0.152675 0.618964
Si Si3 0.884714 0.888630 0.917394
Si Si4 0.159153 0.115995 0.220087
Si Si5 0.190490 0.338070 0.815063
Si Si6 0.068599 0.288280 0.370226
Si Si7 0.659750 0.052554 0.024705
O O1 0.777798 0.864831 0.292075
O O2 0.699049 0.816831 0.486210
O O3 0.944272 0.140858 0.503810
O O4 0.983978 0.257209 0.750444
O O5 0.052067 0.197036 0.512569
O O6 0.000000 0.000000 0.677611
O O7 0.862921 0.764616 0.826926
O O8 0.879264 0.008075 0.805958
O O9 0.839091 0.913466 0.050466
O O10 0.122575 0.247201 0.262889
O O11 0.250000 0.250000 0.793566
O O12 0.168272 0.444171 0.696807
O O13 0.190276 0.421224 0.963602
O O14 0.094893 0.419855 0.452479
#
# Coordination Sequence:
#
# PCOD9354894 Si02
#       7
#     4   8   8   8   8   8   8
#     4  10  22  42  70  94 142 182 232 294 372 440
#     4  11  22  41  71 113 148 198 249 307 362 432
#     4  11  26  41  71 106 144 191 246 303 370 430
#     4  10  23  40  66 103 142 185 239 306 363 439
#     4  12  29  49  78 105 149 196 243 306 379 453
#     4  10  24  41  71 102 150 189 243 309 362 426
#     4  11  27  49  70 107 145 190 248 302 370 454
#
# _framework density 24.965340000000001
#
# number of rings (size 3 to 8) (size 9 to 14) (size 15 to 20)
#    0.000    1.231    2.308    1.385   16.154    2.462 
#    0.000    0.769    0.000    0.000    0.000    0.000 
#    0.000    0.000    0.000    0.000    0.000    0.000 
#
# Total GULP energy -145039.382440 kJ/mol
# GULP energy per Si atom -5578.437786 kJ/mol
# Density = 2.490852 g / cm^3
# Si number density = 24.965340 Si / 1000 Ang^3
#
#
#
# Elastic Constant Matrix: (Units=GPa)
#
#
# Indices 1 2 3 4 5 6 
#
# 1 70.8056 21.0003 27.0475 0.0000 0.0000 0.0000
# 2 21.0003 48.2092 7.0592 0.0000 0.0000 0.0000
# 3 27.0475 7.0592 94.1114 0.0000 0.0000 0.0000
# 4 0.0000 0.0000 0.0000 26.9216 0.0000 0.0000
# 5 0.0000 0.0000 0.0000 0.0000 31.6477 0.0000
# 6 0.0000 0.0000 0.0000 0.0000 0.0000 16.2083
#
#
#
# Elastic Compliance Matrix: (Units=1/GPa)
#
#
# Indices 1 2 3 4 5 6 
#
# 1 0.018023 -0.007171 -0.004642 0.000000 0.000000 0.000000
# 2 -0.007171 0.023827 0.000274 0.000000 0.000000 0.000000
# 3 -0.004642 0.000274 0.011939 0.000000 0.000000 0.000000
# 4 0.000000 0.000000 0.000000 0.037145 0.000000 0.000000
# 5 0.000000 0.000000 0.000000 0.000000 0.031598 0.000000
# 6 0.000000 0.000000 0.000000 0.000000 0.000000 0.061697
#
#
# Mechanical properties :
#
#
# Convention : Reuss Voigt Hill
#
# Bulk Modulus (GPa) = 32.56236 35.92668 34.24452
# Shear Modulus (GPa) = 22.98376 25.49013 24.23694
#
# Velocity S-wave (km/s) = 3.03748 3.19881 3.11918
# Velocity P-wave (km/s) = 5.03716 5.29764 5.16904
#
# Compressibility (1/GPa) = 0.03071031
#
# Stress axis : x y z
#
# Youngs Moduli (GPa) = 55.48348 41.96957 83.75726
#
# Poissons Ratio (x) = 0.30098 0.38880
# Poissons Ratio (y) = 0.39790 -0.02294
# Poissons Ratio (z) = 0.25755 -0.01149
#
# Static dielectric constant tensor:
#      x y z
#    x 2.058440 0.000000 0.000000 
#    y 0.000000 2.091750 0.000000 
#    z 0.000000 0.000000 2.018480 
# 
# From -- ./inp_files/4783.got.cif
#   From: 2010.05.17/outbox.cif.g08.bks.cpg/sg37_3_cif.got.tgz:4783.got - 2010.06.03 17:53:42.
