data_PCOD9354531
_publ_section_title
;
Structure prediction by ZEFSAII (Michael W. Deem and Ramdas Pophale) SiO2 
 PCOD9354531
Probable space group: C C C 2
;
_chemical_formula_sum "Si O2"
_cell_formula_units_Z 64
_cell_length_a 8.859882
_cell_length_b 14.041633
_cell_length_c 24.281939
_cell_angle_alpha 90.000000
_cell_angle_beta 90.000000
_cell_angle_gamma 90.000000
_cell_volume 3020.848320
_symmetry_space_group_name_H-M "C C C 2"
_symmetry_group_IT_number 37
_symmetry_cell_setting 'orthorhombic'
loop_
_space_group_symop_operation_xyz
x,y,z
-x,-y,z
-x,y,1/2+z
x,-y,1/2+z
1/2+x,1/2+y,z
1/2-x,1/2-y,z
1/2-x,1/2+y,1/2+z
1/2+x,1/2-y,1/2+z
loop_
_atom_site_type_symbol
_atom_site_label
_atom_site_fract_x
_atom_site_fract_y
_atom_site_fract_z
Si Si1 0.346398 0.152049 0.119830
Si Si2 0.568106 0.892268 0.714678
Si Si3 0.182816 0.999347 0.926168
Si Si4 0.326626 0.517334 0.696988
Si Si5 0.879544 0.919935 0.309176
Si Si6 0.874818 0.673043 0.423750
Si Si7 0.928963 0.727730 0.825457
Si Si8 0.646503 0.840017 0.995556
O O1 0.250000 0.250000 0.122433
O O2 0.489600 0.153357 0.161146
O O3 0.244650 0.069256 0.145328
O O4 0.382922 0.123575 0.057129
O O5 0.554979 0.825223 0.767485
O O6 0.500000 0.000000 0.722302
O O7 0.743967 0.917324 0.707354
O O8 0.202984 0.969697 0.861104
O O9 0.279243 0.912570 0.949719
O O10 0.265275 0.089775 0.953091
O O11 0.000000 0.000000 0.934284
O O12 0.500000 0.500000 0.686017
O O13 0.295723 0.585871 0.750834
O O14 0.973173 0.825821 0.324925
O O15 0.000000 0.000000 0.294795
O O16 0.750000 0.750000 0.408436
O O17 0.985340 0.662719 0.370829
O O18 0.993263 0.699670 0.469949
O O19 0.750000 0.750000 0.836880
O O20 0.750000 0.750000 0.002513
#
# Coordination Sequence:
#
# PCOD9354531 Si02
#       8
#     8   8   8   8   8   8   8   8
#     4  10  23  45  69  97 134 181 229 285 336 399
#     4  10  24  40  67 101 137 180 228 274 339 408
#     4  11  25  44  68  96 136 180 226 280 345 409
#     4  10  21  40  66  98 140 172 229 273 338 406
#     4  10  22  39  64  99 138 179 221 276 341 409
#     4  12  26  42  65 101 133 179 228 284 343 411
#     4  12  25  42  69  99 143 179 226 282 347 409
#     4  11  26  47  72  98 136 183 231 288 342 406
#
# _framework density 21.186102000000002
#
# number of rings (size 3 to 8) (size 9 to 14) (size 15 to 20)
#    0.000    1.250    1.250    3.750   10.500    4.000 
#    0.000    3.125    0.000    0.000    0.000    0.000 
#    0.000    0.000    0.000    0.000    0.000    0.000 
#
# Total GULP energy -178355.474738 kJ/mol
# GULP energy per Si atom -5573.608586 kJ/mol
# Density = 2.113788 g / cm^3
# Si number density = 21.186102 Si / 1000 Ang^3
#
#
#
# Elastic Constant Matrix: (Units=GPa)
#
#
# Indices 1 2 3 4 5 6 
#
# 1 135.9680 15.2231 59.2472 0.0000 0.0000 0.0000
# 2 15.2231 63.3227 22.0101 0.0000 0.0000 0.0000
# 3 59.2472 22.0101 134.4581 0.0000 0.0000 0.0000
# 4 0.0000 0.0000 0.0000 28.3858 0.0000 0.0000
# 5 0.0000 0.0000 0.0000 0.0000 34.7998 0.0000
# 6 0.0000 0.0000 0.0000 0.0000 0.0000 32.9357
#
#
#
# Elastic Compliance Matrix: (Units=1/GPa)
#
#
# Indices 1 2 3 4 5 6 
#
# 1 0.009145 -0.000846 -0.003891 0.000000 0.000000 0.000000
# 2 -0.000846 0.016823 -0.002381 0.000000 0.000000 0.000000
# 3 -0.003891 -0.002381 0.009542 0.000000 0.000000 0.000000
# 4 0.000000 0.000000 0.000000 0.035229 0.000000 0.000000
# 5 0.000000 0.000000 0.000000 0.000000 0.028736 0.000000
# 6 0.000000 0.000000 0.000000 0.000000 0.000000 0.030362
#
#
# Mechanical properties :
#
#
# Convention : Reuss Voigt Hill
#
# Bulk Modulus (GPa) = 47.00728 58.52327 52.76528
# Shear Modulus (GPa) = 33.07666 35.04215 34.05940
#
# Velocity S-wave (km/s) = 3.95554 4.07137 4.01388
# Velocity P-wave (km/s) = 6.56489 7.05584 6.81478
#
# Compressibility (1/GPa) = 0.02127330
#
# Stress axis : x y z
#
# Youngs Moduli (GPa) = 109.35043 59.44190 104.80429
#
# Poissons Ratio (x) = 0.05029 0.40780
# Poissons Ratio (y) = 0.09251 0.24955
# Poissons Ratio (z) = 0.42549 0.14154
#
# Static dielectric constant tensor:
#      x y z
#    x 1.871510 0.000000 0.000000 
#    y 0.000000 1.828210 0.000000 
#    z 0.000000 0.000000 1.843510 
# 
# From -- ./inp_files/18434.got.cif
#   From: 2010.05.17/outbox.cif.g08.bks.cpg/sg37_10_cif.got.tgz:18434.got - 2010.06.03 17:53:42.
