data_PCOD9354218
_publ_section_title
;
Structure prediction by ZEFSAII (Michael W. Deem and Ramdas Pophale) SiO2 
 PCOD9354218
Probable space group: C C C 2
;
_chemical_formula_sum "Si O2"
_cell_formula_units_Z 60
_cell_length_a 24.641494
_cell_length_b 7.446575
_cell_length_c 15.388978
_cell_angle_alpha 90.000000
_cell_angle_beta 90.000000
_cell_angle_gamma 90.000000
_cell_volume 2823.796412
_symmetry_space_group_name_H-M "C C C 2"
_symmetry_group_IT_number 37
_symmetry_cell_setting 'orthorhombic'
loop_
_space_group_symop_operation_xyz
x,y,z
-x,-y,z
-x,y,1/2+z
x,-y,1/2+z
1/2+x,1/2+y,z
1/2-x,1/2-y,z
1/2-x,1/2+y,1/2+z
1/2+x,1/2-y,1/2+z
loop_
_atom_site_type_symbol
_atom_site_label
_atom_site_fract_x
_atom_site_fract_y
_atom_site_fract_z
Si Si1 0.348896 0.293528 0.865980
Si Si2 0.176392 0.391403 0.422999
Si Si3 0.225670 0.051144 0.015937
Si Si4 0.549418 0.251232 0.473472
Si Si5 0.174404 0.970108 0.191188
Si Si6 0.559508 0.519161 0.635786
Si Si7 0.250000 0.750000 0.776499
Si Si8 0.932113 0.667613 0.508112
O O1 0.411930 0.312194 0.894532
O O2 0.331571 0.321834 0.766440
O O3 0.338055 0.090206 0.892061
O O4 0.310743 0.412260 0.929804
O O5 0.223307 0.427638 0.492983
O O6 0.201093 0.299467 0.339526
O O7 0.123904 0.295058 0.459997
O O8 0.250000 0.250000 0.039508
O O9 0.189587 0.956866 0.089707
O O10 0.557694 0.392528 0.550761
O O11 0.485235 0.235503 0.456335
O O12 0.564352 0.050636 0.510157
O O13 0.224845 0.090793 0.221451
O O14 0.112197 0.040941 0.189200
O O15 0.500000 0.500000 0.677913
O O16 0.566827 0.723272 0.599088
#
# Coordination Sequence:
#
# PCOD9354218 Si02
#       8
#     8   8   8   8   8   8   4   8
#     4  10  21  42  65  89 132 169 213 277 329 391
#     4  10  23  42  61  93 131 167 215 272 328 394
#     4  10  20  40  65  90 124 172 213 268 337 384
#     4   9  18  40  71  93 132 170 215 279 322 388
#     4  12  24  41  65  96 129 168 223 266 333 399
#     4  10  22  42  65  99 132 167 222 273 326 395
#     4  12  26  40  60  94 128 168 216 274 316 408
#     4   9  20  38  69 100 122 176 223 258 336 393
#
# _framework density 21.247989
#
# number of rings (size 3 to 8) (size 9 to 14) (size 15 to 20)
#    0.000    1.867    3.333    0.000    3.733    0.000 
#    9.600    0.000    0.000    0.000    0.000    0.000 
#    0.000    0.000    0.000    0.000    0.000    0.000 
#
# Total GULP energy -167242.807587 kJ/mol
# GULP energy per Si atom -5574.760253 kJ/mol
# Density = 2.119963 g / cm^3
# Si number density = 21.247989 Si / 1000 Ang^3
#
#
#
# Elastic Constant Matrix: (Units=GPa)
#
#
# Indices 1 2 3 4 5 6 
#
# 1 102.3879 21.5893 19.4649 0.0000 0.0000 0.0000
# 2 21.5893 64.7909 16.9892 0.0000 0.0000 0.0000
# 3 19.4649 16.9892 57.9591 0.0000 0.0000 0.0000
# 4 0.0000 0.0000 0.0000 13.0513 0.0000 0.0000
# 5 0.0000 0.0000 0.0000 0.0000 32.1682 0.0000
# 6 0.0000 0.0000 0.0000 0.0000 0.0000 23.5499
#
#
#
# Elastic Compliance Matrix: (Units=1/GPa)
#
#
# Indices 1 2 3 4 5 6 
#
# 1 0.010913 -0.002898 -0.002816 0.000000 0.000000 0.000000
# 2 -0.002898 0.017489 -0.004153 0.000000 0.000000 0.000000
# 3 -0.002816 -0.004153 0.019416 0.000000 0.000000 0.000000
# 4 0.000000 0.000000 0.000000 0.076621 0.000000 0.000000
# 5 0.000000 0.000000 0.000000 0.000000 0.031087 0.000000
# 6 0.000000 0.000000 0.000000 0.000000 0.000000 0.042463
#
#
# Mechanical properties :
#
#
# Convention : Reuss Voigt Hill
#
# Bulk Modulus (GPa) = 35.60622 37.91387 36.76004
# Shear Modulus (GPa) = 22.01825 24.89350 23.45588
#
# Velocity S-wave (km/s) = 3.22258 3.42653 3.32612
# Velocity P-wave (km/s) = 5.53539 5.79112 5.66470
#
# Compressibility (1/GPa) = 0.02808498
#
# Stress axis : x y z
#
# Youngs Moduli (GPa) = 91.63270 57.17890 51.50260
#
# Poissons Ratio (x) = 0.16571 0.14501
# Poissons Ratio (y) = 0.26556 0.21390
# Poissons Ratio (z) = 0.25800 0.23747
#
# Static dielectric constant tensor:
#      x y z
#    x 1.813670 0.000000 0.000000 
#    y 0.000000 1.824530 0.000000 
#    z 0.000000 0.000000 1.781510 
# 
# From -- ./inp_files/13153.got.cif
#   From: 2010.05.17/outbox.cif.g08.bks.cpg/sg37_7_cif.got.tgz:13153.got - 2010.06.03 17:53:42.
