data_PCOD9354906
_publ_section_title
;
Structure prediction by ZEFSAII (Michael W. Deem and Ramdas Pophale) SiO2 
 PCOD9354906
Probable space group: C C C 2
;
_chemical_formula_sum "Si O2"
_cell_formula_units_Z 48
_cell_length_a 14.850914
_cell_length_b 8.398800
_cell_length_c 16.523816
_cell_angle_alpha 90.000000
_cell_angle_beta 90.000000
_cell_angle_gamma 90.000000
_cell_volume 2061.013199
_symmetry_space_group_name_H-M "C C C 2"
_symmetry_group_IT_number 37
_symmetry_cell_setting 'orthorhombic'
loop_
_space_group_symop_operation_xyz
x,y,z
-x,-y,z
-x,y,1/2+z
x,-y,1/2+z
1/2+x,1/2+y,z
1/2-x,1/2-y,z
1/2-x,1/2+y,1/2+z
1/2+x,1/2-y,1/2+z
loop_
_atom_site_type_symbol
_atom_site_label
_atom_site_fract_x
_atom_site_fract_y
_atom_site_fract_z
Si Si1 0.475714 0.685082 0.781620
Si Si2 0.151925 0.835574 0.065281
Si Si3 0.158442 0.343772 0.165160
Si Si4 0.269932 0.082873 0.991089
Si Si5 0.847006 0.698759 0.735724
Si Si6 0.080677 0.371764 0.431021
O O1 0.500000 0.500000 0.783529
O O2 0.424575 0.743388 0.700552
O O3 0.569335 0.778721 0.792996
O O4 0.418071 0.750011 0.856467
O O5 0.250000 0.750000 0.059764
O O6 0.131210 0.817606 0.159611
O O7 0.178720 0.005241 0.028036
O O8 0.082119 0.737237 0.011819
O O9 0.250000 0.250000 0.186475
O O10 0.166705 0.378428 0.069281
O O11 0.156047 0.518580 0.204510
O O12 0.250000 0.250000 0.951273
O O13 0.325115 0.966801 0.933915
O O14 0.750000 0.750000 0.765833
O O15 0.000000 0.500000 0.430902
#
# Coordination Sequence:
#
# PCOD9354906 Si02
#       6
#     8   8   8   8   8   8
#     4  12  29  45  67 108 151 197 240 292 366 438
#     4   9  19  40  70 100 132 180 234 293 352 418
#     4  11  22  41  71 109 140 184 240 297 360 430
#     4  10  22  42  74 105 135 183 244 297 361 427
#     4  11  20  43  73 104 143 184 240 296 359 422
#     4  11  24  45  67 102 143 186 238 287 363 429
#
# _framework density 23.289518000000001
#
# number of rings (size 3 to 8) (size 9 to 14) (size 15 to 20)
#    0.000    1.333    5.000    2.500    4.667    3.333 
#    0.000    9.167    0.000    0.000    0.000    0.000 
#    0.000    0.000    0.000    0.000    0.000    0.000 
#
# Total GULP energy -134174.326148 kJ/mol
# GULP energy per Si atom -5590.596923 kJ/mol
# Density = 2.323651 g / cm^3
# Si number density = 23.289518 Si / 1000 Ang^3
#
#
#
# Elastic Constant Matrix: (Units=GPa)
#
#
# Indices 1 2 3 4 5 6 
#
# 1 85.6561 42.8256 25.2150 0.0000 0.0000 0.0000
# 2 42.8256 150.3667 35.0760 0.0000 0.0000 0.0000
# 3 25.2150 35.0760 80.0623 0.0000 0.0000 0.0000
# 4 0.0000 0.0000 0.0000 10.4125 0.0000 0.0000
# 5 0.0000 0.0000 0.0000 0.0000 26.8810 0.0000
# 6 0.0000 0.0000 0.0000 0.0000 0.0000 42.7784
#
#
#
# Elastic Compliance Matrix: (Units=1/GPa)
#
#
# Indices 1 2 3 4 5 6 
#
# 1 0.014238 -0.003352 -0.003016 0.000000 0.000000 0.000000
# 2 -0.003352 0.008196 -0.002535 0.000000 0.000000 0.000000
# 3 -0.003016 -0.002535 0.014551 0.000000 0.000000 0.000000
# 4 0.000000 0.000000 0.000000 0.096038 0.000000 0.000000
# 5 0.000000 0.000000 0.000000 0.000000 0.037201 0.000000
# 6 0.000000 0.000000 0.000000 0.000000 0.000000 0.023376
#
#
# Mechanical properties :
#
#
# Convention : Reuss Voigt Hill
#
# Bulk Modulus (GPa) = 52.13826 58.03538 55.08682
# Shear Modulus (GPa) = 22.95688 30.21228 26.58458
#
# Velocity S-wave (km/s) = 3.14302 3.60564 3.38225
# Velocity P-wave (km/s) = 5.96716 6.50441 6.24157
#
# Compressibility (1/GPa) = 0.01917977
#
# Stress axis : x y z
#
# Youngs Moduli (GPa) = 70.23419 122.00477 68.72462
#
# Poissons Ratio (x) = 0.40891 0.20726
# Poissons Ratio (y) = 0.23540 0.17424
# Poissons Ratio (z) = 0.21181 0.30932
#
# Static dielectric constant tensor:
#      x y z
#    x 1.871950 0.000000 0.000000 
#    y 0.000000 1.920260 0.000000 
#    z 0.000000 0.000000 1.913760 
# 
# From -- ./inp_files/15228.got.cif
#   From: 2010.05.17/outbox.cif.g08.bks.cpg/sg37_8_cif.got.tgz:15228.got - 2010.06.03 17:53:42.
