data_PCOD9354512
_publ_section_title
;
Structure prediction by ZEFSAII (Michael W. Deem and Ramdas Pophale) SiO2 
 PCOD9354512
Probable space group: C C C 2
;
_chemical_formula_sum "Si O2"
_cell_formula_units_Z 64
_cell_length_a 10.175441
_cell_length_b 27.371142
_cell_length_c 9.751363
_cell_angle_alpha 90.000000
_cell_angle_beta 90.000000
_cell_angle_gamma 90.000000
_cell_volume 2715.885659
_symmetry_space_group_name_H-M "C C C 2"
_symmetry_group_IT_number 37
_symmetry_cell_setting 'orthorhombic'
loop_
_space_group_symop_operation_xyz
x,y,z
-x,-y,z
-x,y,1/2+z
x,-y,1/2+z
1/2+x,1/2+y,z
1/2-x,1/2-y,z
1/2-x,1/2+y,1/2+z
1/2+x,1/2-y,1/2+z
loop_
_atom_site_type_symbol
_atom_site_label
_atom_site_fract_x
_atom_site_fract_y
_atom_site_fract_z
Si Si1 0.272375 0.446154 0.406600
Si Si2 0.590460 0.147867 0.241662
Si Si3 0.468972 0.646449 0.863719
Si Si4 0.149453 0.136367 0.089256
Si Si5 0.982745 0.414225 0.497563
Si Si6 0.344874 0.797468 0.754310
Si Si7 0.736234 0.695190 0.541960
Si Si8 0.756174 0.028129 0.605087
O O1 0.377841 0.402042 0.391320
O O2 0.313031 0.481481 0.529481
O O3 0.257041 0.477793 0.268228
O O4 0.125017 0.427125 0.435161
O O5 0.587987 0.122882 0.390660
O O6 0.500279 0.197226 0.229274
O O7 0.725980 0.159246 0.164002
O O8 0.517261 0.109432 0.143276
O O9 0.461408 0.652032 0.701063
O O10 0.608681 0.647379 0.935352
O O11 0.394522 0.687602 0.952615
O O12 0.273911 0.163026 0.156256
O O13 0.164740 0.078388 0.089453
O O14 0.884051 0.458529 0.534773
O O15 0.250000 0.750000 0.736909
O O16 0.337310 0.811868 0.914798
O O17 0.750000 0.750000 0.592274
#
# Coordination Sequence:
#
# PCOD9354512 Si02
#       8
#     8   8   8   8   8   8   8   8
#     4  11  24  41  61  93 125 164 208 261 323 379
#     4  12  21  40  67  94 129 171 207 262 324 378
#     4  10  22  42  62  85 123 166 207 259 311 376
#     4  10  22  42  61  87 123 164 210 256 314 372
#     4  12  22  40  65  92 131 162 208 258 325 385
#     4  10  21  40  64  90 128 172 209 263 321 376
#     4  10  22  40  64  93 129 168 212 261 322 378
#     4  11  25  41  63  92 126 163 208 262 319 384
#
# _framework density 23.565056999999999
#
# number of rings (size 3 to 8) (size 9 to 14) (size 15 to 20)
#    0.000    1.250    5.000    1.125    3.500    3.500 
#    0.000    3.125    0.000    0.000    0.000    0.000 
#    0.000    0.000    0.000    0.000    0.000    0.000 
#
# Total GULP energy -178516.028074 kJ/mol
# GULP energy per Si atom -5578.625877 kJ/mol
# Density = 2.351142 g / cm^3
# Si number density = 23.565057 Si / 1000 Ang^3
#
#
#
# Elastic Constant Matrix: (Units=GPa)
#
#
# Indices 1 2 3 4 5 6 
#
# 1 41.9658 -17.1323 15.4185 0.0000 0.0000 0.0000
# 2 -17.1323 57.3466 8.3264 0.0000 0.0000 0.0000
# 3 15.4185 8.3264 117.8930 0.0000 0.0000 0.0000
# 4 0.0000 0.0000 0.0000 29.1498 0.0000 0.0000
# 5 0.0000 0.0000 0.0000 0.0000 33.8767 0.0000
# 6 0.0000 0.0000 0.0000 0.0000 0.0000 12.8542
#
#
#
# Elastic Compliance Matrix: (Units=1/GPa)
#
#
# Indices 1 2 3 4 5 6 
#
# 1 0.029326 0.009414 -0.004500 0.000000 0.000000 0.000000
# 2 0.009414 0.020641 -0.002689 0.000000 0.000000 0.000000
# 3 -0.004500 -0.002689 0.009261 0.000000 0.000000 0.000000
# 4 0.000000 0.000000 0.000000 0.034305 0.000000 0.000000
# 5 0.000000 0.000000 0.000000 0.000000 0.029519 0.000000
# 6 0.000000 0.000000 0.000000 0.000000 0.000000 0.077796
#
#
# Mechanical properties :
#
#
# Convention : Reuss Voigt Hill
#
# Bulk Modulus (GPa) = 15.70411 25.60342 20.65377
# Shear Modulus (GPa) = 22.97552 29.21566 26.09559
#
# Velocity S-wave (km/s) = 3.12586 3.52488 3.33135
# Velocity P-wave (km/s) = 4.43921 5.23975 4.85601
#
# Compressibility (1/GPa) = 0.06367758
#
# Stress axis : x y z
#
# Youngs Moduli (GPa) = 34.09976 48.44770 107.98264
#
# Poissons Ratio (x) = -0.45611 0.48595
# Poissons Ratio (y) = -0.32103 0.29037
# Poissons Ratio (z) = 0.15346 0.13028
#
# Static dielectric constant tensor:
#      x y z
#    x 2.006290 0.000000 0.000000 
#    y 0.000000 1.920170 0.000000 
#    z 0.000000 0.000000 1.867480 
# 
# From -- ./inp_files/3115.got.cif
#   From: 2010.05.17/outbox.cif.g08.bks.cpg/sg37_2_cif.got.tgz:3115.got - 2010.06.03 17:53:42.
