data_PCOD9354864
_publ_section_title
;
Structure prediction by ZEFSAII (Michael W. Deem and Ramdas Pophale) SiO2 
 PCOD9354864
Probable space group: C C C 2
;
_chemical_formula_sum "Si O2"
_cell_formula_units_Z 44
_cell_length_a 11.799006
_cell_length_b 7.592345
_cell_length_c 23.215192
_cell_angle_alpha 90.000000
_cell_angle_beta 90.000000
_cell_angle_gamma 90.000000
_cell_volume 2079.666213
_symmetry_space_group_name_H-M "C C C 2"
_symmetry_group_IT_number 37
_symmetry_cell_setting 'orthorhombic'
loop_
_space_group_symop_operation_xyz
x,y,z
-x,-y,z
-x,y,1/2+z
x,-y,1/2+z
1/2+x,1/2+y,z
1/2-x,1/2-y,z
1/2-x,1/2+y,1/2+z
1/2+x,1/2-y,1/2+z
loop_
_atom_site_type_symbol
_atom_site_label
_atom_site_fract_x
_atom_site_fract_y
_atom_site_fract_z
Si Si1 0.750000 0.250000 0.700130
Si Si2 0.631431 0.950455 0.772126
Si Si3 0.000000 0.000000 0.918036
Si Si4 0.608862 0.124283 0.398825
Si Si5 0.368759 0.550481 0.610714
Si Si6 0.781294 0.046614 0.990561
Si Si7 0.250000 0.750000 0.183687
O O1 0.790676 0.402901 0.742404
O O2 0.648108 0.289119 0.655134
O O3 0.667181 0.918784 0.837760
O O4 0.648530 0.790452 0.728127
O O5 0.500000 0.000000 0.773636
O O6 0.103359 0.927711 0.955253
O O7 0.940799 0.823643 0.891826
O O8 0.500000 0.000000 0.405693
O O9 0.692292 0.063539 0.450887
O O10 0.500000 0.500000 0.605237
O O11 0.314354 0.561945 0.547624
O O12 0.294080 0.402843 0.642772
O O13 0.750000 0.250000 0.005392
#
# Coordination Sequence:
#
# PCOD9354864 Si02
#       7
#     4   8   4   8   8   8   4
#     4  10  24  42  70  94 138 178 226 292 340 422
#     4  10  23  44  65  98 133 176 227 282 344 413
#     4  12  26  46  70 100 142 186 232 294 358 420
#     4  11  26  46  71 104 143 188 236 291 361 424
#     4  11  23  42  66  98 130 179 227 283 347 415
#     4  12  25  44  69 101 143 184 234 293 358 425
#     4  10  22  42  64  92 132 174 222 276 342 410
#
# _framework density 21.157242
#
# number of rings (size 3 to 8) (size 9 to 14) (size 15 to 20)
#    0.000    1.091    3.636    1.636    6.364    0.000 
#    8.182    0.909    0.000    0.000    0.000    0.000 
#    0.000    0.000    0.000    0.000    0.000    0.000 
#
# Total GULP energy -122614.631754 kJ/mol
# GULP energy per Si atom -5573.392352 kJ/mol
# Density = 2.110909 g / cm^3
# Si number density = 21.157242 Si / 1000 Ang^3
#
#
#
# Elastic Constant Matrix: (Units=GPa)
#
#
# Indices 1 2 3 4 5 6 
#
# 1 99.8143 20.1067 58.6595 0.0000 0.0000 0.0000
# 2 20.1067 82.2349 43.2760 0.0000 0.0000 0.0000
# 3 58.6595 43.2760 180.4712 0.0000 0.0000 0.0000
# 4 0.0000 0.0000 0.0000 -0.3498 0.0000 0.0000
# 5 0.0000 0.0000 0.0000 0.0000 21.8904 0.0000
# 6 0.0000 0.0000 0.0000 0.0000 0.0000 30.7469
#
#
#
# Elastic Compliance Matrix: (Units=1/GPa)
#
#
# Indices 1 2 3 4 5 6 
#
# 1 0.012463 -0.001048 -0.003800 0.000000 0.000000 0.000000
# 2 -0.001048 0.014004 -0.003018 0.000000 0.000000 0.000000
# 3 -0.003800 -0.003018 0.007500 0.000000 0.000000 0.000000
# 4 0.000000 0.000000 0.000000 -2.859151 0.000000 0.000000
# 5 0.000000 0.000000 0.000000 0.000000 0.045682 0.000000
# 6 0.000000 0.000000 0.000000 0.000000 0.000000 0.032524
#
#
# Mechanical properties :
#
#
# Convention : Reuss Voigt Hill
#
# Bulk Modulus (GPa) = 54.83359 67.40051 61.11705
# Shear Modulus (GPa) = -1.83475 26.48940 12.32733
#
# Velocity S-wave (km/s) = -0.93224 3.54224 2.41644
# Velocity P-wave (km/s) = 4.98143 6.97539 6.06097
#
# Compressibility (1/GPa) = 0.01823700
#
# Stress axis : x y z
#
# Youngs Moduli (GPa) = 80.24013 71.40569 133.33933
#
# Poissons Ratio (x) = 0.07481 0.50663
# Poissons Ratio (y) = 0.08406 0.40238
# Poissons Ratio (z) = 0.30488 0.21548
#
# Static dielectric constant tensor:
#      x y z
#    x 2.191420 0.000000 0.000000 
#    y 0.000000 2.061540 0.000000 
#    z 0.000000 0.000000 1.752240 
# 
# From -- ./inp_files/18637.got.cif
#   From: 2010.05.17/outbox.cif.g08.bks.cpg/sg37_10_cif.got.tgz:18637.got - 2010.06.03 17:53:42.
