data_PCOD9354464
_publ_section_title
;
Structure prediction by ZEFSAII (Michael W. Deem and Ramdas Pophale) SiO2 
 PCOD9354464
Probable space group: C C C 2
;
_chemical_formula_sum "Si O2"
_cell_formula_units_Z 60
_cell_length_a 13.965252
_cell_length_b 22.510126
_cell_length_c 9.084364
_cell_angle_alpha 90.000000
_cell_angle_beta 90.000000
_cell_angle_gamma 90.000000
_cell_volume 2855.756871
_symmetry_space_group_name_H-M "C C C 2"
_symmetry_group_IT_number 37
_symmetry_cell_setting 'orthorhombic'
loop_
_space_group_symop_operation_xyz
x,y,z
-x,-y,z
-x,y,1/2+z
x,-y,1/2+z
1/2+x,1/2+y,z
1/2-x,1/2-y,z
1/2-x,1/2+y,1/2+z
1/2+x,1/2-y,1/2+z
loop_
_atom_site_type_symbol
_atom_site_label
_atom_site_fract_x
_atom_site_fract_y
_atom_site_fract_z
Si Si1 0.161725 0.371186 0.326840
Si Si2 0.459837 0.065842 0.830418
Si Si3 0.250000 0.750000 0.708408
Si Si4 0.702994 0.047050 0.087365
Si Si5 0.968077 0.878142 0.357750
Si Si6 0.789615 0.418227 0.518895
Si Si7 0.083805 0.951742 0.137197
Si Si8 0.880067 0.833573 0.052064
O O1 0.201216 0.304281 0.298870
O O2 0.196726 0.395885 0.482773
O O3 0.205658 0.409654 0.193889
O O4 0.049714 0.389702 0.311599
O O5 0.390783 0.051541 0.690603
O O6 0.500000 0.000000 0.876639
O O7 0.389181 0.099304 0.944031
O O8 0.169399 0.773410 0.597582
O O9 0.804554 0.038025 0.168599
O O10 0.707670 0.988131 0.987276
O O11 0.914663 0.911696 0.489289
O O12 0.910658 0.858372 0.213682
O O13 0.043346 0.922158 0.283374
O O14 0.029949 0.828969 0.444115
O O15 0.698633 0.377972 0.481047
O O16 0.000000 0.000000 0.104421
#
# Coordination Sequence:
#
# PCOD9354464 Si02
#       8
#     8   8   4   8   8   8   8   8
#     4  11  24  41  67  91 138 183 231 288 344 420
#     4  12  23  39  62 105 144 175 225 279 356 426
#     4  10  24  48  66  94 128 184 242 278 358 412
#     4  12  22  37  65 100 141 180 219 285 344 413
#     4  10  21  39  62  87 127 167 220 280 326 383
#     4  11  21  37  63  95 138 177 217 268 350 407
#     4  11  22  35  60  96 137 174 224 259 334 414
#     4  10  22  43  67  89 127 176 228 285 336 403
#
# _framework density 21.010193000000001
#
# number of rings (size 3 to 8) (size 9 to 14) (size 15 to 20)
#    0.000    1.067    2.667    5.200    0.000    2.133 
#    7.200    0.000    0.000    4.800    0.000    0.000 
#    0.000    0.000    0.000    0.000    0.000    0.000 
#
# Total GULP energy -167062.870250 kJ/mol
# GULP energy per Si atom -5568.762342 kJ/mol
# Density = 2.096237 g / cm^3
# Si number density = 21.010193 Si / 1000 Ang^3
#
#
#
# Elastic Constant Matrix: (Units=GPa)
#
#
# Indices 1 2 3 4 5 6 
#
# 1 133.1711 37.2970 23.9768 0.0000 0.0000 0.0000
# 2 37.2970 90.9732 16.1890 0.0000 0.0000 0.0000
# 3 23.9768 16.1890 61.8951 0.0000 0.0000 0.0000
# 4 0.0000 0.0000 0.0000 20.7741 0.0000 0.0000
# 5 0.0000 0.0000 0.0000 0.0000 24.6756 0.0000
# 6 0.0000 0.0000 0.0000 0.0000 0.0000 35.8230
#
#
#
# Elastic Compliance Matrix: (Units=1/GPa)
#
#
# Indices 1 2 3 4 5 6 
#
# 1 0.008866 -0.003171 -0.002605 0.000000 0.000000 0.000000
# 2 -0.003171 0.012663 -0.002084 0.000000 0.000000 0.000000
# 3 -0.002605 -0.002084 0.017711 0.000000 0.000000 0.000000
# 4 0.000000 0.000000 0.000000 0.048137 0.000000 0.000000
# 5 0.000000 0.000000 0.000000 0.000000 0.040526 0.000000
# 6 0.000000 0.000000 0.000000 0.000000 0.000000 0.027915
#
#
# Mechanical properties :
#
#
# Convention : Reuss Voigt Hill
#
# Bulk Modulus (GPa) = 42.51732 48.99609 45.75670
# Shear Modulus (GPa) = 27.87407 30.15965 29.01686
#
# Velocity S-wave (km/s) = 3.64633 3.79288 3.72033
# Velocity P-wave (km/s) = 6.16507 6.52319 6.34666
#
# Compressibility (1/GPa) = 0.02351983
#
# Stress axis : x y z
#
# Youngs Moduli (GPa) = 112.78542 78.96871 56.46366
#
# Poissons Ratio (x) = 0.25044 0.14710
# Poissons Ratio (y) = 0.35769 0.11765
# Poissons Ratio (z) = 0.29382 0.16454
#
# Static dielectric constant tensor:
#      x y z
#    x 2.006350 0.000000 0.000000 
#    y 0.000000 1.744590 0.000000 
#    z 0.000000 0.000000 1.788600 
# 
# From -- ./inp_files/3727.got.cif
#   From: 2010.05.17/outbox.cif.g08.bks.cpg/sg37_2_cif.got.tgz:3727.got - 2010.06.03 17:53:42.
