data_PCOD9354131
_publ_section_title
;
Structure prediction by ZEFSAII (Michael W. Deem and Ramdas Pophale) SiO2 
 PCOD9354131
Probable space group: C C C 2
;
_chemical_formula_sum "Si O2"
_cell_formula_units_Z 32
_cell_length_a 5.050770
_cell_length_b 14.756524
_cell_length_c 16.589996
_cell_angle_alpha 90.000000
_cell_angle_beta 90.000000
_cell_angle_gamma 90.000000
_cell_volume 1236.482409
_symmetry_space_group_name_H-M "C C C 2"
_symmetry_group_IT_number 37
_symmetry_cell_setting 'orthorhombic'
loop_
_space_group_symop_operation_xyz
x,y,z
-x,-y,z
-x,y,1/2+z
x,-y,1/2+z
1/2+x,1/2+y,z
1/2-x,1/2-y,z
1/2-x,1/2+y,1/2+z
1/2+x,1/2-y,1/2+z
loop_
_atom_site_type_symbol
_atom_site_label
_atom_site_fract_x
_atom_site_fract_y
_atom_site_fract_z
Si Si1 0.607028 0.150736 0.395310
Si Si2 0.668307 0.144055 0.213934
Si Si3 0.926080 0.094804 0.989195
Si Si4 0.670782 0.349985 0.644006
O O1 0.750000 0.250000 0.401609
O O2 0.543260 0.134547 0.301963
O O3 0.353092 0.127075 0.451479
O O4 0.852265 0.088745 0.419861
O O5 0.750000 0.250000 0.203262
O O6 0.462736 0.107904 0.147519
O O7 0.957902 0.103077 0.201236
O O8 0.000000 0.000000 0.033156
O O9 0.032912 0.163096 0.057620
O O10 0.750000 0.250000 0.675521
#
# Coordination Sequence:
#
# PCOD9354131 Si02
#       4
#     8   8   8   8
#     4  11  23  42  68  94 123 168 220 268 321 389
#     4   9  19  37  63  91 118 154 212 272 314 367
#     4  12  25  41  60  94 136 171 208 264 327 391
#     4  10  20  38  63  91 122 161 209 262 318 381
#
# _framework density 25.879866
#
# number of rings (size 3 to 8) (size 9 to 14) (size 15 to 20)
#    0.000    1.500    0.000    5.250    0.000    8.000 
#    0.000    7.500    0.000    0.000    0.000    0.000 
#    0.000    0.000    0.000    0.000    0.000    0.000 
#
# Total GULP energy -89126.157556 kJ/mol
# GULP energy per Si atom -5570.384847 kJ/mol
# Density = 2.582096 g / cm^3
# Si number density = 25.879866 Si / 1000 Ang^3
#
#
#
# Elastic Constant Matrix: (Units=GPa)
#
#
# Indices 1 2 3 4 5 6 
#
# 1 254.2269 29.8179 77.1179 0.0000 0.0000 0.0000
# 2 29.8179 59.3002 6.9306 0.0000 0.0000 0.0000
# 3 77.1179 6.9306 137.5884 0.0000 0.0000 0.0000
# 4 0.0000 0.0000 0.0000 -6.8682 0.0000 0.0000
# 5 0.0000 0.0000 0.0000 0.0000 47.4645 0.0000
# 6 0.0000 0.0000 0.0000 0.0000 0.0000 15.8475
#
#
#
# Elastic Compliance Matrix: (Units=1/GPa)
#
#
# Indices 1 2 3 4 5 6 
#
# 1 0.005010 -0.002204 -0.002697 0.000000 0.000000 0.000000
# 2 -0.002204 0.017933 0.000332 0.000000 0.000000 0.000000
# 3 -0.002697 0.000332 0.008763 0.000000 0.000000 0.000000
# 4 0.000000 0.000000 0.000000 -0.145600 0.000000 0.000000
# 5 0.000000 0.000000 0.000000 0.000000 0.021068 0.000000
# 6 0.000000 0.000000 0.000000 0.000000 0.000000 0.063102
#
#
# Mechanical properties :
#
#
# Convention : Reuss Voigt Hill
#
# Bulk Modulus (GPa) = 44.31103 75.42759 59.86931
# Shear Modulus (GPa) = -382.76873 33.77204 -174.49835
#
# Velocity S-wave (km/s) = -12.17470 3.61633 -8.22026
# Velocity P-wave (km/s) = 13.43399 6.82977 8.18004
#
# Compressibility (1/GPa) = 0.02256774
#
# Stress axis : x y z
#
# Youngs Moduli (GPa) = 199.59410 55.76378 114.11505
#
# Poissons Ratio (x) = 0.12291 0.30779
# Poissons Ratio (y) = 0.43991 -0.03789
# Poissons Ratio (z) = 0.53834 -0.01852
#
# Static dielectric constant tensor:
#      x y z
#    x 2.244910 0.000000 0.000000 
#    y 0.000000 2.791630 0.000000 
#    z 0.000000 0.000000 2.009650 
# 
# From -- ./inp_files/13688.got.cif
#   From: 2010.05.17/outbox.cif.g08.bks.cpg/sg37_7_cif.got.tgz:13688.got - 2010.06.03 17:53:42.
