data_PCOD9354228
_publ_section_title
;
Structure prediction by ZEFSAII (Michael W. Deem and Ramdas Pophale) SiO2 
 PCOD9354228
Probable space group: C C C 2
;
_chemical_formula_sum "Si O2"
_cell_formula_units_Z 48
_cell_length_a 18.274747
_cell_length_b 10.784987
_cell_length_c 10.140405
_cell_angle_alpha 90.000000
_cell_angle_beta 90.000000
_cell_angle_gamma 90.000000
_cell_volume 1998.601918
_symmetry_space_group_name_H-M "C C C 2"
_symmetry_group_IT_number 37
_symmetry_cell_setting 'orthorhombic'
loop_
_space_group_symop_operation_xyz
x,y,z
-x,-y,z
-x,y,1/2+z
x,-y,1/2+z
1/2+x,1/2+y,z
1/2-x,1/2-y,z
1/2-x,1/2+y,1/2+z
1/2+x,1/2-y,1/2+z
loop_
_atom_site_type_symbol
_atom_site_label
_atom_site_fract_x
_atom_site_fract_y
_atom_site_fract_z
Si Si1 0.715628 0.862105 0.233010
Si Si2 0.041688 0.128650 0.656097
Si Si3 0.698368 0.154243 0.014819
Si Si4 0.822297 0.022066 0.566573
Si Si5 0.073302 0.230610 0.944424
Si Si6 0.417288 0.020986 0.087206
O O1 0.750000 0.750000 0.147958
O O2 0.689237 0.798274 0.367371
O O3 0.784732 0.952514 0.210421
O O4 0.640650 0.921025 0.186965
O O5 0.991213 0.195933 0.547981
O O6 0.116599 0.083142 0.587545
O O7 0.054400 0.200875 0.792939
O O8 0.000000 0.000000 0.692688
O O9 0.750000 0.250000 0.091988
O O10 0.750175 0.032964 0.995416
O O11 0.620496 0.111057 0.061687
O O12 0.862168 0.136302 0.493048
O O13 0.085809 0.377880 0.968148
O O14 0.500000 0.000000 0.129088
#
# Coordination Sequence:
#
# PCOD9354228 Si02
#       6
#     8   8   8   8   8   8
#     4  10  20  42  68  93 127 179 228 282 342 418
#     4  10  22  39  65 103 139 181 229 289 351 415
#     4  10  24  42  68  97 134 178 233 284 348 413
#     4  10  20  40  67  97 128 176 229 294 341 413
#     4  11  23  41  67 100 141 182 234 285 349 421
#     4  11  26  44  66  99 141 181 230 291 350 413
#
# _framework density 24.016787000000001
#
# number of rings (size 3 to 8) (size 9 to 14) (size 15 to 20)
#    0.000    1.667    1.667    2.500    2.333    4.667 
#    3.000    0.000    0.000    0.000    0.000    0.000 
#    0.000    0.000    0.000    0.000    0.000    0.000 
#
# Total GULP energy -133659.954456 kJ/mol
# GULP energy per Si atom -5569.164769 kJ/mol
# Density = 2.396212 g / cm^3
# Si number density = 24.016787 Si / 1000 Ang^3
#
#
#
# Elastic Constant Matrix: (Units=GPa)
#
#
# Indices 1 2 3 4 5 6 
#
# 1 165.8924 36.0763 0.0755 0.0000 0.0000 0.0000
# 2 36.0763 73.8751 -4.0441 0.0000 0.0000 0.0000
# 3 0.0755 -4.0441 57.0407 0.0000 0.0000 0.0000
# 4 0.0000 0.0000 0.0000 -12.3388 0.0000 0.0000
# 5 0.0000 0.0000 0.0000 0.0000 -5.9622 0.0000
# 6 0.0000 0.0000 0.0000 0.0000 0.0000 47.0260
#
#
#
# Elastic Compliance Matrix: (Units=1/GPa)
#
#
# Indices 1 2 3 4 5 6 
#
# 1 0.006748 -0.003308 -0.000243 0.000000 0.000000 0.000000
# 2 -0.003308 0.015211 0.001083 0.000000 0.000000 0.000000
# 3 -0.000243 0.001083 0.017608 0.000000 0.000000 0.000000
# 4 0.000000 0.000000 0.000000 -0.081045 0.000000 0.000000
# 5 0.000000 0.000000 0.000000 0.000000 -0.167724 0.000000
# 6 0.000000 0.000000 0.000000 0.000000 0.000000 0.021265
#
#
# Mechanical properties :
#
#
# Convention : Reuss Voigt Hill
#
# Bulk Modulus (GPa) = 28.87747 40.11375 34.49561
# Shear Modulus (GPa) = -29.16195 23.39172 -2.88511
#
# Velocity S-wave (km/s) = -3.48836 3.12424 -1.09722
# Velocity P-wave (km/s) = 2.04326 5.45464 3.57619
#
# Compressibility (1/GPa) = 0.03462907
#
# Stress axis : x y z
#
# Youngs Moduli (GPa) = 148.20080 65.74063 56.79100
#
# Poissons Ratio (x) = 0.21750 0.01383
# Poissons Ratio (y) = 0.49032 -0.06150
# Poissons Ratio (z) = 0.03609 -0.07119
#
# Static dielectric constant tensor:
#      x y z
#    x 1.968040 0.000000 0.000000 
#    y 0.000000 2.461260 0.000000 
#    z 0.000000 0.000000 2.062260 
# 
# From -- ./inp_files/8248.got.cif
#   From: 2010.05.17/outbox.cif.g08.bks.cpg/sg37_5_cif.got.tgz:8248.got - 2010.06.03 17:53:42.
