data_PCOD9354249
_publ_section_title
;
Structure prediction by ZEFSAII (Michael W. Deem and Ramdas Pophale) SiO2 
 PCOD9354249
Probable space group: C C C 2
;
_chemical_formula_sum "Si O2"
_cell_formula_units_Z 60
_cell_length_a 31.443710
_cell_length_b 10.598855
_cell_length_c 8.552832
_cell_angle_alpha 90.000000
_cell_angle_beta 90.000000
_cell_angle_gamma 90.000000
_cell_volume 2850.379424
_symmetry_space_group_name_H-M "C C C 2"
_symmetry_group_IT_number 37
_symmetry_cell_setting 'orthorhombic'
loop_
_space_group_symop_operation_xyz
x,y,z
-x,-y,z
-x,y,1/2+z
x,-y,1/2+z
1/2+x,1/2+y,z
1/2-x,1/2-y,z
1/2-x,1/2+y,1/2+z
1/2+x,1/2-y,1/2+z
loop_
_atom_site_type_symbol
_atom_site_label
_atom_site_fract_x
_atom_site_fract_y
_atom_site_fract_z
Si Si1 0.457469 0.564842 0.594060
Si Si2 0.180216 0.805582 0.025450
Si Si3 0.956323 0.671956 0.929799
Si Si4 0.500000 0.000000 0.176089
Si Si5 0.212706 0.665395 0.475553
Si Si6 0.396959 0.432320 0.370373
Si Si7 0.766221 0.585670 0.617163
Si Si8 0.867979 0.221599 0.343859
O O1 0.500000 0.500000 0.659423
O O2 0.468929 0.685684 0.485800
O O3 0.431448 0.452153 0.508285
O O4 0.424344 0.613210 0.723643
O O5 0.145594 0.853510 0.902885
O O6 0.209951 0.684475 0.002544
O O7 0.215777 0.909918 0.076284
O O8 0.151413 0.765256 0.172414
O O9 0.907604 0.689720 0.880321
O O10 0.981093 0.611422 0.783672
O O11 0.965627 0.570993 0.066834
O O12 0.250000 0.750000 0.541221
O O13 0.211208 0.544330 0.582751
O O14 0.169741 0.743165 0.460856
O O15 0.227141 0.625327 0.298028
O O16 0.381761 0.576619 0.352019
#
# Coordination Sequence:
#
# PCOD9354249 Si02
#       8
#     8   8   8   4   8   8   8   8
#     4  11  25  41  66 102 129 170 227 285 345 412
#     4  10  20  41  64  92 136 172 219 271 336 396
#     4  10  25  44  70  97 132 177 233 273 351 409
#     4  10  24  50  68  94 134 190 220 284 348 416
#     4  11  21  43  63  93 135 172 217 276 328 393
#     4  11  22  40  65  94 132 176 213 277 347 396
#     4  10  22  40  66  95 128 180 217 270 332 396
#     4  10  21  41  63  97 129 171 224 281 328 402
#
# _framework density 21.04983
#
# number of rings (size 3 to 8) (size 9 to 14) (size 15 to 20)
#    0.000    1.600    4.000    1.200    5.600    2.133 
#   12.000    0.000    0.000    0.000    0.000    0.000 
#    0.000    0.000    0.000    0.000    0.000    0.000 
#
# Total GULP energy -167331.610036 kJ/mol
# GULP energy per Si atom -5577.720335 kJ/mol
# Density = 2.100192 g / cm^3
# Si number density = 21.049830 Si / 1000 Ang^3
#
#
#
# Elastic Constant Matrix: (Units=GPa)
#
#
# Indices 1 2 3 4 5 6 
#
# 1 139.0008 35.9948 35.1466 0.0000 0.0000 0.0000
# 2 35.9948 73.5089 10.6859 0.0000 0.0000 0.0000
# 3 35.1466 10.6859 50.2562 0.0000 0.0000 0.0000
# 4 0.0000 0.0000 0.0000 33.3520 0.0000 0.0000
# 5 0.0000 0.0000 0.0000 0.0000 33.3037 0.0000
# 6 0.0000 0.0000 0.0000 0.0000 0.0000 38.9184
#
#
#
# Elastic Compliance Matrix: (Units=1/GPa)
#
#
# Indices 1 2 3 4 5 6 
#
# 1 0.009709 -0.003887 -0.005963 0.000000 0.000000 0.000000
# 2 -0.003887 0.015594 -0.000597 0.000000 0.000000 0.000000
# 3 -0.005963 -0.000597 0.024195 0.000000 0.000000 0.000000
# 4 0.000000 0.000000 0.000000 0.029983 0.000000 0.000000
# 5 0.000000 0.000000 0.000000 0.000000 0.030027 0.000000
# 6 0.000000 0.000000 0.000000 0.000000 0.000000 0.025695
#
#
# Mechanical properties :
#
#
# Convention : Reuss Voigt Hill
#
# Bulk Modulus (GPa) = 34.96154 47.38004 41.17079
# Shear Modulus (GPa) = 30.18740 33.17741 31.68241
#
# Velocity S-wave (km/s) = 3.79105 3.97437 3.88379
# Velocity P-wave (km/s) = 5.98396 6.60440 6.30182
#
# Compressibility (1/GPa) = 0.02860286
#
# Stress axis : x y z
#
# Youngs Moduli (GPa) = 103.00168 64.12725 41.33017
#
# Poissons Ratio (x) = 0.24927 0.24646
# Poissons Ratio (y) = 0.40038 0.02469
# Poissons Ratio (z) = 0.61422 0.03830
#
# Static dielectric constant tensor:
#      x y z
#    x 1.770740 0.000000 0.000000 
#    y 0.000000 1.728320 0.000000 
#    z 0.000000 0.000000 1.821880 
# 
# From -- ./inp_files/4796.got.cif
#   From: 2010.05.17/outbox.cif.g08.bks.cpg/sg37_3_cif.got.tgz:4796.got - 2010.06.03 17:53:42.
