data_PCOD9354558
_publ_section_title
;
Structure prediction by ZEFSAII (Michael W. Deem and Ramdas Pophale) SiO2 
 PCOD9354558
Probable space group: C C C 2
;
_chemical_formula_sum "Si O2"
_cell_formula_units_Z 64
_cell_length_a 9.368191
_cell_length_b 22.234402
_cell_length_c 13.995480
_cell_angle_alpha 90.000000
_cell_angle_beta 90.000000
_cell_angle_gamma 90.000000
_cell_volume 2915.204247
_symmetry_space_group_name_H-M "C C C 2"
_symmetry_group_IT_number 37
_symmetry_cell_setting 'orthorhombic'
loop_
_space_group_symop_operation_xyz
x,y,z
-x,-y,z
-x,y,1/2+z
x,-y,1/2+z
1/2+x,1/2+y,z
1/2-x,1/2-y,z
1/2-x,1/2+y,1/2+z
1/2+x,1/2-y,1/2+z
loop_
_atom_site_type_symbol
_atom_site_label
_atom_site_fract_x
_atom_site_fract_y
_atom_site_fract_z
Si Si1 0.665945 0.483229 0.062570
Si Si2 0.992503 0.834453 0.450841
Si Si3 0.301923 0.814650 0.471828
Si Si4 0.754211 0.655940 0.563789
Si Si5 0.122311 0.044010 0.353156
Si Si6 0.070070 0.700951 0.878476
Si Si7 0.969071 0.676941 0.165218
Si Si8 0.125312 0.454430 0.204567
O O1 0.500000 0.500000 0.087819
O O2 0.724223 0.414943 0.080441
O O3 0.777908 0.523560 0.117182
O O4 0.670939 0.490037 0.948883
O O5 0.155654 0.850045 0.474743
O O6 0.908300 0.823367 0.550504
O O7 0.937145 0.891579 0.390103
O O8 0.961851 0.771098 0.399451
O O9 0.250000 0.750000 0.435216
O O10 0.424816 0.836245 0.400858
O O11 0.376701 0.803892 0.573611
O O12 0.821926 0.673943 0.458588
O O13 0.863002 0.684921 0.639257
O O14 0.258700 0.054468 0.287609
O O15 0.000000 0.000000 0.310029
O O16 0.093784 0.698897 0.765661
O O17 0.950677 0.605760 0.172185
O O18 0.000000 0.500000 0.231811
#
# Coordination Sequence:
#
# PCOD9354558 Si02
#       8
#     8   8   8   8   8   8   8   8
#     4  10  22  43  65  90 132 173 218 275 336 396
#     4  10  21  44  70  96 132 182 219 282 339 398
#     4   9  22  42  66  98 134 171 223 273 333 402
#     4  10  21  41  65  95 130 174 218 275 337 398
#     4  10  24  43  68  97 131 180 226 272 342 401
#     4  10  22  44  69  96 140 169 226 280 339 412
#     4  11  23  40  66  98 131 176 219 278 339 401
#     4  12  25  42  61  98 134 173 226 276 330 401
#
# _framework density 21.953865
#
# number of rings (size 3 to 8) (size 9 to 14) (size 15 to 20)
#    0.000    1.750    1.250    2.250    5.250    3.500 
#    4.500   12.500    0.000    0.000    0.000    0.000 
#    0.000    0.000    0.000    0.000    0.000    0.000 
#
# Total GULP energy -178318.878903 kJ/mol
# GULP energy per Si atom -5572.464966 kJ/mol
# Density = 2.190390 g / cm^3
# Si number density = 21.953865 Si / 1000 Ang^3
#
#
#
# Elastic Constant Matrix: (Units=GPa)
#
#
# Indices 1 2 3 4 5 6 
#
# 1 124.6584 17.9080 9.9644 0.0000 0.0000 0.0000
# 2 17.9080 73.8393 -4.0178 0.0000 0.0000 0.0000
# 3 9.9644 -4.0178 62.6838 0.0000 0.0000 0.0000
# 4 0.0000 0.0000 0.0000 23.1645 0.0000 0.0000
# 5 0.0000 0.0000 0.0000 0.0000 19.3719 0.0000
# 6 0.0000 0.0000 0.0000 0.0000 0.0000 29.2844
#
#
#
# Elastic Compliance Matrix: (Units=1/GPa)
#
#
# Indices 1 2 3 4 5 6 
#
# 1 0.008446 -0.002129 -0.001479 0.000000 0.000000 0.000000
# 2 -0.002129 0.014127 0.001244 0.000000 0.000000 0.000000
# 3 -0.001479 0.001244 0.016268 0.000000 0.000000 0.000000
# 4 0.000000 0.000000 0.000000 0.043170 0.000000 0.000000
# 5 0.000000 0.000000 0.000000 0.000000 0.051621 0.000000
# 6 0.000000 0.000000 0.000000 0.000000 0.000000 0.034148
#
#
# Mechanical properties :
#
#
# Convention : Reuss Voigt Hill
#
# Bulk Modulus (GPa) = 29.31454 34.32120 31.81787
# Shear Modulus (GPa) = 27.19188 30.18594 28.68891
#
# Velocity S-wave (km/s) = 3.52318 3.71208 3.61887
# Velocity P-wave (km/s) = 5.47103 5.83438 5.65563
#
# Compressibility (1/GPa) = 0.03411277
#
# Stress axis : x y z
#
# Youngs Moduli (GPa) = 118.39959 70.78689 61.47068
#
# Poissons Ratio (x) = 0.15070 0.09092
# Poissons Ratio (y) = 0.25206 -0.07646
# Poissons Ratio (z) = 0.17512 -0.08805
#
# Static dielectric constant tensor:
#      x y z
#    x 1.949120 0.000000 0.000000 
#    y 0.000000 1.841520 0.000000 
#    z 0.000000 0.000000 1.803640 
# 
# From -- ./inp_files/10971.got.cif
#   From: 2010.05.17/outbox.cif.g08.bks.cpg/sg37_6_cif.got.tgz:10971.got - 2010.06.03 17:53:42.
