data_PCOD9354045
_publ_section_title
;
Structure prediction by ZEFSAII (Michael W. Deem and Ramdas Pophale) SiO2 
 PCOD9354045
Probable space group: C C C 2
;
_chemical_formula_sum "Si O2"
_cell_formula_units_Z 32
_cell_length_a 14.489034
_cell_length_b 7.377328
_cell_length_c 10.821262
_cell_angle_alpha 90.000000
_cell_angle_beta 90.000000
_cell_angle_gamma 90.000000
_cell_volume 1156.688550
_symmetry_space_group_name_H-M "C C C 2"
_symmetry_group_IT_number 37
_symmetry_cell_setting 'orthorhombic'
loop_
_space_group_symop_operation_xyz
x,y,z
-x,-y,z
-x,y,1/2+z
x,-y,1/2+z
1/2+x,1/2+y,z
1/2-x,1/2-y,z
1/2-x,1/2+y,1/2+z
1/2+x,1/2-y,1/2+z
loop_
_atom_site_type_symbol
_atom_site_label
_atom_site_fract_x
_atom_site_fract_y
_atom_site_fract_z
Si Si1 0.753808 0.033820 0.379450
Si Si2 0.827187 0.097013 0.619966
Si Si3 0.995630 0.284924 0.225751
Si Si4 0.069502 0.330457 0.477721
O O1 0.750000 0.250000 0.366785
O O2 0.823528 0.989522 0.491276
O O3 0.791843 0.980234 0.247855
O O4 0.661063 0.922980 0.416462
O O5 0.750000 0.250000 0.596571
O O6 0.922804 0.191954 0.648927
O O7 0.014036 0.221479 0.368036
O O8 0.000000 0.500000 0.244834
O O9 0.915712 0.261629 0.121233
O O10 0.000000 0.500000 0.501530
#
# Coordination Sequence:
#
# PCOD9354045 Si02
#       4
#     8   8   8   8
#     4  11  24  41  67 104 148 186 236 300 360 423
#     4  11  22  43  66 105 141 185 242 292 351 434
#     4  10  20  39  67 101 130 176 245 292 347 425
#     4  10  20  36  65  99 128 181 236 290 353 420
#
# _framework density 27.665181
#
# number of rings (size 3 to 8) (size 9 to 14) (size 15 to 20)
#    0.000    1.500    2.500    6.000    3.500    1.000 
#    0.000    0.000    0.000   25.500    0.000    0.000 
#    0.000    0.000    0.000    0.000    0.000    0.000 
#
# Total GULP energy -89311.560564 kJ/mol
# GULP energy per Si atom -5581.972535 kJ/mol
# Density = 2.760221 g / cm^3
# Si number density = 27.665181 Si / 1000 Ang^3
#
#
#
# Elastic Constant Matrix: (Units=GPa)
#
#
# Indices 1 2 3 4 5 6 
#
# 1 67.9929 22.8898 40.5201 0.0000 0.0000 0.0000
# 2 22.8898 52.2241 29.8616 0.0000 0.0000 0.0000
# 3 40.5201 29.8616 275.1253 0.0000 0.0000 0.0000
# 4 0.0000 0.0000 0.0000 70.8442 0.0000 0.0000
# 5 0.0000 0.0000 0.0000 0.0000 101.9563 0.0000
# 6 0.0000 0.0000 0.0000 0.0000 0.0000 39.7214
#
#
#
# Elastic Compliance Matrix: (Units=1/GPa)
#
#
# Indices 1 2 3 4 5 6 
#
# 1 0.018167 -0.006858 -0.001931 0.000000 0.000000 0.000000
# 2 -0.006858 0.023004 -0.001487 0.000000 0.000000 0.000000
# 3 -0.001931 -0.001487 0.004081 0.000000 0.000000 0.000000
# 4 0.000000 0.000000 0.000000 0.014115 0.000000 0.000000
# 5 0.000000 0.000000 0.000000 0.000000 0.009808 0.000000
# 6 0.000000 0.000000 0.000000 0.000000 0.000000 0.025175
#
#
# Mechanical properties :
#
#
# Convention : Reuss Voigt Hill
#
# Bulk Modulus (GPa) = 40.48695 64.65394 52.57044
# Shear Modulus (GPa) = 40.60514 62.64242 51.62378
#
# Velocity S-wave (km/s) = 3.83526 4.76363 4.32443
# Velocity P-wave (km/s) = 5.85480 7.32647 6.63158
#
# Compressibility (1/GPa) = 0.02469932
#
# Stress axis : x y z
#
# Youngs Moduli (GPa) = 55.04418 43.46987 245.06747
#
# Poissons Ratio (x) = 0.29813 0.47328
# Poissons Ratio (y) = 0.37752 0.36436
# Poissons Ratio (z) = 0.10630 0.06463
#
# Static dielectric constant tensor:
#      x y z
#    x 2.104370 0.000000 0.000000 
#    y 0.000000 2.202490 0.000000 
#    z 0.000000 0.000000 2.279340 
# 
# From -- ./inp_files/7549.got.cif
#   From: 2010.05.17/outbox.cif.g08.bks.cpg/sg37_4_cif.got.tgz:7549.got - 2010.06.03 17:53:42.
