data_PCOD9354599
_publ_section_title
;
Structure prediction by ZEFSAII (Michael W. Deem and Ramdas Pophale) SiO2 
 PCOD9354599
Probable space group: C C C 2
;
_chemical_formula_sum "Si O2"
_cell_formula_units_Z 64
_cell_length_a 24.941730
_cell_length_b 11.065503
_cell_length_c 11.087408
_cell_angle_alpha 90.000000
_cell_angle_beta 90.000000
_cell_angle_gamma 90.000000
_cell_volume 3060.044647
_symmetry_space_group_name_H-M "C C C 2"
_symmetry_group_IT_number 37
_symmetry_cell_setting 'orthorhombic'
loop_
_space_group_symop_operation_xyz
x,y,z
-x,-y,z
-x,y,1/2+z
x,-y,1/2+z
1/2+x,1/2+y,z
1/2-x,1/2-y,z
1/2-x,1/2+y,1/2+z
1/2+x,1/2-y,1/2+z
loop_
_atom_site_type_symbol
_atom_site_label
_atom_site_fract_x
_atom_site_fract_y
_atom_site_fract_z
Si Si1 0.835523 0.257495 0.115680
Si Si2 0.251154 0.948626 0.180971
Si Si3 0.487076 0.137677 0.954795
Si Si4 0.059198 0.200795 0.153143
Si Si5 0.444347 0.287804 0.758271
Si Si6 0.901054 0.232707 0.906070
Si Si7 0.769775 0.110378 0.450155
Si Si8 0.105962 0.950446 0.460108
O O1 0.796818 0.143076 0.139125
O O2 0.805682 0.373027 0.167595
O O3 0.892336 0.230206 0.177581
O O4 0.849934 0.283175 0.976398
O O5 0.244854 0.964009 0.326426
O O6 0.249491 0.053753 0.078886
O O7 0.459671 0.162815 0.825940
O O8 0.543313 0.210065 0.952736
O O9 0.500000 0.000000 0.976806
O O10 0.448501 0.194359 0.054950
O O11 0.095467 0.244690 0.263048
O O12 0.999132 0.172156 0.196117
O O13 0.084319 0.084148 0.091168
O O14 0.430255 0.382300 0.862554
O O15 0.898087 0.090951 0.935048
O O16 0.750000 0.250000 0.436729
O O17 0.834255 0.101758 0.451515
#
# Coordination Sequence:
#
# PCOD9354599 Si02
#       8
#     8   8   8   8   8   8   8   8
#     4  11  21  47  69  97 140 189 223 293 369 423
#     4  11  25  47  77  99 143 188 239 303 374 437
#     4  10  23  44  63  95 140 188 231 282 335 422
#     4  10  24  40  63 103 136 179 230 283 343 426
#     4  10  21  42  68  95 137 181 228 272 351 422
#     4  11  24  40  66  99 134 182 229 278 352 421
#     4  12  25  50  75 108 143 189 241 309 377 444
#     4  11  24  40  70  99 141 178 226 292 356 422
#
# _framework density 20.914728
#
# number of rings (size 3 to 8) (size 9 to 14) (size 15 to 20)
#    0.000    1.250    5.000    0.000    3.500    7.500 
#   11.250    0.000    0.000    0.000    0.000    0.000 
#    0.000    0.000    0.000    0.000    0.000    0.000 
#
# Total GULP energy -178710.936037 kJ/mol
# GULP energy per Si atom -5584.716751 kJ/mol
# Density = 2.086713 g / cm^3
# Si number density = 20.914728 Si / 1000 Ang^3
#
#
#
# Elastic Constant Matrix: (Units=GPa)
#
#
# Indices 1 2 3 4 5 6 
#
# 1 74.4165 15.1255 27.8055 0.0000 0.0000 0.0000
# 2 15.1255 69.7875 22.2263 0.0000 0.0000 0.0000
# 3 27.8055 22.2263 116.8523 0.0000 0.0000 0.0000
# 4 0.0000 0.0000 0.0000 18.5997 0.0000 0.0000
# 5 0.0000 0.0000 0.0000 0.0000 31.0216 0.0000
# 6 0.0000 0.0000 0.0000 0.0000 0.0000 28.8842
#
#
#
# Elastic Compliance Matrix: (Units=1/GPa)
#
#
# Indices 1 2 3 4 5 6 
#
# 1 0.015077 -0.002262 -0.003157 0.000000 0.000000 0.000000
# 2 -0.002262 0.015593 -0.002428 0.000000 0.000000 0.000000
# 3 -0.003157 -0.002428 0.009771 0.000000 0.000000 0.000000
# 4 0.000000 0.000000 0.000000 0.053764 0.000000 0.000000
# 5 0.000000 0.000000 0.000000 0.000000 0.032236 0.000000
# 6 0.000000 0.000000 0.000000 0.000000 0.000000 0.034621
#
#
# Mechanical properties :
#
#
# Convention : Reuss Voigt Hill
#
# Bulk Modulus (GPa) = 40.40971 43.48567 41.94769
# Shear Modulus (GPa) = 27.02625 28.76102 27.89364
#
# Velocity S-wave (km/s) = 3.59863 3.71233 3.65593
# Velocity P-wave (km/s) = 6.05227 6.26197 6.15801
#
# Compressibility (1/GPa) = 0.02474652
#
# Stress axis : x y z
#
# Youngs Moduli (GPa) = 66.32414 64.13276 102.34492
#
# Poissons Ratio (x) = 0.14508 0.32315
# Poissons Ratio (y) = 0.15004 0.24845
# Poissons Ratio (z) = 0.20942 0.15568
#
# Static dielectric constant tensor:
#      x y z
#    x 1.720670 0.000000 0.000000 
#    y 0.000000 1.744580 0.000000 
#    z 0.000000 0.000000 1.845010 
# 
# From -- ./inp_files/8935.got.cif
#   From: 2010.05.17/outbox.cif.g08.bks.cpg/sg37_5_cif.got.tgz:8935.got - 2010.06.03 17:53:42.
