data_PCOD9354544
_publ_section_title
;
Structure prediction by ZEFSAII (Michael W. Deem and Ramdas Pophale) SiO2 
 PCOD9354544
Probable space group: C C C 2
;
_chemical_formula_sum "Si O2"
_cell_formula_units_Z 44
_cell_length_a 8.022181
_cell_length_b 10.691974
_cell_length_c 24.776770
_cell_angle_alpha 90.000000
_cell_angle_beta 90.000000
_cell_angle_gamma 90.000000
_cell_volume 2125.176671
_symmetry_space_group_name_H-M "C C C 2"
_symmetry_group_IT_number 37
_symmetry_cell_setting 'orthorhombic'
loop_
_space_group_symop_operation_xyz
x,y,z
-x,-y,z
-x,y,1/2+z
x,-y,1/2+z
1/2+x,1/2+y,z
1/2-x,1/2-y,z
1/2-x,1/2+y,1/2+z
1/2+x,1/2-y,1/2+z
loop_
_atom_site_type_symbol
_atom_site_label
_atom_site_fract_x
_atom_site_fract_y
_atom_site_fract_z
Si Si1 0.500000 0.500000 0.735890
Si Si2 0.681114 0.888994 0.786279
Si Si3 0.679282 0.111694 0.986132
Si Si4 0.500000 0.500000 0.037640
Si Si5 0.000000 0.500000 0.886210
Si Si6 0.448064 0.768905 0.086162
Si Si7 0.940314 0.727167 0.200664
O O1 0.328697 0.485140 0.770071
O O2 0.491171 0.370330 0.702981
O O3 0.750000 0.750000 0.790558
O O4 0.537851 0.865153 0.740961
O O5 0.610240 0.922884 0.844400
O O6 0.750000 0.250000 0.980979
O O7 0.607411 0.077783 0.928568
O O8 0.548720 0.136109 0.035365
O O9 0.830430 0.021458 0.003692
O O10 0.514395 0.630651 0.070268
O O11 0.250000 0.750000 0.098970
O O12 0.538865 0.817483 0.139336
O O13 0.750000 0.750000 0.216118
#
# Coordination Sequence:
#
# PCOD9354544 Si02
#       7
#     4   8   8   4   4   8   8
#     4  10  21  41  62  84 118 157 193 240 298 356
#     4  10  24  41  60  87 116 155 202 242 293 354
#     4   9  22  39  58  84 116 152 197 243 286 349
#     4   8  17  37  60  84 114 155 189 230 300 348
#     4  12  24  40  60  84 116 152 196 248 292 342
#     4   9  18  36  59  87 121 153 193 240 289 355
#     4  11  22  37  61  92 123 152 190 242 300 362
#
# _framework density 20.704160999999999
#
# number of rings (size 3 to 8) (size 9 to 14) (size 15 to 20)
#    0.000    2.545    0.000    3.273    0.000   10.182 
#    0.000    0.909    0.000    0.000    0.000    0.000 
#    0.000    0.000    0.000    0.000    0.000    0.000 
#
# Total GULP energy -122613.056410 kJ/mol
# GULP energy per Si atom -5573.320746 kJ/mol
# Density = 2.065704 g / cm^3
# Si number density = 20.704161 Si / 1000 Ang^3
#
#
#
# Elastic Constant Matrix: (Units=GPa)
#
#
# Indices 1 2 3 4 5 6 
#
# 1 102.0454 40.0459 64.6888 0.0000 0.0000 0.0000
# 2 40.0459 104.5302 54.2078 0.0000 0.0000 0.0000
# 3 64.6888 54.2078 180.9525 0.0000 0.0000 0.0000
# 4 0.0000 0.0000 0.0000 16.3795 0.0000 0.0000
# 5 0.0000 0.0000 0.0000 0.0000 31.5142 0.0000
# 6 0.0000 0.0000 0.0000 0.0000 0.0000 35.7797
#
#
#
# Elastic Compliance Matrix: (Units=1/GPa)
#
#
# Indices 1 2 3 4 5 6 
#
# 1 0.013499 -0.003160 -0.003879 0.000000 0.000000 0.000000
# 2 -0.003160 0.012066 -0.002485 0.000000 0.000000 0.000000
# 3 -0.003879 -0.002485 0.007657 0.000000 0.000000 0.000000
# 4 0.000000 0.000000 0.000000 0.061052 0.000000 0.000000
# 5 0.000000 0.000000 0.000000 0.000000 0.031732 0.000000
# 6 0.000000 0.000000 0.000000 0.000000 0.000000 0.027949
#
#
# Mechanical properties :
#
#
# Convention : Reuss Voigt Hill
#
# Bulk Modulus (GPa) = 70.55018 78.37922 74.46470
# Shear Modulus (GPa) = 28.13312 31.97372 30.05342
#
# Velocity S-wave (km/s) = 3.69021 3.93404 3.81407
# Velocity P-wave (km/s) = 7.23230 7.65340 7.44583
#
# Compressibility (1/GPa) = 0.01417431
#
# Stress axis : x y z
#
# Youngs Moduli (GPa) = 74.08203 82.87907 130.59170
#
# Poissons Ratio (x) = 0.26187 0.50657
# Poissons Ratio (y) = 0.23408 0.32452
# Poissons Ratio (z) = 0.28737 0.20595
#
# Static dielectric constant tensor:
#      x y z
#    x 1.891780 0.000000 0.000000 
#    y 0.000000 1.772830 0.000000 
#    z 0.000000 0.000000 1.716260 
# 
# From -- ./inp_files/18329.got.cif
#   From: 2010.05.17/outbox.cif.g08.bks.cpg/sg37_10_cif.got.tgz:18329.got - 2010.06.03 17:53:42.
