data_PCOD9354466
_publ_section_title
;
Structure prediction by ZEFSAII (Michael W. Deem and Ramdas Pophale) SiO2 
 PCOD9354466
Probable space group: C C C 2
;
_chemical_formula_sum "Si O2"
_cell_formula_units_Z 48
_cell_length_a 16.638018
_cell_length_b 15.036276
_cell_length_c 9.206441
_cell_angle_alpha 90.000000
_cell_angle_beta 90.000000
_cell_angle_gamma 90.000000
_cell_volume 2303.210612
_symmetry_space_group_name_H-M "C C C 2"
_symmetry_group_IT_number 37
_symmetry_cell_setting 'orthorhombic'
loop_
_space_group_symop_operation_xyz
x,y,z
-x,-y,z
-x,y,1/2+z
x,-y,1/2+z
1/2+x,1/2+y,z
1/2-x,1/2-y,z
1/2-x,1/2+y,1/2+z
1/2+x,1/2-y,1/2+z
loop_
_atom_site_type_symbol
_atom_site_label
_atom_site_fract_x
_atom_site_fract_y
_atom_site_fract_z
Si Si1 0.696666 0.003423 0.337610
Si Si2 0.579875 0.657210 0.416326
Si Si3 0.546863 0.590261 0.108385
Si Si4 0.044026 0.591192 0.453322
Si Si5 0.098875 0.663816 0.756203
Si Si6 0.306022 0.476464 0.586823
O O1 0.669259 0.907544 0.279811
O O2 0.724051 0.989806 0.501628
O O3 0.618833 0.065344 0.349340
O O4 0.774776 0.037303 0.250231
O O5 0.544583 0.602364 0.280666
O O6 0.502968 0.666083 0.524415
O O7 0.617249 0.740873 0.329145
O O8 0.645949 0.604250 0.511045
O O9 0.500000 0.500000 0.071124
O O10 0.638533 0.564382 0.074140
O O11 0.073615 0.650461 0.588454
O O12 0.000000 0.500000 0.508909
O O13 0.977429 0.635503 0.352969
#
# Coordination Sequence:
#
# PCOD9354466 Si02
#       6
#     8   8   8   8   8   8
#     4  11  22  40  66  93 125 171 216 257 318 395
#     4  11  23  39  64  93 128 164 212 270 316 372
#     4  10  21  39  62  89 119 169 217 255 306 384
#     4  10  21  39  64  94 124 171 214 262 311 398
#     4  11  23  39  64  94 130 160 213 265 326 368
#     4  11  22  40  64  93 123 170 218 258 316 386
#
# _framework density 20.840472999999999
#
# number of rings (size 3 to 8) (size 9 to 14) (size 15 to 20)
#    0.000    1.333    3.333    4.000    4.667    0.667 
#    0.000    0.000    0.000    0.000    0.000    0.000 
#    0.000    0.000    0.000    0.000    0.000    0.000 
#
# Total GULP energy -133714.079192 kJ/mol
# GULP energy per Si atom -5571.419966 kJ/mol
# Density = 2.079304 g / cm^3
# Si number density = 20.840473 Si / 1000 Ang^3
#
#
#
# Elastic Constant Matrix: (Units=GPa)
#
#
# Indices 1 2 3 4 5 6 
#
# 1 62.9529 9.7143 10.2088 0.0000 0.0000 0.0000
# 2 9.7143 57.5757 24.2754 0.0000 0.0000 0.0000
# 3 10.2088 24.2754 80.5459 0.0000 0.0000 0.0000
# 4 0.0000 0.0000 0.0000 23.2013 0.0000 0.0000
# 5 0.0000 0.0000 0.0000 0.0000 45.2667 0.0000
# 6 0.0000 0.0000 0.0000 0.0000 0.0000 20.7282
#
#
#
# Elastic Compliance Matrix: (Units=1/GPa)
#
#
# Indices 1 2 3 4 5 6 
#
# 1 0.016452 -0.002173 -0.001430 0.000000 0.000000 0.000000
# 2 -0.002173 0.020184 -0.005808 0.000000 0.000000 0.000000
# 3 -0.001430 -0.005808 0.014347 0.000000 0.000000 0.000000
# 4 0.000000 0.000000 0.000000 0.043101 0.000000 0.000000
# 5 0.000000 0.000000 0.000000 0.000000 0.022091 0.000000
# 6 0.000000 0.000000 0.000000 0.000000 0.000000 0.048243
#
#
# Mechanical properties :
#
#
# Convention : Reuss Voigt Hill
#
# Bulk Modulus (GPa) = 31.09347 32.16349 31.62848
# Shear Modulus (GPa) = 25.77843 28.29764 27.03804
#
# Velocity S-wave (km/s) = 3.52083 3.68886 3.60583
# Velocity P-wave (km/s) = 5.61075 5.79744 5.70486
#
# Compressibility (1/GPa) = 0.03216110
#
# Stress axis : x y z
#
# Youngs Moduli (GPa) = 60.78243 49.54493 69.70134
#
# Poissons Ratio (x) = 0.10765 0.09970
# Poissons Ratio (y) = 0.13206 0.40480
# Poissons Ratio (z) = 0.08694 0.28774
#
# Static dielectric constant tensor:
#      x y z
#    x 1.764440 0.000000 0.000000 
#    y 0.000000 1.820420 0.000000 
#    z 0.000000 0.000000 1.751600 
# 
# From -- ./inp_files/3500.got.cif
#   From: 2010.05.17/outbox.cif.g08.bks.cpg/sg37_2_cif.got.tgz:3500.got - 2010.06.03 17:53:42.
