data_PCOD9354411
_publ_section_title
;
Structure prediction by ZEFSAII (Michael W. Deem and Ramdas Pophale) SiO2 
 PCOD9354411
Probable space group: C C C 2
;
_chemical_formula_sum "Si O2"
_cell_formula_units_Z 52
_cell_length_a 29.733407
_cell_length_b 7.274828
_cell_length_c 11.802154
_cell_angle_alpha 90.000000
_cell_angle_beta 90.000000
_cell_angle_gamma 90.000000
_cell_volume 2552.869899
_symmetry_space_group_name_H-M "C C C 2"
_symmetry_group_IT_number 37
_symmetry_cell_setting 'orthorhombic'
loop_
_space_group_symop_operation_xyz
x,y,z
-x,-y,z
-x,y,1/2+z
x,-y,1/2+z
1/2+x,1/2+y,z
1/2-x,1/2-y,z
1/2-x,1/2+y,1/2+z
1/2+x,1/2-y,1/2+z
loop_
_atom_site_type_symbol
_atom_site_label
_atom_site_fract_x
_atom_site_fract_y
_atom_site_fract_z
Si Si1 0.801472 0.774571 0.982950
Si Si2 0.474695 0.186321 0.893784
Si Si3 0.126190 0.681827 0.304770
Si Si4 0.427619 0.573482 0.568948
Si Si5 0.639851 0.436220 0.886364
Si Si6 0.353986 0.829759 0.688559
Si Si7 0.000000 0.000000 0.237119
O O1 0.750000 0.750000 0.951270
O O2 0.836758 0.657855 0.905649
O O3 0.817769 0.982883 0.955771
O O4 0.810879 0.718223 0.112372
O O5 0.424800 0.146051 0.844004
O O6 0.503682 0.316884 0.811736
O O7 0.500000 0.000000 0.917746
O O8 0.464721 0.307812 0.003098
O O9 0.130816 0.902499 0.292041
O O10 0.137771 0.546412 0.202950
O O11 0.400987 0.451498 0.476252
O O12 0.393486 0.721157 0.622953
O O13 0.455472 0.470266 0.663693
O O14 0.646691 0.253808 0.815403
#
# Coordination Sequence:
#
# PCOD9354411 Si02
#       7
#     8   8   8   8   8   8   4
#     4   9  21  42  61  91 125 147 204 261 296 377
#     4  11  23  41  57  89 127 164 207 255 302 367
#     4   9  21  40  59  88 125 153 203 255 297 363
#     4  10  21  38  57  89 120 159 208 253 294 359
#     4   8  20  40  60  86 122 154 197 250 306 359
#     4  11  19  40  66  83 120 168 193 247 323 356
#     4  12  24  38  62  88 124 168 214 250 304 364
#
# _framework density 20.369233000000001
#
# number of rings (size 3 to 8) (size 9 to 14) (size 15 to 20)
#    0.923    1.231    1.538    3.231    0.000    4.308 
#    8.308    1.538    0.000    0.000    0.000    0.000 
#    0.000    0.000    0.000    0.000    0.000    0.000 
#
# Total GULP energy -144873.987525 kJ/mol
# GULP energy per Si atom -5572.076443 kJ/mol
# Density = 2.032287 g / cm^3
# Si number density = 20.369233 Si / 1000 Ang^3
#
#
#
# Elastic Constant Matrix: (Units=GPa)
#
#
# Indices 1 2 3 4 5 6 
#
# 1 92.1416 9.7629 13.2877 0.0000 0.0000 0.0000
# 2 9.7629 29.1006 14.5142 0.0000 0.0000 0.0000
# 3 13.2877 14.5142 60.0893 0.0000 0.0000 0.0000
# 4 0.0000 0.0000 0.0000 22.6814 0.0000 0.0000
# 5 0.0000 0.0000 0.0000 0.0000 13.6388 0.0000
# 6 0.0000 0.0000 0.0000 0.0000 0.0000 8.4207
#
#
#
# Elastic Compliance Matrix: (Units=1/GPa)
#
#
# Indices 1 2 3 4 5 6 
#
# 1 0.011425 -0.002925 -0.001820 0.000000 0.000000 0.000000
# 2 -0.002925 0.039819 -0.008971 0.000000 0.000000 0.000000
# 3 -0.001820 -0.008971 0.019211 0.000000 0.000000 0.000000
# 4 0.000000 0.000000 0.000000 0.044089 0.000000 0.000000
# 5 0.000000 0.000000 0.000000 0.000000 0.073320 0.000000
# 6 0.000000 0.000000 0.000000 0.000000 0.000000 0.118755
#
#
# Mechanical properties :
#
#
# Convention : Reuss Voigt Hill
#
# Bulk Modulus (GPa) = 23.24339 28.49569 25.86954
# Shear Modulus (GPa) = 14.35156 18.53262 16.44209
#
# Velocity S-wave (km/s) = 2.65725 3.01962 2.84421
# Velocity P-wave (km/s) = 4.56623 5.11639 4.84912
#
# Compressibility (1/GPa) = 0.04302299
#
# Stress axis : x y z
#
# Youngs Moduli (GPa) = 87.52534 25.11336 52.05266
#
# Poissons Ratio (x) = 0.07346 0.09473
# Poissons Ratio (y) = 0.25604 0.46698
# Poissons Ratio (z) = 0.15929 0.22530
#
# Static dielectric constant tensor:
#      x y z
#    x 1.730640 0.000000 0.000000 
#    y 0.000000 1.729990 0.000000 
#    z 0.000000 0.000000 1.771970 
# 
# From -- ./inp_files/9180.got.cif
#   From: 2010.05.17/outbox.cif.g08.bks.cpg/sg37_5_cif.got.tgz:9180.got - 2010.06.03 17:53:42.
