data_PCOD9354406
_publ_section_title
;
Structure prediction by ZEFSAII (Michael W. Deem and Ramdas Pophale) SiO2 
 PCOD9354406
Probable space group: C C C 2
;
_chemical_formula_sum "Si O2"
_cell_formula_units_Z 52
_cell_length_a 20.964475
_cell_length_b 9.091224
_cell_length_c 12.814623
_cell_angle_alpha 90.000000
_cell_angle_beta 90.000000
_cell_angle_gamma 90.000000
_cell_volume 2442.374087
_symmetry_space_group_name_H-M "C C C 2"
_symmetry_group_IT_number 37
_symmetry_cell_setting 'orthorhombic'
loop_
_space_group_symop_operation_xyz
x,y,z
-x,-y,z
-x,y,1/2+z
x,-y,1/2+z
1/2+x,1/2+y,z
1/2-x,1/2-y,z
1/2-x,1/2+y,1/2+z
1/2+x,1/2-y,1/2+z
loop_
_atom_site_type_symbol
_atom_site_label
_atom_site_fract_x
_atom_site_fract_y
_atom_site_fract_z
Si Si1 0.190341 0.091561 0.682400
Si Si2 0.117780 0.207983 0.177562
Si Si3 0.308423 0.055606 0.066998
Si Si4 0.975859 0.165343 0.485255
Si Si5 0.592856 0.194494 0.078820
Si Si6 0.010106 0.175507 0.759216
Si Si7 0.750000 0.750000 0.879523
O O1 0.253747 0.043606 0.620024
O O2 0.149249 0.190119 0.602494
O O3 0.149655 0.946081 0.702715
O O4 0.205227 0.833128 0.294170
O O5 0.172331 0.324370 0.154088
O O6 0.078076 0.198430 0.068943
O O7 0.061847 0.238050 0.259770
O O8 0.371973 0.957055 0.054613
O O9 0.284357 0.135929 0.960658
O O10 0.038988 0.264288 0.495825
O O11 0.953671 0.175752 0.367671
O O12 0.000000 0.000000 0.502491
O O13 0.550145 0.221819 0.182325
O O14 0.000000 0.000000 0.730442
#
# Coordination Sequence:
#
# PCOD9354406 Si02
#       7
#     8   8   8   8   8   8   4
#     4  12  23  45  72  96 138 190 235 289 356 427
#     4  11  22  42  67  96 139 178 228 303 341 416
#     4  12  27  44  68 103 142 179 237 304 357 414
#     4  10  21  38  69 103 137 188 236 276 350 433
#     4  11  22  44  68  99 137 178 230 296 347 413
#     4  10  21  37  68 102 133 187 232 278 351 429
#     4  12  28  44  74 104 136 202 236 292 378 418
#
# _framework density 21.290759999999999
#
# number of rings (size 3 to 8) (size 9 to 14) (size 15 to 20)
#    0.000    0.923    6.154    0.923    2.154    4.923 
#    0.000    3.077    0.000    0.000    0.000    0.000 
#    0.000    0.000    0.000    0.000    0.000    0.000 
#
# Total GULP energy -144993.631641 kJ/mol
# GULP energy per Si atom -5576.678140 kJ/mol
# Density = 2.124230 g / cm^3
# Si number density = 21.290760 Si / 1000 Ang^3
#
#
#
# Elastic Constant Matrix: (Units=GPa)
#
#
# Indices 1 2 3 4 5 6 
#
# 1 92.3953 21.3179 -3.3538 0.0000 0.0000 0.0000
# 2 21.3179 62.3082 -8.3800 0.0000 0.0000 0.0000
# 3 -3.3538 -8.3800 74.6803 0.0000 0.0000 0.0000
# 4 0.0000 0.0000 0.0000 26.4051 0.0000 0.0000
# 5 0.0000 0.0000 0.0000 0.0000 -1.9683 0.0000
# 6 0.0000 0.0000 0.0000 0.0000 0.0000 39.5664
#
#
#
# Elastic Compliance Matrix: (Units=1/GPa)
#
#
# Indices 1 2 3 4 5 6 
#
# 1 0.011751 -0.004010 0.000078 0.000000 0.000000 0.000000
# 2 -0.004010 0.017664 0.001802 0.000000 0.000000 0.000000
# 3 0.000078 0.001802 0.013596 0.000000 0.000000 0.000000
# 4 0.000000 0.000000 0.000000 0.037871 0.000000 0.000000
# 5 0.000000 0.000000 0.000000 0.000000 -0.508061 0.000000
# 6 0.000000 0.000000 0.000000 0.000000 0.000000 0.025274
#
#
# Mechanical properties :
#
#
# Convention : Reuss Voigt Hill
#
# Bulk Modulus (GPa) = 25.80628 27.61685 26.71156
# Shear Modulus (GPa) = -12.99621 27.45395 7.22887
#
# Velocity S-wave (km/s) = -2.47334 3.59483 1.84464
# Velocity P-wave (km/s) = 1.99766 5.49816 4.13645
#
# Compressibility (1/GPa) = 0.03875026
#
# Stress axis : x y z
#
# Youngs Moduli (GPa) = 85.09846 56.61366 73.55041
#
# Poissons Ratio (x) = 0.22702 -0.00572
# Poissons Ratio (y) = 0.34125 -0.13254
# Poissons Ratio (z) = -0.00662 -0.10202
#
# Static dielectric constant tensor:
#      x y z
#    x 1.785400 0.000000 0.000000 
#    y 0.000000 1.788730 0.000000 
#    z 0.000000 0.000000 1.769420 
# 
# From -- ./inp_files/13095.got.cif
#   From: 2010.05.17/outbox.cif.g08.bks.cpg/sg37_7_cif.got.tgz:13095.got - 2010.06.03 17:53:42.
