data_PCOD9354378
_publ_section_title
;
Structure prediction by ZEFSAII (Michael W. Deem and Ramdas Pophale) SiO2 
 PCOD9354378
Probable space group: C C C 2
;
_chemical_formula_sum "Si O2"
_cell_formula_units_Z 64
_cell_length_a 12.026471
_cell_length_b 27.109419
_cell_length_c 8.775095
_cell_angle_alpha 90.000000
_cell_angle_beta 90.000000
_cell_angle_gamma 90.000000
_cell_volume 2860.949851
_symmetry_space_group_name_H-M "C C C 2"
_symmetry_group_IT_number 37
_symmetry_cell_setting 'orthorhombic'
loop_
_space_group_symop_operation_xyz
x,y,z
-x,-y,z
-x,y,1/2+z
x,-y,1/2+z
1/2+x,1/2+y,z
1/2-x,1/2-y,z
1/2-x,1/2+y,1/2+z
1/2+x,1/2-y,1/2+z
loop_
_atom_site_type_symbol
_atom_site_label
_atom_site_fract_x
_atom_site_fract_y
_atom_site_fract_z
Si Si1 0.145650 0.425683 0.154540
Si Si2 0.342005 0.708166 0.251756
Si Si3 0.850701 0.638918 0.717079
Si Si4 0.969848 0.175690 0.965432
Si Si5 0.114245 0.886986 0.692166
Si Si6 0.031272 0.623607 0.933121
Si Si7 0.764631 0.533730 0.687410
Si Si8 0.113064 0.022587 0.409327
O O1 0.261399 0.396230 0.130761
O O2 0.103280 0.410616 0.322342
O O3 0.169187 0.483713 0.148918
O O4 0.052356 0.407779 0.038349
O O5 0.250000 0.750000 0.265772
O O6 0.269330 0.658361 0.259660
O O7 0.433687 0.706672 0.382880
O O8 0.401916 0.706843 0.088406
O O9 0.887532 0.652480 0.546428
O O10 0.842620 0.579637 0.720896
O O11 0.949026 0.655675 0.828517
O O12 0.895902 0.152543 0.829926
O O13 0.030601 0.131825 0.061983
O O14 0.086000 0.938418 0.776208
O O15 0.685970 0.545806 0.543721
O O16 0.687564 0.519664 0.830391
O O17 0.000000 0.000000 0.470910
#
# Coordination Sequence:
#
# PCOD9354378 Si02
#       8
#     8   8   8   8   8   8   8   8
#     4  10  21  37  54  88 124 167 217 259 298 355
#     4  11  25  46  71  98 128 157 204 266 323 397
#     4  11  23  40  60  88 123 162 212 264 316 374
#     4  10  23  43  71  96 126 173 203 249 332 389
#     4  10  22  39  63  92 131 169 211 253 308 385
#     4  10  22  37  61  85 120 170 214 260 311 358
#     4  11  23  37  53  82 127 170 216 270 307 364
#     4  11  24  33  54  87 127 171 218 257 305 358
#
# _framework density 22.370190999999998
#
# number of rings (size 3 to 8) (size 9 to 14) (size 15 to 20)
#    0.000    1.500    0.000    4.875    8.750    4.000 
#    0.000    2.500    0.000    0.000    0.000    0.000 
#    0.000    0.000    0.000    0.000    0.000    0.000 
#
# Total GULP energy -179064.166379 kJ/mol
# GULP energy per Si atom -5595.755199 kJ/mol
# Density = 2.231928 g / cm^3
# Si number density = 22.370191 Si / 1000 Ang^3
#
#
#
# Elastic Constant Matrix: (Units=GPa)
#
#
# Indices 1 2 3 4 5 6 
#
# 1 67.7324 25.4493 8.4151 0.0000 0.0000 0.0000
# 2 25.4493 42.3141 19.0799 0.0000 0.0000 0.0000
# 3 8.4151 19.0799 75.8962 0.0000 0.0000 0.0000
# 4 0.0000 0.0000 0.0000 9.3887 0.0000 0.0000
# 5 0.0000 0.0000 0.0000 0.0000 47.4299 0.0000
# 6 0.0000 0.0000 0.0000 0.0000 0.0000 25.3468
#
#
#
# Elastic Compliance Matrix: (Units=1/GPa)
#
#
# Indices 1 2 3 4 5 6 
#
# 1 0.019125 -0.011895 0.000870 0.000000 0.000000 0.000000
# 2 -0.011895 0.034052 -0.007242 0.000000 0.000000 0.000000
# 3 0.000870 -0.007242 0.014900 0.000000 0.000000 0.000000
# 4 0.000000 0.000000 0.000000 0.106511 0.000000 0.000000
# 5 0.000000 0.000000 0.000000 0.000000 0.021084 0.000000
# 6 0.000000 0.000000 0.000000 0.000000 0.000000 0.039453
#
#
# Mechanical properties :
#
#
# Convention : Reuss Voigt Hill
#
# Bulk Modulus (GPa) = 31.70189 32.42570 32.06379
# Shear Modulus (GPa) = 17.71966 25.29965 21.50965
#
# Velocity S-wave (km/s) = 2.81750 3.36661 3.10422
# Velocity P-wave (km/s) = 4.97862 5.44414 5.21657
#
# Compressibility (1/GPa) = 0.03154386
#
# Stress axis : x y z
#
# Youngs Moduli (GPa) = 52.28705 29.36681 67.11432
#
# Poissons Ratio (x) = 0.34931 -0.05837
# Poissons Ratio (y) = 0.62194 0.48602
# Poissons Ratio (z) = -0.04548 0.21266
#
# Static dielectric constant tensor:
#      x y z
#    x 1.820070 0.000000 0.000000 
#    y 0.000000 1.828650 0.000000 
#    z 0.000000 0.000000 1.854520 
# 
# From -- ./inp_files/3126.got.cif
#   From: 2010.05.17/outbox.cif.g08.bks.cpg/sg37_2_cif.got.tgz:3126.got - 2010.06.03 17:53:42.
