data_PCOD9354025
_publ_section_title
;
Structure prediction by ZEFSAII (Michael W. Deem and Ramdas Pophale) SiO2 
 PCOD9354025
Probable space group: C C C 2
;
_chemical_formula_sum "Si O2"
_cell_formula_units_Z 40
_cell_length_a 14.683245
_cell_length_b 4.893787
_cell_length_c 22.555302
_cell_angle_alpha 90.000000
_cell_angle_beta 90.000000
_cell_angle_gamma 90.000000
_cell_volume 1620.748971
_symmetry_space_group_name_H-M "C C C 2"
_symmetry_group_IT_number 37
_symmetry_cell_setting 'orthorhombic'
loop_
_space_group_symop_operation_xyz
x,y,z
-x,-y,z
-x,y,1/2+z
x,-y,1/2+z
1/2+x,1/2+y,z
1/2-x,1/2-y,z
1/2-x,1/2+y,1/2+z
1/2+x,1/2-y,1/2+z
loop_
_atom_site_type_symbol
_atom_site_label
_atom_site_fract_x
_atom_site_fract_y
_atom_site_fract_z
Si Si1 0.647887 0.129335 0.371280
Si Si2 0.250000 0.750000 0.040887
Si Si3 0.183075 0.499576 0.246485
Si Si4 0.850825 0.614116 0.118082
Si Si5 0.500000 0.000000 0.034288
Si Si6 0.881925 0.110807 0.949781
O O1 0.750000 0.250000 0.369818
O O2 0.593274 0.342457 0.412274
O O3 0.623324 0.093561 0.302279
O O4 0.645798 0.835342 0.401125
O O5 0.171245 0.672223 0.086385
O O6 0.202944 0.956969 0.994137
O O7 0.250000 0.250000 0.264769
O O8 0.130496 0.408118 0.187455
O O9 0.250000 0.750000 0.229345
O O10 0.750000 0.750000 0.112391
O O11 0.935707 0.687049 0.076917
O O12 0.448226 0.785953 0.991769
#
# Coordination Sequence:
#
# PCOD9354025 Si02
#       6
#     8   4   8   8   4   8
#     4  11  20  38  65  99 131 182 231 291 348 422
#     4  10  20  36  60  96 130 176 218 280 342 418
#     4  10  20  38  67 101 133 178 240 289 354 431
#     4  10  22  43  68  99 137 181 231 297 356 425
#     4  10  26  44  66 108 140 190 238 292 364 444
#     4  11  23  38  62  96 141 177 228 283 352 420
#
# _framework density 24.679949000000001
#
# number of rings (size 3 to 8) (size 9 to 14) (size 15 to 20)
#    0.000    1.600    3.000    2.400    5.600    0.800 
#    3.600    1.000    0.000    9.600    0.000    0.000 
#    0.000    0.000    0.000    0.000    0.000    0.000 
#
# Total GULP energy -111576.466962 kJ/mol
# GULP energy per Si atom -5578.823348 kJ/mol
# Density = 2.462378 g / cm^3
# Si number density = 24.679949 Si / 1000 Ang^3
#
#
#
# Elastic Constant Matrix: (Units=GPa)
#
#
# Indices 1 2 3 4 5 6 
#
# 1 67.3277 10.0508 55.1809 0.0000 0.0000 0.0000
# 2 10.0508 105.5874 26.6772 0.0000 0.0000 0.0000
# 3 55.1809 26.6772 223.4525 0.0000 0.0000 0.0000
# 4 0.0000 0.0000 0.0000 1.4127 0.0000 0.0000
# 5 0.0000 0.0000 0.0000 0.0000 32.2323 0.0000
# 6 0.0000 0.0000 0.0000 0.0000 0.0000 33.9337
#
#
#
# Elastic Compliance Matrix: (Units=1/GPa)
#
#
# Indices 1 2 3 4 5 6 
#
# 1 0.018662 -0.000631 -0.004533 0.000000 0.000000 0.000000
# 2 -0.000631 0.009787 -0.001013 0.000000 0.000000 0.000000
# 3 -0.004533 -0.001013 0.005716 0.000000 0.000000 0.000000
# 4 0.000000 0.000000 0.000000 0.707881 0.000000 0.000000
# 5 0.000000 0.000000 0.000000 0.000000 0.031025 0.000000
# 6 0.000000 0.000000 0.000000 0.000000 0.000000 0.029469
#
#
# Mechanical properties :
#
#
# Convention : Reuss Voigt Hill
#
# Bulk Modulus (GPa) = 45.84878 64.46504 55.15691
# Shear Modulus (GPa) = 6.08151 33.81298 19.94725
#
# Velocity S-wave (km/s) = 1.57146 3.70545 2.84604
# Velocity P-wave (km/s) = 4.68085 6.66965 5.76171
#
# Compressibility (1/GPa) = 0.02181083
#
# Stress axis : x y z
#
# Youngs Moduli (GPa) = 53.58381 102.17922 174.96022
#
# Poissons Ratio (x) = 0.06448 0.79314
# Poissons Ratio (y) = 0.03382 0.17716
# Poissons Ratio (z) = 0.24291 0.10346
#
# Static dielectric constant tensor:
#      x y z
#    x 2.207800 0.000000 0.000000 
#    y 0.000000 2.022700 0.000000 
#    z 0.000000 0.000000 1.928600 
# 
# From -- ./inp_files/17271.got.cif
#   From: 2010.05.17/outbox.cif.g08.bks.cpg/sg37_9_cif.got.tgz:17271.got - 2010.06.03 17:53:42.
