data_PCOD9354745
_publ_section_title
;
Structure prediction by ZEFSAII (Michael W. Deem and Ramdas Pophale) SiO2 
 PCOD9354745
Probable space group: C C C 2
;
_chemical_formula_sum "Si O2"
_cell_formula_units_Z 48
_cell_length_a 8.758600
_cell_length_b 15.009524
_cell_length_c 18.560885
_cell_angle_alpha 90.000000
_cell_angle_beta 90.000000
_cell_angle_gamma 90.000000
_cell_volume 2440.058802
_symmetry_space_group_name_H-M "C C C 2"
_symmetry_group_IT_number 37
_symmetry_cell_setting 'orthorhombic'
loop_
_space_group_symop_operation_xyz
x,y,z
-x,-y,z
-x,y,1/2+z
x,-y,1/2+z
1/2+x,1/2+y,z
1/2-x,1/2-y,z
1/2-x,1/2+y,1/2+z
1/2+x,1/2-y,1/2+z
loop_
_atom_site_type_symbol
_atom_site_label
_atom_site_fract_x
_atom_site_fract_y
_atom_site_fract_z
Si Si1 0.643708 0.835935 0.185630
Si Si2 0.116096 0.315924 0.595108
Si Si3 0.881952 0.064975 0.944431
Si Si4 0.933910 0.251810 0.459401
Si Si5 0.676161 0.007555 0.568658
Si Si6 0.643987 0.162099 0.847847
O O1 0.750000 0.750000 0.180763
O O2 0.479715 0.795779 0.165267
O O3 0.633690 0.872490 0.266510
O O4 0.684723 0.911438 0.125743
O O5 0.250000 0.250000 0.578349
O O6 0.184651 0.412865 0.608223
O O7 0.001235 0.305619 0.527565
O O8 0.737058 0.095260 0.898403
O O9 0.978916 0.155344 0.962445
O O10 0.808408 0.005185 0.009204
O O11 0.000000 0.000000 0.904959
O O12 0.750000 0.250000 0.463082
O O13 0.992105 0.304222 0.388328
O O14 0.500000 0.000000 0.539301
O O15 0.750000 0.250000 0.843864
#
# Coordination Sequence:
#
# PCOD9354745 Si02
#       6
#     8   8   8   8   8   8
#     4  10  23  40  66  91 131 169 214 261 329 394
#     4  11  20  39  63  93 129 167 210 272 319 379
#     4  11  23  38  64  97 128 167 218 268 315 384
#     4  11  22  39  68  96 124 169 223 267 326 382
#     4  10  22  39  61  94 127 168 211 266 317 380
#     4   9  20  45  63  88 130 172 206 273 329 376
#
# _framework density 19.671658999999998
#
# number of rings (size 3 to 8) (size 9 to 14) (size 15 to 20)
#    0.000    1.667    3.333    1.000    7.000    0.667 
#    0.000   13.333    0.000    0.000    0.000    0.000 
#    0.000    0.000    0.000    0.000    0.000    0.000 
#
# Total GULP energy -133611.570046 kJ/mol
# GULP energy per Si atom -5567.148752 kJ/mol
# Density = 1.962689 g / cm^3
# Si number density = 19.671659 Si / 1000 Ang^3
#
#
#
# Elastic Constant Matrix: (Units=GPa)
#
#
# Indices 1 2 3 4 5 6 
#
# 1 120.9530 41.8151 55.6796 0.0000 0.0000 0.0000
# 2 41.8151 101.8668 50.8427 0.0000 0.0000 0.0000
# 3 55.6796 50.8427 109.3935 0.0000 0.0000 0.0000
# 4 0.0000 0.0000 0.0000 13.5782 0.0000 0.0000
# 5 0.0000 0.0000 0.0000 0.0000 9.4726 0.0000
# 6 0.0000 0.0000 0.0000 0.0000 0.0000 27.0042
#
#
#
# Elastic Compliance Matrix: (Units=1/GPa)
#
#
# Indices 1 2 3 4 5 6 
#
# 1 0.011190 -0.002279 -0.004636 0.000000 0.000000 0.000000
# 2 -0.002279 0.013246 -0.004996 0.000000 0.000000 0.000000
# 3 -0.004636 -0.004996 0.013823 0.000000 0.000000 0.000000
# 4 0.000000 0.000000 0.000000 0.073647 0.000000 0.000000
# 5 0.000000 0.000000 0.000000 0.000000 0.105567 0.000000
# 6 0.000000 0.000000 0.000000 0.000000 0.000000 0.037031
#
#
# Mechanical properties :
#
#
# Convention : Reuss Voigt Hill
#
# Bulk Modulus (GPa) = 69.27277 69.87647 69.57462
# Shear Modulus (GPa) = 17.65911 22.26941 19.96426
#
# Velocity S-wave (km/s) = 2.99940 3.36825 3.18917
# Velocity P-wave (km/s) = 6.87649 7.12217 7.00041
#
# Compressibility (1/GPa) = 0.01443569
#
# Stress axis : x y z
#
# Youngs Moduli (GPa) = 89.36657 75.49425 72.34279
#
# Poissons Ratio (x) = 0.17208 0.33539
# Poissons Ratio (y) = 0.20370 0.36144
# Poissons Ratio (z) = 0.41431 0.37718
#
# Static dielectric constant tensor:
#      x y z
#    x 2.023020 0.000000 0.000000 
#    y 0.000000 1.847290 0.000000 
#    z 0.000000 0.000000 1.711320 
# 
# From -- ./inp_files/14492.got.cif
#   From: 2010.05.17/outbox.cif.g08.bks.cpg/sg37_8_cif.got.tgz:14492.got - 2010.06.03 17:53:42.
