data_PCOD9354155
_publ_section_title
;
Structure prediction by ZEFSAII (Michael W. Deem and Ramdas Pophale) SiO2 
 PCOD9354155
Probable space group: C C C 2
;
_chemical_formula_sum "Si O2"
_cell_formula_units_Z 52
_cell_length_a 14.521251
_cell_length_b 17.974775
_cell_length_c 9.188567
_cell_angle_alpha 90.000000
_cell_angle_beta 90.000000
_cell_angle_gamma 90.000000
_cell_volume 2398.365020
_symmetry_space_group_name_H-M "C C C 2"
_symmetry_group_IT_number 37
_symmetry_cell_setting 'orthorhombic'
loop_
_space_group_symop_operation_xyz
x,y,z
-x,-y,z
-x,y,1/2+z
x,-y,1/2+z
1/2+x,1/2+y,z
1/2-x,1/2-y,z
1/2-x,1/2+y,1/2+z
1/2+x,1/2-y,1/2+z
loop_
_atom_site_type_symbol
_atom_site_label
_atom_site_fract_x
_atom_site_fract_y
_atom_site_fract_z
Si Si1 0.312572 0.567812 0.664490
Si Si2 0.250000 0.250000 0.388825
Si Si3 0.875943 0.629663 0.266401
Si Si4 0.344506 0.704554 0.447640
Si Si5 0.874765 0.812560 0.620117
Si Si6 0.995161 0.679277 0.523195
Si Si7 0.590257 0.451641 0.969259
O O1 0.208214 0.575846 0.725356
O O2 0.338319 0.639807 0.567374
O O3 0.374553 0.565039 0.808272
O O4 0.334085 0.496477 0.564196
O O5 0.173931 0.289606 0.290541
O O6 0.207125 0.190456 0.500730
O O7 0.945785 0.631478 0.133766
O O8 0.938947 0.628314 0.410506
O O9 0.250000 0.750000 0.459610
O O10 0.346876 0.671689 0.284165
O O11 0.431236 0.761021 0.458160
O O12 0.936774 0.877849 0.557502
O O13 0.922686 0.732469 0.606510
O O14 0.500000 0.500000 0.957832
#
# Coordination Sequence:
#
# PCOD9354155 Si02
#       7
#     8   4   8   8   8   8   8
#     4  12  26  45  69  99 144 193 240 289 349 425
#     4  10  20  38  70 100 142 180 220 292 364 418
#     4  11  22  42  66 101 140 181 234 293 358 415
#     4  12  23  39  68 106 141 182 230 291 363 424
#     4  11  23  41  67 106 145 176 228 288 357 432
#     4  11  23  38  66 105 139 179 229 293 360 417
#     4  12  27  46  69 101 144 196 238 284 352 437
#
# _framework density 21.681436000000001
#
# number of rings (size 3 to 8) (size 9 to 14) (size 15 to 20)
#    0.000    0.615    5.385    3.231    2.154    2.462 
#    0.000    0.769    0.000    2.769    0.000    0.000 
#    0.000    0.000    0.000    0.000    0.000    0.000 
#
# Total GULP energy -145335.113563 kJ/mol
# GULP energy per Si atom -5589.812060 kJ/mol
# Density = 2.163209 g / cm^3
# Si number density = 21.681436 Si / 1000 Ang^3
#
#
#
# Elastic Constant Matrix: (Units=GPa)
#
#
# Indices 1 2 3 4 5 6 
#
# 1 112.6313 17.3823 48.9456 0.0000 0.0000 0.0000
# 2 17.3823 30.2660 28.5678 0.0000 0.0000 0.0000
# 3 48.9456 28.5678 141.9774 0.0000 0.0000 0.0000
# 4 0.0000 0.0000 0.0000 29.4891 0.0000 0.0000
# 5 0.0000 0.0000 0.0000 0.0000 35.3202 0.0000
# 6 0.0000 0.0000 0.0000 0.0000 0.0000 38.8043
#
#
#
# Elastic Compliance Matrix: (Units=1/GPa)
#
#
# Indices 1 2 3 4 5 6 
#
# 1 0.010702 -0.003288 -0.003028 0.000000 0.000000 0.000000
# 2 -0.003288 0.041797 -0.007277 0.000000 0.000000 0.000000
# 3 -0.003028 -0.007277 0.009551 0.000000 0.000000 0.000000
# 4 0.000000 0.000000 0.000000 0.033911 0.000000 0.000000
# 5 0.000000 0.000000 0.000000 0.000000 0.028312 0.000000
# 6 0.000000 0.000000 0.000000 0.000000 0.000000 0.025770
#
#
# Mechanical properties :
#
#
# Convention : Reuss Voigt Hill
#
# Bulk Modulus (GPa) = 28.68206 52.74071 40.71138
# Shear Modulus (GPa) = 26.47595 33.38799 29.93197
#
# Velocity S-wave (km/s) = 3.49826 3.92846 3.71959
# Velocity P-wave (km/s) = 5.43826 6.70486 6.10450
#
# Compressibility (1/GPa) = 0.03486500
#
# Stress axis : x y z
#
# Youngs Moduli (GPa) = 93.44271 23.92505 104.69805
#
# Poissons Ratio (x) = 0.07868 0.31699
# Poissons Ratio (y) = 0.30728 0.76184
# Poissons Ratio (z) = 0.28291 0.17409
#
# Static dielectric constant tensor:
#      x y z
#    x 1.836750 0.000000 0.000000 
#    y 0.000000 1.798910 0.000000 
#    z 0.000000 0.000000 1.785750 
# 
# From -- ./inp_files/3607.got.cif
#   From: 2010.05.17/outbox.cif.g08.bks.cpg/sg37_2_cif.got.tgz:3607.got - 2010.06.03 17:53:42.
