data_PCOD9354387
_publ_section_title
;
Structure prediction by ZEFSAII (Michael W. Deem and Ramdas Pophale) SiO2 
 PCOD9354387
Probable space group: C C C 2
;
_chemical_formula_sum "Si O2"
_cell_formula_units_Z 64
_cell_length_a 15.337788
_cell_length_b 35.131548
_cell_length_c 5.386755
_cell_angle_alpha 90.000000
_cell_angle_beta 90.000000
_cell_angle_gamma 90.000000
_cell_volume 2902.600332
_symmetry_space_group_name_H-M "C C C 2"
_symmetry_group_IT_number 37
_symmetry_cell_setting 'orthorhombic'
loop_
_space_group_symop_operation_xyz
x,y,z
-x,-y,z
-x,y,1/2+z
x,-y,1/2+z
1/2+x,1/2+y,z
1/2-x,1/2-y,z
1/2-x,1/2+y,1/2+z
1/2+x,1/2-y,1/2+z
loop_
_atom_site_type_symbol
_atom_site_label
_atom_site_fract_x
_atom_site_fract_y
_atom_site_fract_z
Si Si1 0.448721 0.917631 0.345930
Si Si2 0.306735 0.977184 0.222877
Si Si3 0.948738 0.671943 0.846634
Si Si4 0.345652 0.271124 0.192141
Si Si5 0.897832 0.975705 0.740140
Si Si6 0.351792 0.759445 0.192498
Si Si7 0.610908 0.641531 0.268977
Si Si8 0.916168 0.889905 0.768660
O O1 0.484329 0.926651 0.620906
O O2 0.363640 0.940896 0.282920
O O3 0.431541 0.872689 0.335136
O O4 0.205123 0.967551 0.237943
O O5 0.325318 0.006682 0.448054
O O6 0.866701 0.697528 0.774856
O O7 0.017077 0.680518 0.623495
O O8 0.250000 0.250000 0.170607
O O9 0.390840 0.250671 0.425707
O O10 0.351460 0.315957 0.250030
O O11 0.387333 0.265088 0.922092
O O12 0.942149 0.934243 0.748762
O O13 0.913457 0.999430 0.487855
O O14 0.250000 0.750000 0.165867
O O15 0.637493 0.622252 0.526896
O O16 0.504637 0.635897 0.275250
O O17 0.634800 0.618365 0.021848
#
# Coordination Sequence:
#
# PCOD9354387 Si02
#       8
#     8   8   8   8   8   8   8   8
#     4  10  21  37  59  84 118 153 194 241 303 362
#     4  10  21  37  58  87 121 154 197 244 294 354
#     4  10  21  40  59  86 119 158 197 247 303 369
#     4  10  21  40  60  85 118 156 196 259 314 369
#     4  10  21  40  63  88 125 166 207 247 299 365
#     4  10  21  40  63  85 118 151 206 250 300 365
#     4  10  21  40  58  88 124 152 202 254 306 358
#     4  10  21  40  63  89 125 164 203 250 310 355
#
# _framework density 22.049195000000001
#
# number of rings (size 3 to 8) (size 9 to 14) (size 15 to 20)
#    0.000    2.000    0.000    3.000    0.000    1.500 
#   22.500    7.500    0.000    0.000    0.000    0.000 
#    0.000    0.000    0.000    0.000    0.000    0.000 
#
# Total GULP energy -178590.994929 kJ/mol
# GULP energy per Si atom -5580.968592 kJ/mol
# Density = 2.199901 g / cm^3
# Si number density = 22.049195 Si / 1000 Ang^3
#
#
#
# Elastic Constant Matrix: (Units=GPa)
#
#
# Indices 1 2 3 4 5 6 
#
# 1 57.2636 41.1841 -4.7503 0.0000 0.0000 0.0000
# 2 41.1841 78.6577 19.2821 0.0000 0.0000 0.0000
# 3 -4.7503 19.2821 156.6035 0.0000 0.0000 0.0000
# 4 0.0000 0.0000 0.0000 2.7530 0.0000 0.0000
# 5 0.0000 0.0000 0.0000 0.0000 10.8802 0.0000
# 6 0.0000 0.0000 0.0000 0.0000 0.0000 0.7904
#
#
#
# Elastic Compliance Matrix: (Units=1/GPa)
#
#
# Indices 1 2 3 4 5 6 
#
# 1 0.029198 -0.015987 0.002854 0.000000 0.000000 0.000000
# 2 -0.015987 0.021863 -0.003177 0.000000 0.000000 0.000000
# 3 0.002854 -0.003177 0.006863 0.000000 0.000000 0.000000
# 4 0.000000 0.000000 0.000000 0.363236 0.000000 0.000000
# 5 0.000000 0.000000 0.000000 0.000000 0.091910 0.000000
# 6 0.000000 0.000000 0.000000 0.000000 0.000000 1.265251
#
#
# Mechanical properties :
#
#
# Convention : Reuss Voigt Hill
#
# Bulk Modulus (GPa) = 39.51941 44.88406 42.20173
# Shear Modulus (GPa) = 2.74820 18.67198 10.71009
#
# Velocity S-wave (km/s) = 1.11763 2.91320 2.20633
# Velocity P-wave (km/s) = 4.43031 5.63171 5.06674
#
# Compressibility (1/GPa) = 0.02530402
#
# Stress axis : x y z
#
# Youngs Moduli (GPa) = 34.24898 45.73980 145.70291
#
# Poissons Ratio (x) = 0.73126 -0.41586
# Poissons Ratio (y) = 0.54755 0.46287
# Poissons Ratio (z) = -0.09775 0.14531
#
# Static dielectric constant tensor:
#      x y z
#    x 1.810970 0.000000 0.000000 
#    y 0.000000 1.799800 0.000000 
#    z 0.000000 0.000000 1.898060 
# 
# From -- ./inp_files/890.got.cif
#   From: 2010.05.17/outbox.cif.g08.bks.cpg/sg37_1_cif.got.tgz:890.got - 2010.06.03 17:53:42.
