data_PCOD9354160
_publ_section_title
;
Structure prediction by ZEFSAII (Michael W. Deem and Ramdas Pophale) SiO2 
 PCOD9354160
Probable space group: C C C 2
;
_chemical_formula_sum "Si O2"
_cell_formula_units_Z 60
_cell_length_a 7.667317
_cell_length_b 13.224221
_cell_length_c 26.536890
_cell_angle_alpha 90.000000
_cell_angle_beta 90.000000
_cell_angle_gamma 90.000000
_cell_volume 2690.689239
_symmetry_space_group_name_H-M "C C C 2"
_symmetry_group_IT_number 37
_symmetry_cell_setting 'orthorhombic'
loop_
_space_group_symop_operation_xyz
x,y,z
-x,-y,z
-x,y,1/2+z
x,-y,1/2+z
1/2+x,1/2+y,z
1/2-x,1/2-y,z
1/2-x,1/2+y,1/2+z
1/2+x,1/2-y,1/2+z
loop_
_atom_site_type_symbol
_atom_site_label
_atom_site_fract_x
_atom_site_fract_y
_atom_site_fract_z
Si Si1 0.000000 0.000000 0.361210
Si Si2 0.729818 0.630114 0.033917
Si Si3 0.185747 0.513336 0.630192
Si Si4 0.564003 0.111264 0.320307
Si Si5 0.785064 0.371708 0.420964
Si Si6 0.615631 0.671776 0.583571
Si Si7 0.034109 0.833414 0.289926
Si Si8 0.909005 0.175978 0.680719
O O1 0.130404 0.938856 0.397193
O O2 0.924169 0.914176 0.322987
O O3 0.750000 0.750000 0.036949
O O4 0.833640 0.579167 0.079227
O O5 0.522970 0.619746 0.046167
O O6 0.796319 0.598163 0.979260
O O7 0.268257 0.411001 0.611044
O O8 0.322563 0.571174 0.664293
O O9 0.000000 0.500000 0.655595
O O10 0.559479 0.111496 0.381423
O O11 0.766814 0.134697 0.304652
O O12 0.481921 0.217780 0.302765
O O13 0.500000 0.000000 0.302799
O O14 0.750000 0.250000 0.419418
O O15 0.750000 0.750000 0.559079
O O16 0.507686 0.717273 0.631043
O O17 0.021122 0.840837 0.230086
O O18 0.750000 0.250000 0.692753
#
# Coordination Sequence:
#
# PCOD9354160 Si02
#       8
#     4   8   8   8   8   8   8   8
#     4  10  20  38  72  86 140 172 222 278 350 398
#     4  10  21  38  69  95 132 174 221 278 345 410
#     4  11  23  43  63  94 133 173 226 284 338 414
#     4  10  21  45  68  99 143 181 228 291 349 416
#     4  10  20  40  66  96 133 178 223 284 350 408
#     4  11  23  41  64  94 136 173 221 281 336 412
#     4  10  23  42  66 101 139 180 231 289 348 414
#     4  11  24  42  66  96 129 177 227 277 346 413
#
# _framework density 22.299116999999999
#
# number of rings (size 3 to 8) (size 9 to 14) (size 15 to 20)
#    0.000    1.600    2.667    4.800    5.600    2.667 
#    0.000    0.000    0.000    0.800    0.000    0.000 
#    0.000    0.000    0.000    0.000    0.000    0.000 
#
# Total GULP energy -167405.885552 kJ/mol
# GULP energy per Si atom -5580.196185 kJ/mol
# Density = 2.224836 g / cm^3
# Si number density = 22.299117 Si / 1000 Ang^3
#
#
#
# Elastic Constant Matrix: (Units=GPa)
#
#
# Indices 1 2 3 4 5 6 
#
# 1 51.6352 23.7548 6.4529 0.0000 0.0000 0.0000
# 2 23.7548 134.4375 17.4728 0.0000 0.0000 0.0000
# 3 6.4529 17.4728 125.8141 0.0000 0.0000 0.0000
# 4 0.0000 0.0000 0.0000 8.7873 0.0000 0.0000
# 5 0.0000 0.0000 0.0000 0.0000 16.9840 0.0000
# 6 0.0000 0.0000 0.0000 0.0000 0.0000 41.2517
#
#
#
# Elastic Compliance Matrix: (Units=1/GPa)
#
#
# Indices 1 2 3 4 5 6 
#
# 1 0.021121 -0.003657 -0.000575 0.000000 0.000000 0.000000
# 2 -0.003657 0.008208 -0.000952 0.000000 0.000000 0.000000
# 3 -0.000575 -0.000952 0.008110 0.000000 0.000000 0.000000
# 4 0.000000 0.000000 0.000000 0.113801 0.000000 0.000000
# 5 0.000000 0.000000 0.000000 0.000000 0.058879 0.000000
# 6 0.000000 0.000000 0.000000 0.000000 0.000000 0.024241
#
#
# Mechanical properties :
#
#
# Convention : Reuss Voigt Hill
#
# Bulk Modulus (GPa) = 36.94203 45.24976 41.09589
# Shear Modulus (GPa) = 19.70412 31.01835 25.36123
#
# Velocity S-wave (km/s) = 2.97581 3.73367 3.37608
# Velocity P-wave (km/s) = 5.33009 6.23886 5.80229
#
# Compressibility (1/GPa) = 0.02706944
#
# Stress axis : x y z
#
# Youngs Moduli (GPa) = 47.34615 121.82631 123.30438
#
# Poissons Ratio (x) = 0.44555 0.07095
# Poissons Ratio (y) = 0.17316 0.11743
# Poissons Ratio (z) = 0.02724 0.11603
#
# Static dielectric constant tensor:
#      x y z
#    x 1.947850 0.000000 0.000000 
#    y 0.000000 1.889220 0.000000 
#    z 0.000000 0.000000 1.813200 
# 
# From -- ./inp_files/19670.got.cif
#   From: 2010.05.17/outbox.cif.g08.bks.cpg/sg37_10_cif.got.tgz:19670.got - 2010.06.03 17:53:42.
