data_PCOD9354541
_publ_section_title
;
Structure prediction by ZEFSAII (Michael W. Deem and Ramdas Pophale) SiO2 
 PCOD9354541
Probable space group: C C C 2
;
_chemical_formula_sum "Si O2"
_cell_formula_units_Z 52
_cell_length_a 15.226105
_cell_length_b 8.113400
_cell_length_c 20.249042
_cell_angle_alpha 90.000000
_cell_angle_beta 90.000000
_cell_angle_gamma 90.000000
_cell_volume 2501.475129
_symmetry_space_group_name_H-M "C C C 2"
_symmetry_group_IT_number 37
_symmetry_cell_setting 'orthorhombic'
loop_
_space_group_symop_operation_xyz
x,y,z
-x,-y,z
-x,y,1/2+z
x,-y,1/2+z
1/2+x,1/2+y,z
1/2-x,1/2-y,z
1/2-x,1/2+y,1/2+z
1/2+x,1/2-y,1/2+z
loop_
_atom_site_type_symbol
_atom_site_label
_atom_site_fract_x
_atom_site_fract_y
_atom_site_fract_z
Si Si1 0.868730 0.126254 0.328680
Si Si2 0.721966 0.066846 0.686558
Si Si3 0.097388 0.426294 0.586155
Si Si4 0.000000 0.000000 0.934528
Si Si5 0.573488 0.143994 0.944996
Si Si6 0.323424 0.000117 0.326997
Si Si7 0.412585 0.605697 0.179205
O O1 0.782043 0.013620 0.324594
O O2 0.849909 0.315325 0.346964
O O3 0.917959 0.134905 0.258325
O O4 0.922100 0.049495 0.386880
O O5 0.750000 0.250000 0.701299
O O6 0.663641 0.048995 0.621946
O O7 0.659830 0.017547 0.748644
O O8 0.813603 0.970121 0.675351
O O9 0.127651 0.395868 0.511158
O O10 0.091948 0.264527 0.632259
O O11 0.000000 0.500000 0.582858
O O12 0.969564 0.177565 0.963167
O O13 0.500000 0.000000 0.937103
O O14 0.631280 0.126983 0.877666
O O15 0.500000 0.500000 0.161138
#
# Coordination Sequence:
#
# PCOD9354541 Si02
#       7
#     8   8   8   4   8   8   8
#     4  10  21  40  69  99 129 172 224 281 341 397
#     4  11  24  43  68 102 135 177 231 282 343 416
#     4  11  25  46  66  93 136 184 224 281 344 407
#     4  12  24  42  68 102 130 178 234 280 340 412
#     4  11  26  46  66  99 141 181 227 284 341 412
#     4  10  22  43  66  96 138 175 218 283 338 402
#     4  11  22  41  68  99 132 171 226 283 339 406
#
# _framework density 20.787735000000001
#
# number of rings (size 3 to 8) (size 9 to 14) (size 15 to 20)
#    0.000    1.231    3.846    1.385    5.385    1.846 
#    8.308    0.000    0.000    0.000    0.000    0.000 
#    0.000    0.000    0.000    0.000    0.000    0.000 
#
# Total GULP energy -144850.716540 kJ/mol
# GULP energy per Si atom -5571.181405 kJ/mol
# Density = 2.074042 g / cm^3
# Si number density = 20.787735 Si / 1000 Ang^3
#
#
#
# Elastic Constant Matrix: (Units=GPa)
#
#
# Indices 1 2 3 4 5 6 
#
# 1 39.2595 5.7357 15.2492 0.0000 0.0000 0.0000
# 2 5.7357 78.4376 7.7932 0.0000 0.0000 0.0000
# 3 15.2492 7.7932 79.2046 0.0000 0.0000 0.0000
# 4 0.0000 0.0000 0.0000 13.1358 0.0000 0.0000
# 5 0.0000 0.0000 0.0000 0.0000 0.3064 0.0000
# 6 0.0000 0.0000 0.0000 0.0000 0.0000 32.9367
#
#
#
# Elastic Compliance Matrix: (Units=1/GPa)
#
#
# Indices 1 2 3 4 5 6 
#
# 1 0.027707 -0.001511 -0.005186 0.000000 0.000000 0.000000
# 2 -0.001511 0.012957 -0.000984 0.000000 0.000000 0.000000
# 3 -0.005186 -0.000984 0.013721 0.000000 0.000000 0.000000
# 4 0.000000 0.000000 0.000000 0.076128 0.000000 0.000000
# 5 0.000000 0.000000 0.000000 0.000000 3.263523 0.000000
# 6 0.000000 0.000000 0.000000 0.000000 0.000000 0.030361
#
#
# Mechanical properties :
#
#
# Convention : Reuss Voigt Hill
#
# Bulk Modulus (GPa) = 25.62558 28.27310 26.94934
# Shear Modulus (GPa) = 1.44811 20.48403 10.96607
#
# Velocity S-wave (km/s) = 0.83554 3.14250 2.29929
# Velocity P-wave (km/s) = 3.64484 5.17662 4.47673
#
# Compressibility (1/GPa) = 0.03902350
#
# Stress axis : x y z
#
# Youngs Moduli (GPa) = 36.09261 77.17702 72.88241
#
# Poissons Ratio (x) = 0.11660 0.37794
# Poissons Ratio (y) = 0.05453 0.07172
# Poissons Ratio (z) = 0.18716 0.07594
#
# Static dielectric constant tensor:
#      x y z
#    x 1.841230 0.000000 0.000000 
#    y 0.000000 1.805000 0.000000 
#    z 0.000000 0.000000 1.753080 
# 
# From -- ./inp_files/17153.got.cif
#   From: 2010.05.17/outbox.cif.g08.bks.cpg/sg37_9_cif.got.tgz:17153.got - 2010.06.03 17:53:42.
