data_PCOD9354937
_publ_section_title
;
Structure prediction by ZEFSAII (Michael W. Deem and Ramdas Pophale) SiO2 
 PCOD9354937
Probable space group: C C C 2
;
_chemical_formula_sum "Si O2"
_cell_formula_units_Z 44
_cell_length_a 17.839448
_cell_length_b 7.914562
_cell_length_c 14.495738
_cell_angle_alpha 90.000000
_cell_angle_beta 90.000000
_cell_angle_gamma 90.000000
_cell_volume 2046.673792
_symmetry_space_group_name_H-M "C C C 2"
_symmetry_group_IT_number 37
_symmetry_cell_setting 'orthorhombic'
loop_
_space_group_symop_operation_xyz
x,y,z
-x,-y,z
-x,y,1/2+z
x,-y,1/2+z
1/2+x,1/2+y,z
1/2-x,1/2-y,z
1/2-x,1/2+y,1/2+z
1/2+x,1/2-y,1/2+z
loop_
_atom_site_type_symbol
_atom_site_label
_atom_site_fract_x
_atom_site_fract_y
_atom_site_fract_z
Si Si1 0.438157 0.646061 0.053190
Si Si2 0.250000 0.750000 0.841010
Si Si3 0.162012 0.224311 0.728776
Si Si4 0.250000 0.750000 0.560356
Si Si5 0.666375 0.531515 0.917930
Si Si6 0.141399 0.599891 0.703493
Si Si7 0.500000 0.000000 0.595036
O O1 0.500000 0.500000 0.071784
O O2 0.381237 0.651337 0.140444
O O3 0.462606 0.842697 0.041785
O O4 0.397200 0.584818 0.960906
O O5 0.261025 0.584844 0.901095
O O6 0.175596 0.729029 0.777982
O O7 0.250000 0.250000 0.710073
O O8 0.137017 0.415287 0.747291
O O9 0.149419 0.116545 0.820434
O O10 0.311763 0.666402 0.495199
O O11 0.205558 0.616928 0.624468
O O12 0.060701 0.606409 0.655569
#
# Coordination Sequence:
#
# PCOD9354937 Si02
#       7
#     8   4   8   4   8   8   4
#     4  11  27  47  72 102 150 197 240 301 374 450
#     4  11  24  40  67 106 130 182 245 296 361 418
#     4  11  22  46  72 101 136 187 242 304 362 429
#     4  11  22  40  73 104 144 180 241 304 371 428
#     4  12  25  41  72 107 141 183 242 310 368 441
#     4  10  22  43  69  95 137 186 234 296 359 433
#     4  10  24  44  70  98 140 198 240 286 370 442
#
# _framework density 21.498297999999998
#
# number of rings (size 3 to 8) (size 9 to 14) (size 15 to 20)
#    0.000    1.091    2.727    2.182   11.455    0.727 
#    6.545    0.000    0.000    0.000    0.000    0.000 
#    0.000    0.000    0.000    0.000    0.000    0.000 
#
# Total GULP energy -122734.178134 kJ/mol
# GULP energy per Si atom -5578.826279 kJ/mol
# Density = 2.144937 g / cm^3
# Si number density = 21.498298 Si / 1000 Ang^3
#
#
#
# Elastic Constant Matrix: (Units=GPa)
#
#
# Indices 1 2 3 4 5 6 
#
# 1 90.0546 27.6119 44.0403 0.0000 0.0000 0.0000
# 2 27.6119 115.2996 68.3018 0.0000 0.0000 0.0000
# 3 44.0403 68.3018 98.8669 0.0000 0.0000 0.0000
# 4 0.0000 0.0000 0.0000 25.2240 0.0000 0.0000
# 5 0.0000 0.0000 0.0000 0.0000 7.3077 0.0000
# 6 0.0000 0.0000 0.0000 0.0000 0.0000 47.9410
#
#
#
# Elastic Compliance Matrix: (Units=1/GPa)
#
#
# Indices 1 2 3 4 5 6 
#
# 1 0.014221 0.000587 -0.006740 0.000000 0.000000 0.000000
# 2 0.000587 0.014706 -0.010421 0.000000 0.000000 0.000000
# 3 -0.006740 -0.010421 0.020316 0.000000 0.000000 0.000000
# 4 0.000000 0.000000 0.000000 0.039645 0.000000 0.000000
# 5 0.000000 0.000000 0.000000 0.000000 0.136843 0.000000
# 6 0.000000 0.000000 0.000000 0.000000 0.000000 0.020859
#
#
# Mechanical properties :
#
#
# Convention : Reuss Voigt Hill
#
# Bulk Modulus (GPa) = 62.13229 64.90323 63.51776
# Shear Modulus (GPa) = 17.53760 27.04567 22.29164
#
# Velocity S-wave (km/s) = 2.85926 3.55073 3.22359
# Velocity P-wave (km/s) = 6.31382 6.86045 6.59280
#
# Compressibility (1/GPa) = 0.01609469
#
# Stress axis : x y z
#
# Youngs Moduli (GPa) = 70.32064 68.00120 49.22145
#
# Poissons Ratio (x) = -0.03994 0.33177
# Poissons Ratio (y) = -0.04130 0.51293
# Poissons Ratio (z) = 0.47398 0.70864
#
# Static dielectric constant tensor:
#      x y z
#    x 1.834980 0.000000 0.000000 
#    y 0.000000 1.779730 0.000000 
#    z 0.000000 0.000000 1.760630 
# 
# From -- ./inp_files/12528.got.cif
#   From: 2010.05.17/outbox.cif.g08.bks.cpg/sg37_7_cif.got.tgz:12528.got - 2010.06.03 17:53:42.
