data_PCOD9354099
_publ_section_title
;
Structure prediction by ZEFSAII (Michael W. Deem and Ramdas Pophale) SiO2 
 PCOD9354099
Probable space group: C C C 2
;
_chemical_formula_sum "Si O2"
_cell_formula_units_Z 64
_cell_length_a 8.979308
_cell_length_b 16.109287
_cell_length_c 20.334144
_cell_angle_alpha 90.000000
_cell_angle_beta 90.000000
_cell_angle_gamma 90.000000
_cell_volume 2941.339006
_symmetry_space_group_name_H-M "C C C 2"
_symmetry_group_IT_number 37
_symmetry_cell_setting 'orthorhombic'
loop_
_space_group_symop_operation_xyz
x,y,z
-x,-y,z
-x,y,1/2+z
x,-y,1/2+z
1/2+x,1/2+y,z
1/2-x,1/2-y,z
1/2-x,1/2+y,1/2+z
1/2+x,1/2-y,1/2+z
loop_
_atom_site_type_symbol
_atom_site_label
_atom_site_fract_x
_atom_site_fract_y
_atom_site_fract_z
Si Si1 0.164830 0.002489 0.039020
Si Si2 0.615649 0.314873 0.770003
Si Si3 0.010227 0.306366 0.169397
Si Si4 0.618883 0.942540 0.758674
Si Si5 0.320214 0.666502 0.336524
Si Si6 0.320764 0.836209 0.481595
Si Si7 0.238186 0.930531 0.673027
Si Si8 0.847400 0.329202 0.032868
O O1 0.251595 0.914680 0.033059
O O2 0.143078 0.034745 0.113927
O O3 0.000000 0.000000 0.008031
O O4 0.263394 0.077013 0.010270
O O5 0.750000 0.250000 0.783945
O O6 0.537374 0.282109 0.702278
O O7 0.496767 0.323474 0.827910
O O8 0.674232 0.402269 0.743410
O O9 0.959937 0.360532 0.231965
O O10 0.901691 0.310811 0.107876
O O11 0.163302 0.352251 0.149084
O O12 0.762117 0.913170 0.797574
O O13 0.500000 0.000000 0.796575
O O14 0.658823 0.992850 0.693279
O O15 0.250000 0.750000 0.305532
O O16 0.245048 0.662290 0.407708
O O17 0.250000 0.750000 0.510415
O O18 0.499406 0.833994 0.490761
O O19 0.750000 0.250000 0.011246
#
# Coordination Sequence:
#
# PCOD9354099 Si02
#       8
#     8   8   8   8   8   8   8   8
#     4  12  26  44  68 106 151 189 240 294 361 425
#     4  10  23  40  67 106 143 185 227 294 367 428
#     4  10  20  37  67 104 142 180 226 286 367 439
#     4  10  21  38  63 101 138 177 231 279 351 424
#     4  11  24  46  72  97 134 191 242 290 345 431
#     4  11  27  50  72  99 141 196 250 301 357 429
#     4  10  22  37  64 107 146 177 224 294 360 431
#     4  12  26  43  75 108 141 193 241 301 370 436
#
# _framework density 21.758797000000001
#
# number of rings (size 3 to 8) (size 9 to 14) (size 15 to 20)
#    0.000    1.250    3.750    1.125    7.000    1.000 
#    2.250    5.000    0.000    0.000    0.000    0.000 
#    0.000    0.000    0.000    0.000    0.000    0.000 
#
# Total GULP energy -178424.721716 kJ/mol
# GULP energy per Si atom -5575.772554 kJ/mol
# Density = 2.170927 g / cm^3
# Si number density = 21.758797 Si / 1000 Ang^3
#
#
#
# Elastic Constant Matrix: (Units=GPa)
#
#
# Indices 1 2 3 4 5 6 
#
# 1 153.1383 44.9277 46.3762 0.0000 0.0000 0.0000
# 2 44.9277 90.1293 21.3680 0.0000 0.0000 0.0000
# 3 46.3762 21.3680 51.0442 0.0000 0.0000 0.0000
# 4 0.0000 0.0000 0.0000 11.7224 0.0000 0.0000
# 5 0.0000 0.0000 0.0000 0.0000 14.2568 0.0000
# 6 0.0000 0.0000 0.0000 0.0000 0.0000 24.9556
#
#
#
# Elastic Compliance Matrix: (Units=1/GPa)
#
#
# Indices 1 2 3 4 5 6 
#
# 1 0.009710 -0.003052 -0.007545 0.000000 0.000000 0.000000
# 2 -0.003052 0.013277 -0.002785 0.000000 0.000000 0.000000
# 3 -0.007545 -0.002785 0.027612 0.000000 0.000000 0.000000
# 4 0.000000 0.000000 0.000000 0.085307 0.000000 0.000000
# 5 0.000000 0.000000 0.000000 0.000000 0.070142 0.000000
# 6 0.000000 0.000000 0.000000 0.000000 0.000000 0.040071
#
#
# Mechanical properties :
#
#
# Convention : Reuss Voigt Hill
#
# Bulk Modulus (GPa) = 41.95481 57.73953 49.84717
# Shear Modulus (GPa) = 17.80456 22.29627 20.05042
#
# Velocity S-wave (km/s) = 2.86364 3.20457 3.03889
# Velocity P-wave (km/s) = 5.50069 6.34714 5.93901
#
# Compressibility (1/GPa) = 0.02383517
#
# Stress axis : x y z
#
# Youngs Moduli (GPa) = 102.98493 75.31999 36.21666
#
# Poissons Ratio (x) = 0.22985 0.27324
# Poissons Ratio (y) = 0.31427 0.10087
# Poissons Ratio (z) = 0.77699 0.20979
#
# Static dielectric constant tensor:
#      x y z
#    x 1.863530 0.000000 0.000000 
#    y 0.000000 1.782680 0.000000 
#    z 0.000000 0.000000 1.835380 
# 
# From -- ./inp_files/18497.got.cif
#   From: 2010.05.17/outbox.cif.g08.bks.cpg/sg37_10_cif.got.tgz:18497.got - 2010.06.03 17:53:42.
