data_PCOD9354519
_publ_section_title
;
Structure prediction by ZEFSAII (Michael W. Deem and Ramdas Pophale) SiO2 
 PCOD9354519
Probable space group: C C C 2
;
_chemical_formula_sum "Si O2"
_cell_formula_units_Z 60
_cell_length_a 13.068841
_cell_length_b 7.848537
_cell_length_c 27.715062
_cell_angle_alpha 90.000000
_cell_angle_beta 90.000000
_cell_angle_gamma 90.000000
_cell_volume 2842.769444
_symmetry_space_group_name_H-M "C C C 2"
_symmetry_group_IT_number 37
_symmetry_cell_setting 'orthorhombic'
loop_
_space_group_symop_operation_xyz
x,y,z
-x,-y,z
-x,y,1/2+z
x,-y,1/2+z
1/2+x,1/2+y,z
1/2-x,1/2-y,z
1/2-x,1/2+y,1/2+z
1/2+x,1/2-y,1/2+z
loop_
_atom_site_type_symbol
_atom_site_label
_atom_site_fract_x
_atom_site_fract_y
_atom_site_fract_z
Si Si1 0.619267 0.449765 0.522310
Si Si2 0.342775 0.629840 0.115429
Si Si3 0.362068 0.285384 0.176283
Si Si4 0.250000 0.250000 0.352855
Si Si5 0.424967 0.714105 0.780807
Si Si6 0.547974 0.169833 0.585753
Si Si7 0.134745 0.167810 0.815307
Si Si8 0.686454 0.576787 0.914412
O O1 0.500000 0.500000 0.525369
O O2 0.681832 0.557132 0.561782
O O3 0.614491 0.261133 0.544877
O O4 0.650538 0.470657 0.467510
O O5 0.250000 0.750000 0.131630
O O6 0.363042 0.470364 0.150717
O O7 0.450791 0.724578 0.106840
O O8 0.250000 0.250000 0.195750
O O9 0.428899 0.265692 0.223381
O O10 0.383801 0.151444 0.133503
O O11 0.342588 0.200933 0.316548
O O12 0.264932 0.413046 0.387709
O O13 0.538001 0.770915 0.796763
O O14 0.386107 0.515490 0.789346
O O15 0.500000 0.000000 0.565821
O O16 0.250000 0.250000 0.810280
O O17 0.110154 0.134560 0.871877
O O18 0.750000 0.750000 0.921473
#
# Coordination Sequence:
#
# PCOD9354519 Si02
#       8
#     8   8   8   4   8   8   8   8
#     4   9  21  39  63  89 127 169 211 262 330 399
#     4  10  22  39  63  91 124 168 213 268 330 399
#     4  11  22  39  61  89 126 166 219 265 328 397
#     4  10  22  42  66  96 136 172 224 276 342 402
#     4  10  21  40  65  90 129 178 211 279 342 387
#     4  10  22  42  59  92 130 163 214 274 327 393
#     4   9  21  40  63  93 128 169 218 271 328 399
#     4  10  22  41  63  95 128 170 220 269 329 396
#
# _framework density 21.106176999999999
#
# number of rings (size 3 to 8) (size 9 to 14) (size 15 to 20)
#    0.000    2.133    0.667    2.000    8.400    3.733 
#    4.800    6.000    0.000    0.000    0.000    0.000 
#    0.000    0.000    0.000    0.000    0.000    0.000 
#
# Total GULP energy -167010.541410 kJ/mol
# GULP energy per Si atom -5567.018047 kJ/mol
# Density = 2.105814 g / cm^3
# Si number density = 21.106177 Si / 1000 Ang^3
#
#
#
# Elastic Constant Matrix: (Units=GPa)
#
#
# Indices 1 2 3 4 5 6 
#
# 1 87.8208 9.6309 26.6228 0.0000 0.0000 0.0000
# 2 9.6309 48.1958 11.3935 0.0000 0.0000 0.0000
# 3 26.6228 11.3935 150.4839 0.0000 0.0000 0.0000
# 4 0.0000 0.0000 0.0000 -0.9642 0.0000 0.0000
# 5 0.0000 0.0000 0.0000 0.0000 18.6233 0.0000
# 6 0.0000 0.0000 0.0000 0.0000 0.0000 28.6111
#
#
#
# Elastic Compliance Matrix: (Units=1/GPa)
#
#
# Indices 1 2 3 4 5 6 
#
# 1 0.012212 -0.001965 -0.002012 0.000000 0.000000 0.000000
# 2 -0.001965 0.021443 -0.001276 0.000000 0.000000 0.000000
# 3 -0.002012 -0.001276 0.007098 0.000000 0.000000 0.000000
# 4 0.000000 0.000000 0.000000 -1.037128 0.000000 0.000000
# 5 0.000000 0.000000 0.000000 0.000000 0.053696 0.000000
# 6 0.000000 0.000000 0.000000 0.000000 0.000000 0.034951
#
#
# Mechanical properties :
#
#
# Convention : Reuss Voigt Hill
#
# Bulk Modulus (GPa) = 33.06001 42.42163 37.74082
# Shear Modulus (GPa) = -5.63609 25.17761 9.77076
#
# Velocity S-wave (km/s) = -1.63589 3.45759 2.15392
# Velocity P-wave (km/s) = 3.48274 6.00689 4.90979
#
# Compressibility (1/GPa) = 0.03024802
#
# Stress axis : x y z
#
# Youngs Moduli (GPa) = 81.88564 46.63544 140.88999
#
# Poissons Ratio (x) = 0.09163 0.28344
# Poissons Ratio (y) = 0.16088 0.17976
# Poissons Ratio (z) = 0.16473 0.05950
#
# Static dielectric constant tensor:
#      x y z
#    x 1.853290 0.000000 0.000000 
#    y 0.000000 1.860010 0.000000 
#    z 0.000000 0.000000 1.741960 
# 
# From -- ./inp_files/19796.got.cif
#   From: 2010.05.17/outbox.cif.g08.bks.cpg/sg37_10_cif.got.tgz:19796.got - 2010.06.03 17:53:42.
