data_PCOD9354199
_publ_section_title
;
Structure prediction by ZEFSAII (Michael W. Deem and Ramdas Pophale) SiO2 
 PCOD9354199
Probable space group: C C C 2
;
_chemical_formula_sum "Si O2"
_cell_formula_units_Z 48
_cell_length_a 13.861467
_cell_length_b 5.274346
_cell_length_c 27.739432
_cell_angle_alpha 90.000000
_cell_angle_beta 90.000000
_cell_angle_gamma 90.000000
_cell_volume 2028.034673
_symmetry_space_group_name_H-M "C C C 2"
_symmetry_group_IT_number 37
_symmetry_cell_setting 'orthorhombic'
loop_
_space_group_symop_operation_xyz
x,y,z
-x,-y,z
-x,y,1/2+z
x,-y,1/2+z
1/2+x,1/2+y,z
1/2-x,1/2-y,z
1/2-x,1/2+y,1/2+z
1/2+x,1/2-y,1/2+z
loop_
_atom_site_type_symbol
_atom_site_label
_atom_site_fract_x
_atom_site_fract_y
_atom_site_fract_z
Si Si1 0.643326 0.616963 0.808140
Si Si2 0.107593 0.383017 0.178758
Si Si3 0.500000 0.500000 0.735422
Si Si4 0.883129 0.496204 0.570037
Si Si5 0.812974 0.002344 0.909401
Si Si6 0.384945 0.503442 0.015896
Si Si7 0.750000 0.250000 0.748880
O O1 0.750000 0.750000 0.806568
O O2 0.555456 0.692449 0.772701
O O3 0.619926 0.575457 0.864127
O O4 0.668181 0.347163 0.784638
O O5 0.081189 0.101355 0.198012
O O6 0.142510 0.424396 0.124620
O O7 0.195530 0.450003 0.214262
O O8 0.000000 0.500000 0.183013
O O9 0.852376 0.770592 0.551040
O O10 0.000000 0.500000 0.570017
O O11 0.852953 0.272473 0.534050
O O12 0.750000 0.750000 0.917152
O O13 0.750000 0.250000 0.895525
O O14 0.859343 0.060649 0.960813
O O15 0.500000 0.500000 0.019030
#
# Coordination Sequence:
#
# PCOD9354199 Si02
#       7
#     8   8   4   8   8   8   4
#     4  10  21  39  61  89 129 163 213 266 326 381
#     4  10  21  36  63  87 124 165 214 256 328 385
#     4  10  22  36  64  94 122 174 214 264 316 412
#     4   9  20  37  63  89 125 161 206 262 321 373
#     4  11  23  41  66  90 128 169 206 264 331 380
#     4  10  21  40  64  90 122 162 211 263 314 382
#     4  10  20  40  58  88 124 160 214 258 322 384
#
# _framework density 23.668234000000002
#
# number of rings (size 3 to 8) (size 9 to 14) (size 15 to 20)
#    0.000    2.000    0.833    2.000    7.000    0.000 
#    4.500    0.000    0.000    0.000    0.000    0.000 
#    0.000    0.000    0.000    0.000    0.000    0.000 
#
# Total GULP energy -133735.420596 kJ/mol
# GULP energy per Si atom -5572.309192 kJ/mol
# Density = 2.361436 g / cm^3
# Si number density = 23.668234 Si / 1000 Ang^3
#
#
#
# Elastic Constant Matrix: (Units=GPa)
#
#
# Indices 1 2 3 4 5 6 
#
# 1 98.2527 -0.5802 17.7869 0.0000 0.0000 0.0000
# 2 -0.5802 73.2188 22.7772 0.0000 0.0000 0.0000
# 3 17.7869 22.7772 186.1543 0.0000 0.0000 0.0000
# 4 0.0000 0.0000 0.0000 25.8831 0.0000 0.0000
# 5 0.0000 0.0000 0.0000 0.0000 39.5574 0.0000
# 6 0.0000 0.0000 0.0000 0.0000 0.0000 11.2644
#
#
#
# Elastic Compliance Matrix: (Units=1/GPa)
#
#
# Indices 1 2 3 4 5 6 
#
# 1 0.010369 0.000406 -0.001040 0.000000 0.000000 0.000000
# 2 0.000406 0.014214 -0.001778 0.000000 0.000000 0.000000
# 3 -0.001040 -0.001778 0.005689 0.000000 0.000000 0.000000
# 4 0.000000 0.000000 0.000000 0.038635 0.000000 0.000000
# 5 0.000000 0.000000 0.000000 0.000000 0.025280 0.000000
# 6 0.000000 0.000000 0.000000 0.000000 0.000000 0.088775
#
#
# Mechanical properties :
#
#
# Convention : Reuss Voigt Hill
#
# Bulk Modulus (GPa) = 39.29827 48.62149 43.95988
# Shear Modulus (GPa) = 25.47529 36.51711 30.99620
#
# Velocity S-wave (km/s) = 3.28434 3.93221 3.62278
# Velocity P-wave (km/s) = 5.56977 6.41902 6.00942
#
# Compressibility (1/GPa) = 0.02544641
#
# Stress axis : x y z
#
# Youngs Moduli (GPa) = 96.44526 70.35317 175.78291
#
# Poissons Ratio (x) = -0.02855 0.18288
# Poissons Ratio (y) = -0.03914 0.31253
# Poissons Ratio (z) = 0.10034 0.12508
#
# Static dielectric constant tensor:
#      x y z
#    x 2.087220 0.000000 0.000000 
#    y 0.000000 1.986500 0.000000 
#    z 0.000000 0.000000 1.864210 
# 
# From -- ./inp_files/19343.got.cif
#   From: 2010.05.17/outbox.cif.g08.bks.cpg/sg37_10_cif.got.tgz:19343.got - 2010.06.03 17:53:42.
