data_PCOD9354039
_publ_section_title
;
Structure prediction by ZEFSAII (Michael W. Deem and Ramdas Pophale) SiO2 
 PCOD9354039
Probable space group: C C C 2
;
_chemical_formula_sum "Si O2"
_cell_formula_units_Z 52
_cell_length_a 25.577716
_cell_length_b 11.740760
_cell_length_c 8.656301
_cell_angle_alpha 90.000000
_cell_angle_beta 90.000000
_cell_angle_gamma 90.000000
_cell_volume 2599.502987
_symmetry_space_group_name_H-M "C C C 2"
_symmetry_group_IT_number 37
_symmetry_cell_setting 'orthorhombic'
loop_
_space_group_symop_operation_xyz
x,y,z
-x,-y,z
-x,y,1/2+z
x,-y,1/2+z
1/2+x,1/2+y,z
1/2-x,1/2-y,z
1/2-x,1/2+y,1/2+z
1/2+x,1/2-y,1/2+z
loop_
_atom_site_type_symbol
_atom_site_label
_atom_site_fract_x
_atom_site_fract_y
_atom_site_fract_z
Si Si1 0.180753 0.641039 0.483030
Si Si2 0.058679 0.128251 0.824976
Si Si3 0.559195 0.869131 0.981040
Si Si4 0.000000 0.500000 0.234240
Si Si5 0.500000 0.500000 0.072015
Si Si6 0.750000 0.250000 0.017377
Si Si7 0.766973 0.456879 0.786663
Si Si8 0.180207 0.855902 0.276544
O O1 0.119898 0.630546 0.526456
O O2 0.216179 0.598502 0.624717
O O3 0.192822 0.554501 0.342405
O O4 0.189991 0.769483 0.420805
O O5 0.047366 0.248566 0.903500
O O6 0.118513 0.124560 0.771389
O O7 0.020595 0.098968 0.683846
O O8 0.046642 0.037739 0.959811
O O9 0.546247 0.959096 0.846023
O O10 0.522294 0.901795 0.123455
O O11 0.796978 0.210289 0.128495
O O12 0.765114 0.356515 0.911440
O O13 0.712445 0.526584 0.784106
#
# Coordination Sequence:
#
# PCOD9354039 Si02
#       8
#     8   8   8   4   4   4   8   8
#     4  11  22  41  65  90 131 171 212 267 322 379
#     4  10  23  41  67  92 131 164 216 262 320 375
#     4  10  21  38  62  93 123 166 206 261 315 377
#     4  10  20  36  64  92 126 162 208 254 322 376
#     4  10  22  44  64  98 126 170 208 270 316 376
#     4  12  26  40  64  96 128 172 212 268 332 372
#     4  12  24  41  63  92 133 166 217 264 316 396
#     4  11  24  45  65  95 131 176 214 270 319 389
#
# _framework density 20.003823000000001
#
# number of rings (size 3 to 8) (size 9 to 14) (size 15 to 20)
#    0.000    1.231    3.077    1.846    4.308    1.231 
#    2.769    1.538    0.000    0.000    0.000    0.000 
#    0.000    0.000    0.000    0.000    0.000    0.000 
#
# Total GULP energy -145235.370346 kJ/mol
# GULP energy per Si atom -5585.975783 kJ/mol
# Density = 1.995829 g / cm^3
# Si number density = 20.003823 Si / 1000 Ang^3
#
#
#
# Elastic Constant Matrix: (Units=GPa)
#
#
# Indices 1 2 3 4 5 6 
#
# 1 97.6226 31.7346 40.3061 0.0000 0.0000 0.0000
# 2 31.7346 80.9880 34.5777 0.0000 0.0000 0.0000
# 3 40.3061 34.5777 104.0286 0.0000 0.0000 0.0000
# 4 0.0000 0.0000 0.0000 9.2818 0.0000 0.0000
# 5 0.0000 0.0000 0.0000 0.0000 8.7493 0.0000
# 6 0.0000 0.0000 0.0000 0.0000 0.0000 27.5286
#
#
#
# Elastic Compliance Matrix: (Units=1/GPa)
#
#
# Indices 1 2 3 4 5 6 
#
# 1 0.012959 -0.003419 -0.003884 0.000000 0.000000 0.000000
# 2 -0.003419 0.015292 -0.003758 0.000000 0.000000 0.000000
# 3 -0.003884 -0.003758 0.012367 0.000000 0.000000 0.000000
# 4 0.000000 0.000000 0.000000 0.107737 0.000000 0.000000
# 5 0.000000 0.000000 0.000000 0.000000 0.114295 0.000000
# 6 0.000000 0.000000 0.000000 0.000000 0.000000 0.036326
#
#
# Mechanical properties :
#
#
# Convention : Reuss Voigt Hill
#
# Bulk Modulus (GPa) = 54.07138 55.09735 54.58437
# Shear Modulus (GPa) = 15.27818 20.84667 18.06243
#
# Velocity S-wave (km/s) = 2.76662 3.23171 3.00817
# Velocity P-wave (km/s) = 6.10695 6.44426 6.27787
#
# Compressibility (1/GPa) = 0.01849407
#
# Stress axis : x y z
#
# Youngs Moduli (GPa) = 77.16733 65.39440 80.86139
#
# Poissons Ratio (x) = 0.22361 0.31410
# Poissons Ratio (y) = 0.26387 0.30387
# Poissons Ratio (z) = 0.29975 0.24575
#
# Static dielectric constant tensor:
#      x y z
#    x 1.708130 0.000000 0.000000 
#    y 0.000000 1.734910 0.000000 
#    z 0.000000 0.000000 1.703620 
# 
# From -- ./inp_files/3023.got.cif
#   From: 2010.05.17/outbox.cif.g08.bks.cpg/sg37_2_cif.got.tgz:3023.got - 2010.06.03 17:53:42.
