data_PCOD9354276
_publ_section_title
;
Structure prediction by ZEFSAII (Michael W. Deem and Ramdas Pophale) SiO2 
 PCOD9354276
Probable space group: C C C 2
;
_chemical_formula_sum "Si O2"
_cell_formula_units_Z 48
_cell_length_a 9.701446
_cell_length_b 17.894321
_cell_length_c 15.620697
_cell_angle_alpha 90.000000
_cell_angle_beta 90.000000
_cell_angle_gamma 90.000000
_cell_volume 2711.765322
_symmetry_space_group_name_H-M "C C C 2"
_symmetry_group_IT_number 37
_symmetry_cell_setting 'orthorhombic'
loop_
_space_group_symop_operation_xyz
x,y,z
-x,-y,z
-x,y,1/2+z
x,-y,1/2+z
1/2+x,1/2+y,z
1/2-x,1/2-y,z
1/2-x,1/2+y,1/2+z
1/2+x,1/2-y,1/2+z
loop_
_atom_site_type_symbol
_atom_site_label
_atom_site_fract_x
_atom_site_fract_y
_atom_site_fract_z
Si Si1 0.851689 0.034747 0.058920
Si Si2 0.354391 0.959107 0.215264
Si Si3 0.851689 0.034747 0.371607
Si Si4 0.398733 0.712183 0.043050
Si Si5 0.101267 0.212183 0.887477
Si Si6 0.594785 0.217911 0.215264
O O1 0.736802 0.021843 0.131353
O O2 0.873567 0.123796 0.052528
O O3 0.000000 0.000000 0.083576
O O4 0.816621 1.000000 0.965264
O O5 0.263198 0.978157 0.299174
O O6 0.389477 0.870718 0.215264
O O7 0.500000 0.000000 0.215263
O O8 0.873566 0.123796 0.377999
O O9 0.000000 0.000000 0.346952
O O10 0.250000 0.750000 0.029129
O O11 0.464890 0.748170 0.128422
O O12 0.500000 0.725890 0.965264
O O13 0.250000 0.250000 0.901398
O O14 0.035110 0.248170 0.802105
O O15 0.750000 0.250000 0.215264
#
# Coordination Sequence:
#
# PCOD9354276 Si02
#       6
#     8   8   8   8   8   8
#     4  11  22  42  66  97 129 170 222 267 324 389
#     4  12  25  42  66 100 133 174 215 278 326 382
#     4  11  22  42  66  97 129 170 222 267 324 389
#     4  11  21  41  69  92 125 171 215 264 325 388
#     4  11  21  41  69  92 125 171 215 264 325 388
#     4  10  20  42  66  86 127 175 206 250 335 383
#
# _framework density 17.700645999999999
#
# number of rings (size 3 to 8) (size 9 to 14) (size 15 to 20)
#    0.000    1.000   10.000    0.500    0.000    3.333 
#    0.000    0.833    0.000    0.000    0.000    0.000 
#    0.000    0.000    0.000    0.000    0.000    0.000 
#
# Total GULP energy -133914.627685 kJ/mol
# GULP energy per Si atom -5579.776154 kJ/mol
# Density = 1.766036 g / cm^3
# Si number density = 17.700646 Si / 1000 Ang^3
#
#
#
# Elastic Constant Matrix: (Units=GPa)
#
#
# Indices 1 2 3 4 5 6 
#
# 1 116.9684 72.6670 98.7661 0.0000 0.0000 0.0000
# 2 72.6670 151.6705 55.8553 0.0000 0.0000 0.0000
# 3 98.7661 55.8553 194.8034 0.0000 0.0000 0.0000
# 4 0.0000 0.0000 0.0000 27.9709 0.0000 0.0000
# 5 0.0000 0.0000 0.0000 0.0000 34.5032 0.0000
# 6 0.0000 0.0000 0.0000 0.0000 0.0000 26.0783
#
#
#
# Elastic Compliance Matrix: (Units=1/GPa)
#
#
# Indices 1 2 3 4 5 6 
#
# 1 0.019086 -0.006239 -0.007887 0.000000 0.000000 0.000000
# 2 -0.006239 0.009411 0.000465 0.000000 0.000000 0.000000
# 3 -0.007887 0.000465 0.008999 0.000000 0.000000 0.000000
# 4 0.000000 0.000000 0.000000 0.035751 0.000000 0.000000
# 5 0.000000 0.000000 0.000000 0.000000 0.028983 0.000000
# 6 0.000000 0.000000 0.000000 0.000000 0.000000 0.038346
#
#
# Mechanical properties :
#
#
# Convention : Reuss Voigt Hill
#
# Bulk Modulus (GPa) = 98.30803 102.00212 100.15507
# Shear Modulus (GPa) = 29.19007 33.45408 31.32207
#
# Velocity S-wave (km/s) = 4.06531 4.35212 4.21116
# Velocity P-wave (km/s) = 8.81450 9.11076 8.96386
#
# Compressibility (1/GPa) = 0.01017211
#
# Stress axis : x y z
#
# Youngs Moduli (GPa) = 52.39541 106.25407 111.12276
#
# Poissons Ratio (x) = 0.66297 0.87648
# Poissons Ratio (y) = 0.32692 -0.05166
# Poissons Ratio (z) = 0.41327 -0.04940
#
# Static dielectric constant tensor:
#      x y z
#    x 1.572940 0.000000 0.000000 
#    y 0.000000 1.588010 0.000000 
#    z 0.000000 0.000000 1.748010 
# 
# From -- ./inp_files/10627.got.cif
#   From: 2010.05.17/outbox.cif.g08.bks.cpg/sg37_6_cif.got.tgz:10627.got - 2010.06.03 17:53:42.
