data_PCOD9354584
_publ_section_title
;
Structure prediction by ZEFSAII (Michael W. Deem and Ramdas Pophale) SiO2 
 PCOD9354584
Probable space group: C C C 2
;
_chemical_formula_sum "Si O2"
_cell_formula_units_Z 44
_cell_length_a 5.396090
_cell_length_b 13.883393
_cell_length_c 28.059809
_cell_angle_alpha 90.000000
_cell_angle_beta 90.000000
_cell_angle_gamma 90.000000
_cell_volume 2102.129721
_symmetry_space_group_name_H-M "C C C 2"
_symmetry_group_IT_number 37
_symmetry_cell_setting 'orthorhombic'
loop_
_space_group_symop_operation_xyz
x,y,z
-x,-y,z
-x,y,1/2+z
x,-y,1/2+z
1/2+x,1/2+y,z
1/2-x,1/2-y,z
1/2-x,1/2+y,1/2+z
1/2+x,1/2-y,1/2+z
loop_
_atom_site_type_symbol
_atom_site_label
_atom_site_fract_x
_atom_site_fract_y
_atom_site_fract_z
Si Si1 0.356213 0.145700 0.138320
Si Si2 0.250000 0.250000 0.300788
Si Si3 0.750000 0.750000 0.683594
Si Si4 0.112059 0.900648 0.730009
Si Si5 0.749535 0.564814 0.930103
Si Si6 0.750000 0.250000 0.362321
Si Si7 0.748799 0.561928 0.037763
O O1 0.250000 0.250000 0.151626
O O2 0.641421 0.168052 0.147876
O O3 0.252243 0.077968 0.179903
O O4 0.277357 0.124380 0.085187
O O5 0.280207 0.154450 0.268068
O O6 0.498785 0.258749 0.331694
O O7 0.588435 0.682103 0.717906
O O8 0.000000 0.000000 0.748060
O O9 0.500000 0.500000 0.922964
O O10 0.763464 0.653954 0.894493
O O11 0.000000 0.500000 0.926176
O O12 0.735667 0.604756 0.984685
O O13 0.500000 0.500000 0.043483
O O14 0.000000 0.500000 0.038082
#
# Coordination Sequence:
#
# PCOD9354584 Si02
#       7
#     8   4   4   8   8   4   8
#     4  10  22  37  62  94 138 177 225 269 323 403
#     4  12  26  48  66 108 131 167 248 286 332 428
#     4  10  21  42  59  96 138 177 234 273 306 418
#     4  11  24  43  66  91 138 183 217 280 343 389
#     4  10  23  47  72 102 137 174 225 280 342 417
#     4  12  27  46  77  94 137 176 222 299 354 396
#     4  10  23  40  64 100 136 173 226 270 325 415
#
# _framework density 20.931155
#
# number of rings (size 3 to 8) (size 9 to 14) (size 15 to 20)
#    0.000    1.455    2.727    2.182    8.909    2.182 
#    0.000    2.727    0.000    0.000    0.000    0.000 
#    0.000    0.000    0.000    0.000    0.000    0.000 
#
# Total GULP energy -122658.614648 kJ/mol
# GULP energy per Si atom -5575.391575 kJ/mol
# Density = 2.088351 g / cm^3
# Si number density = 20.931155 Si / 1000 Ang^3
#
#
#
# Elastic Constant Matrix: (Units=GPa)
#
#
# Indices 1 2 3 4 5 6 
#
# 1 110.3199 32.4806 39.1571 0.0000 0.0000 0.0000
# 2 32.4806 96.1579 58.4948 0.0000 0.0000 0.0000
# 3 39.1571 58.4948 117.2307 0.0000 0.0000 0.0000
# 4 0.0000 0.0000 0.0000 -129.2177 0.0000 0.0000
# 5 0.0000 0.0000 0.0000 0.0000 -635.1292 0.0000
# 6 0.0000 0.0000 0.0000 0.0000 0.0000 26.7427
#
#
#
# Elastic Compliance Matrix: (Units=1/GPa)
#
#
# Indices 1 2 3 4 5 6 
#
# 1 0.010555 -0.002040 -0.002508 0.000000 0.000000 0.000000
# 2 -0.002040 0.015326 -0.006966 0.000000 0.000000 0.000000
# 3 -0.002508 -0.006966 0.012844 0.000000 0.000000 0.000000
# 4 0.000000 0.000000 0.000000 -0.007739 0.000000 0.000000
# 5 0.000000 0.000000 0.000000 0.000000 -0.001574 0.000000
# 6 0.000000 0.000000 0.000000 0.000000 0.000000 0.037393
#
#
# Mechanical properties :
#
#
# Convention : Reuss Voigt Hill
#
# Bulk Modulus (GPa) = 63.70319 64.88595 64.29457
# Shear Modulus (GPa) = 52.59562 -134.61579 -41.01008
#
# Velocity S-wave (km/s) = 5.01821 -8.02828 -4.43118
# Velocity P-wave (km/s) = 8.00483 7.40747 2.14554
#
# Compressibility (1/GPa) = 0.01569780
#
# Stress axis : x y z
#
# Youngs Moduli (GPa) = 94.73957 65.24806 77.85941
#
# Poissons Ratio (x) = 0.13310 0.19526
# Poissons Ratio (y) = 0.19325 0.54237
# Poissons Ratio (z) = 0.23759 0.45452
#
# Static dielectric constant tensor:
#      x y z
#    x 8.143210 0.000000 0.000000 
#    y 0.000000 1.733180 0.000000 
#    z 0.000000 0.000000 1.783360 
# 
# From -- ./inp_files/19288.got.cif
#   From: 2010.05.17/outbox.cif.g08.bks.cpg/sg37_10_cif.got.tgz:19288.got - 2010.06.03 17:53:42.
