data_PCOD9354178
_publ_section_title
;
Structure prediction by ZEFSAII (Michael W. Deem and Ramdas Pophale) SiO2 
 PCOD9354178
Probable space group: C C C 2
;
_chemical_formula_sum "Si O2"
_cell_formula_units_Z 64
_cell_length_a 18.334787
_cell_length_b 16.407132
_cell_length_c 9.097571
_cell_angle_alpha 90.000000
_cell_angle_beta 90.000000
_cell_angle_gamma 90.000000
_cell_volume 2736.742867
_symmetry_space_group_name_H-M "C C C 2"
_symmetry_group_IT_number 37
_symmetry_cell_setting 'orthorhombic'
loop_
_space_group_symop_operation_xyz
x,y,z
-x,-y,z
-x,y,1/2+z
x,-y,1/2+z
1/2+x,1/2+y,z
1/2-x,1/2-y,z
1/2-x,1/2+y,1/2+z
1/2+x,1/2-y,1/2+z
loop_
_atom_site_type_symbol
_atom_site_label
_atom_site_fract_x
_atom_site_fract_y
_atom_site_fract_z
Si Si1 0.213590 0.444703 0.295750
Si Si2 0.609294 0.556475 0.231964
Si Si3 0.096078 0.104059 0.899227
Si Si4 0.051904 0.289124 0.819181
Si Si5 0.332794 0.829229 0.063099
Si Si6 0.260399 0.872407 0.326684
Si Si7 0.103446 0.225131 0.323196
Si Si8 0.857308 0.676338 0.070684
O O1 0.301263 0.439314 0.256934
O O2 0.184533 0.400695 0.444164
O O3 0.199350 0.540486 0.310026
O O4 0.169377 0.399649 0.166641
O O5 0.580337 0.470037 0.287988
O O6 0.581917 0.631574 0.331541
O O7 0.582453 0.576871 0.067248
O O8 0.070275 0.193166 0.847711
O O9 0.182972 0.109950 0.890657
O O10 0.099246 0.325208 0.682537
O O11 0.965006 0.285714 0.801931
O O12 0.069062 0.331765 0.975762
O O13 0.262578 0.834571 0.166531
O O14 0.348992 0.752731 0.959605
O O15 0.302898 0.815212 0.436052
O O16 0.146154 0.244302 0.173146
#
# Coordination Sequence:
#
# PCOD9354178 Si02
#       8
#     8   8   8   8   8   8   8   8
#     4  10  21  39  66  96 130 158 202 260 326 379
#     4  11  25  42  66  95 129 166 205 257 320 383
#     4  11  25  42  66  95 129 166 205 257 320 383
#     4  11  24  43  64  90 129 172 216 258 302 366
#     4  10  24  37  65  98 123 169 210 264 313 370
#     4  10  21  39  66  96 130 158 202 260 326 379
#     4  11  24  43  64  90 129 172 216 258 302 366
#     4  10  20  39  65  90 125 167 208 252 319 374
#
# _framework density 23.385463999999999
#
# number of rings (size 3 to 8) (size 9 to 14) (size 15 to 20)
#    0.000    1.500    2.500    1.500    7.000    6.500 
#    0.000    1.250    0.000   52.500    0.000    0.000 
#    0.000    0.000    0.000    0.000    0.000    0.000 
#
# Total GULP energy -178599.419582 kJ/mol
# GULP energy per Si atom -5581.231862 kJ/mol
# Density = 2.333224 g / cm^3
# Si number density = 23.385464 Si / 1000 Ang^3
#
#
#
# Elastic Constant Matrix: (Units=GPa)
#
#
# Indices 1 2 3 4 5 6 
#
# 1 34.0880 19.4098 10.2969 0.0000 0.0000 0.0000
# 2 19.4098 95.9765 29.8642 0.0000 0.0000 0.0000
# 3 10.2969 29.8642 146.7035 0.0000 0.0000 0.0000
# 4 0.0000 0.0000 0.0000 30.4163 0.0000 0.0000
# 5 0.0000 0.0000 0.0000 0.0000 18.1439 0.0000
# 6 0.0000 0.0000 0.0000 0.0000 0.0000 20.1874
#
#
#
# Elastic Compliance Matrix: (Units=1/GPa)
#
#
# Indices 1 2 3 4 5 6 
#
# 1 0.033299 -0.006413 -0.001032 0.000000 0.000000 0.000000
# 2 -0.006413 0.012359 -0.002066 0.000000 0.000000 0.000000
# 3 -0.001032 -0.002066 0.007309 0.000000 0.000000 0.000000
# 4 0.000000 0.000000 0.000000 0.032877 0.000000 0.000000
# 5 0.000000 0.000000 0.000000 0.000000 0.055115 0.000000
# 6 0.000000 0.000000 0.000000 0.000000 0.000000 0.049536
#
#
# Mechanical properties :
#
#
# Convention : Reuss Voigt Hill
#
# Bulk Modulus (GPa) = 29.45836 43.98997 36.72416
# Shear Modulus (GPa) = 22.64162 28.22933 25.43548
#
# Velocity S-wave (km/s) = 3.11495 3.47815 3.30155
# Velocity P-wave (km/s) = 5.05584 5.91453 5.50196
#
# Compressibility (1/GPa) = 0.03394622
#
# Stress axis : x y z
#
# Youngs Moduli (GPa) = 30.03073 80.91274 136.81003
#
# Poissons Ratio (x) = 0.51891 0.14114
# Poissons Ratio (y) = 0.19259 0.28262
# Poissons Ratio (z) = 0.03098 0.16715
#
# Static dielectric constant tensor:
#      x y z
#    x 2.060510 0.000000 0.000000 
#    y 0.000000 1.888240 0.000000 
#    z 0.000000 0.000000 1.879020 
# 
# From -- ./inp_files/4656.got.cif
#   From: 2010.05.17/outbox.cif.g08.bks.cpg/sg37_3_cif.got.tgz:4656.got - 2010.06.03 17:53:42.
