data_PCOD9354643
_publ_section_title
;
Structure prediction by ZEFSAII (Michael W. Deem and Ramdas Pophale) SiO2 
 PCOD9354643
Probable space group: C C C 2
;
_chemical_formula_sum "Si O2"
_cell_formula_units_Z 48
_cell_length_a 16.506671
_cell_length_b 7.661623
_cell_length_c 15.371288
_cell_angle_alpha 90.000000
_cell_angle_beta 90.000000
_cell_angle_gamma 90.000000
_cell_volume 1943.974363
_symmetry_space_group_name_H-M "C C C 2"
_symmetry_group_IT_number 37
_symmetry_cell_setting 'orthorhombic'
loop_
_space_group_symop_operation_xyz
x,y,z
-x,-y,z
-x,y,1/2+z
x,-y,1/2+z
1/2+x,1/2+y,z
1/2-x,1/2-y,z
1/2-x,1/2+y,1/2+z
1/2+x,1/2-y,1/2+z
loop_
_atom_site_type_symbol
_atom_site_label
_atom_site_fract_x
_atom_site_fract_y
_atom_site_fract_z
Si Si1 0.314281 0.148083 0.216000
Si Si2 0.255413 0.542852 0.378079
Si Si3 0.591016 0.523176 0.198006
Si Si4 0.588656 0.003854 0.476435
Si Si5 0.413611 0.580223 0.492512
Si Si6 0.343214 0.793362 0.125511
O O1 0.250000 0.250000 0.154642
O O2 0.381422 0.291403 0.234417
O O3 0.257416 0.071205 0.291805
O O4 0.347050 0.982412 0.169069
O O5 0.250000 0.750000 0.362461
O O6 0.174019 0.487288 0.428386
O O7 0.338964 0.517989 0.431489
O O8 0.500000 0.500000 0.226253
O O9 0.636656 0.339156 0.205278
O O10 0.597512 0.523181 0.092433
O O11 0.589583 0.209402 0.502077
O O12 0.500000 0.000000 0.431203
O O13 0.595475 0.842659 0.545821
O O14 0.500000 0.500000 0.462419
O O15 0.250000 0.750000 0.097835
#
# Coordination Sequence:
#
# PCOD9354643 Si02
#       6
#     8   8   8   8   8   8
#     4  12  26  45  70 104 150 195 246 299 382 455
#     4  10  25  46  73 105 150 203 248 309 384 453
#     4  11  24  44  73 111 143 187 248 319 380 440
#     4  11  23  42  69 111 146 189 254 311 370 444
#     4  10  21  44  77 110 145 186 255 324 376 445
#     4  12  24  42  75 102 143 192 246 309 366 446
#
# _framework density 24.691683999999999
#
# number of rings (size 3 to 8) (size 9 to 14) (size 15 to 20)
#    0.000    1.000    3.333    3.500    0.000    3.333 
#    3.000    0.833    0.000    1.000    0.000    0.000 
#    0.000    0.000    0.000    0.000    0.000    0.000 
#
# Total GULP energy -133794.621079 kJ/mol
# GULP energy per Si atom -5574.775878 kJ/mol
# Density = 2.463548 g / cm^3
# Si number density = 24.691684 Si / 1000 Ang^3
#
#
#
# Elastic Constant Matrix: (Units=GPa)
#
#
# Indices 1 2 3 4 5 6 
#
# 1 182.0349 38.3720 32.4749 0.0000 0.0000 0.0000
# 2 38.3720 146.7409 19.5133 0.0000 0.0000 0.0000
# 3 32.4749 19.5133 39.4698 0.0000 0.0000 0.0000
# 4 0.0000 0.0000 0.0000 26.9915 0.0000 0.0000
# 5 0.0000 0.0000 0.0000 0.0000 16.2496 0.0000
# 6 0.0000 0.0000 0.0000 0.0000 0.0000 50.6978
#
#
#
# Elastic Compliance Matrix: (Units=1/GPa)
#
#
# Indices 1 2 3 4 5 6 
#
# 1 0.006593 -0.001073 -0.004894 0.000000 0.000000 0.000000
# 2 -0.001073 0.007469 -0.002810 0.000000 0.000000 0.000000
# 3 -0.004894 -0.002810 0.030751 0.000000 0.000000 0.000000
# 4 0.000000 0.000000 0.000000 0.037049 0.000000 0.000000
# 5 0.000000 0.000000 0.000000 0.000000 0.061540 0.000000
# 6 0.000000 0.000000 0.000000 0.000000 0.000000 0.019725
#
#
# Mechanical properties :
#
#
# Convention : Reuss Voigt Hill
#
# Bulk Modulus (GPa) = 36.68378 60.99620 48.83999
# Shear Modulus (GPa) = 26.34822 37.31347 31.83084
#
# Velocity S-wave (km/s) = 3.27018 3.89160 3.59434
# Velocity P-wave (km/s) = 5.39886 6.70444 6.08676
#
# Compressibility (1/GPa) = 0.02726000
#
# Stress axis : x y z
#
# Youngs Moduli (GPa) = 151.68240 133.88715 32.51889
#
# Poissons Ratio (x) = 0.14369 0.15914
# Poissons Ratio (y) = 0.16279 0.09136
# Poissons Ratio (z) = 0.74230 0.37616
#
# Static dielectric constant tensor:
#      x y z
#    x 2.091290 0.000000 0.000000 
#    y 0.000000 1.485350 0.000000 
#    z 0.000000 0.000000 2.051720 
# 
# From -- ./inp_files/15236.got.cif
#   From: 2010.05.17/outbox.cif.g08.bks.cpg/sg37_8_cif.got.tgz:15236.got - 2010.06.03 17:53:42.
