data_PCOD9354610
_publ_section_title
;
Structure prediction by ZEFSAII (Michael W. Deem and Ramdas Pophale) SiO2 
 PCOD9354610
Probable space group: C C C 2
;
_chemical_formula_sum "Si O2"
_cell_formula_units_Z 40
_cell_length_a 13.509514
_cell_length_b 13.929394
_cell_length_c 8.554402
_cell_angle_alpha 90.000000
_cell_angle_beta 90.000000
_cell_angle_gamma 90.000000
_cell_volume 1609.761750
_symmetry_space_group_name_H-M "C C C 2"
_symmetry_group_IT_number 37
_symmetry_cell_setting 'orthorhombic'
loop_
_space_group_symop_operation_xyz
x,y,z
-x,-y,z
-x,y,1/2+z
x,-y,1/2+z
1/2+x,1/2+y,z
1/2-x,1/2-y,z
1/2-x,1/2+y,1/2+z
1/2+x,1/2-y,1/2+z
loop_
_atom_site_type_symbol
_atom_site_label
_atom_site_fract_x
_atom_site_fract_y
_atom_site_fract_z
Si Si1 0.115018 0.000310 0.961300
Si Si2 0.303794 0.078136 0.119416
Si Si3 0.922609 0.137458 0.178150
Si Si4 0.087472 0.571336 0.922348
Si Si5 0.562218 0.759778 0.979920
O O1 0.101269 0.042408 0.786906
O O2 0.137553 0.890886 0.020037
O O3 0.000000 0.000000 0.016885
O O4 0.197464 0.064161 0.044226
O O5 0.321960 0.081865 0.302828
O O6 0.354217 0.172058 0.048447
O O7 0.367679 0.985085 0.067971
O O8 0.903657 0.215813 0.314540
O O9 0.024171 0.181272 0.104919
O O10 0.000000 0.500000 0.861509
O O11 0.033086 0.670983 0.954358
#
# Coordination Sequence:
#
# PCOD9354610 Si02
#       5
#     8   8   8   8   8
#     4  12  27  48  73 100 154 207 252 305 388 454
#     4  11  24  45  74 112 151 201 246 311 393 456
#     4  12  26  47  78 104 147 208 251 317 373 457
#     4  10  21  42  74 112 154 192 240 318 391 449
#     4  11  24  45  77 112 149 192 259 320 377 446
#
# _framework density 24.848396000000001
#
# number of rings (size 3 to 8) (size 9 to 14) (size 15 to 20)
#    0.000    0.800    4.000    3.600    2.800    0.800 
#    3.600    0.000    0.000    0.000    0.000    0.000 
#    0.000    0.000    0.000    0.000    0.000    0.000 
#
# Total GULP energy -111394.680986 kJ/mol
# GULP energy per Si atom -5569.734049 kJ/mol
# Density = 2.479184 g / cm^3
# Si number density = 24.848396 Si / 1000 Ang^3
#
#
#
# Elastic Constant Matrix: (Units=GPa)
#
#
# Indices 1 2 3 4 5 6 
#
# 1 102.5405 9.6131 50.0836 0.0000 0.0000 0.0000
# 2 9.6131 116.5234 48.3604 0.0000 0.0000 0.0000
# 3 50.0836 48.3604 100.2963 0.0000 0.0000 0.0000
# 4 0.0000 0.0000 0.0000 29.5269 0.0000 0.0000
# 5 0.0000 0.0000 0.0000 0.0000 33.2549 0.0000
# 6 0.0000 0.0000 0.0000 0.0000 0.0000 26.5310
#
#
#
# Elastic Compliance Matrix: (Units=1/GPa)
#
#
# Indices 1 2 3 4 5 6 
#
# 1 0.013287 0.002072 -0.007634 0.000000 0.000000 0.000000
# 2 0.002072 0.011052 -0.006364 0.000000 0.000000 0.000000
# 3 -0.007634 -0.006364 0.016851 0.000000 0.000000 0.000000
# 4 0.000000 0.000000 0.000000 0.033867 0.000000 0.000000
# 5 0.000000 0.000000 0.000000 0.000000 0.030071 0.000000
# 6 0.000000 0.000000 0.000000 0.000000 0.000000 0.037692
#
#
# Mechanical properties :
#
#
# Convention : Reuss Voigt Hill
#
# Bulk Modulus (GPa) = 57.67481 59.49717 58.58599
# Shear Modulus (GPa) = 28.99388 31.94944 30.47166
#
# Velocity S-wave (km/s) = 3.41960 3.58966 3.50566
# Velocity P-wave (km/s) = 6.23318 6.41693 6.32572
#
# Compressibility (1/GPa) = 0.01733859
#
# Stress axis : x y z
#
# Youngs Moduli (GPa) = 75.26393 90.47987 59.34380
#
# Poissons Ratio (x) = -0.18749 0.45302
# Poissons Ratio (y) = -0.15596 0.37765
# Poissons Ratio (z) = 0.57456 0.57580
#
# Static dielectric constant tensor:
#      x y z
#    x 1.995470 0.000000 0.000000 
#    y 0.000000 2.078300 0.000000 
#    z 0.000000 0.000000 1.989530 
# 
# From -- ./inp_files/3345.got.cif
#   From: 2010.05.17/outbox.cif.g08.bks.cpg/sg37_2_cif.got.tgz:3345.got - 2010.06.03 17:53:42.
