data_PCOD9354184
_publ_section_title
;
Structure prediction by ZEFSAII (Michael W. Deem and Ramdas Pophale) SiO2 
 PCOD9354184
Probable space group: C C C 2
;
_chemical_formula_sum "Si O2"
_cell_formula_units_Z 40
_cell_length_a 7.831124
_cell_length_b 18.286374
_cell_length_c 10.328458
_cell_angle_alpha 90.000000
_cell_angle_beta 90.000000
_cell_angle_gamma 90.000000
_cell_volume 1479.064749
_symmetry_space_group_name_H-M "C C C 2"
_symmetry_group_IT_number 37
_symmetry_cell_setting 'orthorhombic'
loop_
_space_group_symop_operation_xyz
x,y,z
-x,-y,z
-x,y,1/2+z
x,-y,1/2+z
1/2+x,1/2+y,z
1/2-x,1/2-y,z
1/2-x,1/2+y,1/2+z
1/2+x,1/2-y,1/2+z
loop_
_atom_site_type_symbol
_atom_site_label
_atom_site_fract_x
_atom_site_fract_y
_atom_site_fract_z
Si Si1 0.975603 0.324442 0.529710
Si Si2 0.805482 0.029932 0.386405
Si Si3 0.303303 0.165703 0.289423
Si Si4 0.006417 0.848732 0.481785
Si Si5 0.751105 0.431391 0.115936
O O1 0.030224 0.345853 0.381537
O O2 0.974085 0.235610 0.520796
O O3 0.142204 0.357509 0.602167
O O4 0.838786 0.350703 0.639075
O O5 0.723665 0.024985 0.247038
O O6 0.827047 0.115895 0.418388
O O7 0.711441 0.987068 0.499389
O O8 0.000000 0.000000 0.881881
O O9 0.250000 0.250000 0.287335
O O10 0.357625 0.361954 0.373506
O O11 0.942886 0.900947 0.599102
#
# Coordination Sequence:
#
# PCOD9354184 Si02
#       5
#     8   8   8   8   8
#     4  10  21  42  64  96 142 179 224 301 358 418
#     4  10  20  39  66 100 132 182 236 287 346 435
#     4   9  20  40  60  96 138 178 222 286 356 424
#     4   9  20  38  65  98 137 174 238 298 343 422
#     4  10  21  39  64  98 136 178 234 285 354 427
#
# _framework density 27.044115999999999
#
# number of rings (size 3 to 8) (size 9 to 14) (size 15 to 20)
#    0.000    2.400    0.000    3.600    5.600    0.000 
#   10.800    0.000    0.000   27.600    0.000    0.000 
#    0.000    0.000    0.000    0.000    0.000    0.000 
#
# Total GULP energy -111628.379456 kJ/mol
# GULP energy per Si atom -5581.418973 kJ/mol
# Density = 2.698256 g / cm^3
# Si number density = 27.044116 Si / 1000 Ang^3
#
#
#
# Elastic Constant Matrix: (Units=GPa)
#
#
# Indices 1 2 3 4 5 6 
#
# 1 70.8079 17.1474 44.4114 0.0000 0.0000 0.0000
# 2 17.1474 126.7051 54.7443 0.0000 0.0000 0.0000
# 3 44.4114 54.7443 244.0178 0.0000 0.0000 0.0000
# 4 0.0000 0.0000 0.0000 39.7677 0.0000 0.0000
# 5 0.0000 0.0000 0.0000 0.0000 44.6474 0.0000
# 6 0.0000 0.0000 0.0000 0.0000 0.0000 18.4475
#
#
#
# Elastic Compliance Matrix: (Units=1/GPa)
#
#
# Indices 1 2 3 4 5 6 
#
# 1 0.016058 -0.001008 -0.002696 0.000000 0.000000 0.000000
# 2 -0.001008 0.008803 -0.001791 0.000000 0.000000 0.000000
# 3 -0.002696 -0.001791 0.004991 0.000000 0.000000 0.000000
# 4 0.000000 0.000000 0.000000 0.025146 0.000000 0.000000
# 5 0.000000 0.000000 0.000000 0.000000 0.022398 0.000000
# 6 0.000000 0.000000 0.000000 0.000000 0.000000 0.054208
#
#
# Mechanical properties :
#
#
# Convention : Reuss Voigt Hill
#
# Bulk Modulus (GPa) = 53.02330 74.90410 63.96370
# Shear Modulus (GPa) = 33.58372 42.25437 37.91905
#
# Velocity S-wave (km/s) = 3.52776 3.95704 3.74855
# Velocity P-wave (km/s) = 6.02015 6.97386 6.51448
#
# Compressibility (1/GPa) = 0.01885963
#
# Stress axis : x y z
#
# Youngs Moduli (GPa) = 62.27399 113.60070 200.37300
#
# Poissons Ratio (x) = 0.11453 0.54029
# Poissons Ratio (y) = 0.06278 0.35894
# Poissons Ratio (z) = 0.16792 0.20350
#
# Static dielectric constant tensor:
#      x y z
#    x 2.278400 0.000000 0.000000 
#    y 0.000000 2.167860 0.000000 
#    z 0.000000 0.000000 2.171710 
# 
# From -- ./inp_files/2722.got.cif
#   From: 2010.05.17/outbox.cif.g08.bks.cpg/sg37_2_cif.got.tgz:2722.got - 2010.06.03 17:53:42.
