data_PCOD9354866
_publ_section_title
;
Structure prediction by ZEFSAII (Michael W. Deem and Ramdas Pophale) SiO2 
 PCOD9354866
Probable space group: C C C 2
;
_chemical_formula_sum "Si O2"
_cell_formula_units_Z 60
_cell_length_a 12.632620
_cell_length_b 24.894125
_cell_length_c 9.014284
_cell_angle_alpha 90.000000
_cell_angle_beta 90.000000
_cell_angle_gamma 90.000000
_cell_volume 2834.794196
_symmetry_space_group_name_H-M "C C C 2"
_symmetry_group_IT_number 37
_symmetry_cell_setting 'orthorhombic'
loop_
_space_group_symop_operation_xyz
x,y,z
-x,-y,z
-x,y,1/2+z
x,-y,1/2+z
1/2+x,1/2+y,z
1/2-x,1/2-y,z
1/2-x,1/2+y,1/2+z
1/2+x,1/2-y,1/2+z
loop_
_atom_site_type_symbol
_atom_site_label
_atom_site_fract_x
_atom_site_fract_y
_atom_site_fract_z
Si Si1 0.418353 0.049031 0.646150
Si Si2 0.461933 0.288938 0.757398
Si Si3 0.435820 0.634947 0.984552
Si Si4 0.750000 0.750000 0.933957
Si Si5 0.406335 0.810575 0.622514
Si Si6 0.814261 0.037774 0.087321
Si Si7 0.468274 0.879294 0.879102
Si Si8 0.088607 0.955380 0.401682
O O1 0.297488 0.035750 0.667911
O O2 0.450027 0.093244 0.766645
O O3 0.421515 0.074333 0.481622
O O4 0.500000 0.000000 0.655660
O O5 0.547533 0.318771 0.862405
O O6 0.428358 0.333040 0.637117
O O7 0.353832 0.269165 0.840461
O O8 0.523164 0.239918 0.677831
O O9 0.543531 0.600017 0.963999
O O10 0.342829 0.589766 0.984518
O O11 0.702544 0.794748 0.043842
O O12 0.391804 0.847336 0.768007
O O13 0.474108 0.840094 0.494753
O O14 0.893876 0.044420 0.226134
O O15 0.818763 0.982409 0.995774
O O16 0.000000 0.000000 0.432049
#
# Coordination Sequence:
#
# PCOD9354866 Si02
#       8
#     8   8   8   4   8   8   8   8
#     4  11  26  46  68 102 138 184 240 293 342 428
#     4  12  24  45  70 106 143 178 243 304 348 442
#     4  11  23  43  71 101 139 178 231 299 354 421
#     4  12  26  42  78 100 144 192 234 302 378 410
#     4  11  23  47  70 102 138 185 235 295 359 427
#     4  11  25  40  70  99 138 187 226 288 367 419
#     4  10  24  46  70  90 143 180 228 290 348 412
#     4  10  22  42  64  99 140 173 224 286 358 425
#
# _framework density 21.165557
#
# number of rings (size 3 to 8) (size 9 to 14) (size 15 to 20)
#    0.000    1.067    4.000    1.600    7.467    1.067 
#    2.400    1.333    0.000    0.000    0.000    0.000 
#    0.000    0.000    0.000    0.000    0.000    0.000 
#
# Total GULP energy -167340.275500 kJ/mol
# GULP energy per Si atom -5578.009183 kJ/mol
# Density = 2.111738 g / cm^3
# Si number density = 21.165557 Si / 1000 Ang^3
#
#
#
# Elastic Constant Matrix: (Units=GPa)
#
#
# Indices 1 2 3 4 5 6 
#
# 1 54.3449 22.4957 18.6597 0.0000 0.0000 0.0000
# 2 22.4957 100.3035 46.8486 0.0000 0.0000 0.0000
# 3 18.6597 46.8486 112.4657 0.0000 0.0000 0.0000
# 4 0.0000 0.0000 0.0000 41.8760 0.0000 0.0000
# 5 0.0000 0.0000 0.0000 0.0000 15.6048 0.0000
# 6 0.0000 0.0000 0.0000 0.0000 0.0000 18.2530
#
#
#
# Elastic Compliance Matrix: (Units=1/GPa)
#
#
# Indices 1 2 3 4 5 6 
#
# 1 0.020591 -0.003752 -0.001853 0.000000 0.000000 0.000000
# 2 -0.003752 0.013062 -0.004818 0.000000 0.000000 0.000000
# 3 -0.001853 -0.004818 0.011206 0.000000 0.000000 0.000000
# 4 0.000000 0.000000 0.000000 0.023880 0.000000 0.000000
# 5 0.000000 0.000000 0.000000 0.000000 0.064083 0.000000
# 6 0.000000 0.000000 0.000000 0.000000 0.000000 0.054785
#
#
# Mechanical properties :
#
#
# Convention : Reuss Voigt Hill
#
# Bulk Modulus (GPa) = 41.64831 49.23579 45.44205
# Shear Modulus (GPa) = 23.09912 27.08745 25.09328
#
# Velocity S-wave (km/s) = 3.30715 3.58130 3.44695
# Velocity P-wave (km/s) = 5.85688 6.35717 6.11215
#
# Compressibility (1/GPa) = 0.02401058
#
# Stress axis : x y z
#
# Youngs Moduli (GPa) = 48.56593 76.55866 89.23602
#
# Poissons Ratio (x) = 0.28728 0.16537
# Poissons Ratio (y) = 0.18224 0.42998
# Poissons Ratio (z) = 0.09000 0.36889
#
# Static dielectric constant tensor:
#      x y z
#    x 1.870520 0.000000 0.000000 
#    y 0.000000 1.865180 0.000000 
#    z 0.000000 0.000000 1.762720 
# 
# From -- ./inp_files/3061.got.cif
#   From: 2010.05.17/outbox.cif.g08.bks.cpg/sg37_2_cif.got.tgz:3061.got - 2010.06.03 17:53:42.
