data_PCOD9354021
_publ_section_title
;
Structure prediction by ZEFSAII (Michael W. Deem and Ramdas Pophale) SiO2 
 PCOD9354021
Probable space group: C C C 2
;
_chemical_formula_sum "Si O2"
_cell_formula_units_Z 64
_cell_length_a 17.521147
_cell_length_b 8.922761
_cell_length_c 21.530853
_cell_angle_alpha 90.000000
_cell_angle_beta 90.000000
_cell_angle_gamma 90.000000
_cell_volume 3366.069119
_symmetry_space_group_name_H-M "C C C 2"
_symmetry_group_IT_number 37
_symmetry_cell_setting 'orthorhombic'
loop_
_space_group_symop_operation_xyz
x,y,z
-x,-y,z
-x,y,1/2+z
x,-y,1/2+z
1/2+x,1/2+y,z
1/2-x,1/2-y,z
1/2-x,1/2+y,1/2+z
1/2+x,1/2-y,1/2+z
loop_
_atom_site_type_symbol
_atom_site_label
_atom_site_fract_x
_atom_site_fract_y
_atom_site_fract_z
Si Si1 0.665620 0.183507 0.498650
Si Si2 0.165327 0.689479 0.122661
Si Si3 0.097834 0.143318 0.741845
Si Si4 0.161465 0.703408 0.364151
Si Si5 0.419665 0.693340 0.747648
Si Si6 0.079682 0.597472 0.868005
Si Si7 0.167110 0.330788 0.133526
Si Si8 0.834054 0.325236 0.986332
O O1 0.750000 0.250000 0.500786
O O2 0.629759 0.238858 0.433746
O O3 0.631342 0.215444 0.566383
O O4 0.676015 0.004767 0.492841
O O5 0.250000 0.750000 0.116952
O O6 0.131025 0.773599 0.181753
O O7 0.170194 0.511113 0.133142
O O8 0.132392 0.722737 0.053614
O O9 0.121927 0.218469 0.806414
O O10 0.007753 0.160754 0.735093
O O11 0.120294 0.969176 0.748059
O O12 0.250000 0.750000 0.363474
O O13 0.145245 0.527134 0.356386
O O14 0.419216 0.788244 0.810894
O O15 0.382884 0.783709 0.691583
O O16 0.105703 0.686205 0.930011
O O17 0.000000 0.500000 0.872953
O O18 0.250000 0.250000 0.138164
O O19 0.750000 0.250000 0.975152
#
# Coordination Sequence:
#
# PCOD9354021 Si02
#       8
#     8   8   8   8   8   8   8   8
#     4   8  17  34  57  89 117 150 190 249 301 359
#     4  10  20  38  62  88 121 158 196 253 314 363
#     4  11  23  41  56  84 121 163 204 253 307 370
#     4  10  20  37  64  89 117 157 200 245 307 366
#     4  11  25  39  57  82 121 162 206 253 307 364
#     4  11  22  41  63  90 127 163 204 257 316 370
#     4  10  20  36  60  91 118 154 203 251 302 370
#     4   9  20  37  60  92 120 154 202 254 304 367
#
# _framework density 19.013276000000001
#
# number of rings (size 3 to 8) (size 9 to 14) (size 15 to 20)
#    0.000    2.000    1.250    1.875    0.000    5.500 
#    6.750    0.000    0.000    3.000    0.000    0.000 
#    0.000    0.000    0.000    0.000    0.000    0.000 
#
# Total GULP energy -178210.422467 kJ/mol
# GULP energy per Si atom -5569.075702 kJ/mol
# Density = 1.897000 g / cm^3
# Si number density = 19.013276 Si / 1000 Ang^3
#
#
#
# Elastic Constant Matrix: (Units=GPa)
#
#
# Indices 1 2 3 4 5 6 
#
# 1 47.3330 26.2550 54.6468 0.0000 0.0000 0.0000
# 2 26.2550 75.1495 75.4472 0.0000 0.0000 0.0000
# 3 54.6468 75.4472 220.2556 0.0000 0.0000 0.0000
# 4 0.0000 0.0000 0.0000 26.5760 0.0000 0.0000
# 5 0.0000 0.0000 0.0000 0.0000 -6.8257 0.0000
# 6 0.0000 0.0000 0.0000 0.0000 0.0000 28.7036
#
#
#
# Elastic Compliance Matrix: (Units=1/GPa)
#
#
# Indices 1 2 3 4 5 6 
#
# 1 0.030653 -0.004685 -0.006000 0.000000 0.000000 0.000000
# 2 -0.004685 0.020998 -0.006030 0.000000 0.000000 0.000000
# 3 -0.006000 -0.006030 0.008095 0.000000 0.000000 0.000000
# 4 0.000000 0.000000 0.000000 0.037628 0.000000 0.000000
# 5 0.000000 0.000000 0.000000 0.000000 -0.146506 0.000000
# 6 0.000000 0.000000 0.000000 0.000000 0.000000 0.034839
#
#
# Mechanical properties :
#
#
# Convention : Reuss Voigt Hill
#
# Bulk Modulus (GPa) = 38.00260 72.82624 55.41442
# Shear Modulus (GPa) = 179.14805 22.11670 100.63238
#
# Velocity S-wave (km/s) = 9.71736 3.41431 7.28302
# Velocity P-wave (km/s) = 12.08030 7.34366 9.99657
#
# Compressibility (1/GPa) = 0.02631399
#
# Stress axis : x y z
#
# Youngs Moduli (GPa) = 32.62292 47.62398 123.53999
#
# Poissons Ratio (x) = 0.22313 0.74129
# Poissons Ratio (y) = 0.15284 0.74498
# Poissons Ratio (z) = 0.19575 0.28718
#
# Static dielectric constant tensor:
#      x y z
#    x 1.799130 0.000000 0.000000 
#    y 0.000000 1.884440 0.000000 
#    z 0.000000 0.000000 1.736150 
# 
# From -- ./inp_files/17330.got.cif
#   From: 2010.05.17/outbox.cif.g08.bks.cpg/sg37_9_cif.got.tgz:17330.got - 2010.06.03 17:53:42.
