data_PCOD9354769
_publ_section_title
;
Structure prediction by ZEFSAII (Michael W. Deem and Ramdas Pophale) SiO2 
 PCOD9354769
Probable space group: C C C 2
;
_chemical_formula_sum "Si O2"
_cell_formula_units_Z 40
_cell_length_a 16.975006
_cell_length_b 14.824801
_cell_length_c 7.807346
_cell_angle_alpha 90.000000
_cell_angle_beta 90.000000
_cell_angle_gamma 90.000000
_cell_volume 1964.727099
_symmetry_space_group_name_H-M "C C C 2"
_symmetry_group_IT_number 37
_symmetry_cell_setting 'orthorhombic'
loop_
_space_group_symop_operation_xyz
x,y,z
-x,-y,z
-x,y,1/2+z
x,-y,1/2+z
1/2+x,1/2+y,z
1/2-x,1/2-y,z
1/2-x,1/2+y,1/2+z
1/2+x,1/2-y,1/2+z
loop_
_atom_site_type_symbol
_atom_site_label
_atom_site_fract_x
_atom_site_fract_y
_atom_site_fract_z
Si Si1 0.304640 0.338860 0.616750
Si Si2 0.655367 0.091194 0.262777
Si Si3 0.416593 0.268960 0.317920
Si Si4 0.401288 0.723285 0.422887
Si Si5 0.076548 0.435246 0.424820
O O1 0.250000 0.250000 0.612286
O O2 0.236214 0.410300 0.655344
O O3 0.361157 0.322419 0.453457
O O4 0.356181 0.339682 0.789027
O O5 0.637314 0.178271 0.380877
O O6 0.645881 0.001569 0.370113
O O7 0.585851 0.092773 0.121694
O O8 0.507331 0.282668 0.370614
O O9 0.412523 0.159191 0.327355
O O10 0.396065 0.296059 0.124079
O O11 0.000000 0.500000 0.407390
#
# Coordination Sequence:
#
# PCOD9354769 Si02
#       5
#     8   8   8   8   8
#     4  10  22  40  55  86 129 156 209 256 291 368
#     4  11  23  38  54  92 131 159 205 255 299 377
#     4  12  21  38  64  88 121 166 201 251 307 371
#     4  11  21  37  61  87 118 162 210 245 299 366
#     4  12  22  35  59  88 128 167 193 238 313 380
#
# _framework density 20.359061000000001
#
# number of rings (size 3 to 8) (size 9 to 14) (size 15 to 20)
#    0.000    0.800    8.000    1.800    0.000    2.400 
#    3.600    0.000    0.000    0.000    0.000    4.200 
#    0.000    0.000    0.000    0.000    0.000    0.000 
#
# Total GULP energy -111404.479042 kJ/mol
# GULP energy per Si atom -5570.223952 kJ/mol
# Density = 2.031272 g / cm^3
# Si number density = 20.359061 Si / 1000 Ang^3
#
#
#
# Elastic Constant Matrix: (Units=GPa)
#
#
# Indices 1 2 3 4 5 6 
#
# 1 124.0709 27.4016 63.6557 0.0000 0.0000 0.0000
# 2 27.4016 23.5862 20.4137 0.0000 0.0000 0.0000
# 3 63.6557 20.4137 179.0068 0.0000 0.0000 0.0000
# 4 0.0000 0.0000 0.0000 6.4613 0.0000 0.0000
# 5 0.0000 0.0000 0.0000 0.0000 36.7967 0.0000
# 6 0.0000 0.0000 0.0000 0.0000 0.0000 18.3125
#
#
#
# Elastic Compliance Matrix: (Units=1/GPa)
#
#
# Indices 1 2 3 4 5 6 
#
# 1 0.012143 -0.011506 -0.003006 0.000000 0.000000 0.000000
# 2 -0.011506 0.057942 -0.002516 0.000000 0.000000 0.000000
# 3 -0.003006 -0.002516 0.006942 0.000000 0.000000 0.000000
# 4 0.000000 0.000000 0.000000 0.154768 0.000000 0.000000
# 5 0.000000 0.000000 0.000000 0.000000 0.027176 0.000000
# 6 0.000000 0.000000 0.000000 0.000000 0.000000 0.054607
#
#
# Mechanical properties :
#
#
# Convention : Reuss Voigt Hill
#
# Bulk Modulus (GPa) = 23.27108 61.06732 42.16920
# Shear Modulus (GPa) = 13.81366 26.66030 20.23698
#
# Velocity S-wave (km/s) = 2.60763 3.62263 3.15620
# Velocity P-wave (km/s) = 4.53006 6.89625 5.83437
#
# Compressibility (1/GPa) = 0.04297180
#
# Stress axis : x y z
#
# Youngs Moduli (GPa) = 82.34951 17.25849 144.04444
#
# Poissons Ratio (x) = 0.19858 0.43301
# Poissons Ratio (y) = 0.94751 0.36243
# Poissons Ratio (z) = 0.24755 0.04342
#
# Static dielectric constant tensor:
#      x y z
#    x 1.837970 0.000000 0.000000 
#    y 0.000000 1.794760 0.000000 
#    z 0.000000 0.000000 1.756660 
# 
# From -- ./inp_files/3344.got.cif
#   From: 2010.05.17/outbox.cif.g08.bks.cpg/sg37_2_cif.got.tgz:3344.got - 2010.06.03 17:53:42.
