data_PCOD9354145
_publ_section_title
;
Structure prediction by ZEFSAII (Michael W. Deem and Ramdas Pophale) SiO2 
 PCOD9354145
Probable space group: C C C 2
;
_chemical_formula_sum "Si O2"
_cell_formula_units_Z 52
_cell_length_a 8.661211
_cell_length_b 15.067004
_cell_length_c 19.038700
_cell_angle_alpha 90.000000
_cell_angle_beta 90.000000
_cell_angle_gamma 90.000000
_cell_volume 2484.521807
_symmetry_space_group_name_H-M "C C C 2"
_symmetry_group_IT_number 37
_symmetry_cell_setting 'orthorhombic'
loop_
_space_group_symop_operation_xyz
x,y,z
-x,-y,z
-x,y,1/2+z
x,-y,1/2+z
1/2+x,1/2+y,z
1/2-x,1/2-y,z
1/2-x,1/2+y,1/2+z
1/2+x,1/2-y,1/2+z
loop_
_atom_site_type_symbol
_atom_site_label
_atom_site_fract_x
_atom_site_fract_y
_atom_site_fract_z
Si Si1 0.599563 0.128784 0.880380
Si Si2 0.500000 0.500000 0.767312
Si Si3 0.397302 0.587151 0.508571
Si Si4 0.229884 0.439232 0.872201
Si Si5 0.579413 0.765509 0.525846
Si Si6 0.894576 0.583638 0.105504
Si Si7 0.761722 0.852118 0.234577
O O1 0.425797 0.112235 0.851724
O O2 0.708001 0.153942 0.815347
O O3 0.669023 0.033433 0.902954
O O4 0.594082 0.193264 0.947080
O O5 0.358547 0.460308 0.813840
O O6 0.582772 0.413761 0.730633
O O7 0.500000 0.500000 0.498036
O O8 0.310678 0.609628 0.436273
O O9 0.500585 0.670649 0.525723
O O10 0.269706 0.572320 0.567821
O O11 0.750000 0.750000 0.554638
O O12 0.478803 0.832307 0.571683
O O13 0.862412 0.595778 0.187680
O O14 0.000000 0.500000 0.090931
O O15 0.750000 0.750000 0.207742
#
# Coordination Sequence:
#
# PCOD9354145 Si02
#       7
#     8   4   8   8   8   8   8
#     4  10  22  40  69  97 139 179 227 288 347 415
#     4  10  24  42  70 100 140 182 238 288 358 430
#     4  12  24  41  70 102 138 180 230 291 345 414
#     4  10  20  38  65 101 136 173 228 284 351 405
#     4  12  25  43  71 104 139 180 239 286 352 419
#     4  12  27  48  70  97 140 189 229 292 354 418
#     4  11  26  47  69  99 142 182 235 291 357 423
#
# _framework density 20.929579
#
# number of rings (size 3 to 8) (size 9 to 14) (size 15 to 20)
#    0.000    0.923    2.308    4.615    9.692    0.000 
#    2.769    0.000    0.000    0.000    0.000    0.000 
#    0.000    0.000    0.000    0.000    0.000    0.000 
#
# Total GULP energy -145231.096568 kJ/mol
# GULP energy per Si atom -5585.811406 kJ/mol
# Density = 2.088194 g / cm^3
# Si number density = 20.929579 Si / 1000 Ang^3
#
#
#
# Elastic Constant Matrix: (Units=GPa)
#
#
# Indices 1 2 3 4 5 6 
#
# 1 118.7489 43.3003 5.6041 0.0000 0.0000 0.0000
# 2 43.3003 102.4701 -2.2849 0.0000 0.0000 0.0000
# 3 5.6041 -2.2849 41.7514 0.0000 0.0000 0.0000
# 4 0.0000 0.0000 0.0000 14.4350 0.0000 0.0000
# 5 0.0000 0.0000 0.0000 0.0000 28.5993 0.0000
# 6 0.0000 0.0000 0.0000 0.0000 0.0000 41.3753
#
#
#
# Elastic Compliance Matrix: (Units=1/GPa)
#
#
# Indices 1 2 3 4 5 6 
#
# 1 0.010059 -0.004286 -0.001585 0.000000 0.000000 0.000000
# 2 -0.004286 0.011597 0.001210 0.000000 0.000000 0.000000
# 3 -0.001585 0.001210 0.024230 0.000000 0.000000 0.000000
# 4 0.000000 0.000000 0.000000 0.069276 0.000000 0.000000
# 5 0.000000 0.000000 0.000000 0.000000 0.034966 0.000000
# 6 0.000000 0.000000 0.000000 0.000000 0.000000 0.024169
#
#
# Mechanical properties :
#
#
# Convention : Reuss Voigt Hill
#
# Bulk Modulus (GPa) = 27.34876 39.57884 33.46380
# Shear Modulus (GPa) = 25.53549 31.30531 28.42040
#
# Velocity S-wave (km/s) = 3.49674 3.87168 3.68898
# Velocity P-wave (km/s) = 5.42202 6.24004 5.84536
#
# Compressibility (1/GPa) = 0.03656474
#
# Stress axis : x y z
#
# Youngs Moduli (GPa) = 99.41672 86.22956 41.27081
#
# Poissons Ratio (x) = 0.36956 0.06540
# Poissons Ratio (y) = 0.42608 -0.04993
# Poissons Ratio (z) = 0.15754 -0.10433
#
# Static dielectric constant tensor:
#      x y z
#    x 1.743880 0.000000 0.000000 
#    y 0.000000 1.755540 0.000000 
#    z 0.000000 0.000000 1.742220 
# 
# From -- ./inp_files/16397.got.cif
#   From: 2010.05.17/outbox.cif.g08.bks.cpg/sg37_9_cif.got.tgz:16397.got - 2010.06.03 17:53:42.
