data_PCOD9354798
_publ_section_title
;
Structure prediction by ZEFSAII (Michael W. Deem and Ramdas Pophale) SiO2 
 PCOD9354798
Probable space group: C C C 2
;
_chemical_formula_sum "Si O2"
_cell_formula_units_Z 64
_cell_length_a 9.041382
_cell_length_b 15.465842
_cell_length_c 20.328243
_cell_angle_alpha 90.000000
_cell_angle_beta 90.000000
_cell_angle_gamma 90.000000
_cell_volume 2842.550777
_symmetry_space_group_name_H-M "C C C 2"
_symmetry_group_IT_number 37
_symmetry_cell_setting 'orthorhombic'
loop_
_space_group_symop_operation_xyz
x,y,z
-x,-y,z
-x,y,1/2+z
x,-y,1/2+z
1/2+x,1/2+y,z
1/2-x,1/2-y,z
1/2-x,1/2+y,1/2+z
1/2+x,1/2-y,1/2+z
loop_
_atom_site_type_symbol
_atom_site_label
_atom_site_fract_x
_atom_site_fract_y
_atom_site_fract_z
Si Si1 0.572984 0.257196 0.909580
Si Si2 0.191193 0.350450 0.723766
Si Si3 0.856367 0.181072 0.050652
Si Si4 0.896833 0.922410 0.125567
Si Si5 0.788077 0.151164 0.745612
Si Si6 0.836143 0.540388 0.584278
Si Si7 0.055000 0.097013 0.815374
Si Si8 0.961471 0.598879 0.324621
O O1 0.750000 0.250000 0.893909
O O2 0.486981 0.335085 0.872667
O O3 0.508683 0.166678 0.882780
O O4 0.570947 0.277815 0.986432
O O5 0.250000 0.250000 0.720602
O O6 0.185621 0.408971 0.656163
O O7 0.284066 0.396677 0.783020
O O8 0.030174 0.359377 0.757498
O O9 0.750000 0.250000 0.084840
O O10 0.730057 0.110202 0.032951
O O11 0.987162 0.144757 0.095786
O O12 0.771378 0.887124 0.174069
O O13 0.789845 0.967950 0.073730
O O14 0.000000 0.000000 0.153304
O O15 0.750000 0.250000 0.748151
O O16 0.960888 0.135840 0.754904
O O17 0.710084 0.100989 0.804121
O O18 0.000000 0.500000 0.579005
O O19 0.000000 0.000000 0.830030
O O20 0.000000 0.500000 0.337260
#
# Coordination Sequence:
#
# PCOD9354798 Si02
#       8
#     8   8   8   8   8   8   8   8
#     4  11  23  47  68  93 131 190 246 287 347 423
#     4  12  23  38  65 109 148 179 219 289 363 435
#     4  10  24  46  72  88 135 189 241 297 357 422
#     4  10  22  40  66 102 137 182 235 287 353 442
#     4  12  21  39  64  97 139 180 218 275 356 428
#     4  11  23  42  69 107 144 183 235 295 370 440
#     4  12  22  37  63  96 135 182 232 273 340 415
#     4  12  23  40  68 103 144 178 225 298 359 422
#
# _framework density 22.514987999999999
#
# number of rings (size 3 to 8) (size 9 to 14) (size 15 to 20)
#    0.000    0.750    3.750    5.625    0.000    3.500 
#    0.000    2.500   13.750    0.000    0.000    0.000 
#    0.000    0.000    0.000    0.000    0.000    0.000 
#
# Total GULP energy -178227.285866 kJ/mol
# GULP energy per Si atom -5569.602683 kJ/mol
# Density = 2.246374 g / cm^3
# Si number density = 22.514988 Si / 1000 Ang^3
#
#
#
# Elastic Constant Matrix: (Units=GPa)
#
#
# Indices 1 2 3 4 5 6 
#
# 1 63.8180 35.4747 -4.0671 0.0000 0.0000 0.0000
# 2 35.4747 178.6886 47.2580 0.0000 0.0000 0.0000
# 3 -4.0671 47.2580 87.0353 0.0000 0.0000 0.0000
# 4 0.0000 0.0000 0.0000 20.9923 0.0000 0.0000
# 5 0.0000 0.0000 0.0000 0.0000 1.2126 0.0000
# 6 0.0000 0.0000 0.0000 0.0000 0.0000 41.0596
#
#
#
# Elastic Compliance Matrix: (Units=1/GPa)
#
#
# Indices 1 2 3 4 5 6 
#
# 1 0.018400 -0.004531 0.003320 0.000000 0.000000 0.000000
# 2 -0.004531 0.007650 -0.004366 0.000000 0.000000 0.000000
# 3 0.003320 -0.004366 0.014015 0.000000 0.000000 0.000000
# 4 0.000000 0.000000 0.000000 0.047637 0.000000 0.000000
# 5 0.000000 0.000000 0.000000 0.000000 0.824675 0.000000
# 6 0.000000 0.000000 0.000000 0.000000 0.000000 0.024355
#
#
# Mechanical properties :
#
#
# Convention : Reuss Voigt Hill
#
# Bulk Modulus (GPa) = 34.58759 54.09700 44.34230
# Shear Modulus (GPa) = 5.22181 29.37799 17.29990
#
# Velocity S-wave (km/s) = 1.52456 3.61615 2.77496
# Velocity P-wave (km/s) = 4.30052 6.44318 5.47764
#
# Compressibility (1/GPa) = 0.02891210
#
# Stress axis : x y z
#
# Youngs Moduli (GPa) = 54.34855 130.71125 71.35107
#
# Poissons Ratio (x) = 0.59224 -0.23688
# Poissons Ratio (y) = 0.24625 0.31150
# Poissons Ratio (z) = -0.18044 0.57065
#
# Static dielectric constant tensor:
#      x y z
#    x 1.824940 0.000000 0.000000 
#    y 0.000000 1.946220 0.000000 
#    z 0.000000 0.000000 1.890330 
# 
# From -- ./inp_files/18437.got.cif
#   From: 2010.05.17/outbox.cif.g08.bks.cpg/sg37_10_cif.got.tgz:18437.got - 2010.06.03 17:53:42.
