data_PCOD9354444
_publ_section_title
;
Structure prediction by ZEFSAII (Michael W. Deem and Ramdas Pophale) SiO2 
 PCOD9354444
Probable space group: C C C 2
;
_chemical_formula_sum "Si O2"
_cell_formula_units_Z 48
_cell_length_a 8.737054
_cell_length_b 13.462458
_cell_length_c 19.398483
_cell_angle_alpha 90.000000
_cell_angle_beta 90.000000
_cell_angle_gamma 90.000000
_cell_volume 2281.692684
_symmetry_space_group_name_H-M "C C C 2"
_symmetry_group_IT_number 37
_symmetry_cell_setting 'orthorhombic'
loop_
_space_group_symop_operation_xyz
x,y,z
-x,-y,z
-x,y,1/2+z
x,-y,1/2+z
1/2+x,1/2+y,z
1/2-x,1/2-y,z
1/2-x,1/2+y,1/2+z
1/2+x,1/2-y,1/2+z
loop_
_atom_site_type_symbol
_atom_site_label
_atom_site_fract_x
_atom_site_fract_y
_atom_site_fract_z
Si Si1 0.425609 0.776515 0.325730
Si Si2 0.499600 0.792517 0.171089
Si Si3 0.156249 0.353798 0.424608
Si Si4 0.120739 0.075584 0.316428
Si Si5 0.323908 0.405966 0.161646
Si Si6 0.341608 0.938870 0.075896
O O1 0.250000 0.750000 0.335225
O O2 0.445684 0.819742 0.248712
O O3 0.488858 0.832216 0.393258
O O4 0.537396 0.681609 0.317892
O O5 0.540000 0.676171 0.156330
O O6 0.664630 0.844972 0.161982
O O7 0.375585 0.840201 0.120360
O O8 0.250000 0.250000 0.430905
O O9 0.232994 0.416573 0.363663
O O10 0.170650 0.409050 0.496518
O O11 0.159512 0.048357 0.238045
O O12 0.000000 0.000000 0.346669
O O13 0.295187 0.492695 0.106016
O O14 0.500000 0.000000 0.083420
#
# Coordination Sequence:
#
# PCOD9354444 Si02
#       6
#     8   8   8   8   8   8
#     4  10  21  38  65  93 118 165 216 260 323 380
#     4   9  18  38  65  88 124 167 210 270 318 381
#     4  10  22  45  62  86 135 172 199 262 334 388
#     4  10  21  39  63  92 122 161 214 262 311 378
#     4   9  18  39  64  88 125 167 210 266 321 379
#     4  10  22  39  61  96 126 166 215 258 331 387
#
# _framework density 21.037013000000002
#
# number of rings (size 3 to 8) (size 9 to 14) (size 15 to 20)
#    0.000    2.333    1.667    0.000    2.333    2.000 
#   15.000    0.000    0.000    0.000    0.000    0.000 
#    0.000    0.000    0.000    0.000    0.000    0.000 
#
# Total GULP energy -133870.036941 kJ/mol
# GULP energy per Si atom -5577.918206 kJ/mol
# Density = 2.098913 g / cm^3
# Si number density = 21.037013 Si / 1000 Ang^3
#
#
#
# Elastic Constant Matrix: (Units=GPa)
#
#
# Indices 1 2 3 4 5 6 
#
# 1 76.4228 29.5703 41.6813 0.0000 0.0000 0.0000
# 2 29.5703 54.8853 55.4337 0.0000 0.0000 0.0000
# 3 41.6813 55.4337 153.4086 0.0000 0.0000 0.0000
# 4 0.0000 0.0000 0.0000 -190.9840 0.0000 0.0000
# 5 0.0000 0.0000 0.0000 0.0000 -31.8644 0.0000
# 6 0.0000 0.0000 0.0000 0.0000 0.0000 20.4741
#
#
#
# Elastic Compliance Matrix: (Units=1/GPa)
#
#
# Indices 1 2 3 4 5 6 
#
# 1 0.016932 -0.007048 -0.002054 0.000000 0.000000 0.000000
# 2 -0.007048 0.031625 -0.009512 0.000000 0.000000 0.000000
# 3 -0.002054 -0.009512 0.010514 0.000000 0.000000 0.000000
# 4 0.000000 0.000000 0.000000 -0.005236 0.000000 0.000000
# 5 0.000000 0.000000 0.000000 0.000000 -0.031383 0.000000
# 6 0.000000 0.000000 0.000000 0.000000 0.000000 0.048842
#
#
# Mechanical properties :
#
#
# Convention : Reuss Voigt Hill
#
# Bulk Modulus (GPa) = 45.78349 59.78748 52.78549
# Shear Modulus (GPa) = 43.17648 -29.93943 6.61852
#
# Velocity S-wave (km/s) = 4.53526 -3.77660 1.77566
# Velocity P-wave (km/s) = 7.01679 3.07651 5.41758
#
# Compressibility (1/GPa) = 0.02184193
#
# Stress axis : x y z
#
# Youngs Moduli (GPa) = 59.05828 31.62079 95.11314
#
# Poissons Ratio (x) = 0.22288 0.19533
# Poissons Ratio (y) = 0.41627 0.90476
# Poissons Ratio (z) = 0.12128 0.30079
#
# Static dielectric constant tensor:
#      x y z
#    x 1.746600 0.000000 0.000000 
#    y 0.000000 2.830220 0.000000 
#    z 0.000000 0.000000 1.729610 
# 
# From -- ./inp_files/14501.got.cif
#   From: 2010.05.17/outbox.cif.g08.bks.cpg/sg37_8_cif.got.tgz:14501.got - 2010.06.03 17:53:42.
