data_PCOD9354394
_publ_section_title
;
Structure prediction by ZEFSAII (Michael W. Deem and Ramdas Pophale) SiO2 
 PCOD9354394
Probable space group: C C C 2
;
_chemical_formula_sum "Si O2"
_cell_formula_units_Z 64
_cell_length_a 30.491208
_cell_length_b 9.510987
_cell_length_c 9.496993
_cell_angle_alpha 90.000000
_cell_angle_beta 90.000000
_cell_angle_gamma 90.000000
_cell_volume 2754.142053
_symmetry_space_group_name_H-M "C C C 2"
_symmetry_group_IT_number 37
_symmetry_cell_setting 'orthorhombic'
loop_
_space_group_symop_operation_xyz
x,y,z
-x,-y,z
-x,y,1/2+z
x,-y,1/2+z
1/2+x,1/2+y,z
1/2-x,1/2-y,z
1/2-x,1/2+y,1/2+z
1/2+x,1/2-y,1/2+z
loop_
_atom_site_type_symbol
_atom_site_label
_atom_site_fract_x
_atom_site_fract_y
_atom_site_fract_z
Si Si1 0.544230 0.905972 0.045850
Si Si2 0.494648 0.661622 0.195411
Si Si3 0.281067 0.930959 0.102645
Si Si4 0.592326 0.988195 0.314656
Si Si5 0.685045 0.136377 0.805604
Si Si6 0.317484 0.642972 0.182674
Si Si7 0.356870 0.569299 0.886268
Si Si8 0.554334 0.700785 0.439010
O O1 0.530069 0.763707 0.122087
O O2 0.577811 0.979776 0.153902
O O3 0.500000 0.000000 0.032913
O O4 0.568916 0.887303 0.898542
O O5 0.500000 0.500000 0.160194
O O6 0.508057 0.676343 0.358890
O O7 0.451026 0.698713 0.107381
O O8 0.282543 0.898238 0.935858
O O9 0.313205 0.811327 0.168514
O O10 0.232641 0.906923 0.162637
O O11 0.296049 0.083252 0.157343
O O12 0.643126 0.962502 0.334859
O O13 0.570728 0.852620 0.390694
O O14 0.667679 0.296507 0.812014
O O15 0.339397 0.573513 0.318276
O O16 0.343805 0.585236 0.048608
O O17 0.409178 0.592863 0.881478
#
# Coordination Sequence:
#
# PCOD9354394 Si02
#       8
#     8   8   8   8   8   8   8   8
#     4  11  21  37  62  81 118 158 207 253 303 355
#     4  11  24  41  58  87 119 161 205 257 300 362
#     4  10  21  39  64  92 125 160 201 253 308 377
#     4  10  21  37  60  92 117 158 205 254 304 363
#     4  10  21  40  62  92 130 159 203 258 313 364
#     4  10  22  41  63  92 123 162 206 246 311 377
#     4  10  23  42  64  91 125 166 206 257 310 374
#     4  10  23  42  61  85 124 160 208 251 306 362
#
# _framework density 23.237725999999999
#
# number of rings (size 3 to 8) (size 9 to 14) (size 15 to 20)
#    0.000    1.750    1.250    2.250    3.500    2.500 
#    2.250    0.000    0.000    0.000    0.000    0.000 
#    0.000    0.000    0.000    0.000    0.000    0.000 
#
# Total GULP energy -178692.739525 kJ/mol
# GULP energy per Si atom -5584.148110 kJ/mol
# Density = 2.318484 g / cm^3
# Si number density = 23.237726 Si / 1000 Ang^3
#
#
#
# Elastic Constant Matrix: (Units=GPa)
#
#
# Indices 1 2 3 4 5 6 
#
# 1 46.7893 -2.1655 17.8487 0.0000 0.0000 0.0000
# 2 -2.1655 44.7714 9.4490 0.0000 0.0000 0.0000
# 3 17.8487 9.4490 81.6287 0.0000 0.0000 0.0000
# 4 0.0000 0.0000 0.0000 22.6674 0.0000 0.0000
# 5 0.0000 0.0000 0.0000 0.0000 29.6824 0.0000
# 6 0.0000 0.0000 0.0000 0.0000 0.0000 23.8990
#
#
#
# Elastic Compliance Matrix: (Units=1/GPa)
#
#
# Indices 1 2 3 4 5 6 
#
# 1 0.023542 0.002281 -0.005412 0.000000 0.000000 0.000000
# 2 0.002281 0.023116 -0.003175 0.000000 0.000000 0.000000
# 3 -0.005412 -0.003175 0.013801 0.000000 0.000000 0.000000
# 4 0.000000 0.000000 0.000000 0.044116 0.000000 0.000000
# 5 0.000000 0.000000 0.000000 0.000000 0.033690 0.000000
# 6 0.000000 0.000000 0.000000 0.000000 0.000000 0.041843
#
#
# Mechanical properties :
#
#
# Convention : Reuss Voigt Hill
#
# Bulk Modulus (GPa) = 20.89912 24.82821 22.86366
# Shear Modulus (GPa) = 23.96136 25.12024 24.54080
#
# Velocity S-wave (km/s) = 3.21462 3.29144 3.25326
# Velocity P-wave (km/s) = 4.77405 5.01522 4.89612
#
# Compressibility (1/GPa) = 0.04784890
#
# Stress axis : x y z
#
# Youngs Moduli (GPa) = 42.47659 43.26008 72.45656
#
# Poissons Ratio (x) = -0.09867 0.39212
# Poissons Ratio (y) = -0.09688 0.23002
# Poissons Ratio (z) = 0.22987 0.13733
#
# Static dielectric constant tensor:
#      x y z
#    x 1.902860 0.000000 0.000000 
#    y 0.000000 1.911350 0.000000 
#    z 0.000000 0.000000 1.903020 
# 
# From -- ./inp_files/5012.got.cif
#   From: 2010.05.17/outbox.cif.g08.bks.cpg/sg37_3_cif.got.tgz:5012.got - 2010.06.03 17:53:42.
