data_PCOD9354416
_publ_section_title
;
Structure prediction by ZEFSAII (Michael W. Deem and Ramdas Pophale) SiO2 
 PCOD9354416
Probable space group: C C C 2
;
_chemical_formula_sum "Si O2"
_cell_formula_units_Z 52
_cell_length_a 20.422142
_cell_length_b 12.113721
_cell_length_c 9.317129
_cell_angle_alpha 90.000000
_cell_angle_beta 90.000000
_cell_angle_gamma 90.000000
_cell_volume 2304.947124
_symmetry_space_group_name_H-M "C C C 2"
_symmetry_group_IT_number 37
_symmetry_cell_setting 'orthorhombic'
loop_
_space_group_symop_operation_xyz
x,y,z
-x,-y,z
-x,y,1/2+z
x,-y,1/2+z
1/2+x,1/2+y,z
1/2-x,1/2-y,z
1/2-x,1/2+y,1/2+z
1/2+x,1/2-y,1/2+z
loop_
_atom_site_type_symbol
_atom_site_label
_atom_site_fract_x
_atom_site_fract_y
_atom_site_fract_z
Si Si1 0.032625 0.146594 0.248910
Si Si2 0.072664 0.621262 0.063592
Si Si3 0.500000 0.500000 0.985969
Si Si4 0.826019 0.425844 0.480758
Si Si5 0.445028 0.178620 0.876515
Si Si6 0.852507 0.228648 0.875049
Si Si7 0.742457 0.078266 0.779577
O O1 0.089212 0.235867 0.259059
O O2 0.967823 0.204976 0.308475
O O3 0.026678 0.090869 0.096397
O O4 0.048837 0.058132 0.374097
O O5 0.060342 0.605973 0.231823
O O6 0.118962 0.520778 0.013579
O O7 0.112355 0.735134 0.023709
O O8 0.003330 0.636368 0.980835
O O9 0.873429 0.323370 0.447094
O O10 0.775206 0.417129 0.611836
O O11 0.783643 0.464084 0.344275
O O12 0.813092 0.117113 0.837242
O O13 0.803224 0.327273 0.846540
#
# Coordination Sequence:
#
# PCOD9354416 Si02
#       7
#     8   8   4   8   8   8   8
#     4  10  21  38  60  86 120 156 205 263 329 390
#     4  10  22  37  61  99 134 172 210 268 341 409
#     4  10  22  38  58  90 112 154 204 262 326 386
#     4  11  22  37  62  93 131 169 216 265 328 401
#     4  11  22  36  62  98 133 166 208 270 351 415
#     4   9  21  40  64  82 123 176 216 261 321 380
#     4  10  22  40  61  87 126 174 220 265 315 395
#
# _framework density 22.560171
#
# number of rings (size 3 to 8) (size 9 to 14) (size 15 to 20)
#    0.000    1.846    1.538    2.308    8.615    2.462 
#    0.000    0.000    6.769    0.000    0.000    0.000 
#    0.000    0.000    0.000    0.000    0.000    0.000 
#
# Total GULP energy -144883.937699 kJ/mol
# GULP energy per Si atom -5572.459142 kJ/mol
# Density = 2.250882 g / cm^3
# Si number density = 22.560171 Si / 1000 Ang^3
#
#
#
# Elastic Constant Matrix: (Units=GPa)
#
#
# Indices 1 2 3 4 5 6 
#
# 1 96.0576 25.3943 33.8913 0.0000 0.0000 0.0000
# 2 25.3943 29.5600 -5.7340 0.0000 0.0000 0.0000
# 3 33.8913 -5.7340 121.8482 0.0000 0.0000 0.0000
# 4 0.0000 0.0000 0.0000 125.9527 0.0000 0.0000
# 5 0.0000 0.0000 0.0000 0.0000 16.2027 0.0000
# 6 0.0000 0.0000 0.0000 0.0000 0.0000 20.8316
#
#
#
# Elastic Compliance Matrix: (Units=1/GPa)
#
#
# Indices 1 2 3 4 5 6 
#
# 1 0.016191 -0.014919 -0.005206 0.000000 0.000000 0.000000
# 2 -0.014919 0.047888 0.006403 0.000000 0.000000 0.000000
# 3 -0.005206 0.006403 0.009956 0.000000 0.000000 0.000000
# 4 0.000000 0.000000 0.000000 0.007939 0.000000 0.000000
# 5 0.000000 0.000000 0.000000 0.000000 0.061718 0.000000
# 6 0.000000 0.000000 0.000000 0.000000 0.000000 0.048004
#
#
# Mechanical properties :
#
#
# Convention : Reuss Voigt Hill
#
# Bulk Modulus (GPa) = 21.46268 39.39657 30.42963
# Shear Modulus (GPa) = 21.30645 45.52503 33.41574
#
# Velocity S-wave (km/s) = 3.07649 4.49702 3.85279
# Velocity P-wave (km/s) = 4.70679 6.66821 5.77144
#
# Compressibility (1/GPa) = 0.04659250
#
# Stress axis : x y z
#
# Youngs Moduli (GPa) = 61.76214 20.88199 100.44050
#
# Poissons Ratio (x) = 0.31154 0.52285
# Poissons Ratio (y) = 0.92144 -0.64314
# Poissons Ratio (z) = 0.32151 -0.13371
#
# Static dielectric constant tensor:
#      x y z
#    x 1.932300 0.000000 0.000000 
#    y 0.000000 1.970510 0.000000 
#    z 0.000000 0.000000 1.843710 
# 
# From -- ./inp_files/3611.got.cif
#   From: 2010.05.17/outbox.cif.g08.bks.cpg/sg37_2_cif.got.tgz:3611.got - 2010.06.03 17:53:42.
