data_PCOD9354028
_publ_section_title
;
Structure prediction by ZEFSAII (Michael W. Deem and Ramdas Pophale) SiO2 
 PCOD9354028
Probable space group: C C C 2
;
_chemical_formula_sum "Si O2"
_cell_formula_units_Z 60
_cell_length_a 22.955024
_cell_length_b 7.336082
_cell_length_c 15.584472
_cell_angle_alpha 90.000000
_cell_angle_beta 90.000000
_cell_angle_gamma 90.000000
_cell_volume 2624.424124
_symmetry_space_group_name_H-M "C C C 2"
_symmetry_group_IT_number 37
_symmetry_cell_setting 'orthorhombic'
loop_
_space_group_symop_operation_xyz
x,y,z
-x,-y,z
-x,y,1/2+z
x,-y,1/2+z
1/2+x,1/2+y,z
1/2-x,1/2-y,z
1/2-x,1/2+y,1/2+z
1/2+x,1/2-y,1/2+z
loop_
_atom_site_type_symbol
_atom_site_label
_atom_site_fract_x
_atom_site_fract_y
_atom_site_fract_z
Si Si1 0.433246 0.462366 0.354150
Si Si2 0.750000 0.750000 0.260837
Si Si3 0.067253 0.541027 0.665101
Si Si4 0.862874 0.969046 0.008831
Si Si5 0.869601 0.081606 0.690133
Si Si6 0.432592 0.031639 0.357556
Si Si7 0.251771 0.528536 0.408404
Si Si8 0.146972 0.445952 0.013356
O O1 0.500000 0.500000 0.331216
O O2 0.419630 0.537467 0.449127
O O3 0.391110 0.521397 0.276159
O O4 0.422772 0.246957 0.361246
O O5 0.807312 0.820338 0.210219
O O6 0.765644 0.580537 0.323309
O O7 0.082041 0.758093 0.673362
O O8 0.078054 0.466216 0.760601
O O9 0.110494 0.473476 0.591282
O O10 0.000000 0.500000 0.643457
O O11 0.814402 0.037350 0.942343
O O12 0.842127 0.765516 0.031741
O O13 0.868501 0.043622 0.104898
O O14 0.500000 0.000000 0.377892
O O15 0.391829 0.946065 0.428015
O O16 0.250000 0.750000 0.395401
O O17 0.208066 0.474941 0.485041
#
# Coordination Sequence:
#
# PCOD9354028 Si02
#       8
#     8   4   8   8   8   8   8   8
#     4  11  22  40  63  91 129 172 216 268 331 409
#     4  12  22  44  78  90 140 180 228 280 338 416
#     4   9  19  35  58  91 125 160 215 262 323 401
#     4  10  22  41  61  95 130 171 215 274 340 395
#     4  10  23  39  68  96 126 182 219 272 352 390
#     4  10  20  37  59  89 119 165 218 263 327 395
#     4  10  22  39  68  98 132 170 229 275 330 403
#     4  10  20  36  61  89 123 165 208 270 329 384
#
# _framework density 22.862158000000001
#
# number of rings (size 3 to 8) (size 9 to 14) (size 15 to 20)
#    0.000    1.867    1.333    2.800    4.667    1.600 
#    0.000    5.333    7.333    0.000    0.000    0.000 
#    0.000    0.000    0.000    0.000    0.000    0.000 
#
# Total GULP energy -167426.889810 kJ/mol
# GULP energy per Si atom -5580.896327 kJ/mol
# Density = 2.281012 g / cm^3
# Si number density = 22.862158 Si / 1000 Ang^3
#
#
#
# Elastic Constant Matrix: (Units=GPa)
#
#
# Indices 1 2 3 4 5 6 
#
# 1 90.4673 3.3028 28.5035 0.0000 0.0000 0.0000
# 2 3.3028 74.3591 14.0805 0.0000 0.0000 0.0000
# 3 28.5035 14.0805 97.4745 0.0000 0.0000 0.0000
# 4 0.0000 0.0000 0.0000 3.6312 0.0000 0.0000
# 5 0.0000 0.0000 0.0000 0.0000 21.9858 0.0000
# 6 0.0000 0.0000 0.0000 0.0000 0.0000 7.1966
#
#
#
# Elastic Compliance Matrix: (Units=1/GPa)
#
#
# Indices 1 2 3 4 5 6 
#
# 1 0.012177 0.000137 -0.003581 0.000000 0.000000 0.000000
# 2 0.000137 0.013828 -0.002038 0.000000 0.000000 0.000000
# 3 -0.003581 -0.002038 0.011600 0.000000 0.000000 0.000000
# 4 0.000000 0.000000 0.000000 0.275393 0.000000 0.000000
# 5 0.000000 0.000000 0.000000 0.000000 0.045484 0.000000
# 6 0.000000 0.000000 0.000000 0.000000 0.000000 0.138954
#
#
# Mechanical properties :
#
#
# Convention : Reuss Voigt Hill
#
# Bulk Modulus (GPa) = 37.53295 39.34162 38.43728
# Shear Modulus (GPa) = 9.66596 20.99032 15.32814
#
# Velocity S-wave (km/s) = 2.05842 3.03334 2.59213
# Velocity P-wave (km/s) = 4.70130 5.43266 5.08016
#
# Compressibility (1/GPa) = 0.02664326
#
# Stress axis : x y z
#
# Youngs Moduli (GPa) = 82.12308 72.31705 86.20348
#
# Poissons Ratio (x) = -0.00992 0.30866
# Poissons Ratio (y) = -0.01126 0.17565
# Poissons Ratio (z) = 0.29405 0.14735
#
# Static dielectric constant tensor:
#      x y z
#    x 1.915160 0.000000 0.000000 
#    y 0.000000 1.926570 0.000000 
#    z 0.000000 0.000000 1.938080 
# 
# From -- ./inp_files/13146.got.cif
#   From: 2010.05.17/outbox.cif.g08.bks.cpg/sg37_7_cif.got.tgz:13146.got - 2010.06.03 17:53:42.
