data_PCOD9354470
_publ_section_title
;
Structure prediction by ZEFSAII (Michael W. Deem and Ramdas Pophale) SiO2 
 PCOD9354470
Probable space group: C C C 2
;
_chemical_formula_sum "Si O2"
_cell_formula_units_Z 48
_cell_length_a 15.802390
_cell_length_b 17.924595
_cell_length_c 7.948662
_cell_angle_alpha 90.000000
_cell_angle_beta 90.000000
_cell_angle_gamma 90.000000
_cell_volume 2251.469964
_symmetry_space_group_name_H-M "C C C 2"
_symmetry_group_IT_number 37
_symmetry_cell_setting 'orthorhombic'
loop_
_space_group_symop_operation_xyz
x,y,z
-x,-y,z
-x,y,1/2+z
x,-y,1/2+z
1/2+x,1/2+y,z
1/2-x,1/2-y,z
1/2-x,1/2+y,1/2+z
1/2+x,1/2-y,1/2+z
loop_
_atom_site_type_symbol
_atom_site_label
_atom_site_fract_x
_atom_site_fract_y
_atom_site_fract_z
Si Si1 0.444345 0.273427 0.250000
Si Si2 0.221847 0.633301 0.226223
Si Si3 0.623191 0.717476 0.626370
Si Si4 0.595577 0.978762 0.544620
Si Si5 0.376674 0.115488 0.211801
Si Si6 0.784546 0.166802 0.583602
O O1 0.411023 0.267561 0.439760
O O2 0.540067 0.300274 0.235125
O O3 0.434003 0.188069 0.183796
O O4 0.379870 0.325049 0.145713
O O5 0.304650 0.654631 0.116037
O O6 0.164125 0.707895 0.206644
O O7 0.160975 0.566980 0.162620
O O8 0.266894 0.626172 0.408001
O O9 0.594582 0.932001 0.372988
O O10 0.500000 0.000000 0.600982
O O11 0.626347 0.063743 0.547128
O O12 0.278851 0.138972 0.229599
O O13 0.750000 0.250000 0.551171
#
# Coordination Sequence:
#
# PCOD9354470 Si02
#       6
#     8   8   8   8   8   8
#     4  11  23  39  63  97 129 169 227 285 339 401
#     4  11  22  41  63  89 130 173 221 275 345 399
#     4  11  22  37  64  92 126 167 218 282 337 396
#     4  12  24  41  57  90 132 180 219 264 327 408
#     4  11  24  37  60  85 130 175 218 269 330 407
#     4  10  21  39  63  87 125 170 224 279 348 390
#
# _framework density 21.319406000000001
#
# number of rings (size 3 to 8) (size 9 to 14) (size 15 to 20)
#    0.000    1.000    3.333    4.500    7.000    0.000 
#    0.000    0.833    0.000    1.000    0.000    7.000 
#    0.000    0.000    0.000    0.000    0.000    0.000 
#
# Total GULP energy -133800.384660 kJ/mol
# GULP energy per Si atom -5575.016028 kJ/mol
# Density = 2.127088 g / cm^3
# Si number density = 21.319406 Si / 1000 Ang^3
#
#
#
# Elastic Constant Matrix: (Units=GPa)
#
#
# Indices 1 2 3 4 5 6 
#
# 1 160.2998 27.9426 29.7379 0.0000 0.0000 0.0000
# 2 27.9426 44.4554 6.6184 0.0000 0.0000 0.0000
# 3 29.7379 6.6184 83.8458 0.0000 0.0000 0.0000
# 4 0.0000 0.0000 0.0000 22.8644 0.0000 0.0000
# 5 0.0000 0.0000 0.0000 0.0000 31.3432 0.0000
# 6 0.0000 0.0000 0.0000 0.0000 0.0000 29.8214
#
#
#
# Elastic Compliance Matrix: (Units=1/GPa)
#
#
# Indices 1 2 3 4 5 6 
#
# 1 0.007416 -0.004321 -0.002289 0.000000 0.000000 0.000000
# 2 -0.004321 0.025279 -0.000463 0.000000 0.000000 0.000000
# 3 -0.002289 -0.000463 0.012775 0.000000 0.000000 0.000000
# 4 0.000000 0.000000 0.000000 0.043736 0.000000 0.000000
# 5 0.000000 0.000000 0.000000 0.000000 0.031905 0.000000
# 6 0.000000 0.000000 0.000000 0.000000 0.000000 0.033533
#
#
# Mechanical properties :
#
#
# Convention : Reuss Voigt Hill
#
# Bulk Modulus (GPa) = 31.92376 46.35542 39.13959
# Shear Modulus (GPa) = 27.89686 31.75927 29.82807
#
# Velocity S-wave (km/s) = 3.62127 3.86384 3.74452
# Velocity P-wave (km/s) = 5.70012 6.45725 6.09046
#
# Compressibility (1/GPa) = 0.03132463
#
# Stress axis : x y z
#
# Youngs Moduli (GPa) = 134.84080 39.55829 78.27697
#
# Poissons Ratio (x) = 0.17092 0.17920
# Poissons Ratio (y) = 0.58260 0.03624
# Poissons Ratio (z) = 0.30869 0.01832
#
# Static dielectric constant tensor:
#      x y z
#    x 1.902890 0.000000 0.000000 
#    y 0.000000 1.874920 0.000000 
#    z 0.000000 0.000000 1.868370 
# 
# From -- ./inp_files/3511.got.cif
#   From: 2010.05.17/outbox.cif.g08.bks.cpg/sg37_2_cif.got.tgz:3511.got - 2010.06.03 17:53:42.
