data_PCOD9354637
_publ_section_title
;
Structure prediction by ZEFSAII (Michael W. Deem and Ramdas Pophale) SiO2 
 PCOD9354637
Probable space group: C C C 2
;
_chemical_formula_sum "Si O2"
_cell_formula_units_Z 56
_cell_length_a 19.263399
_cell_length_b 9.207741
_cell_length_c 14.842359
_cell_angle_alpha 90.000000
_cell_angle_beta 90.000000
_cell_angle_gamma 90.000000
_cell_volume 2632.624671
_symmetry_space_group_name_H-M "C C C 2"
_symmetry_group_IT_number 37
_symmetry_cell_setting 'orthorhombic'
loop_
_space_group_symop_operation_xyz
x,y,z
-x,-y,z
-x,y,1/2+z
x,-y,1/2+z
1/2+x,1/2+y,z
1/2-x,1/2-y,z
1/2-x,1/2+y,1/2+z
1/2+x,1/2-y,1/2+z
loop_
_atom_site_type_symbol
_atom_site_label
_atom_site_fract_x
_atom_site_fract_y
_atom_site_fract_z
Si Si1 0.501906 0.169866 0.650590
Si Si2 0.566777 0.181412 0.848657
Si Si3 0.180816 0.506632 0.432926
Si Si4 0.357720 0.680020 0.192391
Si Si5 0.750000 0.750000 0.545650
Si Si6 0.250000 0.250000 0.836730
Si Si7 0.566498 0.766410 0.971156
Si Si8 0.917575 0.000362 0.840217
O O1 0.540666 0.180313 0.746080
O O2 0.425004 0.230552 0.664734
O O3 0.537241 0.260125 0.570561
O O4 0.500000 0.000000 0.623471
O O5 0.626322 0.063668 0.862792
O O6 0.599200 0.338608 0.872122
O O7 0.498334 0.169225 0.912309
O O8 0.210572 0.373904 0.490022
O O9 0.243572 0.602869 0.393404
O O10 0.130389 0.622809 0.481426
O O11 0.305839 0.669087 0.109516
O O12 0.315710 0.761186 0.271291
O O13 0.380705 0.536853 0.246267
O O14 0.590584 0.624366 0.915687
O O15 0.000000 0.000000 0.821284
#
# Coordination Sequence:
#
# PCOD9354637 Si02
#       8
#     8   8   8   8   4   4   8   8
#     4  12  22  39  73 109 138 175 233 298 359 413
#     4  11  23  43  71 106 137 178 233 299 358 411
#     4  12  25  46  66 102 139 186 241 290 339 420
#     4  11  22  47  66  97 137 188 221 276 354 420
#     4  11  28  42  72  97 138 190 241 278 340 421
#     4  11  24  44  76  81 140 198 227 270 344 413
#     4  11  22  43  73 103 140 176 230 297 359 411
#     4  10  21  44  67 104 138 176 224 286 365 412
#
# _framework density 21.271547000000002
#
# number of rings (size 3 to 8) (size 9 to 14) (size 15 to 20)
#    0.000    0.857    4.286    4.714    2.000    1.143 
#   12.857    0.000    0.000    0.000    0.000    0.000 
#    0.000    0.000    0.000    0.000    0.000    0.000 
#
# Total GULP energy -156442.417238 kJ/mol
# GULP energy per Si atom -5587.229187 kJ/mol
# Density = 2.122313 g / cm^3
# Si number density = 21.271547 Si / 1000 Ang^3
#
#
#
# Elastic Constant Matrix: (Units=GPa)
#
#
# Indices 1 2 3 4 5 6 
#
# 1 113.9508 39.5435 58.7875 0.0000 0.0000 0.0000
# 2 39.5435 87.2271 11.7639 0.0000 0.0000 0.0000
# 3 58.7875 11.7639 116.9946 0.0000 0.0000 0.0000
# 4 0.0000 0.0000 0.0000 15.2650 0.0000 0.0000
# 5 0.0000 0.0000 0.0000 0.0000 36.4998 0.0000
# 6 0.0000 0.0000 0.0000 0.0000 0.0000 47.2703
#
#
#
# Elastic Compliance Matrix: (Units=1/GPa)
#
#
# Indices 1 2 3 4 5 6 
#
# 1 0.014032 -0.005485 -0.006499 0.000000 0.000000 0.000000
# 2 -0.005485 0.013766 0.001372 0.000000 0.000000 0.000000
# 3 -0.006499 0.001372 0.011675 0.000000 0.000000 0.000000
# 4 0.000000 0.000000 0.000000 0.065509 0.000000 0.000000
# 5 0.000000 0.000000 0.000000 0.000000 0.027397 0.000000
# 6 0.000000 0.000000 0.000000 0.000000 0.000000 0.021155
#
#
# Mechanical properties :
#
#
# Convention : Reuss Voigt Hill
#
# Bulk Modulus (GPa) = 54.79887 59.81803 57.30845
# Shear Modulus (GPa) = 27.64844 33.67888 30.66366
#
# Velocity S-wave (km/s) = 3.60916 3.98337 3.80087
# Velocity P-wave (km/s) = 6.57157 7.02413 6.80162
#
# Compressibility (1/GPa) = 0.01824855
#
# Stress axis : x y z
#
# Youngs Moduli (GPa) = 71.26521 72.64392 85.65112
#
# Poissons Ratio (x) = 0.39843 0.55668
# Poissons Ratio (y) = 0.39087 -0.11750
# Poissons Ratio (z) = 0.46318 -0.09966
#
# Static dielectric constant tensor:
#      x y z
#    x 1.789600 0.000000 0.000000 
#    y 0.000000 1.811300 0.000000 
#    z 0.000000 0.000000 1.757310 
# 
# From -- ./inp_files/12975.got.cif
#   From: 2010.05.17/outbox.cif.g08.bks.cpg/sg37_7_cif.got.tgz:12975.got - 2010.06.03 17:53:42.
