data_PCOD9354293
_publ_section_title
;
Structure prediction by ZEFSAII (Michael W. Deem and Ramdas Pophale) SiO2 
 PCOD9354293
Probable space group: C C C 2
;
_chemical_formula_sum "Si O2"
_cell_formula_units_Z 48
_cell_length_a 14.076689
_cell_length_b 5.678331
_cell_length_c 25.886605
_cell_angle_alpha 90.000000
_cell_angle_beta 90.000000
_cell_angle_gamma 90.000000
_cell_volume 2069.170687
_symmetry_space_group_name_H-M "C C C 2"
_symmetry_group_IT_number 37
_symmetry_cell_setting 'orthorhombic'
loop_
_space_group_symop_operation_xyz
x,y,z
-x,-y,z
-x,y,1/2+z
x,-y,1/2+z
1/2+x,1/2+y,z
1/2-x,1/2-y,z
1/2-x,1/2+y,1/2+z
1/2+x,1/2-y,1/2+z
loop_
_atom_site_type_symbol
_atom_site_label
_atom_site_fract_x
_atom_site_fract_y
_atom_site_fract_z
Si Si1 0.356806 0.159229 0.126320
Si Si2 0.000000 0.000000 0.564975
Si Si3 0.850144 0.607007 0.321795
Si Si4 0.903581 0.129376 0.726701
Si Si5 0.250000 0.750000 0.251193
Si Si6 0.896476 0.610534 0.531981
Si Si7 0.303374 0.002396 0.928260
O O1 0.250000 0.250000 0.120916
O O2 0.437181 0.327923 0.100735
O O3 0.383113 0.158849 0.186511
O O4 0.361165 0.930201 0.090299
O O5 0.080146 0.115532 0.528341
O O6 0.750000 0.750000 0.324150
O O7 0.912995 0.769208 0.284679
O O8 0.825120 0.377889 0.288623
O O9 0.875820 0.536011 0.380042
O O10 0.813719 0.948505 0.722619
O O11 0.000000 0.000000 0.712582
O O12 0.838545 0.491003 0.486992
O O13 0.000000 0.500000 0.527330
O O14 0.250000 0.750000 0.928273
O O15 0.250000 0.250000 0.917188
#
# Coordination Sequence:
#
# PCOD9354293 Si02
#       7
#     8   4   8   8   4   8   8
#     4  11  23  43  68  98 139 184 241 294 380 434
#     4  10  24  44  62  96 140 184 232 304 358 458
#     4   9  20  42  66  99 139 182 236 295 367 440
#     4  11  24  44  66 107 142 189 242 301 369 452
#     4  10  20  42  70  96 144 180 236 288 376 436
#     4  10  25  44  66  97 144 182 244 301 370 441
#     4  11  24  44  76 104 140 191 248 308 369 445
#
# _framework density 23.197700999999999
#
# number of rings (size 3 to 8) (size 9 to 14) (size 15 to 20)
#    0.000    1.667    1.667    2.000    7.000    3.333 
#   10.500    0.000    0.000    0.000    0.000    0.000 
#    0.000    0.000    0.000    0.000    0.000    0.000 
#
# Total GULP energy -133759.377770 kJ/mol
# GULP energy per Si atom -5573.307407 kJ/mol
# Density = 2.314490 g / cm^3
# Si number density = 23.197701 Si / 1000 Ang^3
#
#
#
# Elastic Constant Matrix: (Units=GPa)
#
#
# Indices 1 2 3 4 5 6 
#
# 1 72.4000 14.6180 24.0879 0.0000 0.0000 0.0000
# 2 14.6180 76.4724 38.3139 0.0000 0.0000 0.0000
# 3 24.0879 38.3139 132.2205 0.0000 0.0000 0.0000
# 4 0.0000 0.0000 0.0000 16.4040 0.0000 0.0000
# 5 0.0000 0.0000 0.0000 0.0000 -5.5668 0.0000
# 6 0.0000 0.0000 0.0000 0.0000 0.0000 18.8985
#
#
#
# Elastic Compliance Matrix: (Units=1/GPa)
#
#
# Indices 1 2 3 4 5 6 
#
# 1 0.014899 -0.001741 -0.002210 0.000000 0.000000 0.000000
# 2 -0.001741 0.015501 -0.004175 0.000000 0.000000 0.000000
# 3 -0.002210 -0.004175 0.009175 0.000000 0.000000 0.000000
# 4 0.000000 0.000000 0.000000 0.060961 0.000000 0.000000
# 5 0.000000 0.000000 0.000000 0.000000 -0.179635 0.000000
# 6 0.000000 0.000000 0.000000 0.000000 0.000000 0.052914
#
#
# Mechanical properties :
#
#
# Convention : Reuss Voigt Hill
#
# Bulk Modulus (GPa) = 42.87306 48.34807 45.61057
# Shear Modulus (GPa) = -2315.46909 19.55201 -1147.95854
#
# Velocity S-wave (km/s) = -31.62772 2.90632 -22.26955
# Velocity P-wave (km/s) = 36.26608 5.67003 25.32863
#
# Compressibility (1/GPa) = 0.02332467
#
# Stress axis : x y z
#
# Youngs Moduli (GPa) = 67.11924 64.51229 108.98719
#
# Poissons Ratio (x) = 0.11230 0.24084
# Poissons Ratio (y) = 0.11684 0.45498
# Poissons Ratio (z) = 0.14832 0.26931
#
# Static dielectric constant tensor:
#      x y z
#    x 2.183810 0.000000 0.000000 
#    y 0.000000 1.938080 0.000000 
#    z 0.000000 0.000000 1.935860 
# 
# From -- ./inp_files/19372.got.cif
#   From: 2010.05.17/outbox.cif.g08.bks.cpg/sg37_10_cif.got.tgz:19372.got - 2010.06.03 17:53:42.
