data_PCOD9354022
_publ_section_title
;
Structure prediction by ZEFSAII (Michael W. Deem and Ramdas Pophale) SiO2 
 PCOD9354022
Probable space group: C C C 2
;
_chemical_formula_sum "Si O2"
_cell_formula_units_Z 60
_cell_length_a 5.190576
_cell_length_b 18.175534
_cell_length_c 32.078484
_cell_angle_alpha 90.000000
_cell_angle_beta 90.000000
_cell_angle_gamma 90.000000
_cell_volume 3026.331996
_symmetry_space_group_name_H-M "C C C 2"
_symmetry_group_IT_number 37
_symmetry_cell_setting 'orthorhombic'
loop_
_space_group_symop_operation_xyz
x,y,z
-x,-y,z
-x,y,1/2+z
x,-y,1/2+z
1/2+x,1/2+y,z
1/2-x,1/2-y,z
1/2-x,1/2+y,1/2+z
1/2+x,1/2-y,1/2+z
loop_
_atom_site_type_symbol
_atom_site_label
_atom_site_fract_x
_atom_site_fract_y
_atom_site_fract_z
Si Si1 0.500000 0.000000 0.772270
Si Si2 0.400358 0.674215 0.745312
Si Si3 0.614294 0.582000 0.323646
Si Si4 0.994945 0.200633 0.489597
Si Si5 0.506548 0.912292 0.611824
Si Si6 0.998825 0.910660 0.062427
Si Si7 0.617614 0.110550 0.208642
Si Si8 0.500719 0.299989 0.391032
O O1 0.395315 0.937686 0.804148
O O2 0.687352 0.959492 0.738545
O O3 0.250000 0.750000 0.752682
O O4 0.485036 0.638704 0.788848
O O5 0.658080 0.669464 0.717751
O O6 0.171968 0.628468 0.723506
O O7 0.500000 0.500000 0.324404
O O8 0.554853 0.625059 0.365884
O O9 0.750000 0.250000 0.500667
O O10 0.250000 0.250000 0.496247
O O11 0.981631 0.128442 0.517952
O O12 0.978128 0.183541 0.440284
O O13 0.735026 0.884543 0.582770
O O14 0.584940 0.899780 0.659589
O O15 0.232088 0.887361 0.593706
O O16 0.500000 0.000000 0.607304
O O17 0.000000 0.000000 0.058878
O O18 0.250000 0.250000 0.384019
O O19 0.750000 0.250000 0.378977
#
# Coordination Sequence:
#
# PCOD9354022 Si02
#       8
#     4   8   8   8   8   8   8   8
#     4  10  22  38  62  96 124 164 216 268 314 368
#     4  11  24  39  58  85 123 169 206 259 312 372
#     4  11  23  40  64  95 125 161 222 262 316 369
#     4  10  21  42  65  90 123 166 204 243 314 387
#     4  10  20  36  60  91 120 159 200 261 311 370
#     4  10  21  37  62  93 122 153 205 253 313 363
#     4  11  21  39  61  84 124 161 213 252 311 372
#     4  10  24  42  66  92 126 168 205 254 318 384
#
# _framework density 19.825982
#
# number of rings (size 3 to 8) (size 9 to 14) (size 15 to 20)
#    0.000    1.600    2.000    2.400    1.867    1.600 
#    0.000    6.667    4.400    0.000    0.000    0.000 
#    0.000    0.000    0.000    0.000    0.000    0.000 
#
# Total GULP energy -167081.629841 kJ/mol
# GULP energy per Si atom -5569.387661 kJ/mol
# Density = 1.978086 g / cm^3
# Si number density = 19.825982 Si / 1000 Ang^3
#
#
#
# Elastic Constant Matrix: (Units=GPa)
#
#
# Indices 1 2 3 4 5 6 
#
# 1 118.9564 39.1774 46.0475 0.0000 0.0000 0.0000
# 2 39.1774 81.5111 51.0815 0.0000 0.0000 0.0000
# 3 46.0475 51.0815 95.8546 0.0000 0.0000 0.0000
# 4 0.0000 0.0000 0.0000 18.5601 0.0000 0.0000
# 5 0.0000 0.0000 0.0000 0.0000 47.6807 0.0000
# 6 0.0000 0.0000 0.0000 0.0000 0.0000 24.2622
#
#
#
# Elastic Compliance Matrix: (Units=1/GPa)
#
#
# Indices 1 2 3 4 5 6 
#
# 1 0.010766 -0.002903 -0.003625 0.000000 0.000000 0.000000
# 2 -0.002903 0.019202 -0.008839 0.000000 0.000000 0.000000
# 3 -0.003625 -0.008839 0.016884 0.000000 0.000000 0.000000
# 4 0.000000 0.000000 0.000000 0.053879 0.000000 0.000000
# 5 0.000000 0.000000 0.000000 0.000000 0.020973 0.000000
# 6 0.000000 0.000000 0.000000 0.000000 0.000000 0.041216
#
#
# Mechanical properties :
#
#
# Convention : Reuss Voigt Hill
#
# Bulk Modulus (GPa) = 62.03627 63.21499 62.62563
# Shear Modulus (GPa) = 25.12237 28.76831 26.94534
#
# Velocity S-wave (km/s) = 3.56356 3.81339 3.69059
# Velocity P-wave (km/s) = 6.94912 7.16543 7.05810
#
# Compressibility (1/GPa) = 0.01611960
#
# Stress axis : x y z
#
# Youngs Moduli (GPa) = 92.88863 52.07666 59.22789
#
# Poissons Ratio (x) = 0.15117 0.21469
# Poissons Ratio (y) = 0.26964 0.52349
# Poissons Ratio (z) = 0.33670 0.46029
#
# Static dielectric constant tensor:
#      x y z
#    x 1.764380 0.000000 0.000000 
#    y 0.000000 1.725350 0.000000 
#    z 0.000000 0.000000 1.697640 
# 
# From -- ./inp_files/19504.got.cif
#   From: 2010.05.17/outbox.cif.g08.bks.cpg/sg37_10_cif.got.tgz:19504.got - 2010.06.03 17:53:42.
