data_PCOD9354167
_publ_section_title
;
Structure prediction by ZEFSAII (Michael W. Deem and Ramdas Pophale) SiO2 
 PCOD9354167
Probable space group: C C C 2
;
_chemical_formula_sum "Si O2"
_cell_formula_units_Z 60
_cell_length_a 24.103056
_cell_length_b 8.850989
_cell_length_c 11.608265
_cell_angle_alpha 90.000000
_cell_angle_beta 90.000000
_cell_angle_gamma 90.000000
_cell_volume 2476.459470
_symmetry_space_group_name_H-M "C C C 2"
_symmetry_group_IT_number 37
_symmetry_cell_setting 'orthorhombic'
loop_
_space_group_symop_operation_xyz
x,y,z
-x,-y,z
-x,y,1/2+z
x,-y,1/2+z
1/2+x,1/2+y,z
1/2-x,1/2-y,z
1/2-x,1/2+y,1/2+z
1/2+x,1/2-y,1/2+z
loop_
_atom_site_type_symbol
_atom_site_label
_atom_site_fract_x
_atom_site_fract_y
_atom_site_fract_z
Si Si1 0.147182 0.754956 0.000000
Si Si2 0.229144 0.975777 0.869646
Si Si3 0.633387 0.546416 0.691063
Si Si4 0.647337 0.969038 0.860143
Si Si5 0.366426 0.741896 0.543685
Si Si6 0.049726 0.610002 0.707656
Si Si7 0.250000 0.750000 0.544290
Si Si8 0.452176 0.601930 0.856229
O O1 0.200133 0.835712 0.938221
O O2 0.146258 0.579135 0.972507
O O3 0.092629 0.825679 0.941028
O O4 0.143168 0.792043 0.134172
O O5 0.186574 0.006063 0.766982
O O6 0.291083 0.988199 0.816919
O O7 0.233605 0.108574 0.964378
O O8 0.628151 0.431802 0.581789
O O9 0.580831 0.509784 0.769710
O O10 0.597375 0.023119 0.780349
O O11 0.640034 0.801076 0.912778
O O12 0.419284 0.822437 0.597616
O O13 0.307807 0.786222 0.604909
O O14 0.028284 0.753324 0.782137
O O15 0.000000 0.500000 0.678683
O O16 0.500000 0.500000 0.911006
#
# Coordination Sequence:
#
# PCOD9354167 Si02
#       8
#     8   8   8   8   8   8   4   8
#     4  10  20  39  61  91 123 161 208 262 312 380
#     4  10  21  39  61  91 131 160 208 256 327 385
#     4  10  21  39  65  88 122 162 207 265 319 380
#     4  10  23  40  61  90 128 166 208 255 321 377
#     4  10  22  40  64  92 124 167 213 256 324 380
#     4  10  23  42  62  91 126 170 217 260 313 377
#     4  10  20  40  62  96 128 166 208 260 324 396
#     4   9  21  40  61  87 121 165 211 262 318 367
#
# _framework density 24.228135999999999
#
# number of rings (size 3 to 8) (size 9 to 14) (size 15 to 20)
#    0.000    2.133    1.333    1.200    1.867    3.200 
#    9.600    5.333    0.000    0.000    0.000    0.000 
#    0.000    0.000    0.000    0.000    0.000    0.000 
#
# Total GULP energy -167570.652771 kJ/mol
# GULP energy per Si atom -5585.688426 kJ/mol
# Density = 2.417299 g / cm^3
# Si number density = 24.228136 Si / 1000 Ang^3
#
#
#
# Elastic Constant Matrix: (Units=GPa)
#
#
# Indices 1 2 3 4 5 6 
#
# 1 122.3284 35.5195 -9.5608 0.0000 0.0000 0.0000
# 2 35.5195 63.0521 1.2684 0.0000 0.0000 0.0000
# 3 -9.5608 1.2684 31.7870 0.0000 0.0000 0.0000
# 4 0.0000 0.0000 0.0000 26.9202 0.0000 0.0000
# 5 0.0000 0.0000 0.0000 0.0000 10.2545 0.0000
# 6 0.0000 0.0000 0.0000 0.0000 0.0000 41.5216
#
#
#
# Elastic Compliance Matrix: (Units=1/GPa)
#
#
# Indices 1 2 3 4 5 6 
#
# 1 0.010102 -0.005756 0.003268 0.000000 0.000000 0.000000
# 2 -0.005756 0.019153 -0.002496 0.000000 0.000000 0.000000
# 3 0.003268 -0.002496 0.032542 0.000000 0.000000 0.000000
# 4 0.000000 0.000000 0.000000 0.037147 0.000000 0.000000
# 5 0.000000 0.000000 0.000000 0.000000 0.097518 0.000000
# 6 0.000000 0.000000 0.000000 0.000000 0.000000 0.024084
#
#
# Mechanical properties :
#
#
# Convention : Reuss Voigt Hill
#
# Bulk Modulus (GPa) = 19.29444 30.18021 24.73733
# Shear Modulus (GPa) = 20.17848 28.40197 24.29022
#
# Velocity S-wave (km/s) = 2.88905 3.42756 3.16976
# Velocity P-wave (km/s) = 4.37147 5.30546 4.86095
#
# Compressibility (1/GPa) = 0.05182840
#
# Stress axis : x y z
#
# Youngs Moduli (GPa) = 98.99478 52.21163 30.72961
#
# Poissons Ratio (x) = 0.30055 -0.10042
# Poissons Ratio (y) = 0.56984 0.07669
# Poissons Ratio (z) = -0.32352 0.13030
#
# Static dielectric constant tensor:
#      x y z
#    x 1.947550 0.000000 0.000000 
#    y 0.000000 1.952050 0.000000 
#    z 0.000000 0.000000 1.925230 
# 
# From -- ./inp_files/13152.got.cif
#   From: 2010.05.17/outbox.cif.g08.bks.cpg/sg37_7_cif.got.tgz:13152.got - 2010.06.03 17:53:42.
