data_PCOD9354246
_publ_section_title
;
Structure prediction by ZEFSAII (Michael W. Deem and Ramdas Pophale) SiO2 
 PCOD9354246
Probable space group: C C C 2
;
_chemical_formula_sum "Si O2"
_cell_formula_units_Z 48
_cell_length_a 17.167094
_cell_length_b 9.362142
_cell_length_c 14.666209
_cell_angle_alpha 90.000000
_cell_angle_beta 90.000000
_cell_angle_gamma 90.000000
_cell_volume 2357.164429
_symmetry_space_group_name_H-M "C C C 2"
_symmetry_group_IT_number 37
_symmetry_cell_setting 'orthorhombic'
loop_
_space_group_symop_operation_xyz
x,y,z
-x,-y,z
-x,y,1/2+z
x,-y,1/2+z
1/2+x,1/2+y,z
1/2-x,1/2-y,z
1/2-x,1/2+y,1/2+z
1/2+x,1/2-y,1/2+z
loop_
_atom_site_type_symbol
_atom_site_label
_atom_site_fract_x
_atom_site_fract_y
_atom_site_fract_z
Si Si1 0.191530 0.539562 0.406690
Si Si2 0.932689 0.273094 0.337671
Si Si3 0.256646 0.081498 0.580841
Si Si4 0.389631 0.227797 0.319891
Si Si5 0.177663 0.969998 0.268233
Si Si6 0.582885 0.000190 0.172626
O O1 0.122391 0.655219 0.414627
O O2 0.248428 0.516447 0.491581
O O3 0.153545 0.385738 0.384267
O O4 0.243957 0.579491 0.319765
O O5 0.891768 0.133120 0.298298
O O6 0.930016 0.391488 0.257264
O O7 0.023192 0.247758 0.358080
O O8 0.250000 0.250000 0.561805
O O9 0.197273 0.040113 0.661390
O O10 0.344190 0.051610 0.615741
O O11 0.342659 0.372050 0.303039
O O12 0.398095 0.149539 0.221596
O O13 0.500000 0.000000 0.121891
#
# Coordination Sequence:
#
# PCOD9354246 Si02
#       6
#     8   8   8   8   8   8
#     4  11  23  39  63  89 121 161 214 251 305 381
#     4  10  20  41  63  87 120 167 203 252 312 370
#     4  12  22  38  64  91 125 168 204 258 321 372
#     4  10  21  38  64  90 121 159 210 258 308 360
#     4  12  21  40  62  92 125 159 200 262 317 371
#     4   9  19  36  59  86 115 157 206 242 294 369
#
# _framework density 20.363451000000001
#
# number of rings (size 3 to 8) (size 9 to 14) (size 15 to 20)
#    0.000    1.333    5.000    4.000    0.000    1.333 
#    6.000    0.000    0.000    2.000    0.000    0.000 
#    0.000    0.000    0.000    0.000    0.000    0.000 
#
# Total GULP energy -134033.621547 kJ/mol
# GULP energy per Si atom -5584.734231 kJ/mol
# Density = 2.031710 g / cm^3
# Si number density = 20.363451 Si / 1000 Ang^3
#
#
#
# Elastic Constant Matrix: (Units=GPa)
#
#
# Indices 1 2 3 4 5 6 
#
# 1 89.2396 24.1860 3.4734 0.0000 0.0000 0.0000
# 2 24.1860 64.6247 6.8628 0.0000 0.0000 0.0000
# 3 3.4734 6.8628 62.8154 0.0000 0.0000 0.0000
# 4 0.0000 0.0000 0.0000 16.6078 0.0000 0.0000
# 5 0.0000 0.0000 0.0000 0.0000 13.9749 0.0000
# 6 0.0000 0.0000 0.0000 0.0000 0.0000 33.9133
#
#
#
# Elastic Compliance Matrix: (Units=1/GPa)
#
#
# Indices 1 2 3 4 5 6 
#
# 1 0.012473 -0.004649 -0.000182 0.000000 0.000000 0.000000
# 2 -0.004649 0.017388 -0.001643 0.000000 0.000000 0.000000
# 3 -0.000182 -0.001643 0.016109 0.000000 0.000000 0.000000
# 4 0.000000 0.000000 0.000000 0.060213 0.000000 0.000000
# 5 0.000000 0.000000 0.000000 0.000000 0.071557 0.000000
# 6 0.000000 0.000000 0.000000 0.000000 0.000000 0.029487
#
#
# Mechanical properties :
#
#
# Convention : Reuss Voigt Hill
#
# Bulk Modulus (GPa) = 30.28117 31.74716 31.01416
# Shear Modulus (GPa) = 21.62812 25.04305 23.33558
#
# Velocity S-wave (km/s) = 3.26253 3.51066 3.38887
# Velocity P-wave (km/s) = 5.39396 5.66190 5.52955
#
# Compressibility (1/GPa) = 0.03302382
#
# Stress axis : x y z
#
# Youngs Moduli (GPa) = 80.17474 57.51034 62.07639
#
# Poissons Ratio (x) = 0.26735 0.01129
# Poissons Ratio (y) = 0.37271 0.10197
# Poissons Ratio (z) = 0.01458 0.09447
#
# Static dielectric constant tensor:
#      x y z
#    x 1.754750 0.000000 0.000000 
#    y 0.000000 1.722310 0.000000 
#    z 0.000000 0.000000 1.744060 
# 
# From -- ./inp_files/10584.got.cif
#   From: 2010.05.17/outbox.cif.g08.bks.cpg/sg37_6_cif.got.tgz:10584.got - 2010.06.03 17:53:42.
