data_PCOD9354971
_publ_section_title
;
Structure prediction by ZEFSAII (Michael W. Deem and Ramdas Pophale) SiO2 
 PCOD9354971
Probable space group: C C C 2
;
_chemical_formula_sum "Si O2"
_cell_formula_units_Z 48
_cell_length_a 8.450411
_cell_length_b 13.183946
_cell_length_c 21.076298
_cell_angle_alpha 90.000000
_cell_angle_beta 90.000000
_cell_angle_gamma 90.000000
_cell_volume 2348.105350
_symmetry_space_group_name_H-M "C C C 2"
_symmetry_group_IT_number 37
_symmetry_cell_setting 'orthorhombic'
loop_
_space_group_symop_operation_xyz
x,y,z
-x,-y,z
-x,y,1/2+z
x,-y,1/2+z
1/2+x,1/2+y,z
1/2-x,1/2-y,z
1/2-x,1/2+y,1/2+z
1/2+x,1/2-y,1/2+z
loop_
_atom_site_type_symbol
_atom_site_label
_atom_site_fract_x
_atom_site_fract_y
_atom_site_fract_z
Si Si1 0.324445 0.469402 0.879020
Si Si2 0.750000 0.250000 0.594036
Si Si3 0.477977 0.114067 0.635964
Si Si4 0.462176 0.310247 0.979455
Si Si5 0.386544 0.166173 0.384652
Si Si6 0.638285 0.847592 0.775310
Si Si7 0.250000 0.750000 0.048955
O O1 0.500000 0.500000 0.857625
O O2 0.373420 0.390382 0.934701
O O3 0.203744 0.560185 0.897571
O O4 0.241146 0.420726 0.818889
O O5 0.644815 0.173140 0.634261
O O6 0.635365 0.305044 0.544042
O O7 0.409841 0.111758 0.706839
O O8 0.360847 0.179337 0.591760
O O9 0.500000 0.000000 0.611837
O O10 0.488858 0.206408 0.938325
O O11 0.641117 0.322963 0.005342
O O12 0.250000 0.250000 0.379616
O O13 0.483103 0.168130 0.318864
O O14 0.750000 0.750000 0.766509
#
# Coordination Sequence:
#
# PCOD9354971 Si02
#       7
#     8   4   8   8   8   8   4
#     4  12  23  41  68 105 135 177 218 271 354 414
#     4  10  26  42  70  98 130 182 230 278 332 402
#     4  11  25  48  67  98 133 180 235 278 340 392
#     4  11  21  42  65  99 139 172 223 269 344 399
#     4  12  23  41  67 101 139 173 214 281 342 405
#     4  12  24  45  70  96 136 176 226 285 337 407
#     4  10  22  44  70  94 138 182 224 286 322 404
#
# _framework density 20.442014
#
# number of rings (size 3 to 8) (size 9 to 14) (size 15 to 20)
#    0.000    0.667    5.000    2.500    1.167    4.000 
#    3.000    2.500    0.000    0.000    0.000    0.000 
#    0.000    0.000    0.000    0.000    0.000    0.000 
#
# Total GULP energy -133896.148750 kJ/mol
# GULP energy per Si atom -5579.006198 kJ/mol
# Density = 2.039549 g / cm^3
# Si number density = 20.442014 Si / 1000 Ang^3
#
#
#
# Elastic Constant Matrix: (Units=GPa)
#
#
# Indices 1 2 3 4 5 6 
#
# 1 120.9404 53.5053 32.9895 0.0000 0.0000 0.0000
# 2 53.5053 126.0166 31.7968 0.0000 0.0000 0.0000
# 3 32.9895 31.7968 94.8033 0.0000 0.0000 0.0000
# 4 0.0000 0.0000 0.0000 10.8262 0.0000 0.0000
# 5 0.0000 0.0000 0.0000 0.0000 39.7285 0.0000
# 6 0.0000 0.0000 0.0000 0.0000 0.0000 48.1649
#
#
#
# Elastic Compliance Matrix: (Units=1/GPa)
#
#
# Indices 1 2 3 4 5 6 
#
# 1 0.010656 -0.003921 -0.002393 0.000000 0.000000 0.000000
# 2 -0.003921 0.010112 -0.002027 0.000000 0.000000 0.000000
# 3 -0.002393 -0.002027 0.012061 0.000000 0.000000 0.000000
# 4 0.000000 0.000000 0.000000 0.092368 0.000000 0.000000
# 5 0.000000 0.000000 0.000000 0.000000 0.025171 0.000000
# 6 0.000000 0.000000 0.000000 0.000000 0.000000 0.020762
#
#
# Mechanical properties :
#
#
# Convention : Reuss Voigt Hill
#
# Bulk Modulus (GPa) = 61.93205 64.26036 63.09621
# Shear Modulus (GPa) = 25.88090 34.64185 30.26137
#
# Velocity S-wave (km/s) = 3.56204 4.12107 3.85171
# Velocity P-wave (km/s) = 6.87603 7.35853 7.12136
#
# Compressibility (1/GPa) = 0.01614673
#
# Stress axis : x y z
#
# Youngs Moduli (GPa) = 93.84591 98.89673 82.91334
#
# Poissons Ratio (x) = 0.38772 0.19842
# Poissons Ratio (y) = 0.36792 0.16808
# Poissons Ratio (z) = 0.22458 0.20048
#
# Static dielectric constant tensor:
#      x y z
#    x 1.813800 0.000000 0.000000 
#    y 0.000000 1.773640 0.000000 
#    z 0.000000 0.000000 1.713360 
# 
# From -- ./inp_files/18371.got.cif
#   From: 2010.05.17/outbox.cif.g08.bks.cpg/sg37_10_cif.got.tgz:18371.got - 2010.06.03 17:53:42.
