data_PCOD9354903
_publ_section_title
;
Structure prediction by ZEFSAII (Michael W. Deem and Ramdas Pophale) SiO2 
 PCOD9354903
Probable space group: C C C 2
;
_chemical_formula_sum "Si O2"
_cell_formula_units_Z 48
_cell_length_a 6.328042
_cell_length_b 20.820346
_cell_length_c 17.578538
_cell_angle_alpha 90.000000
_cell_angle_beta 90.000000
_cell_angle_gamma 90.000000
_cell_volume 2316.007959
_symmetry_space_group_name_H-M "C C C 2"
_symmetry_group_IT_number 37
_symmetry_cell_setting 'orthorhombic'
loop_
_space_group_symop_operation_xyz
x,y,z
-x,-y,z
-x,y,1/2+z
x,-y,1/2+z
1/2+x,1/2+y,z
1/2-x,1/2-y,z
1/2-x,1/2+y,1/2+z
1/2+x,1/2-y,1/2+z
loop_
_atom_site_type_symbol
_atom_site_label
_atom_site_fract_x
_atom_site_fract_y
_atom_site_fract_z
Si Si1 0.814090 0.553788 0.087980
Si Si2 0.931558 0.926126 0.935616
Si Si3 0.920842 0.343771 0.700691
Si Si4 0.154729 0.439862 0.809723
Si Si5 0.500000 0.500000 0.713846
Si Si6 0.384013 0.314337 0.337725
Si Si7 0.750000 0.750000 0.755179
O O1 0.897201 0.621999 0.119784
O O2 0.682847 0.526741 0.159855
O O3 0.000000 0.500000 0.069956
O O4 0.641426 0.569558 0.023124
O O5 0.710460 0.914406 0.892218
O O6 0.092232 0.872268 0.900302
O O7 0.000000 0.000000 0.918578
O O8 0.720598 0.332089 0.755726
O O9 0.043165 0.393744 0.752617
O O10 0.073249 0.282690 0.702620
O O11 0.379823 0.452423 0.769882
O O12 0.000000 0.500000 0.817443
O O13 0.250000 0.250000 0.362994
O O14 0.619072 0.294850 0.312648
#
# Coordination Sequence:
#
# PCOD9354903 Si02
#       7
#     8   8   8   8   4   8   4
#     4  12  25  41  62 100 145 176 213 290 361 417
#     4  12  24  41  68 103 142 182 222 289 356 419
#     4  11  21  40  70  96 131 173 236 282 337 405
#     4  12  21  36  66  96 129 173 225 276 343 410
#     4  12  20  38  62  94 132 176 214 270 352 404
#     4  10  23  44  74 100 132 182 238 288 340 420
#     4  10  22  42  72  98 124 176 242 286 328 410
#
# _framework density 20.725315999999999
#
# number of rings (size 3 to 8) (size 9 to 14) (size 15 to 20)
#    0.000    0.667    6.667    2.500    0.000    0.000 
#    0.000    0.000    7.333    0.000    0.000    0.000 
#    0.000    0.000    0.000    0.000    0.000    0.000 
#
# Total GULP energy -133614.124537 kJ/mol
# GULP energy per Si atom -5567.255189 kJ/mol
# Density = 2.067814 g / cm^3
# Si number density = 20.725316 Si / 1000 Ang^3
#
#
#
# Elastic Constant Matrix: (Units=GPa)
#
#
# Indices 1 2 3 4 5 6 
#
# 1 82.3176 36.4270 10.9805 0.0000 0.0000 0.0000
# 2 36.4270 113.5140 35.9523 0.0000 0.0000 0.0000
# 3 10.9805 35.9523 84.0211 0.0000 0.0000 0.0000
# 4 0.0000 0.0000 0.0000 25.1546 0.0000 0.0000
# 5 0.0000 0.0000 0.0000 0.0000 21.7292 0.0000
# 6 0.0000 0.0000 0.0000 0.0000 0.0000 43.4336
#
#
#
# Elastic Compliance Matrix: (Units=1/GPa)
#
#
# Indices 1 2 3 4 5 6 
#
# 1 0.014160 -0.004578 0.000109 0.000000 0.000000 0.000000
# 2 -0.004578 0.011671 -0.004396 0.000000 0.000000 0.000000
# 3 0.000109 -0.004396 0.013768 0.000000 0.000000 0.000000
# 4 0.000000 0.000000 0.000000 0.039754 0.000000 0.000000
# 5 0.000000 0.000000 0.000000 0.000000 0.046021 0.000000
# 6 0.000000 0.000000 0.000000 0.000000 0.000000 0.023024
#
#
# Mechanical properties :
#
#
# Convention : Reuss Voigt Hill
#
# Bulk Modulus (GPa) = 45.72839 49.61917 47.67378
# Shear Modulus (GPa) = 28.83214 31.16301 29.99757
#
# Velocity S-wave (km/s) = 3.73387 3.88186 3.80858
# Velocity P-wave (km/s) = 6.37973 6.63966 6.51099
#
# Compressibility (1/GPa) = 0.02186825
#
# Stress axis : x y z
#
# Youngs Moduli (GPa) = 70.62380 85.68376 72.62982
#
# Poissons Ratio (x) = 0.39228 -0.00788
# Poissons Ratio (y) = 0.32333 0.31925
# Poissons Ratio (z) = -0.00766 0.37663
#
# Static dielectric constant tensor:
#      x y z
#    x 1.698510 0.000000 0.000000 
#    y 0.000000 1.850860 0.000000 
#    z 0.000000 0.000000 1.704830 
# 
# From -- ./inp_files/13930.got.cif
#   From: 2010.05.17/outbox.cif.g08.bks.cpg/sg37_7_cif.got.tgz:13930.got - 2010.06.03 17:53:42.
