data_PCOD9354950
_publ_section_title
;
Structure prediction by ZEFSAII (Michael W. Deem and Ramdas Pophale) SiO2 
 PCOD9354950
Probable space group: C C C 2
;
_chemical_formula_sum "Si O2"
_cell_formula_units_Z 64
_cell_length_a 8.535801
_cell_length_b 26.494098
_cell_length_c 13.420970
_cell_angle_alpha 90.000000
_cell_angle_beta 90.000000
_cell_angle_gamma 90.000000
_cell_volume 3035.130197
_symmetry_space_group_name_H-M "C C C 2"
_symmetry_group_IT_number 37
_symmetry_cell_setting 'orthorhombic'
loop_
_space_group_symop_operation_xyz
x,y,z
-x,-y,z
-x,y,1/2+z
x,-y,1/2+z
1/2+x,1/2+y,z
1/2-x,1/2-y,z
1/2-x,1/2+y,1/2+z
1/2+x,1/2-y,1/2+z
loop_
_atom_site_type_symbol
_atom_site_label
_atom_site_fract_x
_atom_site_fract_y
_atom_site_fract_z
Si Si1 0.633494 0.464171 0.276210
Si Si2 0.458239 0.944474 0.386992
Si Si3 0.888743 0.792799 0.489748
Si Si4 0.607292 0.720373 0.810725
Si Si5 0.137811 0.462605 0.185958
Si Si6 0.417694 0.231688 0.143487
Si Si7 0.307421 0.368898 0.658939
Si Si8 0.026857 0.379104 0.072315
O O1 0.500000 0.500000 0.325016
O O2 0.777152 0.447047 0.349232
O O3 0.711748 0.504072 0.201291
O O4 0.596175 0.415092 0.208371
O O5 0.573322 0.942380 0.291852
O O6 0.493732 0.898225 0.459993
O O7 0.500000 0.000000 0.431092
O O8 0.750000 0.750000 0.485270
O O9 0.841854 0.843109 0.550842
O O10 0.972827 0.799749 0.384077
O O11 0.020328 0.769320 0.560290
O O12 0.750000 0.750000 0.863271
O O13 0.531897 0.761897 0.737007
O O14 0.671835 0.675951 0.739547
O O15 0.000000 0.500000 0.151103
O O16 0.158447 0.416561 0.113282
O O17 0.250000 0.250000 0.177819
O O18 0.423564 0.177458 0.092928
O O19 0.129296 0.387287 0.639386
#
# Coordination Sequence:
#
# PCOD9354950 Si02
#       8
#     8   8   8   8   8   8   8   8
#     4  10  22  44  65  93 141 179 213 278 353 398
#     4   9  21  38  66 101 126 169 233 274 319 409
#     4  11  23  43  65 102 134 174 226 281 343 411
#     4  11  23  44  68  95 135 179 223 288 346 403
#     4   9  19  38  63  94 125 168 228 271 320 405
#     4  11  24  41  63  96 135 173 227 283 340 411
#     4  11  22  44  71  95 134 180 228 278 338 414
#     4  12  20  40  73  94 129 176 235 276 334 401
#
# _framework density 21.086409
#
# number of rings (size 3 to 8) (size 9 to 14) (size 15 to 20)
#    0.000    1.750    5.000    1.875    0.000    5.000 
#    6.750    0.625    0.000    0.000    0.000    0.000 
#    0.000    0.000    0.000    0.000    0.000    0.000 
#
# Total GULP energy -178311.341266 kJ/mol
# GULP energy per Si atom -5572.229415 kJ/mol
# Density = 2.103842 g / cm^3
# Si number density = 21.086409 Si / 1000 Ang^3
#
#
#
# Elastic Constant Matrix: (Units=GPa)
#
#
# Indices 1 2 3 4 5 6 
#
# 1 58.1350 25.3954 12.9460 0.0000 0.0000 0.0000
# 2 25.3954 110.2118 32.2714 0.0000 0.0000 0.0000
# 3 12.9460 32.2714 88.8035 0.0000 0.0000 0.0000
# 4 0.0000 0.0000 0.0000 33.7499 0.0000 0.0000
# 5 0.0000 0.0000 0.0000 0.0000 23.7129 0.0000
# 6 0.0000 0.0000 0.0000 0.0000 0.0000 27.1159
#
#
#
# Elastic Compliance Matrix: (Units=1/GPa)
#
#
# Indices 1 2 3 4 5 6 
#
# 1 0.019268 -0.004048 -0.001338 0.000000 0.000000 0.000000
# 2 -0.004048 0.011004 -0.003409 0.000000 0.000000 0.000000
# 3 -0.001338 -0.003409 0.012695 0.000000 0.000000 0.000000
# 4 0.000000 0.000000 0.000000 0.029630 0.000000 0.000000
# 5 0.000000 0.000000 0.000000 0.000000 0.042171 0.000000
# 6 0.000000 0.000000 0.000000 0.000000 0.000000 0.036879
#
#
# Mechanical properties :
#
#
# Convention : Reuss Voigt Hill
#
# Bulk Modulus (GPa) = 39.40549 44.26401 41.83475
# Shear Modulus (GPa) = 28.13815 29.35155 28.74485
#
# Velocity S-wave (km/s) = 3.65694 3.73495 3.69615
# Velocity P-wave (km/s) = 6.04641 6.29580 6.17237
#
# Compressibility (1/GPa) = 0.02537717
#
# Stress axis : x y z
#
# Youngs Moduli (GPa) = 51.90071 90.87314 78.77332
#
# Poissons Ratio (x) = 0.36785 0.10539
# Poissons Ratio (y) = 0.21009 0.26853
# Poissons Ratio (z) = 0.06943 0.30978
#
# Static dielectric constant tensor:
#      x y z
#    x 1.796050 0.000000 0.000000 
#    y 0.000000 1.777880 0.000000 
#    z 0.000000 0.000000 1.791310 
# 
# From -- ./inp_files/11009.got.cif
#   From: 2010.05.17/outbox.cif.g08.bks.cpg/sg37_6_cif.got.tgz:11009.got - 2010.06.03 17:53:42.
