data_PCOD9354732
_publ_section_title
;
Structure prediction by ZEFSAII (Michael W. Deem and Ramdas Pophale) SiO2 
 PCOD9354732
Probable space group: C C C 2
;
_chemical_formula_sum "Si O2"
_cell_formula_units_Z 40
_cell_length_a 11.155222
_cell_length_b 8.386896
_cell_length_c 19.222771
_cell_angle_alpha 90.000000
_cell_angle_beta 90.000000
_cell_angle_gamma 90.000000
_cell_volume 1798.437988
_symmetry_space_group_name_H-M "C C C 2"
_symmetry_group_IT_number 37
_symmetry_cell_setting 'orthorhombic'
loop_
_space_group_symop_operation_xyz
x,y,z
-x,-y,z
-x,y,1/2+z
x,-y,1/2+z
1/2+x,1/2+y,z
1/2-x,1/2-y,z
1/2-x,1/2+y,1/2+z
1/2+x,1/2-y,1/2+z
loop_
_atom_site_type_symbol
_atom_site_label
_atom_site_fract_x
_atom_site_fract_y
_atom_site_fract_z
Si Si1 0.383160 0.319931 0.125000
Si Si2 0.675524 0.586164 0.406615
Si Si3 0.123964 0.155658 0.559397
Si Si4 0.577979 0.766436 0.282630
Si Si5 0.819919 0.599915 0.810993
O O1 0.250000 0.250000 0.111504
O O2 0.369841 0.507147 0.111142
O O3 0.497076 0.259587 0.078292
O O4 0.422268 0.291110 0.204161
O O5 0.750000 0.750000 0.411904
O O6 0.616905 0.581401 0.481760
O O7 0.599193 0.626057 0.338162
O O8 0.758655 0.437897 0.385507
O O9 0.250000 0.250000 0.565228
O O10 0.454637 0.840332 0.309617
O O11 0.670639 0.918582 0.281016
O O12 0.750000 0.750000 0.777483
#
# Coordination Sequence:
#
# PCOD9354732 Si02
#       5
#     8   8   8   8   8
#     4  11  25  43  64  96 139 181 226 279 341 410
#     4   9  20  43  67  94 131 167 218 283 333 390
#     4  10  25  45  67  96 135 183 228 274 339 413
#     4  10  23  42  64  95 130 166 219 283 335 392
#     4  10  22  38  67  98 122 163 218 276 340 392
#
# _framework density 22.241523000000001
#
# number of rings (size 3 to 8) (size 9 to 14) (size 15 to 20)
#    0.000    2.000    0.000    1.800    0.000   19.200 
#    0.000    4.000    0.000    0.000    0.000    0.000 
#    0.000    0.000    0.000    0.000    0.000    0.000 
#
# Total GULP energy -111367.570096 kJ/mol
# GULP energy per Si atom -5568.378505 kJ/mol
# Density = 2.219090 g / cm^3
# Si number density = 22.241523 Si / 1000 Ang^3
#
#
#
# Elastic Constant Matrix: (Units=GPa)
#
#
# Indices 1 2 3 4 5 6 
#
# 1 175.1965 52.9699 64.5475 0.0000 0.0000 0.0000
# 2 52.9699 93.7871 40.9871 0.0000 0.0000 0.0000
# 3 64.5475 40.9871 157.3968 0.0000 0.0000 0.0000
# 4 0.0000 0.0000 0.0000 35.8258 0.0000 0.0000
# 5 0.0000 0.0000 0.0000 0.0000 -46.5550 0.0000
# 6 0.0000 0.0000 0.0000 0.0000 0.0000 47.4020
#
#
#
# Elastic Compliance Matrix: (Units=1/GPa)
#
#
# Indices 1 2 3 4 5 6 
#
# 1 0.007519 -0.003271 -0.002232 0.000000 0.000000 0.000000
# 2 -0.003271 0.013455 -0.002162 0.000000 0.000000 0.000000
# 3 -0.002232 -0.002162 0.007832 0.000000 0.000000 0.000000
# 4 0.000000 0.000000 0.000000 0.027913 0.000000 0.000000
# 5 0.000000 0.000000 0.000000 0.000000 -0.021480 0.000000
# 6 0.000000 0.000000 0.000000 0.000000 0.000000 0.021096
#
#
# Mechanical properties :
#
#
# Convention : Reuss Voigt Hill
#
# Bulk Modulus (GPa) = 74.21016 82.59882 78.40449
# Shear Modulus (GPa) = 65.65363 25.19296 45.42330
#
# Velocity S-wave (km/s) = 5.43899 3.36921 4.52406
# Velocity P-wave (km/s) = 8.53706 7.23556 7.91311
#
# Compressibility (1/GPa) = 0.01347524
#
# Stress axis : x y z
#
# Youngs Moduli (GPa) = 132.99283 74.32150 127.68768
#
# Poissons Ratio (x) = 0.24314 0.28496
# Poissons Ratio (y) = 0.43508 0.27608
# Poissons Ratio (z) = 0.29680 0.16070
#
# Static dielectric constant tensor:
#      x y z
#    x 2.019250 0.000000 0.000000 
#    y 0.000000 1.835740 0.000000 
#    z 0.000000 0.000000 1.837830 
# 
# From -- ./inp_files/14227.got.cif
#   From: 2010.05.17/outbox.cif.g08.bks.cpg/sg37_8_cif.got.tgz:14227.got - 2010.06.03 17:53:42.
