data_PCOD9354254
_publ_section_title
;
Structure prediction by ZEFSAII (Michael W. Deem and Ramdas Pophale) SiO2 
 PCOD9354254
Probable space group: C C C 2
;
_chemical_formula_sum "Si O2"
_cell_formula_units_Z 48
_cell_length_a 5.191248
_cell_length_b 14.443572
_cell_length_c 26.427624
_cell_angle_alpha 90.000000
_cell_angle_beta 90.000000
_cell_angle_gamma 90.000000
_cell_volume 1981.547588
_symmetry_space_group_name_H-M "C C C 2"
_symmetry_group_IT_number 37
_symmetry_cell_setting 'orthorhombic'
loop_
_space_group_symop_operation_xyz
x,y,z
-x,-y,z
-x,y,1/2+z
x,-y,1/2+z
1/2+x,1/2+y,z
1/2-x,1/2-y,z
1/2-x,1/2+y,1/2+z
1/2+x,1/2-y,1/2+z
loop_
_atom_site_type_symbol
_atom_site_label
_atom_site_fract_x
_atom_site_fract_y
_atom_site_fract_z
Si Si1 0.004436 0.111636 0.948880
Si Si2 0.963369 0.388921 0.122406
Si Si3 0.750000 0.750000 0.270117
Si Si4 0.598483 0.653684 0.832916
Si Si5 0.000000 0.000000 0.763291
Si Si6 0.995702 0.612960 0.507148
Si Si7 0.547191 0.345050 0.685200
O O1 0.724982 0.142491 0.967951
O O2 0.080312 0.138714 0.892238
O O3 0.224953 0.142498 0.987728
O O4 0.000000 0.000000 0.949524
O O5 0.714547 0.363101 0.155391
O O6 0.000000 0.500000 0.123043
O O7 0.221984 0.345434 0.145127
O O8 0.932354 0.358718 0.064224
O O9 0.689237 0.669426 0.310059
O O10 0.531140 0.736979 0.227178
O O11 0.750000 0.750000 0.823666
O O12 0.678119 0.563621 0.800124
O O13 0.123844 0.929269 0.723052
O O14 0.000000 0.500000 0.507323
#
# Coordination Sequence:
#
# PCOD9354254 Si02
#       7
#     8   8   4   8   4   8   8
#     4  10  20  41  66  98 130 178 228 295 352 424
#     4  11  20  38  67 103 129 179 229 289 352 428
#     4  10  28  42  62  98 140 186 236 296 344 426
#     4  11  25  44  70  98 140 188 236 295 362 425
#     4  10  22  46  64 106 134 184 236 290 342 430
#     4   9  20  36  66  99 134 167 230 293 354 415
#     4  11  23  40  67  96 139 179 231 282 349 422
#
# _framework density 24.223490999999999
#
# number of rings (size 3 to 8) (size 9 to 14) (size 15 to 20)
#    0.000    1.667    2.500    1.000    7.000    2.667 
#    0.000    0.000   11.000    0.000    0.000    0.000 
#    0.000    0.000    0.000    0.000    0.000    0.000 
#
# Total GULP energy -133880.561964 kJ/mol
# GULP energy per Si atom -5578.356749 kJ/mol
# Density = 2.416836 g / cm^3
# Si number density = 24.223491 Si / 1000 Ang^3
#
#
#
# Elastic Constant Matrix: (Units=GPa)
#
#
# Indices 1 2 3 4 5 6 
#
# 1 128.1971 22.7391 48.0465 0.0000 0.0000 0.0000
# 2 22.7391 101.6395 38.7482 0.0000 0.0000 0.0000
# 3 48.0465 38.7482 173.7522 0.0000 0.0000 0.0000
# 4 0.0000 0.0000 0.0000 26.0677 0.0000 0.0000
# 5 0.0000 0.0000 0.0000 0.0000 16.7235 0.0000
# 6 0.0000 0.0000 0.0000 0.0000 0.0000 20.0999
#
#
#
# Elastic Compliance Matrix: (Units=1/GPa)
#
#
# Indices 1 2 3 4 5 6 
#
# 1 0.008822 -0.001141 -0.002185 0.000000 0.000000 0.000000
# 2 -0.001141 0.010900 -0.002115 0.000000 0.000000 0.000000
# 3 -0.002185 -0.002115 0.006831 0.000000 0.000000 0.000000
# 4 0.000000 0.000000 0.000000 0.038362 0.000000 0.000000
# 5 0.000000 0.000000 0.000000 0.000000 0.059796 0.000000
# 6 0.000000 0.000000 0.000000 0.000000 0.000000 0.049751
#
#
# Mechanical properties :
#
#
# Convention : Reuss Voigt Hill
#
# Bulk Modulus (GPa) = 63.81154 69.18403 66.49779
# Shear Modulus (GPa) = 26.23727 32.18190 29.20959
#
# Velocity S-wave (km/s) = 3.29467 3.64887 3.47628
# Velocity P-wave (km/s) = 6.39321 6.80992 6.60485
#
# Compressibility (1/GPa) = 0.01567115
#
# Stress axis : x y z
#
# Youngs Moduli (GPa) = 113.35648 91.74014 146.38500
#
# Poissons Ratio (x) = 0.10464 0.31986
# Poissons Ratio (y) = 0.12930 0.30967
# Poissons Ratio (z) = 0.24769 0.19407
#
# Static dielectric constant tensor:
#      x y z
#    x 1.961530 0.000000 0.000000 
#    y 0.000000 2.162560 0.000000 
#    z 0.000000 0.000000 1.858140 
# 
# From -- ./inp_files/17975.got.cif
#   From: 2010.05.17/outbox.cif.g08.bks.cpg/sg37_9_cif.got.tgz:17975.got - 2010.06.03 17:53:42.
