data_PCOD9354031
_publ_section_title
;
Structure prediction by ZEFSAII (Michael W. Deem and Ramdas Pophale) SiO2 
 PCOD9354031
Probable space group: C C C 2
;
_chemical_formula_sum "Si O2"
_cell_formula_units_Z 48
_cell_length_a 8.098427
_cell_length_b 18.396253
_cell_length_c 16.186885
_cell_angle_alpha 90.000000
_cell_angle_beta 90.000000
_cell_angle_gamma 90.000000
_cell_volume 2411.533652
_symmetry_space_group_name_H-M "C C C 2"
_symmetry_group_IT_number 37
_symmetry_cell_setting 'orthorhombic'
loop_
_space_group_symop_operation_xyz
x,y,z
-x,-y,z
-x,y,1/2+z
x,-y,1/2+z
1/2+x,1/2+y,z
1/2-x,1/2-y,z
1/2-x,1/2+y,1/2+z
1/2+x,1/2-y,1/2+z
loop_
_atom_site_type_symbol
_atom_site_label
_atom_site_fract_x
_atom_site_fract_y
_atom_site_fract_z
Si Si1 0.129308 0.310024 0.153840
Si Si2 0.353261 0.400255 0.276533
Si Si3 0.592774 0.198471 0.307395
Si Si4 0.272272 0.558817 0.243950
Si Si5 0.599155 0.927210 0.569341
Si Si6 0.706268 0.172645 0.929881
O O1 0.250000 0.250000 0.114752
O O2 0.250214 0.361756 0.205396
O O3 0.007032 0.276738 0.224429
O O4 0.023703 0.361369 0.094925
O O5 0.271618 0.479942 0.286256
O O6 0.540948 0.412704 0.250473
O O7 0.332882 0.351355 0.357858
O O8 0.750000 0.250000 0.322451
O O9 0.657091 0.117790 0.286890
O O10 0.464993 0.188695 0.381925
O O11 0.210373 0.554330 0.149421
O O12 0.698087 0.892886 0.493838
O O13 0.500000 0.000000 0.547426
O O14 0.750000 0.250000 0.970250
#
# Coordination Sequence:
#
# PCOD9354031 Si02
#       6
#     8   8   8   8   8   8
#     4  10  20  36  64  90 121 166 213 266 304 372
#     4  10  20  40  64  93 123 158 220 262 310 367
#     4  10  20  36  62  92 122 164 220 262 311 376
#     4  10  21  38  67  92 117 168 213 264 306 376
#     4  11  24  42  62  94 132 170 208 259 330 386
#     4  11  25  40  62  91 133 168 203 264 324 383
#
# _framework density 19.904346
#
# number of rings (size 3 to 8) (size 9 to 14) (size 15 to 20)
#    0.000    1.667    1.667    4.000    2.333    4.667 
#    0.000    5.000    0.000    0.000    0.000    0.000 
#    0.000    0.000    0.000    0.000    0.000    0.000 
#
# Total GULP energy -134035.835993 kJ/mol
# GULP energy per Si atom -5584.826500 kJ/mol
# Density = 1.985904 g / cm^3
# Si number density = 19.904346 Si / 1000 Ang^3
#
#
#
# Elastic Constant Matrix: (Units=GPa)
#
#
# Indices 1 2 3 4 5 6 
#
# 1 59.3247 26.3375 -4.0721 0.0000 0.0000 0.0000
# 2 26.3375 88.1728 15.7400 0.0000 0.0000 0.0000
# 3 -4.0721 15.7400 29.1583 0.0000 0.0000 0.0000
# 4 0.0000 0.0000 0.0000 24.0703 0.0000 0.0000
# 5 0.0000 0.0000 0.0000 0.0000 4.6887 0.0000
# 6 0.0000 0.0000 0.0000 0.0000 0.0000 46.3038
#
#
#
# Elastic Compliance Matrix: (Units=1/GPa)
#
#
# Indices 1 2 3 4 5 6 
#
# 1 0.020603 -0.007379 0.006861 0.000000 0.000000 0.000000
# 2 -0.007379 0.015194 -0.009232 0.000000 0.000000 0.000000
# 3 0.006861 -0.009232 0.040237 0.000000 0.000000 0.000000
# 4 0.000000 0.000000 0.000000 0.041545 0.000000 0.000000
# 5 0.000000 0.000000 0.000000 0.000000 0.213280 0.000000
# 6 0.000000 0.000000 0.000000 0.000000 0.000000 0.021597
#
#
# Mechanical properties :
#
#
# Convention : Reuss Voigt Hill
#
# Bulk Modulus (GPa) = 17.68880 28.07409 22.88144
# Shear Modulus (GPa) = 12.79424 24.25591 18.52507
#
# Velocity S-wave (km/s) = 2.53807 3.49467 3.05406
# Velocity P-wave (km/s) = 4.18274 5.51532 4.89459
#
# Compressibility (1/GPa) = 0.05653296
#
# Stress axis : x y z
#
# Youngs Moduli (GPa) = 48.53603 65.81737 24.85258
#
# Poissons Ratio (x) = 0.48566 -0.17050
# Poissons Ratio (y) = 0.35815 0.22944
# Poissons Ratio (z) = -0.33299 0.60764
#
# Static dielectric constant tensor:
#      x y z
#    x 1.724130 0.000000 0.000000 
#    y 0.000000 1.725100 0.000000 
#    z 0.000000 0.000000 1.665950 
# 
# From -- ./inp_files/10568.got.cif
#   From: 2010.05.17/outbox.cif.g08.bks.cpg/sg37_6_cif.got.tgz:10568.got - 2010.06.03 17:53:42.
