data_PCOD9354873
_publ_section_title
;
Structure prediction by ZEFSAII (Michael W. Deem and Ramdas Pophale) SiO2 
 PCOD9354873
Probable space group: C C C 2
;
_chemical_formula_sum "Si O2"
_cell_formula_units_Z 48
_cell_length_a 11.823408
_cell_length_b 20.030874
_cell_length_c 9.127773
_cell_angle_alpha 90.000000
_cell_angle_beta 90.000000
_cell_angle_gamma 90.000000
_cell_volume 2161.759651
_symmetry_space_group_name_H-M "C C C 2"
_symmetry_group_IT_number 37
_symmetry_cell_setting 'orthorhombic'
loop_
_space_group_symop_operation_xyz
x,y,z
-x,-y,z
-x,y,1/2+z
x,-y,1/2+z
1/2+x,1/2+y,z
1/2-x,1/2-y,z
1/2-x,1/2+y,1/2+z
1/2+x,1/2-y,1/2+z
loop_
_atom_site_type_symbol
_atom_site_label
_atom_site_fract_x
_atom_site_fract_y
_atom_site_fract_z
Si Si1 0.036769 0.398754 0.835640
Si Si2 0.000000 0.000000 0.794793
Si Si3 0.376675 0.779380 0.868491
Si Si4 0.752271 0.178408 0.405416
Si Si5 0.500000 0.000000 0.084371
Si Si6 0.441552 0.708065 0.163078
Si Si7 0.088495 0.911698 0.553171
O O1 0.132049 0.342633 0.844918
O O2 0.054275 0.446084 0.695199
O O3 0.917325 0.357228 0.844148
O O4 0.058071 0.448968 0.971100
O O5 0.086427 0.962648 0.687254
O O6 0.939649 0.949028 0.902827
O O7 0.250000 0.750000 0.846906
O O8 0.458148 0.737875 0.760957
O O9 0.406921 0.759616 0.036240
O O10 0.750000 0.250000 0.480063
O O11 0.839754 0.187307 0.270838
O O12 0.796847 0.126627 0.523686
O O13 0.490766 0.642212 0.084610
#
# Coordination Sequence:
#
# PCOD9354873 Si02
#       7
#     8   4   8   8   4   8   8
#     4  11  25  49  73 108 146 196 255 300 371 450
#     4  10  22  42  66  98 150 192 244 298 352 446
#     4  12  27  45  79 111 148 193 246 319 389 441
#     4  12  24  43  74 105 148 191 238 318 372 426
#     4  10  26  50  72  98 152 200 254 298 350 460
#     4  12  23  46  69 112 151 185 244 311 382 445
#     4  11  22  42  67 103 142 192 236 295 366 440
#
# _framework density 22.204134
#
# number of rings (size 3 to 8) (size 9 to 14) (size 15 to 20)
#    0.000    0.667    5.000    1.500    2.333    4.667 
#    0.000    1.667    0.000    0.000    0.000    0.000 
#    0.000    0.000    0.000    0.000    0.000    0.000 
#
# Total GULP energy -134072.961440 kJ/mol
# GULP energy per Si atom -5586.373393 kJ/mol
# Density = 2.215360 g / cm^3
# Si number density = 22.204134 Si / 1000 Ang^3
#
#
#
# Elastic Constant Matrix: (Units=GPa)
#
#
# Indices 1 2 3 4 5 6 
#
# 1 119.4437 43.7618 35.8594 0.0000 0.0000 0.0000
# 2 43.7618 132.5585 51.6719 0.0000 0.0000 0.0000
# 3 35.8594 51.6719 141.0953 0.0000 0.0000 0.0000
# 4 0.0000 0.0000 0.0000 27.2015 0.0000 0.0000
# 5 0.0000 0.0000 0.0000 0.0000 46.8237 0.0000
# 6 0.0000 0.0000 0.0000 0.0000 0.0000 27.7026
#
#
#
# Elastic Compliance Matrix: (Units=1/GPa)
#
#
# Indices 1 2 3 4 5 6 
#
# 1 0.009797 -0.002641 -0.001523 0.000000 0.000000 0.000000
# 2 -0.002641 0.009512 -0.002812 0.000000 0.000000 0.000000
# 3 -0.001523 -0.002812 0.008504 0.000000 0.000000 0.000000
# 4 0.000000 0.000000 0.000000 0.036763 0.000000 0.000000
# 5 0.000000 0.000000 0.000000 0.000000 0.021357 0.000000
# 6 0.000000 0.000000 0.000000 0.000000 0.000000 0.036098
#
#
# Mechanical properties :
#
#
# Convention : Reuss Voigt Hill
#
# Bulk Modulus (GPa) = 72.14230 72.85376 72.49803
# Shear Modulus (GPa) = 35.56135 37.79918 36.68026
#
# Velocity S-wave (km/s) = 4.00630 4.13043 4.06884
# Velocity P-wave (km/s) = 7.34585 7.45851 7.40240
#
# Compressibility (1/GPa) = 0.01386149
#
# Stress axis : x y z
#
# Youngs Moduli (GPa) = 102.07411 105.13196 117.58679
#
# Poissons Ratio (x) = 0.27762 0.17906
# Poissons Ratio (y) = 0.26954 0.33069
# Poissons Ratio (z) = 0.15544 0.29566
#
# Static dielectric constant tensor:
#      x y z
#    x 1.743190 0.000000 0.000000 
#    y 0.000000 1.878550 0.000000 
#    z 0.000000 0.000000 1.816760 
# 
# From -- ./inp_files/2947.got.cif
#   From: 2010.05.17/outbox.cif.g08.bks.cpg/sg37_2_cif.got.tgz:2947.got - 2010.06.03 17:53:42.
