data_PCOD9354071
_publ_section_title
;
Structure prediction by ZEFSAII (Michael W. Deem and Ramdas Pophale) SiO2 
 PCOD9354071
Probable space group: C C C 2
;
_chemical_formula_sum "Si O2"
_cell_formula_units_Z 48
_cell_length_a 8.591008
_cell_length_b 15.529664
_cell_length_c 19.363368
_cell_angle_alpha 90.000000
_cell_angle_beta 90.000000
_cell_angle_gamma 90.000000
_cell_volume 2583.372797
_symmetry_space_group_name_H-M "C C C 2"
_symmetry_group_IT_number 37
_symmetry_cell_setting 'orthorhombic'
loop_
_space_group_symop_operation_xyz
x,y,z
-x,-y,z
-x,y,1/2+z
x,-y,1/2+z
1/2+x,1/2+y,z
1/2-x,1/2-y,z
1/2-x,1/2+y,1/2+z
1/2+x,1/2-y,1/2+z
loop_
_atom_site_type_symbol
_atom_site_label
_atom_site_fract_x
_atom_site_fract_y
_atom_site_fract_z
Si Si1 0.869276 0.168047 0.325380
Si Si2 0.933818 0.743218 0.212718
Si Si3 0.436921 0.250752 0.559774
Si Si4 0.432961 0.096032 0.454809
Si Si5 0.562063 0.906149 0.804855
Si Si6 0.941174 0.097607 0.955438
O O1 0.750000 0.250000 0.336231
O O2 0.747757 0.093068 0.308846
O O3 0.976611 0.187250 0.259767
O O4 0.974567 0.141835 0.389918
O O5 0.750000 0.750000 0.221994
O O6 0.998943 0.655489 0.245747
O O7 0.979474 0.748341 0.133021
O O8 0.250000 0.250000 0.570610
O O9 0.474846 0.167688 0.511933
O O10 0.476332 0.338247 0.518848
O O11 0.500327 0.122991 0.380243
O O12 0.245940 0.094222 0.448066
O O13 0.500000 0.000000 0.469758
O O14 0.500000 0.000000 0.793086
O O15 0.000000 0.000000 0.964367
#
# Coordination Sequence:
#
# PCOD9354071 Si02
#       6
#     8   8   8   8   8   8
#     4  10  21  38  61  84 116 153 192 239 289 344
#     4  11  23  38  58  83 114 153 193 235 289 345
#     4  10  22  40  58  80 117 157 192 235 287 345
#     4  10  21  38  62  88 117 152 192 236 288 344
#     4  10  20  37  60  86 115 148 189 236 286 342
#     4  11  22  37  60  89 117 149 193 241 287 342
#
# _framework density 18.580362999999998
#
# number of rings (size 3 to 8) (size 9 to 14) (size 15 to 20)
#    0.000    1.667    0.000    6.500    0.000    5.333 
#    0.000    4.167    0.000    0.000    0.000    0.000 
#    0.000    0.000    0.000    0.000    0.000    0.000 
#
# Total GULP energy -134010.214526 kJ/mol
# GULP energy per Si atom -5583.758939 kJ/mol
# Density = 1.853807 g / cm^3
# Si number density = 18.580363 Si / 1000 Ang^3
#
#
#
# Elastic Constant Matrix: (Units=GPa)
#
#
# Indices 1 2 3 4 5 6 
#
# 1 118.5336 51.0293 83.0868 0.0000 0.0000 0.0000
# 2 51.0293 88.5769 70.0914 0.0000 0.0000 0.0000
# 3 83.0868 70.0914 158.1271 0.0000 0.0000 0.0000
# 4 0.0000 0.0000 0.0000 6.1019 0.0000 0.0000
# 5 0.0000 0.0000 0.0000 0.0000 37.1244 0.0000
# 6 0.0000 0.0000 0.0000 0.0000 0.0000 27.7290
#
#
#
# Elastic Compliance Matrix: (Units=1/GPa)
#
#
# Indices 1 2 3 4 5 6 
#
# 1 0.014012 -0.003460 -0.005829 0.000000 0.000000 0.000000
# 2 -0.003460 0.018243 -0.006269 0.000000 0.000000 0.000000
# 3 -0.005829 -0.006269 0.012165 0.000000 0.000000 0.000000
# 4 0.000000 0.000000 0.000000 0.163884 0.000000 0.000000
# 5 0.000000 0.000000 0.000000 0.000000 0.026936 0.000000
# 6 0.000000 0.000000 0.000000 0.000000 0.000000 0.036063
#
#
# Mechanical properties :
#
#
# Convention : Reuss Voigt Hill
#
# Bulk Modulus (GPa) = 75.15451 85.96140 80.55796
# Shear Modulus (GPa) = 16.29446 24.92639 20.61043
#
# Velocity S-wave (km/s) = 2.96458 3.66668 3.33417
# Velocity P-wave (km/s) = 7.22873 8.01818 7.63367
#
# Compressibility (1/GPa) = 0.01330592
#
# Stress axis : x y z
#
# Youngs Moduli (GPa) = 71.36978 54.81513 82.20137
#
# Poissons Ratio (x) = 0.18965 0.47913
# Poissons Ratio (y) = 0.24693 0.51528
# Poissons Ratio (z) = 0.41599 0.34361
#
# Static dielectric constant tensor:
#      x y z
#    x 1.643590 0.000000 0.000000 
#    y 0.000000 1.693440 0.000000 
#    z 0.000000 0.000000 1.606040 
# 
# From -- ./inp_files/10619.got.cif
#   From: 2010.05.17/outbox.cif.g08.bks.cpg/sg37_6_cif.got.tgz:10619.got - 2010.06.03 17:53:42.
