data_PCOD9354430
_publ_section_title
;
Structure prediction by ZEFSAII (Michael W. Deem and Ramdas Pophale) SiO2 
 PCOD9354430
Probable space group: C C C 2
;
_chemical_formula_sum "Si O2"
_cell_formula_units_Z 56
_cell_length_a 11.869130
_cell_length_b 16.159107
_cell_length_c 13.038949
_cell_angle_alpha 90.000000
_cell_angle_beta 90.000000
_cell_angle_gamma 90.000000
_cell_volume 2500.799247
_symmetry_space_group_name_H-M "C C C 2"
_symmetry_group_IT_number 37
_symmetry_cell_setting 'orthorhombic'
loop_
_space_group_symop_operation_xyz
x,y,z
-x,-y,z
-x,y,1/2+z
x,-y,1/2+z
1/2+x,1/2+y,z
1/2-x,1/2-y,z
1/2-x,1/2+y,1/2+z
1/2+x,1/2-y,1/2+z
loop_
_atom_site_type_symbol
_atom_site_label
_atom_site_fract_x
_atom_site_fract_y
_atom_site_fract_z
Si Si1 0.750000 0.750000 0.123080
Si Si2 0.370463 0.660918 0.009537
Si Si3 0.853666 0.575561 0.585142
Si Si4 0.977187 0.586932 0.901610
Si Si5 0.739993 0.581629 0.997687
Si Si6 0.922571 0.250992 0.806393
Si Si7 0.375763 0.772719 0.195047
Si Si8 0.000000 0.000000 0.487188
O O1 0.852003 0.737857 0.203283
O O2 0.723301 0.669206 0.054745
O O3 0.374522 0.689906 0.891881
O O4 0.450593 0.583642 0.035020
O O5 0.245352 0.632324 0.036495
O O6 0.403885 0.735777 0.083130
O O7 0.961734 0.578222 0.512679
O O8 0.794557 0.485507 0.578643
O O9 0.885477 0.627653 0.686699
O O10 0.047970 0.660719 0.853659
O O11 0.000000 0.500000 0.846921
O O12 0.843560 0.596851 0.919006
O O13 0.624624 0.540014 0.950828
O O14 0.045840 0.223001 0.772063
O O15 0.250000 0.750000 0.221381
#
# Coordination Sequence:
#
# PCOD9354430 Si02
#       8
#     4   8   8   8   8   8   8   4
#     4  12  26  40  64 108 132 174 234 292 346 422
#     4  10  21  40  65  87 129 177 221 272 340 425
#     4   9  18  40  65  88 121 179 218 272 342 414
#     4  10  21  38  63  93 126 169 222 281 339 403
#     4  10  23  40  66  97 134 174 231 275 347 409
#     4  12  24  37  63  99 132 171 224 290 343 402
#     4  10  21  38  63  91 123 172 222 267 347 406
#     4  10  22  42  66  94 130 190 216 268 344 422
#
# _framework density 22.392842000000002
#
# number of rings (size 3 to 8) (size 9 to 14) (size 15 to 20)
#    0.000    1.714    1.429    2.571    3.000    2.286 
#    0.000    5.714    0.000    0.000    0.000    0.000 
#    0.000    0.000    0.000    0.000    0.000    0.000 
#
# Total GULP energy -155872.888728 kJ/mol
# GULP energy per Si atom -5566.888883 kJ/mol
# Density = 2.234188 g / cm^3
# Si number density = 22.392842 Si / 1000 Ang^3
#
#
#
# Elastic Constant Matrix: (Units=GPa)
#
#
# Indices 1 2 3 4 5 6 
#
# 1 115.8358 22.3988 16.5287 0.0000 0.0000 0.0000
# 2 22.3988 137.3245 29.7327 0.0000 0.0000 0.0000
# 3 16.5287 29.7327 46.3580 0.0000 0.0000 0.0000
# 4 0.0000 0.0000 0.0000 4.4140 0.0000 0.0000
# 5 0.0000 0.0000 0.0000 0.0000 22.9319 0.0000
# 6 0.0000 0.0000 0.0000 0.0000 0.0000 34.1025
#
#
#
# Elastic Compliance Matrix: (Units=1/GPa)
#
#
# Indices 1 2 3 4 5 6 
#
# 1 0.009194 -0.000917 -0.002690 0.000000 0.000000 0.000000
# 2 -0.000917 0.008548 -0.005155 0.000000 0.000000 0.000000
# 3 -0.002690 -0.005155 0.025837 0.000000 0.000000 0.000000
# 4 0.000000 0.000000 0.000000 0.226550 0.000000 0.000000
# 5 0.000000 0.000000 0.000000 0.000000 0.043607 0.000000
# 6 0.000000 0.000000 0.000000 0.000000 0.000000 0.029323
#
#
# Mechanical properties :
#
#
# Convention : Reuss Voigt Hill
#
# Bulk Modulus (GPa) = 38.38187 48.53763 43.45975
# Shear Modulus (GPa) = 13.54027 27.68023 20.61025
#
# Velocity S-wave (km/s) = 2.46167 3.51966 3.03709
# Velocity P-wave (km/s) = 5.02566 6.18385 5.63459
#
# Compressibility (1/GPa) = 0.02605397
#
# Stress axis : x y z
#
# Youngs Moduli (GPa) = 108.76559 116.98875 38.70456
#
# Poissons Ratio (x) = 0.10731 0.10411
# Poissons Ratio (y) = 0.09977 0.19953
# Poissons Ratio (z) = 0.29256 0.60311
#
# Static dielectric constant tensor:
#      x y z
#    x 1.887800 0.000000 0.000000 
#    y 0.000000 1.875740 0.000000 
#    z 0.000000 0.000000 1.886680 
# 
# From -- ./inp_files/11632.got.cif
#   From: 2010.05.17/outbox.cif.g08.bks.cpg/sg37_6_cif.got.tgz:11632.got - 2010.06.03 17:53:42.
