data_PCOD9354953
_publ_section_title
;
Structure prediction by ZEFSAII (Michael W. Deem and Ramdas Pophale) SiO2 
 PCOD9354953
Probable space group: C C C 2
;
_chemical_formula_sum "Si O2"
_cell_formula_units_Z 52
_cell_length_a 5.394478
_cell_length_b 18.590365
_cell_length_c 20.341254
_cell_angle_alpha 90.000000
_cell_angle_beta 90.000000
_cell_angle_gamma 90.000000
_cell_volume 2039.929065
_symmetry_space_group_name_H-M "C C C 2"
_symmetry_group_IT_number 37
_symmetry_cell_setting 'orthorhombic'
loop_
_space_group_symop_operation_xyz
x,y,z
-x,-y,z
-x,y,1/2+z
x,-y,1/2+z
1/2+x,1/2+y,z
1/2-x,1/2-y,z
1/2-x,1/2+y,1/2+z
1/2+x,1/2-y,1/2+z
loop_
_atom_site_type_symbol
_atom_site_label
_atom_site_fract_x
_atom_site_fract_y
_atom_site_fract_z
Si Si1 0.889751 0.677490 0.412410
Si Si2 0.499147 0.575167 0.851269
Si Si3 0.676055 0.413207 0.617806
Si Si4 0.175261 0.324372 0.636381
Si Si5 0.500000 0.000000 0.215897
Si Si6 0.362289 0.151620 0.778629
Si Si7 0.182522 0.566572 0.479872
O O1 0.750000 0.750000 0.430411
O O2 0.716968 0.610019 0.393236
O O3 0.027767 0.688569 0.342967
O O4 0.059094 0.645153 0.469433
O O5 0.500000 0.500000 0.813624
O O6 0.581319 0.635352 0.799813
O O7 0.699605 0.557150 0.907861
O O8 0.425913 0.372440 0.639303
O O9 0.634830 0.432572 0.541435
O O10 0.929409 0.365260 0.612980
O O11 0.774909 0.476546 0.666350
O O12 0.250000 0.250000 0.602254
O O13 0.098640 0.307585 0.711731
O O14 0.535358 0.070810 0.261377
O O15 0.000000 0.500000 0.492373
#
# Coordination Sequence:
#
# PCOD9354953 Si02
#       7
#     8   8   8   8   4   8   8
#     4  11  26  45  70 108 145 192 244 309 387 451
#     4  11  23  40  73  99 138 189 238 299 373 435
#     4  11  26  46  74 103 145 190 254 314 369 455
#     4  11  27  47  70 107 143 199 245 302 385 457
#     4  10  22  44  66 110 136 192 252 310 384 444
#     4  10  25  39  69  99 146 180 242 304 371 453
#     4  11  24  47  69 105 141 189 253 313 372 450
#
# _framework density 25.491081999999999
#
# number of rings (size 3 to 8) (size 9 to 14) (size 15 to 20)
#    0.000    1.231    2.308    1.385   12.923    4.308 
#    2.769    0.000    0.000    0.000    0.000    0.000 
#    0.000    0.000    0.000    0.000    0.000    0.000 
#
# Total GULP energy -145210.402368 kJ/mol
# GULP energy per Si atom -5585.015476 kJ/mol
# Density = 2.543306 g / cm^3
# Si number density = 25.491082 Si / 1000 Ang^3
#
#
#
# Elastic Constant Matrix: (Units=GPa)
#
#
# Indices 1 2 3 4 5 6 
#
# 1 78.1235 33.4602 -12.7873 0.0000 0.0000 0.0000
# 2 33.4602 138.9610 -1.0552 0.0000 0.0000 0.0000
# 3 -12.7873 -1.0552 119.8312 0.0000 0.0000 0.0000
# 4 0.0000 0.0000 0.0000 12.2112 0.0000 0.0000
# 5 0.0000 0.0000 0.0000 0.0000 -63.8245 0.0000
# 6 0.0000 0.0000 0.0000 0.0000 0.0000 49.6767
#
#
#
# Elastic Compliance Matrix: (Units=1/GPa)
#
#
# Indices 1 2 3 4 5 6 
#
# 1 0.014544 -0.003491 0.001521 0.000000 0.000000 0.000000
# 2 -0.003491 0.008034 -0.000302 0.000000 0.000000 0.000000
# 3 0.001521 -0.000302 0.008505 0.000000 0.000000 0.000000
# 4 0.000000 0.000000 0.000000 0.081892 0.000000 0.000000
# 5 0.000000 0.000000 0.000000 0.000000 -0.015668 0.000000
# 6 0.000000 0.000000 0.000000 0.000000 0.000000 0.020130
#
#
# Mechanical properties :
#
#
# Convention : Reuss Voigt Hill
#
# Bulk Modulus (GPa) = 37.67686 41.79459 39.73573
# Shear Modulus (GPa) = 38.21855 20.76590 29.49222
#
# Velocity S-wave (km/s) = 3.87627 2.85728 3.40511
# Velocity P-wave (km/s) = 5.90309 5.22654 5.57509
#
# Compressibility (1/GPa) = 0.02654149
#
# Stress axis : x y z
#
# Youngs Moduli (GPa) = 68.75575 124.46394 117.58132
#
# Poissons Ratio (x) = 0.43445 -0.17888
# Poissons Ratio (y) = 0.23999 0.03548
# Poissons Ratio (z) = -0.10460 0.03755
#
# Static dielectric constant tensor:
#      x y z
#    x 3.224560 0.000000 0.000000 
#    y 0.000000 1.174850 0.000000 
#    z 0.000000 0.000000 1.930060 
# 
# From -- ./inp_files/15845.got.cif
#   From: 2010.05.17/outbox.cif.g08.bks.cpg/sg37_8_cif.got.tgz:15845.got - 2010.06.03 17:53:42.
