data_PCOD9354638
_publ_section_title
;
Structure prediction by ZEFSAII (Michael W. Deem and Ramdas Pophale) SiO2 
 PCOD9354638
Probable space group: C C C 2
;
_chemical_formula_sum "Si O2"
_cell_formula_units_Z 60
_cell_length_a 9.700371
_cell_length_b 16.690878
_cell_length_c 18.120715
_cell_angle_alpha 90.000000
_cell_angle_beta 90.000000
_cell_angle_gamma 90.000000
_cell_volume 2933.883450
_symmetry_space_group_name_H-M "C C C 2"
_symmetry_group_IT_number 37
_symmetry_cell_setting 'orthorhombic'
loop_
_space_group_symop_operation_xyz
x,y,z
-x,-y,z
-x,y,1/2+z
x,-y,1/2+z
1/2+x,1/2+y,z
1/2-x,1/2-y,z
1/2-x,1/2+y,1/2+z
1/2+x,1/2-y,1/2+z
loop_
_atom_site_type_symbol
_atom_site_label
_atom_site_fract_x
_atom_site_fract_y
_atom_site_fract_z
Si Si1 0.635262 0.446287 0.650470
Si Si2 0.251128 0.156259 0.550970
Si Si3 0.110202 0.440767 0.666624
Si Si4 0.861944 0.626426 0.398333
Si Si5 0.086005 0.767729 0.380442
Si Si6 0.500000 0.000000 0.306098
Si Si7 0.964078 0.908218 0.002018
Si Si8 0.645164 0.316302 0.777120
O O1 0.500000 0.500000 0.651084
O O2 0.757940 0.503831 0.672972
O O3 0.651462 0.415614 0.566064
O O4 0.628913 0.380132 0.713113
O O5 0.250000 0.250000 0.536075
O O6 0.341346 0.135802 0.622343
O O7 0.320149 0.113114 0.481771
O O8 0.095774 0.124304 0.548515
O O9 0.000000 0.500000 0.627768
O O10 0.051797 0.431467 0.749190
O O11 0.731677 0.659335 0.351175
O O12 0.991238 0.689047 0.400128
O O13 0.894078 0.543729 0.358084
O O14 0.250000 0.750000 0.374224
O O15 0.066799 0.841791 0.439162
O O16 0.006652 0.792806 0.305332
O O17 0.000000 0.000000 0.975660
O O18 0.750000 0.250000 0.745345
#
# Coordination Sequence:
#
# PCOD9354638 Si02
#       8
#     8   8   8   8   8   4   8   8
#     4  11  22  42  66  96 134 177 224 274 341 412
#     4  12  22  45  74  99 137 187 229 279 351 425
#     4  10  23  44  66 103 138 175 233 283 340 412
#     4  11  22  44  73  95 138 187 231 283 354 418
#     4  11  25  44  64 104 137 167 234 293 340 406
#     4  10  24  42  70 104 140 174 242 296 332 424
#     4  11  23  43  69  99 136 177 230 281 341 416
#     4  10  21  44  68  90 132 187 222 272 350 417
#
# _framework density 20.450711999999999
#
# number of rings (size 3 to 8) (size 9 to 14) (size 15 to 20)
#    0.400    0.800    6.667    0.400    0.933    4.267 
#    7.200    0.000    0.000    0.000    0.000    0.000 
#    0.000    0.000    0.000    0.000    0.000    0.000 
#
# Total GULP energy -167121.170703 kJ/mol
# GULP energy per Si atom -5570.705690 kJ/mol
# Density = 2.040417 g / cm^3
# Si number density = 20.450712 Si / 1000 Ang^3
#
#
#
# Elastic Constant Matrix: (Units=GPa)
#
#
# Indices 1 2 3 4 5 6 
#
# 1 86.6180 17.2588 10.1645 0.0000 0.0000 0.0000
# 2 17.2588 22.6442 24.5302 0.0000 0.0000 0.0000
# 3 10.1645 24.5302 84.5290 0.0000 0.0000 0.0000
# 4 0.0000 0.0000 0.0000 16.7197 0.0000 0.0000
# 5 0.0000 0.0000 0.0000 0.0000 33.1390 0.0000
# 6 0.0000 0.0000 0.0000 0.0000 0.0000 18.3187
#
#
#
# Elastic Compliance Matrix: (Units=1/GPa)
#
#
# Indices 1 2 3 4 5 6 
#
# 1 0.013849 -0.012764 0.002039 0.000000 0.000000 0.000000
# 2 -0.012764 0.076174 -0.020571 0.000000 0.000000 0.000000
# 3 0.002039 -0.020571 0.017555 0.000000 0.000000 0.000000
# 4 0.000000 0.000000 0.000000 0.059810 0.000000 0.000000
# 5 0.000000 0.000000 0.000000 0.000000 0.030176 0.000000
# 6 0.000000 0.000000 0.000000 0.000000 0.000000 0.054589
#
#
# Mechanical properties :
#
#
# Convention : Reuss Voigt Hill
#
# Bulk Modulus (GPa) = 22.22923 33.07757 27.65340
# Shear Modulus (GPa) = 15.16351 23.09133 19.12742
#
# Velocity S-wave (km/s) = 2.72594 3.36389 3.06158
# Velocity P-wave (km/s) = 4.56080 5.59438 5.10382
#
# Compressibility (1/GPa) = 0.04498581
#
# Stress axis : x y z
#
# Youngs Moduli (GPa) = 72.20783 13.12787 56.96480
#
# Poissons Ratio (x) = 0.16756 -0.11614
# Poissons Ratio (y) = 0.92165 1.17181
# Poissons Ratio (z) = -0.14721 0.27005
#
# Static dielectric constant tensor:
#      x y z
#    x 1.736190 0.000000 0.000000 
#    y 0.000000 1.764880 0.000000 
#    z 0.000000 0.000000 1.729830 
# 
# From -- ./inp_files/14683.got.cif
#   From: 2010.05.17/outbox.cif.g08.bks.cpg/sg37_8_cif.got.tgz:14683.got - 2010.06.03 17:53:42.
