data_PCOD9354143
_publ_section_title
;
Structure prediction by ZEFSAII (Michael W. Deem and Ramdas Pophale) SiO2 
 PCOD9354143
Probable space group: C C C 2
;
_chemical_formula_sum "Si O2"
_cell_formula_units_Z 52
_cell_length_a 12.655511
_cell_length_b 9.132072
_cell_length_c 19.758991
_cell_angle_alpha 90.000000
_cell_angle_beta 90.000000
_cell_angle_gamma 90.000000
_cell_volume 2283.567093
_symmetry_space_group_name_H-M "C C C 2"
_symmetry_group_IT_number 37
_symmetry_cell_setting 'orthorhombic'
loop_
_space_group_symop_operation_xyz
x,y,z
-x,-y,z
-x,y,1/2+z
x,-y,1/2+z
1/2+x,1/2+y,z
1/2-x,1/2-y,z
1/2-x,1/2+y,1/2+z
1/2+x,1/2-y,1/2+z
loop_
_atom_site_type_symbol
_atom_site_label
_atom_site_fract_x
_atom_site_fract_y
_atom_site_fract_z
Si Si1 0.028665 0.830020 0.317640
Si Si2 0.933315 0.735560 0.451790
Si Si3 0.644137 0.062435 0.491618
Si Si4 0.867380 0.317192 0.197382
Si Si5 0.097038 0.901215 0.083455
Si Si6 0.291915 0.093278 0.138138
Si Si7 0.750000 0.750000 0.891377
O O1 0.043141 0.739340 0.248516
O O2 0.145701 0.795510 0.349401
O O3 0.942054 0.779060 0.373289
O O4 0.000000 0.000000 0.303937
O O5 0.854912 0.609578 0.477019
O O6 0.916926 0.867215 0.504210
O O7 0.043313 0.649494 0.463282
O O8 0.642625 0.111578 0.569313
O O9 0.736874 0.119212 0.444613
O O10 0.750000 0.250000 0.213508
O O11 0.896991 0.251020 0.124135
O O12 0.851698 0.491067 0.191570
O O13 0.197600 0.993298 0.107646
O O14 0.000000 0.000000 0.106253
O O15 0.250000 0.250000 0.162386
#
# Coordination Sequence:
#
# PCOD9354143 Si02
#       7
#     8   8   8   8   8   8   4
#     4  11  23  42  70  96 136 193 235 285 362 440
#     4  10  22  38  65  98 137 170 230 288 349 422
#     4  10  20  38  64  98 134 172 214 296 354 405
#     4  10  22  43  68  93 140 188 230 290 352 427
#     4  11  22  37  64 102 134 173 230 284 340 424
#     4  11  22  39  68 102 135 182 226 291 367 413
#     4  10  22  40  70  92 140 176 230 292 348 430
#
# _framework density 22.771391999999999
#
# number of rings (size 3 to 8) (size 9 to 14) (size 15 to 20)
#    0.000    1.538    3.077    1.846    4.308    0.000 
#    0.000    0.000   54.154    0.000    0.000    0.000 
#    0.000    0.000    0.000    0.000    0.000    0.000 
#
# Total GULP energy -145033.992653 kJ/mol
# GULP energy per Si atom -5578.230487 kJ/mol
# Density = 2.271956 g / cm^3
# Si number density = 22.771392 Si / 1000 Ang^3
#
#
#
# Elastic Constant Matrix: (Units=GPa)
#
#
# Indices 1 2 3 4 5 6 
#
# 1 31.3594 21.7982 17.2598 0.0000 0.0000 0.0000
# 2 21.7982 152.2737 45.6482 0.0000 0.0000 0.0000
# 3 17.2598 45.6482 101.8954 0.0000 0.0000 0.0000
# 4 0.0000 0.0000 0.0000 38.4182 0.0000 0.0000
# 5 0.0000 0.0000 0.0000 0.0000 19.0283 0.0000
# 6 0.0000 0.0000 0.0000 0.0000 0.0000 34.8667
#
#
#
# Elastic Compliance Matrix: (Units=1/GPa)
#
#
# Indices 1 2 3 4 5 6 
#
# 1 0.037126 -0.003962 -0.004514 0.000000 0.000000 0.000000
# 2 -0.003962 0.008009 -0.002917 0.000000 0.000000 0.000000
# 3 -0.004514 -0.002917 0.011885 0.000000 0.000000 0.000000
# 4 0.000000 0.000000 0.000000 0.026029 0.000000 0.000000
# 5 0.000000 0.000000 0.000000 0.000000 0.052553 0.000000
# 6 0.000000 0.000000 0.000000 0.000000 0.000000 0.028681
#
#
# Mechanical properties :
#
#
# Convention : Reuss Voigt Hill
#
# Bulk Modulus (GPa) = 29.20923 50.54899 39.87911
# Shear Modulus (GPa) = 25.19144 31.85079 28.52111
#
# Velocity S-wave (km/s) = 3.32968 3.74400 3.54290
# Velocity P-wave (km/s) = 5.25713 6.39818 5.85551
#
# Compressibility (1/GPa) = 0.03423575
#
# Stress axis : x y z
#
# Youngs Moduli (GPa) = 26.93496 124.86589 84.13764
#
# Poissons Ratio (x) = 0.49466 0.37980
# Poissons Ratio (y) = 0.10670 0.24541
# Poissons Ratio (z) = 0.12159 0.36420
#
# Static dielectric constant tensor:
#      x y z
#    x 2.047300 0.000000 0.000000 
#    y 0.000000 1.807600 0.000000 
#    z 0.000000 0.000000 1.874130 
# 
# From -- ./inp_files/17115.got.cif
#   From: 2010.05.17/outbox.cif.g08.bks.cpg/sg37_9_cif.got.tgz:17115.got - 2010.06.03 17:53:42.
