data_PCOD9354305
_publ_section_title
;
Structure prediction by ZEFSAII (Michael W. Deem and Ramdas Pophale) SiO2 
 PCOD9354305
Probable space group: C C C 2
;
_chemical_formula_sum "Si O2"
_cell_formula_units_Z 40
_cell_length_a 13.068413
_cell_length_b 9.424300
_cell_length_c 12.865145
_cell_angle_alpha 90.000000
_cell_angle_beta 90.000000
_cell_angle_gamma 90.000000
_cell_volume 1584.479552
_symmetry_space_group_name_H-M "C C C 2"
_symmetry_group_IT_number 37
_symmetry_cell_setting 'orthorhombic'
loop_
_space_group_symop_operation_xyz
x,y,z
-x,-y,z
-x,y,1/2+z
x,-y,1/2+z
1/2+x,1/2+y,z
1/2-x,1/2-y,z
1/2-x,1/2+y,1/2+z
1/2+x,1/2-y,1/2+z
loop_
_atom_site_type_symbol
_atom_site_label
_atom_site_fract_x
_atom_site_fract_y
_atom_site_fract_z
Si Si1 0.615445 0.342160 0.795610
Si Si2 0.851708 0.695096 0.963177
Si Si3 0.183198 0.479663 0.296459
Si Si4 0.448373 0.348315 0.529990
Si Si5 0.605831 0.268865 0.235341
O O1 0.698097 0.459614 0.762964
O O2 0.646684 0.178984 0.781266
O O3 0.504947 0.340704 0.744737
O O4 0.604207 0.358233 0.918625
O O5 0.750000 0.750000 0.021242
O O6 0.836673 0.537394 0.914949
O O7 0.852854 0.785821 0.853864
O O8 0.958118 0.732697 0.018746
O O9 0.121118 0.597098 0.232123
O O10 0.500000 0.500000 0.546596
O O11 0.367234 0.314180 0.619433
#
# Coordination Sequence:
#
# PCOD9354305 Si02
#       5
#     8   8   8   8   8
#     4  10  20  43  68  96 136 183 233 299 357 448
#     4   9  20  41  64  94 133 186 227 295 362 441
#     4   9  20  41  66  91 134 182 237 284 365 429
#     4  11  23  39  66 100 137 183 242 307 368 434
#     4   9  22  40  64  98 136 187 234 291 362 439
#
# _framework density 25.244882
#
# number of rings (size 3 to 8) (size 9 to 14) (size 15 to 20)
#    1.200    1.200    0.000    1.800    0.000    4.800 
#   14.400    0.000    0.000    0.000    0.000    0.000 
#    0.000    0.000    0.000    0.000    0.000    0.000 
#
# Total GULP energy -111408.224056 kJ/mol
# GULP energy per Si atom -5570.411203 kJ/mol
# Density = 2.518742 g / cm^3
# Si number density = 25.244882 Si / 1000 Ang^3
#
#
#
# Elastic Constant Matrix: (Units=GPa)
#
#
# Indices 1 2 3 4 5 6 
#
# 1 104.7469 19.0986 13.7259 0.0000 0.0000 0.0000
# 2 19.0986 99.6533 19.5725 0.0000 0.0000 0.0000
# 3 13.7259 19.5725 106.2933 0.0000 0.0000 0.0000
# 4 0.0000 0.0000 0.0000 24.8129 0.0000 0.0000
# 5 0.0000 0.0000 0.0000 0.0000 9.1975 0.0000
# 6 0.0000 0.0000 0.0000 0.0000 0.0000 33.6806
#
#
#
# Elastic Compliance Matrix: (Units=1/GPa)
#
#
# Indices 1 2 3 4 5 6 
#
# 1 0.009988 -0.001723 -0.000973 0.000000 0.000000 0.000000
# 2 -0.001723 0.010709 -0.001749 0.000000 0.000000 0.000000
# 3 -0.000973 -0.001749 0.009856 0.000000 0.000000 0.000000
# 4 0.000000 0.000000 0.000000 0.040302 0.000000 0.000000
# 5 0.000000 0.000000 0.000000 0.000000 0.108725 0.000000
# 6 0.000000 0.000000 0.000000 0.000000 0.000000 0.029691
#
#
# Mechanical properties :
#
#
# Convention : Reuss Voigt Hill
#
# Bulk Modulus (GPa) = 46.16275 46.16528 46.16402
# Shear Modulus (GPa) = 22.18464 30.75798 26.47131
#
# Velocity S-wave (km/s) = 2.96763 3.49432 3.24169
# Velocity P-wave (km/s) = 5.48344 5.88278 5.68662
#
# Compressibility (1/GPa) = 0.02166249
#
# Stress axis : x y z
#
# Youngs Moduli (GPa) = 100.11542 93.38262 101.46493
#
# Poissons Ratio (x) = 0.16093 0.09868
# Poissons Ratio (y) = 0.17253 0.17749
# Poissons Ratio (z) = 0.09736 0.16336
#
# Static dielectric constant tensor:
#      x y z
#    x 2.077950 0.000000 0.000000 
#    y 0.000000 2.016900 0.000000 
#    z 0.000000 0.000000 1.986140 
# 
# From -- ./inp_files/11332.got.cif
#   From: 2010.05.17/outbox.cif.g08.bks.cpg/sg37_6_cif.got.tgz:11332.got - 2010.06.03 17:53:42.
