data_PCOD9354030
_publ_section_title
;
Structure prediction by ZEFSAII (Michael W. Deem and Ramdas Pophale) SiO2 
 PCOD9354030
Probable space group: C C C 2
;
_chemical_formula_sum "Si O2"
_cell_formula_units_Z 60
_cell_length_a 26.150352
_cell_length_b 12.168129
_cell_length_c 9.479545
_cell_angle_alpha 90.000000
_cell_angle_beta 90.000000
_cell_angle_gamma 90.000000
_cell_volume 3016.399339
_symmetry_space_group_name_H-M "C C C 2"
_symmetry_group_IT_number 37
_symmetry_cell_setting 'orthorhombic'
loop_
_space_group_symop_operation_xyz
x,y,z
-x,-y,z
-x,y,1/2+z
x,-y,1/2+z
1/2+x,1/2+y,z
1/2-x,1/2-y,z
1/2-x,1/2+y,1/2+z
1/2+x,1/2-y,1/2+z
loop_
_atom_site_type_symbol
_atom_site_label
_atom_site_fract_x
_atom_site_fract_y
_atom_site_fract_z
Si Si1 0.091050 0.216125 0.612130
Si Si2 0.677077 0.165257 0.670560
Si Si3 0.338613 0.520336 0.024911
Si Si4 0.213807 0.903077 0.765352
Si Si5 0.523611 0.231857 0.625974
Si Si6 0.084950 0.371660 0.360175
Si Si7 0.500000 0.000000 0.986209
Si Si8 0.120315 0.782883 0.434340
O O1 0.117312 0.110387 0.541687
O O2 0.101743 0.317911 0.507227
O O3 0.112474 0.235987 0.768992
O O4 0.029637 0.204188 0.625335
O O5 0.730185 0.104094 0.696978
O O6 0.687166 0.285056 0.740411
O O7 0.631574 0.107681 0.755574
O O8 0.657860 0.195617 0.513429
O O9 0.292978 0.566937 0.927822
O O10 0.358248 0.405146 0.961655
O O11 0.317820 0.491815 0.178390
O O12 0.549295 0.217989 0.779305
O O13 0.509766 0.108057 0.577273
O O14 0.566488 0.274523 0.518276
O O15 0.049709 0.475755 0.392236
#
# Coordination Sequence:
#
# PCOD9354030 Si02
#       8
#     8   8   8   8   8   8   4   8
#     4  11  20  36  62  93 123 163 204 253 305 374
#     4   9  20  40  64  84 124 163 198 253 315 357
#     4  11  21  38  64  90 123 162 203 256 312 367
#     4  10  20  40  64  88 121 160 204 254 310 364
#     4  10  22  38  59  89 129 165 205 251 313 370
#     4  10  20  38  63  90 118 166 199 253 301 371
#     4  10  20  36  62  88 122 158 204 250 302 368
#     4  10  22  39  60  94 126 162 205 257 310 377
#
# _framework density 19.891265000000001
#
# number of rings (size 3 to 8) (size 9 to 14) (size 15 to 20)
#    0.000    1.867    2.667    2.000    0.000    1.600 
#    4.800    2.667    2.933    0.000    0.000    0.000 
#    0.000    0.000    0.000    0.000    0.000    0.000 
#
# Total GULP energy -167451.364871 kJ/mol
# GULP energy per Si atom -5581.712162 kJ/mol
# Density = 1.984599 g / cm^3
# Si number density = 19.891265 Si / 1000 Ang^3
#
#
#
# Elastic Constant Matrix: (Units=GPa)
#
#
# Indices 1 2 3 4 5 6 
#
# 1 102.2024 35.2276 23.3556 0.0000 0.0000 0.0000
# 2 35.2276 47.3658 21.2350 0.0000 0.0000 0.0000
# 3 23.3556 21.2350 108.4067 0.0000 0.0000 0.0000
# 4 0.0000 0.0000 0.0000 16.2915 0.0000 0.0000
# 5 0.0000 0.0000 0.0000 0.0000 21.5888 0.0000
# 6 0.0000 0.0000 0.0000 0.0000 0.0000 34.8387
#
#
#
# Elastic Compliance Matrix: (Units=1/GPa)
#
#
# Indices 1 2 3 4 5 6 
#
# 1 0.013258 -0.009406 -0.001014 0.000000 0.000000 0.000000
# 2 -0.009406 0.029818 -0.003814 0.000000 0.000000 0.000000
# 3 -0.001014 -0.003814 0.010190 0.000000 0.000000 0.000000
# 4 0.000000 0.000000 0.000000 0.061382 0.000000 0.000000
# 5 0.000000 0.000000 0.000000 0.000000 0.046320 0.000000
# 6 0.000000 0.000000 0.000000 0.000000 0.000000 0.028704
#
#
# Mechanical properties :
#
#
# Convention : Reuss Voigt Hill
#
# Bulk Modulus (GPa) = 40.32638 46.40126 43.36382
# Shear Modulus (GPa) = 22.08414 26.42093 24.25253
#
# Velocity S-wave (km/s) = 3.33565 3.64849 3.49557
# Velocity P-wave (km/s) = 5.92898 6.41302 6.17574
#
# Compressibility (1/GPa) = 0.02479766
#
# Stress axis : x y z
#
# Youngs Moduli (GPa) = 75.42406 33.53683 98.13419
#
# Poissons Ratio (x) = 0.31545 0.09950
# Poissons Ratio (y) = 0.70945 0.37431
# Poissons Ratio (z) = 0.07648 0.12792
#
# Static dielectric constant tensor:
#      x y z
#    x 1.713260 0.000000 0.000000 
#    y 0.000000 1.681680 0.000000 
#    z 0.000000 0.000000 1.703570 
# 
# From -- ./inp_files/4800.got.cif
#   From: 2010.05.17/outbox.cif.g08.bks.cpg/sg37_3_cif.got.tgz:4800.got - 2010.06.03 17:53:42.
