data_PCOD9354946
_publ_section_title
;
Structure prediction by ZEFSAII (Michael W. Deem and Ramdas Pophale) SiO2 
 PCOD9354946
Probable space group: C C C 2
;
_chemical_formula_sum "Si O2"
_cell_formula_units_Z 44
_cell_length_a 17.786419
_cell_length_b 5.105540
_cell_length_c 24.736123
_cell_angle_alpha 90.000000
_cell_angle_beta 90.000000
_cell_angle_gamma 90.000000
_cell_volume 2246.269363
_symmetry_space_group_name_H-M "C C C 2"
_symmetry_group_IT_number 37
_symmetry_cell_setting 'orthorhombic'
loop_
_space_group_symop_operation_xyz
x,y,z
-x,-y,z
-x,y,1/2+z
x,-y,1/2+z
1/2+x,1/2+y,z
1/2-x,1/2-y,z
1/2-x,1/2+y,1/2+z
1/2+x,1/2-y,1/2+z
loop_
_atom_site_type_symbol
_atom_site_label
_atom_site_fract_x
_atom_site_fract_y
_atom_site_fract_z
Si Si1 0.446530 0.247202 0.545260
Si Si2 0.835842 0.145848 0.142072
Si Si3 0.360754 0.892674 0.251326
Si Si4 0.250000 0.250000 0.200776
Si Si5 0.053064 0.253124 0.424105
Si Si6 0.414336 0.396823 0.311607
O O1 0.500000 0.500000 0.545277
O O2 0.381688 0.303777 0.588258
O O3 0.415115 0.203307 0.484235
O O4 0.500000 0.000000 0.558367
O O5 0.750000 0.250000 0.136171
O O6 0.879965 0.281413 0.191806
O O7 0.817945 0.851901 0.163169
O O8 0.367662 0.646386 0.290988
O O9 0.279635 0.021470 0.239208
O O10 0.406552 0.141093 0.273971
O O11 0.104913 0.195037 0.372568
O O12 0.000000 0.500000 0.410643
O O13 0.000000 0.000000 0.428862
O O14 0.500000 0.500000 0.311126
#
# Coordination Sequence:
#
# PCOD9354946 Si02
#       6
#     8   8   8   4   8   8
#     4  10  23  39  63  94 122 154 204 261 298 353
#     4  10  23  41  64  84 123 166 202 242 311 371
#     4  11  22  37  59  85 115 159 198 246 289 368
#     4  10  22  44  58  80 118 172 206 236 312 374
#     4   9  18  37  58  85 122 160 192 237 310 366
#     4  11  21  35  59  91 121 154 192 246 307 368
#
# _framework density 19.588034
#
# number of rings (size 3 to 8) (size 9 to 14) (size 15 to 20)
#    0.000    1.818    1.818    2.727    5.091    2.182 
#    0.000    0.000    2.000    0.000    0.000    0.000 
#    0.000    0.000    0.000    0.000    0.000    0.000 
#
# Total GULP energy -122574.536917 kJ/mol
# GULP energy per Si atom -5571.569860 kJ/mol
# Density = 1.954345 g / cm^3
# Si number density = 19.588034 Si / 1000 Ang^3
#
#
#
# Elastic Constant Matrix: (Units=GPa)
#
#
# Indices 1 2 3 4 5 6 
#
# 1 53.4999 31.0308 62.1390 0.0000 0.0000 0.0000
# 2 31.0308 151.6668 57.7893 0.0000 0.0000 0.0000
# 3 62.1390 57.7893 169.1862 0.0000 0.0000 0.0000
# 4 0.0000 0.0000 0.0000 11.9066 0.0000 0.0000
# 5 0.0000 0.0000 0.0000 0.0000 70.0055 0.0000
# 6 0.0000 0.0000 0.0000 0.0000 0.0000 31.7834
#
#
#
# Elastic Compliance Matrix: (Units=1/GPa)
#
#
# Indices 1 2 3 4 5 6 
#
# 1 0.033391 -0.002482 -0.011416 0.000000 0.000000 0.000000
# 2 -0.002482 0.007764 -0.001741 0.000000 0.000000 0.000000
# 3 -0.011416 -0.001741 0.010698 0.000000 0.000000 0.000000
# 4 0.000000 0.000000 0.000000 0.083987 0.000000 0.000000
# 5 0.000000 0.000000 0.000000 0.000000 0.014285 0.000000
# 6 0.000000 0.000000 0.000000 0.000000 0.000000 0.031463
#
#
# Mechanical properties :
#
#
# Convention : Reuss Voigt Hill
#
# Bulk Modulus (GPa) = 48.59982 75.14121 61.87052
# Shear Modulus (GPa) = 22.75587 37.63203 30.19395
#
# Velocity S-wave (km/s) = 3.41210 4.38788 3.93039
# Velocity P-wave (km/s) = 6.35516 8.00720 7.22853
#
# Compressibility (1/GPa) = 0.02057621
#
# Stress axis : x y z
#
# Youngs Moduli (GPa) = 29.94855 128.79328 93.47482
#
# Poissons Ratio (x) = 0.31964 1.06711
# Poissons Ratio (y) = 0.07433 0.16270
# Poissons Ratio (z) = 0.34189 0.22417
#
# Static dielectric constant tensor:
#      x y z
#    x 1.638850 0.000000 0.000000 
#    y 0.000000 1.784940 0.000000 
#    z 0.000000 0.000000 1.736320 
# 
# From -- ./inp_files/17393.got.cif
#   From: 2010.05.17/outbox.cif.g08.bks.cpg/sg37_9_cif.got.tgz:17393.got - 2010.06.03 17:53:42.
