data_PCOD9354717
_publ_section_title
;
Structure prediction by ZEFSAII (Michael W. Deem and Ramdas Pophale) SiO2 
 PCOD9354717
Probable space group: C C C 2
;
_chemical_formula_sum "Si O2"
_cell_formula_units_Z 28
_cell_length_a 13.498812
_cell_length_b 9.170846
_cell_length_c 8.692765
_cell_angle_alpha 90.000000
_cell_angle_beta 90.000000
_cell_angle_gamma 90.000000
_cell_volume 1076.125416
_symmetry_space_group_name_H-M "C C C 2"
_symmetry_group_IT_number 37
_symmetry_cell_setting 'orthorhombic'
loop_
_space_group_symop_operation_xyz
x,y,z
-x,-y,z
-x,y,1/2+z
x,-y,1/2+z
1/2+x,1/2+y,z
1/2-x,1/2-y,z
1/2-x,1/2+y,1/2+z
1/2+x,1/2-y,1/2+z
loop_
_atom_site_type_symbol
_atom_site_label
_atom_site_fract_x
_atom_site_fract_y
_atom_site_fract_z
Si Si1 0.750000 0.750000 0.490770
Si Si2 0.109622 0.186534 0.888699
Si Si3 0.305509 0.953620 0.249479
Si Si4 0.103491 0.780963 0.741916
O O1 0.687952 0.866249 0.588016
O O2 0.824749 0.832092 0.378667
O O3 0.192731 0.098412 0.794364
O O4 0.134785 0.358117 0.872610
O O5 0.004191 0.179876 0.805674
O O6 0.114180 0.154087 0.070697
O O7 0.357495 0.111194 0.232732
#
# Coordination Sequence:
#
# PCOD9354717 Si02
#       4
#     4   8   8   8
#     4  10  22  38  62  96 138 182 232 282 342 420
#     4  10  22  39  64 100 134 174 234 278 336 425
#     4  10  22  40  62  99 140 173 227 292 340 408
#     4  12  22  41  69  97 138 186 225 286 352 406
#
# _framework density 26.019272999999998
#
# number of rings (size 3 to 8) (size 9 to 14) (size 15 to 20)
#    0.000    1.714    0.000    7.714    0.000    2.286 
#    0.000    4.286    0.000   13.714    0.000    0.000 
#    0.000    0.000    0.000    0.000    0.000    0.000 
#
# Total GULP energy -78138.981453 kJ/mol
# GULP energy per Si atom -5581.355818 kJ/mol
# Density = 2.596005 g / cm^3
# Si number density = 26.019273 Si / 1000 Ang^3
#
#
#
# Elastic Constant Matrix: (Units=GPa)
#
#
# Indices 1 2 3 4 5 6 
#
# 1 132.0532 -24.0217 26.3864 0.0000 0.0000 0.0000
# 2 -24.0217 134.8616 14.3118 0.0000 0.0000 0.0000
# 3 26.3864 14.3118 175.6493 0.0000 0.0000 0.0000
# 4 0.0000 0.0000 0.0000 0.8146 0.0000 0.0000
# 5 0.0000 0.0000 0.0000 0.0000 45.0370 0.0000
# 6 0.0000 0.0000 0.0000 0.0000 0.0000 -18.3704
#
#
#
# Elastic Compliance Matrix: (Units=1/GPa)
#
#
# Indices 1 2 3 4 5 6 
#
# 1 0.008132 0.001592 -0.001351 0.000000 0.000000 0.000000
# 2 0.001592 0.007791 -0.000874 0.000000 0.000000 0.000000
# 3 -0.001351 -0.000874 0.005967 0.000000 0.000000 0.000000
# 4 0.000000 0.000000 0.000000 1.227564 0.000000 0.000000
# 5 0.000000 0.000000 0.000000 0.000000 0.022204 0.000000
# 6 0.000000 0.000000 0.000000 0.000000 0.000000 -0.054435
#
#
# Mechanical properties :
#
#
# Convention : Reuss Voigt Hill
#
# Bulk Modulus (GPa) = 48.48667 52.87969 50.68318
# Shear Modulus (GPa) = 4.08042 33.88876 18.98459
#
# Velocity S-wave (km/s) = 1.25365 3.61286 2.70411
# Velocity P-wave (km/s) = 4.55751 6.14582 5.41027
#
# Compressibility (1/GPa) = 0.02062423
#
# Stress axis : x y z
#
# Youngs Moduli (GPa) = 122.96612 128.34800 167.57778
#
# Poissons Ratio (x) = -0.20432 0.22646
# Poissons Ratio (y) = -0.19576 0.14646
# Poissons Ratio (z) = 0.16617 0.11217
#
# Static dielectric constant tensor:
#      x y z
#    x 2.310860 0.000000 0.000000 
#    y 0.000000 2.278400 0.000000 
#    z 0.000000 0.000000 2.033130 
# 
# From -- ./inp_files/3182.got.cif
#   From: 2010.05.17/outbox.cif.g08.bks.cpg/sg37_2_cif.got.tgz:3182.got - 2010.06.03 17:53:42.
