data_PCOD9354029
_publ_section_title
;
Structure prediction by ZEFSAII (Michael W. Deem and Ramdas Pophale) SiO2 
 PCOD9354029
Probable space group: C C C 2
;
_chemical_formula_sum "Si O2"
_cell_formula_units_Z 40
_cell_length_a 8.005790
_cell_length_b 20.244963
_cell_length_c 10.806036
_cell_angle_alpha 90.000000
_cell_angle_beta 90.000000
_cell_angle_gamma 90.000000
_cell_volume 1751.409058
_symmetry_space_group_name_H-M "C C C 2"
_symmetry_group_IT_number 37
_symmetry_cell_setting 'orthorhombic'
loop_
_space_group_symop_operation_xyz
x,y,z
-x,-y,z
-x,y,1/2+z
x,-y,1/2+z
1/2+x,1/2+y,z
1/2-x,1/2-y,z
1/2-x,1/2+y,1/2+z
1/2+x,1/2-y,1/2+z
loop_
_atom_site_type_symbol
_atom_site_label
_atom_site_fract_x
_atom_site_fract_y
_atom_site_fract_z
Si Si1 0.063609 0.773780 0.448500
Si Si2 0.885712 0.363062 0.918121
Si Si3 0.020599 0.421800 0.166909
Si Si4 0.100185 0.903024 0.580804
Si Si5 0.508783 0.396495 0.832014
O O1 0.250000 0.750000 0.470091
O O2 0.035578 0.828126 0.555710
O O3 0.936032 0.713764 0.434932
O O4 0.066762 0.822573 0.330800
O O5 0.999766 0.389792 0.803447
O O6 0.699784 0.381368 0.872882
O O7 0.910396 0.395892 0.052481
O O8 0.207525 0.404831 0.119111
O O9 0.000000 0.500000 0.179721
O O10 0.999321 0.928154 0.698438
O O11 0.079139 0.933682 0.445215
#
# Coordination Sequence:
#
# PCOD9354029 Si02
#       5
#     8   8   8   8   8
#     4  10  20  36  61  93 130 161 201 266 331 389
#     4  11  22  38  65  93 125 170 212 267 323 387
#     4  11  24  43  64  89 127 175 224 263 312 390
#     4   9  21  39  60  91 130 163 205 268 317 387
#     4   9  21  36  59  92 130 160 204 259 337 380
#
# _framework density 22.838756
#
# number of rings (size 3 to 8) (size 9 to 14) (size 15 to 20)
#    1.200    0.800    2.000    1.200    2.800    3.200 
#    0.000    1.000    0.000    4.800    0.000    0.000 
#    0.000    0.000    0.000    0.000    0.000    0.000 
#
# Total GULP energy -111392.909307 kJ/mol
# GULP energy per Si atom -5569.645465 kJ/mol
# Density = 2.278677 g / cm^3
# Si number density = 22.838756 Si / 1000 Ang^3
#
#
#
# Elastic Constant Matrix: (Units=GPa)
#
#
# Indices 1 2 3 4 5 6 
#
# 1 23.7388 0.5875 29.1707 0.0000 0.0000 0.0000
# 2 0.5875 126.4559 21.0660 0.0000 0.0000 0.0000
# 3 29.1707 21.0660 132.6769 0.0000 0.0000 0.0000
# 4 0.0000 0.0000 0.0000 -27.6061 0.0000 0.0000
# 5 0.0000 0.0000 0.0000 0.0000 -11.5453 0.0000
# 6 0.0000 0.0000 0.0000 0.0000 0.0000 1.0987
#
#
#
# Elastic Compliance Matrix: (Units=1/GPa)
#
#
# Indices 1 2 3 4 5 6 
#
# 1 0.058165 0.001911 -0.013092 0.000000 0.000000 0.000000
# 2 0.001911 0.008186 -0.001720 0.000000 0.000000 0.000000
# 3 -0.013092 -0.001720 0.010689 0.000000 0.000000 0.000000
# 4 0.000000 0.000000 0.000000 -0.036224 0.000000 0.000000
# 5 0.000000 0.000000 0.000000 0.000000 -0.086615 0.000000
# 6 0.000000 0.000000 0.000000 0.000000 0.000000 0.910153
#
#
# Mechanical properties :
#
#
# Convention : Reuss Voigt Hill
#
# Bulk Modulus (GPa) = 19.51691 42.72446 31.12068
# Shear Modulus (GPa) = 5.51126 7.85929 6.68528
#
# Velocity S-wave (km/s) = 1.55511 1.85706 1.71275
# Velocity P-wave (km/s) = 3.43345 4.83175 4.19132
#
# Compressibility (1/GPa) = 0.05123762
#
# Stress axis : x y z
#
# Youngs Moduli (GPa) = 17.19243 122.16709 93.55804
#
# Poissons Ratio (x) = -0.23343 1.22484
# Poissons Ratio (y) = -0.03285 0.16090
# Poissons Ratio (z) = 0.22508 0.21010
#
# Static dielectric constant tensor:
#      x y z
#    x 1.926140 0.000000 0.000000 
#    y 0.000000 1.855310 0.000000 
#    z 0.000000 0.000000 1.943500 
# 
# From -- ./inp_files/6261.got.cif
#   From: 2010.05.17/outbox.cif.g08.bks.cpg/sg37_4_cif.got.tgz:6261.got - 2010.06.03 17:53:42.
