data_PCOD9354037
_publ_section_title
;
Structure prediction by ZEFSAII (Michael W. Deem and Ramdas Pophale) SiO2 
 PCOD9354037
Probable space group: C C C 2
;
_chemical_formula_sum "Si O2"
_cell_formula_units_Z 48
_cell_length_a 5.493853
_cell_length_b 19.611286
_cell_length_c 20.328145
_cell_angle_alpha 90.000000
_cell_angle_beta 90.000000
_cell_angle_gamma 90.000000
_cell_volume 2190.185290
_symmetry_space_group_name_H-M "C C C 2"
_symmetry_group_IT_number 37
_symmetry_cell_setting 'orthorhombic'
loop_
_space_group_symop_operation_xyz
x,y,z
-x,-y,z
-x,y,1/2+z
x,-y,1/2+z
1/2+x,1/2+y,z
1/2-x,1/2-y,z
1/2-x,1/2+y,1/2+z
1/2+x,1/2-y,1/2+z
loop_
_atom_site_type_symbol
_atom_site_label
_atom_site_fract_x
_atom_site_fract_y
_atom_site_fract_z
Si Si1 0.005743 0.419096 0.985930
Si Si2 0.999268 0.919265 0.407641
Si Si3 0.250000 0.250000 0.193343
Si Si4 0.630556 0.813967 0.589376
Si Si5 0.106299 0.064617 0.649166
Si Si6 0.181325 0.113223 0.272656
Si Si7 0.500000 0.000000 0.740017
O O1 0.746293 0.404625 0.949869
O O2 0.000000 0.500000 0.004251
O O3 0.246218 0.405361 0.943356
O O4 0.022973 0.367286 0.046923
O O5 0.981158 0.883467 0.337127
O O6 0.000000 0.000000 0.394348
O O7 0.468406 0.222003 0.146203
O O8 0.215425 0.187039 0.242687
O O9 0.750000 0.750000 0.551879
O O10 0.844926 0.864157 0.614711
O O11 0.348895 0.044926 0.687655
O O12 0.924299 0.073877 0.709519
O O13 0.000000 0.000000 0.608679
O O14 0.397170 0.059586 0.287782
#
# Coordination Sequence:
#
# PCOD9354037 Si02
#       7
#     8   8   4   8   8   8   4
#     4  10  26  46  75 103 137 193 248 301 356 422
#     4  10  23  46  73 106 140 180 244 307 359 424
#     4  12  26  44  66 104 146 190 232 292 376 442
#     4  12  26  46  70  98 153 190 242 301 363 442
#     4  10  22  38  66 106 133 179 239 295 366 426
#     4  11  23  40  70 102 142 183 228 301 367 436
#     4  10  20  36  64 104 136 176 228 284 368 418
#
# _framework density 21.915952999999998
#
# number of rings (size 3 to 8) (size 9 to 14) (size 15 to 20)
#    0.000    1.333    3.333    1.500    9.333    2.000 
#    1.500    0.000    0.000    0.000    0.000    0.000 
#    0.000    0.000    0.000    0.000    0.000    0.000 
#
# Total GULP energy -133809.555379 kJ/mol
# GULP energy per Si atom -5575.398141 kJ/mol
# Density = 2.186607 g / cm^3
# Si number density = 21.915953 Si / 1000 Ang^3
#
#
#
# Elastic Constant Matrix: (Units=GPa)
#
#
# Indices 1 2 3 4 5 6 
#
# 1 84.7874 43.5905 34.4682 0.0000 0.0000 0.0000
# 2 43.5905 166.4059 62.4634 0.0000 0.0000 0.0000
# 3 34.4682 62.4634 81.9580 0.0000 0.0000 0.0000
# 4 0.0000 0.0000 0.0000 23.6453 0.0000 0.0000
# 5 0.0000 0.0000 0.0000 0.0000 27.9495 0.0000
# 6 0.0000 0.0000 0.0000 0.0000 0.0000 32.5287
#
#
#
# Elastic Compliance Matrix: (Units=1/GPa)
#
#
# Indices 1 2 3 4 5 6 
#
# 1 0.014757 -0.002152 -0.004566 0.000000 0.000000 0.000000
# 2 -0.002152 0.008731 -0.005750 0.000000 0.000000 0.000000
# 3 -0.004566 -0.005750 0.018504 0.000000 0.000000 0.000000
# 4 0.000000 0.000000 0.000000 0.042292 0.000000 0.000000
# 5 0.000000 0.000000 0.000000 0.000000 0.035779 0.000000
# 6 0.000000 0.000000 0.000000 0.000000 0.000000 0.030742
#
#
# Mechanical properties :
#
#
# Convention : Reuss Voigt Hill
#
# Bulk Modulus (GPa) = 58.62742 68.24393 63.43568
# Shear Modulus (GPa) = 27.55969 29.66665 28.61317
#
# Velocity S-wave (km/s) = 3.55000 3.68320 3.61721
# Velocity P-wave (km/s) = 6.60397 7.02100 6.81567
#
# Compressibility (1/GPa) = 0.01705687
#
# Stress axis : x y z
#
# Youngs Moduli (GPa) = 67.76610 114.53189 54.04318
#
# Poissons Ratio (x) = 0.24642 0.24678
# Poissons Ratio (y) = 0.14580 0.31072
# Poissons Ratio (z) = 0.30944 0.65851
#
# Static dielectric constant tensor:
#      x y z
#    x 1.987820 0.000000 0.000000 
#    y 0.000000 1.863560 0.000000 
#    z 0.000000 0.000000 1.809810 
# 
# From -- ./inp_files/17996.got.cif
#   From: 2010.05.17/outbox.cif.g08.bks.cpg/sg37_9_cif.got.tgz:17996.got - 2010.06.03 17:53:42.
