data_PCOD9354481
_publ_section_title
;
Structure prediction by ZEFSAII (Michael W. Deem and Ramdas Pophale) SiO2 
 PCOD9354481
Probable space group: C C C 2
;
_chemical_formula_sum "Si O2"
_cell_formula_units_Z 56
_cell_length_a 15.491991
_cell_length_b 7.630272
_cell_length_c 21.075343
_cell_angle_alpha 90.000000
_cell_angle_beta 90.000000
_cell_angle_gamma 90.000000
_cell_volume 2491.276361
_symmetry_space_group_name_H-M "C C C 2"
_symmetry_group_IT_number 37
_symmetry_cell_setting 'orthorhombic'
loop_
_space_group_symop_operation_xyz
x,y,z
-x,-y,z
-x,y,1/2+z
x,-y,1/2+z
1/2+x,1/2+y,z
1/2-x,1/2-y,z
1/2-x,1/2+y,1/2+z
1/2+x,1/2-y,1/2+z
loop_
_atom_site_type_symbol
_atom_site_label
_atom_site_fract_x
_atom_site_fract_y
_atom_site_fract_z
Si Si1 0.156425 0.394318 0.716450
Si Si2 0.403412 0.478353 0.778886
Si Si3 0.683872 0.592258 0.164818
Si Si4 0.732836 0.043115 0.980588
Si Si5 0.267741 0.957840 0.342690
Si Si6 0.407132 0.068695 0.579490
Si Si7 0.902364 0.975100 0.538991
O O1 0.115025 0.214821 0.746675
O O2 0.253002 0.427193 0.683654
O O3 0.173161 0.501388 0.781911
O O4 0.101376 0.449779 0.655410
O O5 0.500000 0.500000 0.802727
O O6 0.385331 0.607860 0.720512
O O7 0.328691 0.527239 0.828935
O O8 0.750000 0.750000 0.161819
O O9 0.628358 0.575016 0.101852
O O10 0.750000 0.250000 0.985550
O O11 0.697027 0.006319 0.911030
O O12 0.670610 0.985417 0.037952
O O13 0.829580 0.970095 0.988563
O O14 0.250000 0.750000 0.341149
O O15 0.398748 0.273222 0.562009
O O16 0.500000 0.000000 0.558812
O O17 0.000000 0.000000 0.518159
#
# Coordination Sequence:
#
# PCOD9354481 Si02
#       7
#     8   8   8   8   8   8   8
#     4  10  21  41  65  91 132 171 211 270 334 380
#     4  10  21  39  65  95 133 169 216 276 331 393
#     4  11  22  35  60  94 131 172 212 262 329 394
#     4  10  23  44  66  88 130 179 216 276 331 389
#     4   9  21  39  66  92 124 178 218 264 327 393
#     4  11  24  41  67  96 129 174 219 272 342 391
#     4  11  24  39  62  97 133 166 219 277 328 395
#
# _framework density 22.478438000000001
#
# number of rings (size 3 to 8) (size 9 to 14) (size 15 to 20)
#    0.000    1.714    2.857    1.714    2.000    4.571 
#    0.000    5.000    0.000    0.000    0.000    0.000 
#    0.000    0.000    0.000    0.000    0.000    0.000 
#
# Total GULP energy -155981.361247 kJ/mol
# GULP energy per Si atom -5570.762902 kJ/mol
# Density = 2.242728 g / cm^3
# Si number density = 22.478438 Si / 1000 Ang^3
#
#
#
# Elastic Constant Matrix: (Units=GPa)
#
#
# Indices 1 2 3 4 5 6 
#
# 1 109.6049 10.4478 37.4021 0.0000 0.0000 0.0000
# 2 10.4478 47.3697 11.5102 0.0000 0.0000 0.0000
# 3 37.4021 11.5102 134.9117 0.0000 0.0000 0.0000
# 4 0.0000 0.0000 0.0000 15.2201 0.0000 0.0000
# 5 0.0000 0.0000 0.0000 0.0000 -0.6784 0.0000
# 6 0.0000 0.0000 0.0000 0.0000 0.0000 23.4196
#
#
#
# Elastic Compliance Matrix: (Units=1/GPa)
#
#
# Indices 1 2 3 4 5 6 
#
# 1 0.010194 -0.001595 -0.002690 0.000000 0.000000 0.000000
# 2 -0.001595 0.021807 -0.001418 0.000000 0.000000 0.000000
# 3 -0.002690 -0.001418 0.008279 0.000000 0.000000 0.000000
# 4 0.000000 0.000000 0.000000 0.065702 0.000000 0.000000
# 5 0.000000 0.000000 0.000000 0.000000 -1.474160 0.000000
# 6 0.000000 0.000000 0.000000 0.000000 0.000000 0.042699
#
#
# Mechanical properties :
#
#
# Convention : Reuss Voigt Hill
#
# Bulk Modulus (GPa) = 34.63382 45.62295 40.12839
# Shear Modulus (GPa) = -3.83304 23.09403 9.63049
#
# Velocity S-wave (km/s) = -1.30725 3.20876 2.07211
# Velocity P-wave (km/s) = 3.62801 5.83683 4.85958
#
# Compressibility (1/GPa) = 0.02887351
#
# Stress axis : x y z
#
# Youngs Moduli (GPa) = 98.10058 45.85698 120.78726
#
# Poissons Ratio (x) = 0.07313 0.32491
# Poissons Ratio (y) = 0.15644 0.17133
# Poissons Ratio (z) = 0.26389 0.06504
#
# Static dielectric constant tensor:
#      x y z
#    x 1.859530 0.000000 0.000000 
#    y 0.000000 2.079420 0.000000 
#    z 0.000000 0.000000 1.818350 
# 
# From -- ./inp_files/16424.got.cif
#   From: 2010.05.17/outbox.cif.g08.bks.cpg/sg37_9_cif.got.tgz:16424.got - 2010.06.03 17:53:42.
