data_PCOD9354451
_publ_section_title
;
Structure prediction by ZEFSAII (Michael W. Deem and Ramdas Pophale) SiO2 
 PCOD9354451
Probable space group: C C C 2
;
_chemical_formula_sum "Si O2"
_cell_formula_units_Z 44
_cell_length_a 12.774036
_cell_length_b 8.714718
_cell_length_c 17.487804
_cell_angle_alpha 90.000000
_cell_angle_beta 90.000000
_cell_angle_gamma 90.000000
_cell_volume 1946.779441
_symmetry_space_group_name_H-M "C C C 2"
_symmetry_group_IT_number 37
_symmetry_cell_setting 'orthorhombic'
loop_
_space_group_symop_operation_xyz
x,y,z
-x,-y,z
-x,y,1/2+z
x,-y,1/2+z
1/2+x,1/2+y,z
1/2-x,1/2-y,z
1/2-x,1/2+y,1/2+z
1/2+x,1/2-y,1/2+z
loop_
_atom_site_type_symbol
_atom_site_label
_atom_site_fract_x
_atom_site_fract_y
_atom_site_fract_z
Si Si1 0.500000 0.000000 0.735720
Si Si2 0.403780 0.763288 0.120234
Si Si3 0.701882 0.989774 0.012604
Si Si4 0.207400 0.569324 0.337996
Si Si5 0.875742 0.008820 0.724318
Si Si6 0.611195 0.327873 0.573536
O O1 0.520670 0.862820 0.675602
O O2 0.603204 0.972510 0.788502
O O3 0.337840 0.869553 0.063752
O O4 0.346978 0.646818 0.177733
O O5 0.486818 0.666230 0.071413
O O6 0.643941 0.839440 0.045237
O O7 0.823266 0.949423 0.024860
O O8 0.684042 0.992641 0.922534
O O9 0.250000 0.750000 0.342032
O O10 0.303291 0.482114 0.297284
O O11 0.856313 0.138365 0.661206
O O12 0.000000 0.000000 0.741416
#
# Coordination Sequence:
#
# PCOD9354451 Si02
#       6
#     4   8   8   8   8   8
#     4  12  24  36  74 104 132 190 242 286 358 432
#     4  11  22  43  71 102 134 190 249 293 343 447
#     4  11  23  39  70 101 141 182 238 298 361 426
#     4  12  25  42  68 106 149 183 229 309 370 422
#     4  10  24  46  72  98 140 188 245 298 359 428
#     4  10  21  38  69  98 129 182 241 290 348 423
#
# _framework density 22.601431999999999
#
# number of rings (size 3 to 8) (size 9 to 14) (size 15 to 20)
#    0.000    1.091    5.455    1.091    5.091    0.000 
#    0.000    2.727   12.000    0.000    0.000    0.000 
#    0.000    0.000    0.000    0.000    0.000    0.000 
#
# Total GULP energy -122801.758205 kJ/mol
# GULP energy per Si atom -5581.898100 kJ/mol
# Density = 2.254999 g / cm^3
# Si number density = 22.601432 Si / 1000 Ang^3
#
#
#
# Elastic Constant Matrix: (Units=GPa)
#
#
# Indices 1 2 3 4 5 6 
#
# 1 123.0390 42.2837 66.8494 0.0000 0.0000 0.0000
# 2 42.2837 104.3250 65.4278 0.0000 0.0000 0.0000
# 3 66.8494 65.4278 154.9825 0.0000 0.0000 0.0000
# 4 0.0000 0.0000 0.0000 -6.8581 0.0000 0.0000
# 5 0.0000 0.0000 0.0000 0.0000 -94.6704 0.0000
# 6 0.0000 0.0000 0.0000 0.0000 0.0000 48.6966
#
#
#
# Elastic Compliance Matrix: (Units=1/GPa)
#
#
# Indices 1 2 3 4 5 6 
#
# 1 0.010914 -0.002001 -0.003863 0.000000 0.000000 0.000000
# 2 -0.002001 0.013404 -0.004796 0.000000 0.000000 0.000000
# 3 -0.003863 -0.004796 0.010143 0.000000 0.000000 0.000000
# 4 0.000000 0.000000 0.000000 -0.145813 0.000000 0.000000
# 5 0.000000 0.000000 0.000000 0.000000 -0.010563 0.000000
# 6 0.000000 0.000000 0.000000 0.000000 0.000000 0.020535
#
#
# Mechanical properties :
#
#
# Convention : Reuss Voigt Hill
#
# Bulk Modulus (GPa) = 76.09048 81.27423 78.68236
# Shear Modulus (GPa) = -66.06708 3.28600 -31.39054
#
# Velocity S-wave (km/s) = -5.41247 1.20708 -3.73080
# Velocity P-wave (km/s) = 2.30661 6.16284 4.04105
#
# Compressibility (1/GPa) = 0.01314225
#
# Stress axis : x y z
#
# Youngs Moduli (GPa) = 91.62641 74.60473 98.58970
#
# Poissons Ratio (x) = 0.14928 0.38084
# Poissons Ratio (y) = 0.18333 0.47280
# Poissons Ratio (z) = 0.35394 0.35777
#
# Static dielectric constant tensor:
#      x y z
#    x 2.019710 0.000000 0.000000 
#    y 0.000000 1.974710 0.000000 
#    z 0.000000 0.000000 1.813030 
# 
# From -- ./inp_files/15195.got.cif
#   From: 2010.05.17/outbox.cif.g08.bks.cpg/sg37_8_cif.got.tgz:15195.got - 2010.06.03 17:53:42.
