data_PCOD9354752
_publ_section_title
;
Structure prediction by ZEFSAII (Michael W. Deem and Ramdas Pophale) SiO2 
 PCOD9354752
Probable space group: C C C 2
;
_chemical_formula_sum "Si O2"
_cell_formula_units_Z 60
_cell_length_a 26.361779
_cell_length_b 12.135077
_cell_length_c 8.998058
_cell_angle_alpha 90.000000
_cell_angle_beta 90.000000
_cell_angle_gamma 90.000000
_cell_volume 2878.498712
_symmetry_space_group_name_H-M "C C C 2"
_symmetry_group_IT_number 37
_symmetry_cell_setting 'orthorhombic'
loop_
_space_group_symop_operation_xyz
x,y,z
-x,-y,z
-x,y,1/2+z
x,-y,1/2+z
1/2+x,1/2+y,z
1/2-x,1/2-y,z
1/2-x,1/2+y,1/2+z
1/2+x,1/2-y,1/2+z
loop_
_atom_site_type_symbol
_atom_site_label
_atom_site_fract_x
_atom_site_fract_y
_atom_site_fract_z
Si Si1 0.379021 0.473570 0.720850
Si Si2 0.750000 0.250000 0.766585
Si Si3 0.168996 0.856253 0.957804
Si Si4 0.339497 0.109735 0.141727
Si Si5 0.049140 0.931969 0.470370
Si Si6 0.552878 0.792187 0.122031
Si Si7 0.637248 0.100833 0.978114
Si Si8 0.973311 0.600264 0.417318
O O1 0.361127 0.576640 0.825600
O O2 0.335258 0.419785 0.616281
O O3 0.419411 0.501250 0.593308
O O4 0.411451 0.402421 0.838658
O O5 0.777068 0.163531 0.877999
O O6 0.708665 0.188575 0.665175
O O7 0.149929 0.730919 0.991650
O O8 0.388223 0.180366 0.086974
O O9 0.355993 0.075098 0.305803
O O10 0.331272 0.994381 0.059296
O O11 0.035196 0.824566 0.561513
O O12 0.000000 0.000000 0.418069
O O13 0.541947 0.807784 0.296228
O O14 0.517284 0.871195 0.029754
O O15 0.578094 0.081265 0.009296
O O16 0.000000 0.500000 0.330489
#
# Coordination Sequence:
#
# PCOD9354752 Si02
#       8
#     8   4   8   8   8   8   8   8
#     4  10  23  43  62  90 136 173 220 283 331 399
#     4  10  22  44  74  98 130 174 222 290 360 414
#     4  10  23  43  69  95 130 174 226 283 353 402
#     4  10  22  42  65  97 134 170 225 282 345 406
#     4  11  24  38  61  93 130 178 228 265 322 396
#     4  11  25  38  61  93 136 179 221 272 330 402
#     4  10  22  39  63  96 135 172 223 281 331 407
#     4  11  22  37  59  91 132 180 218 267 331 397
#
# _framework density 20.844200000000001
#
# number of rings (size 3 to 8) (size 9 to 14) (size 15 to 20)
#    0.000    1.600    1.333    3.200    9.333    3.200 
#    0.000    0.000    0.000   10.400    0.000    0.000 
#    0.000    0.000    0.000    0.000    0.000    0.000 
#
# Total GULP energy -167055.426303 kJ/mol
# GULP energy per Si atom -5568.514210 kJ/mol
# Density = 2.079676 g / cm^3
# Si number density = 20.844200 Si / 1000 Ang^3
#
#
#
# Elastic Constant Matrix: (Units=GPa)
#
#
# Indices 1 2 3 4 5 6 
#
# 1 108.7292 22.0915 18.4924 0.0000 0.0000 0.0000
# 2 22.0915 61.9334 18.8044 0.0000 0.0000 0.0000
# 3 18.4924 18.8044 81.5399 0.0000 0.0000 0.0000
# 4 0.0000 0.0000 0.0000 28.4365 0.0000 0.0000
# 5 0.0000 0.0000 0.0000 0.0000 6.9421 0.0000
# 6 0.0000 0.0000 0.0000 0.0000 0.0000 6.4463
#
#
#
# Elastic Compliance Matrix: (Units=1/GPa)
#
#
# Indices 1 2 3 4 5 6 
#
# 1 0.010099 -0.003126 -0.001570 0.000000 0.000000 0.000000
# 2 -0.003126 0.018330 -0.003518 0.000000 0.000000 0.000000
# 3 -0.001570 -0.003518 0.013431 0.000000 0.000000 0.000000
# 4 0.000000 0.000000 0.000000 0.035166 0.000000 0.000000
# 5 0.000000 0.000000 0.000000 0.000000 0.144049 0.000000
# 6 0.000000 0.000000 0.000000 0.000000 0.000000 0.155128
#
#
# Mechanical properties :
#
#
# Convention : Reuss Voigt Hill
#
# Bulk Modulus (GPa) = 39.31912 41.21991 40.26951
# Shear Modulus (GPa) = 12.46547 21.21926 16.84237
#
# Velocity S-wave (km/s) = 2.44812 3.19406 2.84564
# Velocity P-wave (km/s) = 5.18607 5.78108 5.49164
#
# Compressibility (1/GPa) = 0.02543292
#
# Stress axis : x y z
#
# Youngs Moduli (GPa) = 99.01774 54.55676 74.45329
#
# Poissons Ratio (x) = 0.17053 0.11686
# Poissons Ratio (y) = 0.30951 0.26194
# Poissons Ratio (z) = 0.15541 0.19194
#
# Static dielectric constant tensor:
#      x y z
#    x 1.988150 0.000000 0.000000 
#    y 0.000000 1.984510 0.000000 
#    z 0.000000 0.000000 1.769390 
# 
# From -- ./inp_files/3065.got.cif
#   From: 2010.05.17/outbox.cif.g08.bks.cpg/sg37_2_cif.got.tgz:3065.got - 2010.06.03 17:53:42.
