data_PCOD9354493
_publ_section_title
;
Structure prediction by ZEFSAII (Michael W. Deem and Ramdas Pophale) SiO2 
 PCOD9354493
Probable space group: C C C 2
;
_chemical_formula_sum "Si O2"
_cell_formula_units_Z 48
_cell_length_a 17.391313
_cell_length_b 9.104484
_cell_length_c 13.819775
_cell_angle_alpha 90.000000
_cell_angle_beta 90.000000
_cell_angle_gamma 90.000000
_cell_volume 2188.208399
_symmetry_space_group_name_H-M "C C C 2"
_symmetry_group_IT_number 37
_symmetry_cell_setting 'orthorhombic'
loop_
_space_group_symop_operation_xyz
x,y,z
-x,-y,z
-x,y,1/2+z
x,-y,1/2+z
1/2+x,1/2+y,z
1/2-x,1/2-y,z
1/2-x,1/2+y,1/2+z
1/2+x,1/2-y,1/2+z
loop_
_atom_site_type_symbol
_atom_site_label
_atom_site_fract_x
_atom_site_fract_y
_atom_site_fract_z
Si Si1 0.695714 0.458519 0.677220
Si Si2 0.182620 0.163274 0.854683
Si Si3 0.634904 0.135828 0.639251
Si Si4 0.955460 0.735021 0.954550
Si Si5 0.558644 0.631320 0.598709
Si Si6 0.425564 0.127138 0.754921
O O1 0.698665 0.524876 0.786377
O O2 0.652945 0.300920 0.674938
O O3 0.780534 0.437880 0.633731
O O4 0.643445 0.569089 0.614411
O O5 0.250000 0.250000 0.910983
O O6 0.108082 0.142609 0.922117
O O7 0.156163 0.295294 0.782313
O O8 0.588584 0.145347 0.538502
O O9 0.587925 0.032772 0.712752
O O10 0.967682 0.645583 0.856931
O O11 0.032156 0.804999 0.996376
O O12 0.500000 0.500000 0.621868
O O13 0.543728 0.762322 0.674064
#
# Coordination Sequence:
#
# PCOD9354493 Si02
#       6
#     8   8   8   8   8   8
#     4  10  21  39  71  99 139 172 229 293 340 421
#     4   9  18  40  68  98 128 184 227 282 350 404
#     4  11  21  41  70 107 133 180 228 297 357 403
#     4  10  23  39  69  97 134 183 232 277 348 429
#     4  11  22  43  63 100 134 188 226 279 350 427
#     4   9  23  42  69  90 143 174 231 281 350 420
#
# _framework density 21.935753999999999
#
# number of rings (size 3 to 8) (size 9 to 14) (size 15 to 20)
#    1.000    1.000    3.333    0.000    2.333    1.333 
#    0.000    5.000    0.000    4.000    0.000    0.000 
#    0.000    0.000    0.000    0.000    0.000    0.000 
#
# Total GULP energy -133808.328148 kJ/mol
# GULP energy per Si atom -5575.347006 kJ/mol
# Density = 2.188583 g / cm^3
# Si number density = 21.935754 Si / 1000 Ang^3
#
#
#
# Elastic Constant Matrix: (Units=GPa)
#
#
# Indices 1 2 3 4 5 6 
#
# 1 82.3628 43.7484 47.7519 0.0000 0.0000 0.0000
# 2 43.7484 116.3639 65.4848 0.0000 0.0000 0.0000
# 3 47.7519 65.4848 123.2395 0.0000 0.0000 0.0000
# 4 0.0000 0.0000 0.0000 22.7940 0.0000 0.0000
# 5 0.0000 0.0000 0.0000 0.0000 35.9717 0.0000
# 6 0.0000 0.0000 0.0000 0.0000 0.0000 36.7188
#
#
#
# Elastic Compliance Matrix: (Units=1/GPa)
#
#
# Indices 1 2 3 4 5 6 
#
# 1 0.016745 -0.003772 -0.004484 0.000000 0.000000 0.000000
# 2 -0.003772 0.013109 -0.005504 0.000000 0.000000 0.000000
# 3 -0.004484 -0.005504 0.012776 0.000000 0.000000 0.000000
# 4 0.000000 0.000000 0.000000 0.043871 0.000000 0.000000
# 5 0.000000 0.000000 0.000000 0.000000 0.027800 0.000000
# 6 0.000000 0.000000 0.000000 0.000000 0.000000 0.027234
#
#
# Mechanical properties :
#
#
# Convention : Reuss Voigt Hill
#
# Bulk Modulus (GPa) = 66.18037 70.65961 68.41999
# Shear Modulus (GPa) = 28.72042 30.09565 29.40803
#
# Velocity S-wave (km/s) = 3.62235 3.70806 3.66545
# Velocity P-wave (km/s) = 6.90875 7.11442 7.01234
#
# Compressibility (1/GPa) = 0.01511022
#
# Stress axis : x y z
#
# Youngs Moduli (GPa) = 59.72095 76.28062 78.26938
#
# Poissons Ratio (x) = 0.28774 0.35094
# Poissons Ratio (y) = 0.22527 0.43082
# Poissons Ratio (z) = 0.26777 0.41987
#
# Static dielectric constant tensor:
#      x y z
#    x 1.937770 0.000000 0.000000 
#    y 0.000000 1.801670 0.000000 
#    z 0.000000 0.000000 1.799010 
# 
# From -- ./inp_files/12605.got.cif
#   From: 2010.05.17/outbox.cif.g08.bks.cpg/sg37_7_cif.got.tgz:12605.got - 2010.06.03 17:53:42.
