data_PCOD9354046
_publ_section_title
;
Structure prediction by ZEFSAII (Michael W. Deem and Ramdas Pophale) SiO2 
 PCOD9354046
Probable space group: C C C 2
;
_chemical_formula_sum "Si O2"
_cell_formula_units_Z 44
_cell_length_a 17.208576
_cell_length_b 9.285873
_cell_length_c 12.410824
_cell_angle_alpha 90.000000
_cell_angle_beta 90.000000
_cell_angle_gamma 90.000000
_cell_volume 1983.208114
_symmetry_space_group_name_H-M "C C C 2"
_symmetry_group_IT_number 37
_symmetry_cell_setting 'orthorhombic'
loop_
_space_group_symop_operation_xyz
x,y,z
-x,-y,z
-x,y,1/2+z
x,-y,1/2+z
1/2+x,1/2+y,z
1/2-x,1/2-y,z
1/2-x,1/2+y,1/2+z
1/2+x,1/2-y,1/2+z
loop_
_atom_site_type_symbol
_atom_site_label
_atom_site_fract_x
_atom_site_fract_y
_atom_site_fract_z
Si Si1 0.359537 0.638351 0.258750
Si Si2 0.000000 0.000000 0.889041
Si Si3 0.080550 0.587543 0.637155
Si Si4 0.769577 0.580951 0.280300
Si Si5 0.521262 0.340609 0.095039
Si Si6 0.691134 0.862402 0.944690
O O1 0.424928 0.551291 0.325025
O O2 0.293573 0.524297 0.224162
O O3 0.399498 0.704099 0.152489
O O4 0.333911 0.764256 0.341533
O O5 0.022824 0.863747 0.966606
O O6 0.145932 0.560574 0.726042
O O7 0.122781 0.584914 0.521450
O O8 0.000000 0.500000 0.643136
O O9 0.048512 0.748545 0.641083
O O10 0.750000 0.750000 0.280206
O O11 0.769839 0.506033 0.397936
O O12 0.500000 0.500000 0.129569
O O13 0.750000 0.750000 0.003931
#
# Coordination Sequence:
#
# PCOD9354046 Si02
#       6
#     8   4   8   8   8   8
#     4  11  21  42  69  96 134 177 226 275 332 399
#     4  10  20  36  66 102 124 174 224 276 322 398
#     4  12  25  43  67  99 135 171 216 282 339 392
#     4  11  26  43  67  97 134 175 221 273 334 400
#     4  10  21  37  66  97 127 173 218 269 320 404
#     4  10  23  45  67  92 130 179 219 274 333 399
#
# _framework density 22.186275999999999
#
# number of rings (size 3 to 8) (size 9 to 14) (size 15 to 20)
#    0.545    0.727    2.727    2.727    0.000    6.545 
#    0.000    2.727    0.000    0.000    0.000    0.000 
#    0.000    0.000    0.000    0.000    0.000    0.000 
#
# Total GULP energy -122634.378423 kJ/mol
# GULP energy per Si atom -5574.289928 kJ/mol
# Density = 2.213578 g / cm^3
# Si number density = 22.186276 Si / 1000 Ang^3
#
#
#
# Elastic Constant Matrix: (Units=GPa)
#
#
# Indices 1 2 3 4 5 6 
#
# 1 118.3961 22.6625 32.3475 0.0000 0.0000 0.0000
# 2 22.6625 72.8278 22.4663 0.0000 0.0000 0.0000
# 3 32.3475 22.4663 36.3701 0.0000 0.0000 0.0000
# 4 0.0000 0.0000 0.0000 40.2808 0.0000 0.0000
# 5 0.0000 0.0000 0.0000 0.0000 41.5744 0.0000
# 6 0.0000 0.0000 0.0000 0.0000 0.0000 51.2495
#
#
#
# Elastic Compliance Matrix: (Units=1/GPa)
#
#
# Indices 1 2 3 4 5 6 
#
# 1 0.011173 -0.000508 -0.009623 0.000000 0.000000 0.000000
# 2 -0.000508 0.016987 -0.010041 0.000000 0.000000 0.000000
# 3 -0.009623 -0.010041 0.042256 0.000000 0.000000 0.000000
# 4 0.000000 0.000000 0.000000 0.024826 0.000000 0.000000
# 5 0.000000 0.000000 0.000000 0.000000 0.024053 0.000000
# 6 0.000000 0.000000 0.000000 0.000000 0.000000 0.019512
#
#
# Mechanical properties :
#
#
# Convention : Reuss Voigt Hill
#
# Bulk Modulus (GPa) = 33.25428 42.50516 37.87972
# Shear Modulus (GPa) = 26.43056 36.62879 31.52968
#
# Velocity S-wave (km/s) = 3.45527 4.06762 3.77388
# Velocity P-wave (km/s) = 5.56235 6.42344 6.00834
#
# Compressibility (1/GPa) = 0.03007132
#
# Stress axis : x y z
#
# Youngs Moduli (GPa) = 89.50442 58.86984 23.66511
#
# Poissons Ratio (x) = 0.02991 0.22773
# Poissons Ratio (y) = 0.04548 0.23762
# Poissons Ratio (z) = 0.86131 0.59111
#
# Static dielectric constant tensor:
#      x y z
#    x 1.455220 0.000000 0.000000 
#    y 0.000000 1.828240 0.000000 
#    z 0.000000 0.000000 1.890980 
# 
# From -- ./inp_files/12489.got.cif
#   From: 2010.05.17/outbox.cif.g08.bks.cpg/sg37_7_cif.got.tgz:12489.got - 2010.06.03 17:53:42.
