data_PCOD9354893
_publ_section_title
;
Structure prediction by ZEFSAII (Michael W. Deem and Ramdas Pophale) SiO2 
 PCOD9354893
Probable space group: C C C 2
;
_chemical_formula_sum "Si O2"
_cell_formula_units_Z 56
_cell_length_a 15.513270
_cell_length_b 20.585437
_cell_length_c 8.191972
_cell_angle_alpha 90.000000
_cell_angle_beta 90.000000
_cell_angle_gamma 90.000000
_cell_volume 2616.085305
_symmetry_space_group_name_H-M "C C C 2"
_symmetry_group_IT_number 37
_symmetry_cell_setting 'orthorhombic'
loop_
_space_group_symop_operation_xyz
x,y,z
-x,-y,z
-x,y,1/2+z
x,-y,1/2+z
1/2+x,1/2+y,z
1/2-x,1/2-y,z
1/2-x,1/2+y,1/2+z
1/2+x,1/2-y,1/2+z
loop_
_atom_site_type_symbol
_atom_site_label
_atom_site_fract_x
_atom_site_fract_y
_atom_site_fract_z
Si Si1 0.882448 0.925955 0.492730
Si Si2 0.903200 0.771761 0.486609
Si Si3 0.680833 0.052548 0.058076
Si Si4 0.500000 0.500000 0.740216
Si Si5 0.501913 0.803995 0.235605
Si Si6 0.750000 0.750000 0.712421
Si Si7 0.826583 0.355289 0.373904
Si Si8 0.879067 0.583515 0.190330
O O1 0.886386 0.848047 0.467869
O O2 0.784797 0.950506 0.526943
O O3 0.946865 0.947038 0.637332
O O4 0.926752 0.962825 0.342269
O O5 0.918788 0.728079 0.330125
O O6 0.826761 0.741313 0.589377
O O7 0.981976 0.750907 0.602178
O O8 0.671649 0.093329 0.225628
O O9 0.629188 0.987149 0.106755
O O10 0.645559 0.078376 0.882295
O O11 0.416497 0.816035 0.346089
O O12 0.531842 0.875854 0.179773
O O13 0.744897 0.688526 0.827834
O O14 0.819993 0.377631 0.559965
#
# Coordination Sequence:
#
# PCOD9354893 Si02
#       8
#     8   8   8   4   8   4   8   8
#     4  11  23  45  69 104 136 186 233 297 355 426
#     4  11  22  43  71  96 140 182 231 294 344 422
#     4  12  25  45  73 102 146 189 234 294 360 426
#     4  10  24  42  70 100 138 178 238 290 360 422
#     4  11  24  44  68 101 137 184 239 289 352 424
#     4  10  22  42  70  94 138 182 224 296 352 402
#     4  11  24  48  67 103 141 185 237 294 358 427
#     4  12  25  45  69 104 143 188 237 288 359 433
#
# _framework density 21.406030999999999
#
# number of rings (size 3 to 8) (size 9 to 14) (size 15 to 20)
#    0.000    0.857    4.286    3.429    0.000    0.571 
#    2.571    0.000    0.000    0.000    0.000    0.000 
#    0.000    0.000    0.000    0.000    0.000    0.000 
#
# Total GULP energy -155895.709472 kJ/mol
# GULP energy per Si atom -5567.703910 kJ/mol
# Density = 2.135731 g / cm^3
# Si number density = 21.406031 Si / 1000 Ang^3
#
#
#
# Elastic Constant Matrix: (Units=GPa)
#
#
# Indices 1 2 3 4 5 6 
#
# 1 35.6727 -18.9810 -4.2760 0.0000 0.0000 0.0000
# 2 -18.9810 56.2821 -10.5708 0.0000 0.0000 0.0000
# 3 -4.2760 -10.5708 77.8277 0.0000 0.0000 0.0000
# 4 0.0000 0.0000 0.0000 125.2671 0.0000 0.0000
# 5 0.0000 0.0000 0.0000 0.0000 18.1673 0.0000
# 6 0.0000 0.0000 0.0000 0.0000 0.0000 33.3003
#
#
#
# Elastic Compliance Matrix: (Units=1/GPa)
#
#
# Indices 1 2 3 4 5 6 
#
# 1 0.035136 0.012532 0.003633 0.000000 0.000000 0.000000
# 2 0.012532 0.022702 0.003772 0.000000 0.000000 0.000000
# 3 0.003633 0.003772 0.013561 0.000000 0.000000 0.000000
# 4 0.000000 0.000000 0.000000 0.007983 0.000000 0.000000
# 5 0.000000 0.000000 0.000000 0.000000 0.055044 0.000000
# 6 0.000000 0.000000 0.000000 0.000000 0.000000 0.030030
#
#
# Mechanical properties :
#
#
# Convention : Reuss Voigt Hill
#
# Bulk Modulus (GPa) = 8.98695 11.34741 10.16718
# Shear Modulus (GPa) = 30.92646 48.92095 39.92371
#
# Velocity S-wave (km/s) = 3.80512 4.78575 4.32333
# Velocity P-wave (km/s) = 4.84899 5.98752 5.44808
#
# Compressibility (1/GPa) = 0.11127243
#
# Stress axis : x y z
#
# Youngs Moduli (GPa) = 28.46069 44.04812 73.74190
#
# Poissons Ratio (x) = -0.55201 -0.26787
# Poissons Ratio (y) = -0.35667 -0.27816
# Poissons Ratio (z) = -0.10339 -0.16615
#
# Static dielectric constant tensor:
#      x y z
#    x 1.837730 0.000000 0.000000 
#    y 0.000000 1.838730 0.000000 
#    z 0.000000 0.000000 1.824730 
# 
# From -- ./inp_files/3670.got.cif
#   From: 2010.05.17/outbox.cif.g08.bks.cpg/sg37_2_cif.got.tgz:3670.got - 2010.06.03 17:53:42.
