data_PCOD9354891
_publ_section_title
;
Structure prediction by ZEFSAII (Michael W. Deem and Ramdas Pophale) SiO2 
 PCOD9354891
Probable space group: C C C 2
;
_chemical_formula_sum "Si O2"
_cell_formula_units_Z 60
_cell_length_a 12.652960
_cell_length_b 7.717016
_cell_length_c 26.075088
_cell_angle_alpha 90.000000
_cell_angle_beta 90.000000
_cell_angle_gamma 90.000000
_cell_volume 2546.052289
_symmetry_space_group_name_H-M "C C C 2"
_symmetry_group_IT_number 37
_symmetry_cell_setting 'orthorhombic'
loop_
_space_group_symop_operation_xyz
x,y,z
-x,-y,z
-x,y,1/2+z
x,-y,1/2+z
1/2+x,1/2+y,z
1/2-x,1/2-y,z
1/2-x,1/2+y,1/2+z
1/2+x,1/2-y,1/2+z
loop_
_atom_site_type_symbol
_atom_site_label
_atom_site_fract_x
_atom_site_fract_y
_atom_site_fract_z
Si Si1 0.966974 0.708048 0.901790
Si Si2 0.912177 0.884170 0.686957
Si Si3 0.417450 0.647396 0.997222
Si Si4 0.119992 0.475684 0.638885
Si Si5 0.750000 0.750000 0.957281
Si Si6 0.811458 0.516704 0.531796
Si Si7 0.780702 0.566959 0.238712
Si Si8 0.933002 0.672986 0.786375
O O1 0.849050 0.771919 0.918154
O O2 0.965929 0.745493 0.841166
O O3 0.000000 0.500000 0.906432
O O4 0.048864 0.806740 0.938995
O O5 0.871012 0.725668 0.653605
O O6 0.954876 0.801657 0.739950
O O7 0.817731 0.000678 0.706235
O O8 0.000000 0.000000 0.660274
O O9 0.500000 0.500000 0.015768
O O10 0.299685 0.572101 0.005343
O O11 0.399901 0.834549 0.024239
O O12 0.196123 0.518622 0.591918
O O13 0.136478 0.581727 0.691373
O O14 0.000000 0.500000 0.621730
O O15 0.827907 0.652702 0.998731
O O16 0.750000 0.750000 0.263089
O O17 0.817514 0.415544 0.277266
O O18 0.000000 0.500000 0.779728
#
# Coordination Sequence:
#
# PCOD9354891 Si02
#       8
#     8   8   8   8   4   8   8   8
#     4  11  24  44  70 100 138 188 235 301 368 431
#     4  11  23  43  69 100 144 184 231 297 352 436
#     4  11  24  46  66  97 142 184 233 306 351 433
#     4  11  25  43  68 101 139 184 235 292 361 435
#     4  12  24  44  68 100 144 178 242 294 364 424
#     4  11  27  43  71 101 141 187 242 294 368 433
#     4  11  23  43  68 102 144 180 231 291 353 433
#     4  10  22  42  70 101 137 181 234 289 363 428
#
# _framework density 23.565895000000001
#
# number of rings (size 3 to 8) (size 9 to 14) (size 15 to 20)
#    0.000    1.067    2.667    4.800    8.400    1.067 
#    0.000    2.667    0.000    0.000    0.000    0.000 
#    0.000    0.000    0.000    0.000    0.000    0.000 
#
# Total GULP energy -167175.985775 kJ/mol
# GULP energy per Si atom -5572.532859 kJ/mol
# Density = 2.351226 g / cm^3
# Si number density = 23.565895 Si / 1000 Ang^3
#
#
#
# Elastic Constant Matrix: (Units=GPa)
#
#
# Indices 1 2 3 4 5 6 
#
# 1 102.3451 18.3468 30.9688 0.0000 0.0000 0.0000
# 2 18.3468 75.6210 2.2509 0.0000 0.0000 0.0000
# 3 30.9688 2.2509 121.9502 0.0000 0.0000 0.0000
# 4 0.0000 0.0000 0.0000 27.3847 0.0000 0.0000
# 5 0.0000 0.0000 0.0000 0.0000 27.2671 0.0000
# 6 0.0000 0.0000 0.0000 0.0000 0.0000 39.2090
#
#
#
# Elastic Compliance Matrix: (Units=1/GPa)
#
#
# Indices 1 2 3 4 5 6 
#
# 1 0.011074 -0.002604 -0.002764 0.000000 0.000000 0.000000
# 2 -0.002604 0.013844 0.000406 0.000000 0.000000 0.000000
# 3 -0.002764 0.000406 0.008895 0.000000 0.000000 0.000000
# 4 0.000000 0.000000 0.000000 0.036517 0.000000 0.000000
# 5 0.000000 0.000000 0.000000 0.000000 0.036674 0.000000
# 6 0.000000 0.000000 0.000000 0.000000 0.000000 0.025504
#
#
# Mechanical properties :
#
#
# Convention : Reuss Voigt Hill
#
# Bulk Modulus (GPa) = 41.86414 44.78326 43.32370
# Shear Modulus (GPa) = 33.24570 35.32883 34.28726
#
# Velocity S-wave (km/s) = 3.76008 3.87609 3.81852
# Velocity P-wave (km/s) = 6.05427 6.25114 6.15349
#
# Compressibility (1/GPa) = 0.02388679
#
# Stress axis : x y z
#
# Youngs Moduli (GPa) = 90.30023 72.23532 112.42870
#
# Poissons Ratio (x) = 0.18814 0.31077
# Poissons Ratio (y) = 0.23519 -0.04563
# Poissons Ratio (z) = 0.24961 -0.02932
#
# Static dielectric constant tensor:
#      x y z
#    x 2.063840 0.000000 0.000000 
#    y 0.000000 1.936920 0.000000 
#    z 0.000000 0.000000 1.848020 
# 
# From -- ./inp_files/19777.got.cif
#   From: 2010.05.17/outbox.cif.g08.bks.cpg/sg37_10_cif.got.tgz:19777.got - 2010.06.03 17:53:42.
