data_PCOD9354877
_publ_section_title
;
Structure prediction by ZEFSAII (Michael W. Deem and Ramdas Pophale) SiO2 
 PCOD9354877
Probable space group: C C C 2
;
_chemical_formula_sum "Si O2"
_cell_formula_units_Z 48
_cell_length_a 16.839692
_cell_length_b 8.475583
_cell_length_c 15.891593
_cell_angle_alpha 90.000000
_cell_angle_beta 90.000000
_cell_angle_gamma 90.000000
_cell_volume 2268.146796
_symmetry_space_group_name_H-M "C C C 2"
_symmetry_group_IT_number 37
_symmetry_cell_setting 'orthorhombic'
loop_
_space_group_symop_operation_xyz
x,y,z
-x,-y,z
-x,y,1/2+z
x,-y,1/2+z
1/2+x,1/2+y,z
1/2-x,1/2-y,z
1/2-x,1/2+y,1/2+z
1/2+x,1/2-y,1/2+z
loop_
_atom_site_type_symbol
_atom_site_label
_atom_site_fract_x
_atom_site_fract_y
_atom_site_fract_z
Si Si1 0.898725 0.671047 0.973030
Si Si2 0.338193 0.193949 0.795696
Si Si3 0.160795 0.685384 0.809728
Si Si4 0.917241 0.312646 0.980556
Si Si5 0.338448 0.682408 0.640114
Si Si6 0.077793 0.882254 0.154027
O O1 0.853775 0.740795 0.892808
O O2 0.880088 0.487462 0.993431
O O3 0.991547 0.672228 0.953303
O O4 0.882932 0.769246 0.056085
O O5 0.250000 0.250000 0.771110
O O6 0.404051 0.267581 0.732997
O O7 0.342396 0.003665 0.801495
O O8 0.250000 0.750000 0.806806
O O9 0.125903 0.749234 0.897042
O O10 0.121602 0.747741 0.724114
O O11 0.919562 0.215114 0.066807
O O12 0.250000 0.750000 0.632475
O O13 0.345683 0.496906 0.650590
O O14 0.000000 0.000000 0.159156
#
# Coordination Sequence:
#
# PCOD9354877 Si02
#       6
#     8   8   8   8   8   8
#     4  10  22  42  67  96 134 178 225 279 343 407
#     4  11  24  44  68 100 135 178 232 286 347 411
#     4  10  23  43  69  99 133 181 229 286 349 409
#     4  10  23  42  65  97 133 177 228 278 342 408
#     4  11  23  42  66  96 134 176 220 277 344 405
#     4  12  26  44  67 106 137 182 231 286 345 412
#
# _framework density 21.162652000000001
#
# number of rings (size 3 to 8) (size 9 to 14) (size 15 to 20)
#    0.000    1.333    1.667    3.500    2.333    6.000 
#    0.000    0.000    0.000    0.000    0.000    0.000 
#    0.000    0.000    0.000    0.000    0.000    0.000 
#
# Total GULP energy -133904.599659 kJ/mol
# GULP energy per Si atom -5579.358319 kJ/mol
# Density = 2.111449 g / cm^3
# Si number density = 21.162652 Si / 1000 Ang^3
#
#
#
# Elastic Constant Matrix: (Units=GPa)
#
#
# Indices 1 2 3 4 5 6 
#
# 1 66.2979 23.6852 37.2072 0.0000 0.0000 0.0000
# 2 23.6852 74.6477 50.4556 0.0000 0.0000 0.0000
# 3 37.2072 50.4556 178.0929 0.0000 0.0000 0.0000
# 4 0.0000 0.0000 0.0000 -83.0745 0.0000 0.0000
# 5 0.0000 0.0000 0.0000 0.0000 45.6433 0.0000
# 6 0.0000 0.0000 0.0000 0.0000 0.0000 29.2224
#
#
#
# Elastic Compliance Matrix: (Units=1/GPa)
#
#
# Indices 1 2 3 4 5 6 
#
# 1 0.017966 -0.003913 -0.002645 0.000000 0.000000 0.000000
# 2 -0.003913 0.017421 -0.004118 0.000000 0.000000 0.000000
# 3 -0.002645 -0.004118 0.007334 0.000000 0.000000 0.000000
# 4 0.000000 0.000000 0.000000 -0.012037 0.000000 0.000000
# 5 0.000000 0.000000 0.000000 0.000000 0.021909 0.000000
# 6 0.000000 0.000000 0.000000 0.000000 0.000000 0.034220
#
#
# Mechanical properties :
#
#
# Convention : Reuss Voigt Hill
#
# Bulk Modulus (GPa) = 46.79511 60.19273 53.49392
# Shear Modulus (GPa) = 43.36969 12.20426 27.78698
#
# Velocity S-wave (km/s) = 4.53189 2.40404 3.62749
# Velocity P-wave (km/s) = 7.03876 6.01752 6.54808
#
# Compressibility (1/GPa) = 0.02136975
#
# Stress axis : x y z
#
# Youngs Moduli (GPa) = 55.66203 57.40107 136.34480
#
# Poissons Ratio (x) = 0.22459 0.36061
# Poissons Ratio (y) = 0.21779 0.56150
# Poissons Ratio (z) = 0.14722 0.23639
#
# Static dielectric constant tensor:
#      x y z
#    x 1.762410 0.000000 0.000000 
#    y 0.000000 1.826010 0.000000 
#    z 0.000000 0.000000 1.774050 
# 
# From -- ./inp_files/12539.got.cif
#   From: 2010.05.17/outbox.cif.g08.bks.cpg/sg37_7_cif.got.tgz:12539.got - 2010.06.03 17:53:42.
