data_PCOD9354262
_publ_section_title
;
Structure prediction by ZEFSAII (Michael W. Deem and Ramdas Pophale) SiO2 
 PCOD9354262
Probable space group: C C C 2
;
_chemical_formula_sum "Si O2"
_cell_formula_units_Z 56
_cell_length_a 13.007944
_cell_length_b 15.379572
_cell_length_c 11.182116
_cell_angle_alpha 90.000000
_cell_angle_beta 90.000000
_cell_angle_gamma 90.000000
_cell_volume 2237.056234
_symmetry_space_group_name_H-M "C C C 2"
_symmetry_group_IT_number 37
_symmetry_cell_setting 'orthorhombic'
loop_
_space_group_symop_operation_xyz
x,y,z
-x,-y,z
-x,y,1/2+z
x,-y,1/2+z
1/2+x,1/2+y,z
1/2-x,1/2-y,z
1/2-x,1/2+y,1/2+z
1/2+x,1/2-y,1/2+z
loop_
_atom_site_type_symbol
_atom_site_label
_atom_site_fract_x
_atom_site_fract_y
_atom_site_fract_z
Si Si1 0.866485 0.772027 0.935170
Si Si2 0.762056 0.847292 0.346622
Si Si3 0.847238 0.650218 0.599579
Si Si4 0.083632 0.057908 0.485963
Si Si5 0.959111 0.409895 0.499555
Si Si6 0.227647 0.086393 0.093402
Si Si7 0.627802 0.654725 0.695554
O O1 0.750000 0.750000 0.890914
O O2 0.903522 0.836070 0.831502
O O3 0.940565 0.687580 0.941811
O O4 0.836269 0.826646 0.053458
O O5 0.750000 0.750000 0.300093
O O6 0.683983 0.855336 0.458785
O O7 0.870117 0.865045 0.409908
O O8 0.760381 0.912474 0.235975
O O9 0.955554 0.601585 0.604061
O O10 0.746339 0.621995 0.674751
O O11 0.868357 0.748653 0.639617
O O12 0.052351 0.098377 0.613673
O O13 0.170802 0.990115 0.524555
O O14 0.000000 0.000000 0.424205
O O15 0.843547 0.419930 0.545706
O O16 0.000000 0.500000 0.437033
#
# Coordination Sequence:
#
# PCOD9354262 Si02
#       7
#     8   8   8   8   8   8   8
#     4  10  22  44  73 102 150 196 240 302 377 438
#     4  11  22  48  74 102 149 201 247 305 372 453
#     4  10  20  41  72 101 130 196 248 288 357 450
#     4  11  26  47  73 110 143 193 254 314 373 446
#     4  11  24  45  69 110 151 190 247 304 375 455
#     4  11  27  47  69 110 157 190 247 319 380 436
#     4  10  20  45  72  99 142 191 248 295 365 451
#
# _framework density 25.032900000000001
#
# number of rings (size 3 to 8) (size 9 to 14) (size 15 to 20)
#    0.000    1.429    4.286    3.000    4.000    1.714 
#    2.571    1.429    0.000    0.000    0.000    0.000 
#    0.000    0.000    0.000    0.000    0.000    0.000 
#
# Total GULP energy -156186.172780 kJ/mol
# GULP energy per Si atom -5578.077599 kJ/mol
# Density = 2.497592 g / cm^3
# Si number density = 25.032900 Si / 1000 Ang^3
#
#
#
# Elastic Constant Matrix: (Units=GPa)
#
#
# Indices 1 2 3 4 5 6 
#
# 1 117.8899 48.5726 12.7877 0.0000 0.0000 0.0000
# 2 48.5726 115.9421 20.6849 0.0000 0.0000 0.0000
# 3 12.7877 20.6849 97.0751 0.0000 0.0000 0.0000
# 4 0.0000 0.0000 0.0000 28.3518 0.0000 0.0000
# 5 0.0000 0.0000 0.0000 0.0000 -7.9707 0.0000
# 6 0.0000 0.0000 0.0000 0.0000 0.0000 54.9766
#
#
#
# Elastic Compliance Matrix: (Units=1/GPa)
#
#
# Indices 1 2 3 4 5 6 
#
# 1 0.010271 -0.004222 -0.000453 0.000000 0.000000 0.000000
# 2 -0.004222 0.010701 -0.001724 0.000000 0.000000 0.000000
# 3 -0.000453 -0.001724 0.010728 0.000000 0.000000 0.000000
# 4 0.000000 0.000000 0.000000 0.035271 0.000000 0.000000
# 5 0.000000 0.000000 0.000000 0.000000 -0.125460 0.000000
# 6 0.000000 0.000000 0.000000 0.000000 0.000000 0.018190
#
#
# Mechanical properties :
#
#
# Convention : Reuss Voigt Hill
#
# Bulk Modulus (GPa) = 52.90486 54.99973 53.95229
# Shear Modulus (GPa) = -235.86417 31.66236 -102.10091
#
# Velocity S-wave (km/s) = -9.71732 3.56030 -6.39337
# Velocity P-wave (km/s) = 10.23336 6.23856 5.73594
#
# Compressibility (1/GPa) = 0.01890186
#
# Stress axis : x y z
#
# Youngs Moduli (GPa) = 97.35909 93.44575 93.21053
#
# Poissons Ratio (x) = 0.39454 0.04226
# Poissons Ratio (y) = 0.41106 0.16070
# Poissons Ratio (z) = 0.04414 0.16111
#
# Static dielectric constant tensor:
#      x y z
#    x 1.984530 0.000000 0.000000 
#    y 0.000000 2.098160 0.000000 
#    z 0.000000 0.000000 1.969070 
# 
# From -- ./inp_files/7838.got.cif
#   From: 2010.05.17/outbox.cif.g08.bks.cpg/sg37_4_cif.got.tgz:7838.got - 2010.06.03 17:53:42.
