data_PCOD9354984
_publ_section_title
;
Structure prediction by ZEFSAII (Michael W. Deem and Ramdas Pophale) SiO2 
 PCOD9354984
Probable space group: C C C 2
;
_chemical_formula_sum "Si O2"
_cell_formula_units_Z 32
_cell_length_a 4.861877
_cell_length_b 13.276932
_cell_length_c 19.538769
_cell_angle_alpha 90.000000
_cell_angle_beta 90.000000
_cell_angle_gamma 90.000000
_cell_volume 1261.243372
_symmetry_space_group_name_H-M "C C C 2"
_symmetry_group_IT_number 37
_symmetry_cell_setting 'orthorhombic'
loop_
_space_group_symop_operation_xyz
x,y,z
-x,-y,z
-x,y,1/2+z
x,-y,1/2+z
1/2+x,1/2+y,z
1/2-x,1/2-y,z
1/2-x,1/2+y,1/2+z
1/2+x,1/2-y,1/2+z
loop_
_atom_site_type_symbol
_atom_site_label
_atom_site_fract_x
_atom_site_fract_y
_atom_site_fract_z
Si Si1 0.750000 0.750000 0.312871
Si Si2 0.250000 0.250000 0.719920
Si Si3 0.750000 0.250000 0.492244
Si Si4 0.389462 0.115173 0.596893
Si Si5 0.000000 0.000000 0.532660
Si Si6 0.130091 0.092450 0.407838
O O1 0.494866 0.713500 0.268421
O O2 0.831038 0.656842 0.361888
O O3 0.389140 0.169064 0.669502
O O4 0.542990 0.184813 0.540794
O O5 0.923884 0.173830 0.443567
O O6 0.063753 0.094581 0.580637
O O7 0.500000 0.000000 0.599681
O O8 0.225122 0.029517 0.474571
O O9 0.000000 0.000000 0.365632
#
# Coordination Sequence:
#
# PCOD9354984 Si02
#       6
#     4   4   4   8   4   8
#     4  12  27  53  70 111 153 220 260 308 374 494
#     4  12  31  47  78 103 161 216 266 298 386 486
#     4  12  22  44  82 116 154 190 256 336 422 466
#     4  12  25  46  75 113 154 197 260 332 405 467
#     4  10  22  44  74 116 136 188 248 340 408 448
#     4  10  23  43  75 107 149 187 255 320 396 450
#
# _framework density 25.371789
#
# number of rings (size 3 to 8) (size 9 to 14) (size 15 to 20)
#    0.750    0.000    2.500    4.500    3.500    2.000 
#    4.500    0.000    0.000    0.000    0.000    0.000 
#    0.000    0.000    0.000    0.000    0.000    0.000 
#
# Total GULP energy -89070.997655 kJ/mol
# GULP energy per Si atom -5566.937353 kJ/mol
# Density = 2.531404 g / cm^3
# Si number density = 25.371789 Si / 1000 Ang^3
#
#
#
# Elastic Constant Matrix: (Units=GPa)
#
#
# Indices 1 2 3 4 5 6 
#
# 1 109.3206 53.0782 32.5012 0.0000 0.0000 0.0000
# 2 53.0782 196.5735 51.2423 0.0000 0.0000 0.0000
# 3 32.5012 51.2423 95.1219 0.0000 0.0000 0.0000
# 4 0.0000 0.0000 0.0000 17.2180 0.0000 0.0000
# 5 0.0000 0.0000 0.0000 0.0000 23.8381 0.0000
# 6 0.0000 0.0000 0.0000 0.0000 0.0000 59.1014
#
#
#
# Elastic Compliance Matrix: (Units=1/GPa)
#
#
# Indices 1 2 3 4 5 6 
#
# 1 0.011022 -0.002320 -0.002516 0.000000 0.000000 0.000000
# 2 -0.002320 0.006407 -0.002659 0.000000 0.000000 0.000000
# 3 -0.002516 -0.002659 0.012805 0.000000 0.000000 0.000000
# 4 0.000000 0.000000 0.000000 0.058079 0.000000 0.000000
# 5 0.000000 0.000000 0.000000 0.000000 0.041950 0.000000
# 6 0.000000 0.000000 0.000000 0.000000 0.000000 0.016920
#
#
# Mechanical properties :
#
#
# Convention : Reuss Voigt Hill
#
# Bulk Modulus (GPa) = 65.60097 74.96216 70.28156
# Shear Modulus (GPa) = 29.89489 37.64444 33.76966
#
# Velocity S-wave (km/s) = 3.43632 3.85608 3.65224
# Velocity P-wave (km/s) = 6.45418 7.03103 6.74877
#
# Compressibility (1/GPa) = 0.01524368
#
# Stress axis : x y z
#
# Youngs Moduli (GPa) = 90.72778 156.08728 78.09661
#
# Poissons Ratio (x) = 0.36216 0.19650
# Poissons Ratio (y) = 0.21051 0.20762
# Poissons Ratio (z) = 0.22828 0.41496
#
# Static dielectric constant tensor:
#      x y z
#    x 2.803000 0.000000 0.000000 
#    y 0.000000 2.201600 0.000000 
#    z 0.000000 0.000000 1.991570 
# 
# From -- ./inp_files/13636.got.cif
#   From: 2010.05.17/outbox.cif.g08.bks.cpg/sg37_7_cif.got.tgz:13636.got - 2010.06.03 17:53:42.
