data_PCOD9354027
_publ_section_title
;
Structure prediction by ZEFSAII (Michael W. Deem and Ramdas Pophale) SiO2 
 PCOD9354027
Probable space group: C C C 2
;
_chemical_formula_sum "Si O2"
_cell_formula_units_Z 60
_cell_length_a 10.788896
_cell_length_b 11.988291
_cell_length_c 22.910956
_cell_angle_alpha 90.000000
_cell_angle_beta 90.000000
_cell_angle_gamma 90.000000
_cell_volume 2963.312782
_symmetry_space_group_name_H-M "C C C 2"
_symmetry_group_IT_number 37
_symmetry_cell_setting 'orthorhombic'
loop_
_space_group_symop_operation_xyz
x,y,z
-x,-y,z
-x,y,1/2+z
x,-y,1/2+z
1/2+x,1/2+y,z
1/2-x,1/2-y,z
1/2-x,1/2+y,1/2+z
1/2+x,1/2-y,1/2+z
loop_
_atom_site_type_symbol
_atom_site_label
_atom_site_fract_x
_atom_site_fract_y
_atom_site_fract_z
Si Si1 0.000000 0.500000 0.588210
Si Si2 0.974146 0.883223 0.371232
Si Si3 0.112156 0.306258 0.294352
Si Si4 0.610707 0.201324 0.660708
Si Si5 0.810707 0.424704 0.900553
Si Si6 0.117929 0.695742 0.012363
Si Si7 0.447831 0.377181 0.067250
Si Si8 0.297245 0.373449 0.959906
O O1 0.916177 0.414069 0.626410
O O2 0.919378 0.586481 0.549514
O O3 0.977315 0.779118 0.328100
O O4 0.834032 0.888502 0.395889
O O5 0.078249 0.885029 0.421149
O O6 0.000000 0.000000 0.338010
O O7 0.250000 0.250000 0.293092
O O8 0.073539 0.319964 0.227652
O O9 0.130688 0.412540 0.336656
O O10 0.750000 0.250000 0.660287
O O11 0.547695 0.304014 0.626024
O O12 0.802712 0.543730 0.931450
O O13 0.878074 0.342625 0.945383
O O14 0.250000 0.750000 0.028027
O O15 0.023381 0.794985 0.024617
O O16 0.500000 0.500000 0.076243
O O17 0.323418 0.395362 0.028512
O O18 0.250000 0.250000 0.954793
#
# Coordination Sequence:
#
# PCOD9354027 Si02
#       8
#     4   8   8   8   8   8   8   8
#     4  10  26  42  60  96 126 160 218 258 310 382
#     4   9  18  35  57  83 116 150 196 253 300 371
#     4   9  18  38  63  85 111 158 206 243 310 372
#     4  10  23  42  64  86 122 168 207 262 311 378
#     4  10  20  36  61  87 118 159 199 252 316 379
#     4  11  22  38  63  89 123 161 195 259 323 373
#     4  11  23  37  59  90 119 160 208 254 320 383
#     4  11  22  34  54  89 126 153 195 258 323 377
#
# _framework density 20.247610000000002
#
# number of rings (size 3 to 8) (size 9 to 14) (size 15 to 20)
#    0.000    1.867    0.000    5.200    7.467    0.533 
#    2.400    0.000    0.000    0.000    0.000    0.000 
#    0.000    0.000    0.000    0.000    0.000    0.000 
#
# Total GULP energy -167299.441504 kJ/mol
# GULP energy per Si atom -5576.648050 kJ/mol
# Density = 2.020153 g / cm^3
# Si number density = 20.247610 Si / 1000 Ang^3
#
#
#
# Elastic Constant Matrix: (Units=GPa)
#
#
# Indices 1 2 3 4 5 6 
#
# 1 29.1668 25.8315 30.9955 0.0000 0.0000 0.0000
# 2 25.8315 160.2543 72.4252 0.0000 0.0000 0.0000
# 3 30.9955 72.4252 144.1997 0.0000 0.0000 0.0000
# 4 0.0000 0.0000 0.0000 7.4278 0.0000 0.0000
# 5 0.0000 0.0000 0.0000 0.0000 15.0027 0.0000
# 6 0.0000 0.0000 0.0000 0.0000 0.0000 29.2253
#
#
#
# Elastic Compliance Matrix: (Units=1/GPa)
#
#
# Indices 1 2 3 4 5 6 
#
# 1 0.046181 -0.003826 -0.008005 0.000000 0.000000 0.000000
# 2 -0.003826 0.008389 -0.003391 0.000000 0.000000 0.000000
# 3 -0.008005 -0.003391 0.010359 0.000000 0.000000 0.000000
# 4 0.000000 0.000000 0.000000 0.134629 0.000000 0.000000
# 5 0.000000 0.000000 0.000000 0.000000 0.066655 0.000000
# 6 0.000000 0.000000 0.000000 0.000000 0.000000 0.034217
#
#
# Mechanical properties :
#
#
# Convention : Reuss Voigt Hill
#
# Bulk Modulus (GPa) = 28.99840 65.79170 47.39505
# Shear Modulus (GPa) = 14.60410 23.95573 19.27992
#
# Velocity S-wave (km/s) = 2.68857 3.44341 3.08913
# Velocity P-wave (km/s) = 4.89805 6.95511 6.01516
#
# Compressibility (1/GPa) = 0.03448466
#
# Stress axis : x y z
#
# Youngs Moduli (GPa) = 21.65392 119.19707 96.53728
#
# Poissons Ratio (x) = 0.45608 0.77276
# Poissons Ratio (y) = 0.08285 0.32738
# Poissons Ratio (z) = 0.17333 0.40422
#
# Static dielectric constant tensor:
#      x y z
#    x 1.858750 0.000000 0.000000 
#    y 0.000000 1.794130 0.000000 
#    z 0.000000 0.000000 1.737390 
# 
# From -- ./inp_files/16925.got.cif
#   From: 2010.05.17/outbox.cif.g08.bks.cpg/sg37_9_cif.got.tgz:16925.got - 2010.06.03 17:53:42.
