data_PCOD9354423
_publ_section_title
;
Structure prediction by ZEFSAII (Michael W. Deem and Ramdas Pophale) SiO2 
 PCOD9354423
Probable space group: C C C 2
;
_chemical_formula_sum "Si O2"
_cell_formula_units_Z 44
_cell_length_a 8.028155
_cell_length_b 10.704605
_cell_length_c 24.558964
_cell_angle_alpha 90.000000
_cell_angle_beta 90.000000
_cell_angle_gamma 90.000000
_cell_volume 2110.553851
_symmetry_space_group_name_H-M "C C C 2"
_symmetry_group_IT_number 37
_symmetry_cell_setting 'orthorhombic'
loop_
_space_group_symop_operation_xyz
x,y,z
-x,-y,z
-x,y,1/2+z
x,-y,1/2+z
1/2+x,1/2+y,z
1/2-x,1/2-y,z
1/2-x,1/2+y,1/2+z
1/2+x,1/2-y,1/2+z
loop_
_atom_site_type_symbol
_atom_site_label
_atom_site_fract_x
_atom_site_fract_y
_atom_site_fract_z
Si Si1 0.500000 0.500000 0.711611
Si Si2 0.819412 0.611285 0.761264
Si Si3 0.680588 0.111285 0.962760
Si Si4 0.500000 0.500000 0.012413
Si Si5 0.000000 0.500000 0.862012
Si Si6 0.556839 0.772237 0.049823
Si Si7 0.943161 0.727763 0.174201
O O1 0.671922 0.514333 0.745788
O O2 0.490700 0.370597 0.678430
O O3 0.750000 0.750000 0.765451
O O4 0.891454 0.578349 0.819820
O O5 0.961597 0.634887 0.715087
O O6 0.750000 0.250000 0.958573
O O7 0.608546 0.078349 0.904204
O O8 0.538403 0.134887 0.008937
O O9 0.828078 0.014333 0.978236
O O10 0.490700 0.629402 0.045594
O O11 0.750000 0.750000 0.036176
O O12 0.541618 0.816683 0.112012
O O13 0.750000 0.750000 0.187848
#
# Coordination Sequence:
#
# PCOD9354423 Si02
#       7
#     4   8   8   4   4   8   8
#     4  10  21  39  60  88 120 155 193 240 306 364
#     4  10  24  40  60  88 118 156 202 247 298 361
#     4  10  24  40  60  88 118 156 202 247 298 361
#     4  10  21  39  60  88 120 155 193 240 306 364
#     4  12  24  42  62  82 116 158 200 250 296 344
#     4  10  21  38  61  90 122 154 194 244 298 361
#     4  10  21  38  61  90 122 154 194 244 298 361
#
# _framework density 20.847608000000001
#
# number of rings (size 3 to 8) (size 9 to 14) (size 15 to 20)
#    0.000    1.818    0.000    2.727    0.000   16.000 
#    0.000    4.545    0.000    0.000    0.000    0.000 
#    0.000    0.000    0.000    0.000    0.000    0.000 
#
# Total GULP energy -122631.353294 kJ/mol
# GULP energy per Si atom -5574.152422 kJ/mol
# Density = 2.080016 g / cm^3
# Si number density = 20.847608 Si / 1000 Ang^3
#
#
#
# Elastic Constant Matrix: (Units=GPa)
#
#
# Indices 1 2 3 4 5 6 
#
# 1 135.3835 29.1287 104.7135 0.0000 0.0000 0.0000
# 2 29.1287 94.1814 54.3750 0.0000 0.0000 0.0000
# 3 104.7135 54.3750 158.9224 0.0000 0.0000 0.0000
# 4 0.0000 0.0000 0.0000 26.7900 0.0000 0.0000
# 5 0.0000 0.0000 0.0000 0.0000 43.7248 0.0000
# 6 0.0000 0.0000 0.0000 0.0000 0.0000 35.4411
#
#
#
# Elastic Compliance Matrix: (Units=1/GPa)
#
#
# Indices 1 2 3 4 5 6 
#
# 1 0.015199 0.001347 -0.010475 0.000000 0.000000 0.000000
# 2 0.001347 0.013351 -0.005456 0.000000 0.000000 0.000000
# 3 -0.010475 -0.005456 0.015061 0.000000 0.000000 0.000000
# 4 0.000000 0.000000 0.000000 0.037327 0.000000 0.000000
# 5 0.000000 0.000000 0.000000 0.000000 0.022870 0.000000
# 6 0.000000 0.000000 0.000000 0.000000 0.000000 0.028216
#
#
# Mechanical properties :
#
#
# Convention : Reuss Voigt Hill
#
# Bulk Modulus (GPa) = 69.23649 84.99129 77.11389
# Shear Modulus (GPa) = 30.11926 34.54253 32.33089
#
# Velocity S-wave (km/s) = 3.80509 4.07493 3.94232
# Velocity P-wave (km/s) = 7.25174 7.93703 7.60211
#
# Compressibility (1/GPa) = 0.01444325
#
# Stress axis : x y z
#
# Youngs Moduli (GPa) = 65.79430 74.90114 66.39554
#
# Poissons Ratio (x) = -0.10090 0.69552
# Poissons Ratio (y) = -0.08864 0.36223
# Poissons Ratio (z) = 0.68922 0.40863
#
# Static dielectric constant tensor:
#      x y z
#    x 1.866730 0.000000 0.000000 
#    y 0.000000 1.771050 0.000000 
#    z 0.000000 0.000000 1.695690 
# 
# From -- ./inp_files/18330.got.cif
#   From: 2010.05.17/outbox.cif.g08.bks.cpg/sg37_10_cif.got.tgz:18330.got - 2010.06.03 17:53:42.
