data_PCOD9354777
_publ_section_title
;
Structure prediction by ZEFSAII (Michael W. Deem and Ramdas Pophale) SiO2 
 PCOD9354777
Probable space group: C C C 2
;
_chemical_formula_sum "Si O2"
_cell_formula_units_Z 48
_cell_length_a 13.705512
_cell_length_b 5.281088
_cell_length_c 31.028802
_cell_angle_alpha 90.000000
_cell_angle_beta 90.000000
_cell_angle_gamma 90.000000
_cell_volume 2245.865153
_symmetry_space_group_name_H-M "C C C 2"
_symmetry_group_IT_number 37
_symmetry_cell_setting 'orthorhombic'
loop_
_space_group_symop_operation_xyz
x,y,z
-x,-y,z
-x,y,1/2+z
x,-y,1/2+z
1/2+x,1/2+y,z
1/2-x,1/2-y,z
1/2-x,1/2+y,1/2+z
1/2+x,1/2-y,1/2+z
loop_
_atom_site_type_symbol
_atom_site_label
_atom_site_fract_x
_atom_site_fract_y
_atom_site_fract_z
Si Si1 0.816910 0.498777 0.455580
Si Si2 0.602563 0.112907 0.143260
Si Si3 0.356143 0.388870 0.258953
Si Si4 0.184771 0.501466 0.552678
Si Si5 0.000000 0.000000 0.192025
Si Si6 0.000000 0.000000 0.835015
Si Si7 0.000000 0.500000 0.892439
Si Si8 0.250000 0.250000 0.703307
O O1 0.750000 0.250000 0.447631
O O2 0.857809 0.471978 0.504604
O O3 0.904692 0.524672 0.422306
O O4 0.750000 0.750000 0.453478
O O5 0.617765 0.046835 0.093807
O O6 0.582513 0.401736 0.158252
O O7 0.697692 0.050496 0.171477
O O8 0.500000 0.000000 0.156192
O O9 0.250000 0.250000 0.260747
O O10 0.442411 0.311064 0.225421
O O11 0.407647 0.433116 0.304428
O O12 0.330726 0.654287 0.236397
O O13 0.250000 0.250000 0.551219
O O14 0.250000 0.750000 0.560400
O O15 0.014968 0.249317 0.863700
#
# Coordination Sequence:
#
# PCOD9354777 Si02
#       8
#     8   8   8   8   4   4   4   4
#     4  10  23  46  72 100 139 183 223 279 346 412
#     4  11  22  35  61  91 131 174 226 274 319 392
#     4  10  22  42  66  91 132 181 216 281 343 399
#     4  10  23  42  65  97 136 175 228 277 324 399
#     4   9  22  40  55  96 128 174 235 270 326 405
#     4  11  28  44  69 108 136 160 235 286 334 419
#     4  12  26  48  74 106 138 176 226 290 346 424
#     4  10  22  40  62  94 128 184 224 268 334 400
#
# _framework density 21.372608
#
# number of rings (size 3 to 8) (size 9 to 14) (size 15 to 20)
#    0.000    1.667    0.833    2.000    5.833    2.667 
#    3.000    0.833    0.000    0.000    0.000    0.000 
#    0.000    0.000    0.000    0.000    0.000    0.000 
#
# Total GULP energy -133646.069562 kJ/mol
# GULP energy per Si atom -5568.586232 kJ/mol
# Density = 2.132396 g / cm^3
# Si number density = 21.372608 Si / 1000 Ang^3
#
#
#
# Elastic Constant Matrix: (Units=GPa)
#
#
# Indices 1 2 3 4 5 6 
#
# 1 140.9463 40.2212 88.8471 0.0000 0.0000 0.0000
# 2 40.2212 100.5021 59.8271 0.0000 0.0000 0.0000
# 3 88.8471 59.8271 180.1981 0.0000 0.0000 0.0000
# 4 0.0000 0.0000 0.0000 20.7947 0.0000 0.0000
# 5 0.0000 0.0000 0.0000 0.0000 26.8298 0.0000
# 6 0.0000 0.0000 0.0000 0.0000 0.0000 33.9810
#
#
#
# Elastic Compliance Matrix: (Units=1/GPa)
#
#
# Indices 1 2 3 4 5 6 
#
# 1 0.010448 -0.001389 -0.004690 0.000000 0.000000 0.000000
# 2 -0.001389 0.012586 -0.003494 0.000000 0.000000 0.000000
# 3 -0.004690 -0.003494 0.009022 0.000000 0.000000 0.000000
# 4 0.000000 0.000000 0.000000 0.048089 0.000000 0.000000
# 5 0.000000 0.000000 0.000000 0.000000 0.037272 0.000000
# 6 0.000000 0.000000 0.000000 0.000000 0.000000 0.029428
#
#
# Mechanical properties :
#
#
# Convention : Reuss Voigt Hill
#
# Bulk Modulus (GPa) = 77.46271 88.82636 83.14454
# Shear Modulus (GPa) = 29.36108 31.83785 30.59947
#
# Velocity S-wave (km/s) = 3.71046 3.86379 3.78790
# Velocity P-wave (km/s) = 7.39455 7.84578 7.62350
#
# Compressibility (1/GPa) = 0.01290944
#
# Stress axis : x y z
#
# Youngs Moduli (GPa) = 95.71406 79.45530 110.84318
#
# Poissons Ratio (x) = 0.11039 0.51986
# Poissons Ratio (y) = 0.13298 0.38723
# Poissons Ratio (z) = 0.44890 0.27758
#
# Static dielectric constant tensor:
#      x y z
#    x 2.050560 0.000000 0.000000 
#    y 0.000000 2.123480 0.000000 
#    z 0.000000 0.000000 1.763610 
# 
# From -- ./inp_files/19936.got.cif
#   From: 2010.05.17/outbox.cif.g08.bks.cpg/sg37_10_cif.got.tgz:19936.got - 2010.06.03 17:53:42.
