data_PCOD9354757
_publ_section_title
;
Structure prediction by ZEFSAII (Michael W. Deem and Ramdas Pophale) SiO2 
 PCOD9354757
Probable space group: C C C 2
;
_chemical_formula_sum "Si O2"
_cell_formula_units_Z 48
_cell_length_a 9.754333
_cell_length_b 10.715064
_cell_length_c 20.532546
_cell_angle_alpha 90.000000
_cell_angle_beta 90.000000
_cell_angle_gamma 90.000000
_cell_volume 2146.026851
_symmetry_space_group_name_H-M "C C C 2"
_symmetry_group_IT_number 37
_symmetry_cell_setting 'orthorhombic'
loop_
_space_group_symop_operation_xyz
x,y,z
-x,-y,z
-x,y,1/2+z
x,-y,1/2+z
1/2+x,1/2+y,z
1/2-x,1/2-y,z
1/2-x,1/2+y,1/2+z
1/2+x,1/2-y,1/2+z
loop_
_atom_site_type_symbol
_atom_site_label
_atom_site_fract_x
_atom_site_fract_y
_atom_site_fract_z
Si Si1 0.824524 0.867281 0.182080
Si Si2 0.214108 0.555626 0.951619
Si Si3 0.958730 0.783938 0.481574
Si Si4 0.652399 0.631096 0.870210
Si Si5 0.391336 0.104887 0.067198
Si Si6 0.629419 0.353865 0.223093
O O1 0.750000 0.750000 0.217205
O O2 0.733821 0.878717 0.116069
O O3 0.988037 0.837305 0.182733
O O4 0.814481 0.007069 0.210063
O O5 0.100713 0.662145 0.944225
O O6 0.332416 0.624536 0.992915
O O7 0.266140 0.496587 0.884621
O O8 0.161838 0.446650 0.998062
O O9 0.054107 0.855741 0.431637
O O10 0.030328 0.730600 0.545731
O O11 0.750000 0.750000 0.874244
O O12 0.586976 0.641703 0.799352
O O13 0.500000 0.000000 0.091351
O O14 0.750000 0.250000 0.213087
#
# Coordination Sequence:
#
# PCOD9354757 Si02
#       6
#     8   8   8   8   8   8
#     4  11  27  46  73 101 138 201 255 300 368 441
#     4  10  22  40  66 103 136 176 217 286 373 437
#     4  10  22  39  65 104 137 174 222 283 368 433
#     4  11  22  42  72  98 140 182 227 295 366 438
#     4  10  23  44  68 102 146 180 241 305 364 449
#     4  10  27  51  69 103 144 193 255 309 361 438
#
# _framework density 22.366914000000001
#
# number of rings (size 3 to 8) (size 9 to 14) (size 15 to 20)
#    0.000    1.667    1.667    0.500    9.333    4.000 
#    3.000    3.333    0.000    0.000    0.000    0.000 
#    0.000    0.000    0.000    0.000    0.000    0.000 
#
# Total GULP energy -133953.624002 kJ/mol
# GULP energy per Si atom -5581.401000 kJ/mol
# Density = 2.231601 g / cm^3
# Si number density = 22.366914 Si / 1000 Ang^3
#
#
#
# Elastic Constant Matrix: (Units=GPa)
#
#
# Indices 1 2 3 4 5 6 
#
# 1 118.5369 62.3269 41.5345 0.0000 0.0000 0.0000
# 2 62.3269 132.5479 35.7610 0.0000 0.0000 0.0000
# 3 41.5345 35.7610 60.2019 0.0000 0.0000 0.0000
# 4 0.0000 0.0000 0.0000 21.5129 0.0000 0.0000
# 5 0.0000 0.0000 0.0000 0.0000 16.7342 0.0000
# 6 0.0000 0.0000 0.0000 0.0000 0.0000 49.2436
#
#
#
# Elastic Compliance Matrix: (Units=1/GPa)
#
#
# Indices 1 2 3 4 5 6 
#
# 1 0.012963 -0.004385 -0.006338 0.000000 0.000000 0.000000
# 2 -0.004385 0.010468 -0.003193 0.000000 0.000000 0.000000
# 3 -0.006338 -0.003193 0.022880 0.000000 0.000000 0.000000
# 4 0.000000 0.000000 0.000000 0.046484 0.000000 0.000000
# 5 0.000000 0.000000 0.000000 0.000000 0.059758 0.000000
# 6 0.000000 0.000000 0.000000 0.000000 0.000000 0.020307
#
#
# Mechanical properties :
#
#
# Convention : Reuss Voigt Hill
#
# Bulk Modulus (GPa) = 54.11738 65.61462 59.86600
# Shear Modulus (GPa) = 24.17189 28.94244 26.55717
#
# Velocity S-wave (km/s) = 3.29096 3.60110 3.44952
# Velocity P-wave (km/s) = 6.22000 6.83300 6.53369
#
# Compressibility (1/GPa) = 0.01847835
#
# Stress axis : x y z
#
# Youngs Moduli (GPa) = 77.14284 95.53035 43.70592
#
# Poissons Ratio (x) = 0.41894 0.27703
# Poissons Ratio (y) = 0.33830 0.13953
# Poissons Ratio (z) = 0.48896 0.30499
#
# Static dielectric constant tensor:
#      x y z
#    x 2.015890 0.000000 0.000000 
#    y 0.000000 1.894660 0.000000 
#    z 0.000000 0.000000 1.786610 
# 
# From -- ./inp_files/18344.got.cif
#   From: 2010.05.17/outbox.cif.g08.bks.cpg/sg37_10_cif.got.tgz:18344.got - 2010.06.03 17:53:42.
