data_PCOD9354377
_publ_section_title
;
Structure prediction by ZEFSAII (Michael W. Deem and Ramdas Pophale) SiO2 
 PCOD9354377
Probable space group: C C C 2
;
_chemical_formula_sum "Si O2"
_cell_formula_units_Z 36
_cell_length_a 9.321989
_cell_length_b 16.925794
_cell_length_c 8.484248
_cell_angle_alpha 90.000000
_cell_angle_beta 90.000000
_cell_angle_gamma 90.000000
_cell_volume 1338.662174
_symmetry_space_group_name_H-M "C C C 2"
_symmetry_group_IT_number 37
_symmetry_cell_setting 'orthorhombic'
loop_
_space_group_symop_operation_xyz
x,y,z
-x,-y,z
-x,y,1/2+z
x,-y,1/2+z
1/2+x,1/2+y,z
1/2-x,1/2-y,z
1/2-x,1/2+y,1/2+z
1/2+x,1/2-y,1/2+z
loop_
_atom_site_type_symbol
_atom_site_label
_atom_site_fract_x
_atom_site_fract_y
_atom_site_fract_z
Si Si1 0.000000 0.500000 0.222390
Si Si2 0.844290 0.123658 0.636906
Si Si3 0.939927 0.714324 0.255503
Si Si4 0.851635 0.359776 0.080620
Si Si5 0.200642 0.984722 0.909074
O O1 0.970173 0.427839 0.107080
O O2 0.857785 0.506896 0.326916
O O3 0.939014 0.199604 0.677462
O O4 0.687316 0.164531 0.666954
O O5 0.881338 0.059359 0.770868
O O6 0.843278 0.068258 0.482424
O O7 0.890087 0.697523 0.434946
O O8 0.106123 0.687435 0.237079
O O9 0.716284 0.414385 0.040919
#
# Coordination Sequence:
#
# PCOD9354377 Si02
#       5
#     4   8   8   8   8
#     4  12  18  28  60 100 114 150 198 254 292 362
#     4  10  21  37  54  85 122 151 188 245 300 344
#     4  10  22  35  55  84 125 150 185 245 302 348
#     4  11  19  32  57  88 119 149 191 238 300 355
#     4  11  20  32  60  86 117 150 195 238 292 355
#
# _framework density 26.892520999999999
#
# number of rings (size 3 to 8) (size 9 to 14) (size 15 to 20)
#    0.000    1.333    6.667    2.000    0.000    0.000 
#    0.000    2.222    4.889    4.000    0.000    0.000 
#    0.000    0.000    0.000    0.000    0.000    0.000 
#
# Total GULP energy -100217.811535 kJ/mol
# GULP energy per Si atom -5567.656196 kJ/mol
# Density = 2.683131 g / cm^3
# Si number density = 26.892521 Si / 1000 Ang^3
#
#
#
# Elastic Constant Matrix: (Units=GPa)
#
#
# Indices 1 2 3 4 5 6 
#
# 1 50.0716 34.8272 20.2229 0.0000 0.0000 0.0000
# 2 34.8272 189.3223 56.3087 0.0000 0.0000 0.0000
# 3 20.2229 56.3087 77.7530 0.0000 0.0000 0.0000
# 4 0.0000 0.0000 0.0000 39.8666 0.0000 0.0000
# 5 0.0000 0.0000 0.0000 0.0000 16.5203 0.0000
# 6 0.0000 0.0000 0.0000 0.0000 0.0000 43.3666
#
#
#
# Elastic Compliance Matrix: (Units=1/GPa)
#
#
# Indices 1 2 3 4 5 6 
#
# 1 0.023770 -0.003230 -0.003844 0.000000 0.000000 0.000000
# 2 -0.003230 0.007171 -0.004353 0.000000 0.000000 0.000000
# 3 -0.003844 -0.004353 0.017013 0.000000 0.000000 0.000000
# 4 0.000000 0.000000 0.000000 0.025084 0.000000 0.000000
# 5 0.000000 0.000000 0.000000 0.000000 0.060532 0.000000
# 6 0.000000 0.000000 0.000000 0.000000 0.000000 0.023059
#
#
# Mechanical properties :
#
#
# Convention : Reuss Voigt Hill
#
# Bulk Modulus (GPa) = 39.83768 59.98494 49.91131
# Shear Modulus (GPa) = 26.61720 33.66991 30.14355
#
# Velocity S-wave (km/s) = 3.14946 3.54222 3.35160
# Velocity P-wave (km/s) = 5.29824 6.25169 5.79461
#
# Compressibility (1/GPa) = 0.02510186
#
# Stress axis : x y z
#
# Youngs Moduli (GPa) = 42.06984 139.45432 58.77702
#
# Poissons Ratio (x) = 0.45037 0.22591
# Poissons Ratio (y) = 0.13586 0.25586
# Poissons Ratio (z) = 0.16170 0.60706
#
# Static dielectric constant tensor:
#      x y z
#    x 2.358340 0.000000 0.000000 
#    y 0.000000 2.361780 0.000000 
#    z 0.000000 0.000000 2.196850 
# 
# From -- ./inp_files/3288.got.cif
#   From: 2010.05.17/outbox.cif.g08.bks.cpg/sg37_2_cif.got.tgz:3288.got - 2010.06.03 17:53:42.
