data_PCOD9354511
_publ_section_title
;
Structure prediction by ZEFSAII (Michael W. Deem and Ramdas Pophale) SiO2 
 PCOD9354511
Probable space group: C C C 2
;
_chemical_formula_sum "Si O2"
_cell_formula_units_Z 44
_cell_length_a 6.582992
_cell_length_b 14.212362
_cell_length_c 23.531956
_cell_angle_alpha 90.000000
_cell_angle_beta 90.000000
_cell_angle_gamma 90.000000
_cell_volume 2201.646635
_symmetry_space_group_name_H-M "C C C 2"
_symmetry_group_IT_number 37
_symmetry_cell_setting 'orthorhombic'
loop_
_space_group_symop_operation_xyz
x,y,z
-x,-y,z
-x,y,1/2+z
x,-y,1/2+z
1/2+x,1/2+y,z
1/2-x,1/2-y,z
1/2-x,1/2+y,1/2+z
1/2+x,1/2-y,1/2+z
loop_
_atom_site_type_symbol
_atom_site_label
_atom_site_fract_x
_atom_site_fract_y
_atom_site_fract_z
Si Si1 0.568226 0.898520 0.094120
Si Si2 0.250000 0.750000 0.916718
Si Si3 0.621033 0.159115 0.473712
Si Si4 0.132634 0.840358 0.691707
Si Si5 0.500000 0.500000 0.270133
Si Si6 0.250000 0.750000 0.137700
Si Si7 0.076283 0.900963 0.378992
O O1 0.752870 0.863778 0.133000
O O2 0.389062 0.821658 0.101659
O O3 0.500000 0.000000 0.115691
O O4 0.625868 0.907040 0.028102
O O5 0.395199 0.812739 0.956122
O O6 0.403118 0.679770 0.883129
O O7 0.750000 0.250000 0.492871
O O8 0.732155 0.127289 0.416255
O O9 0.250000 0.750000 0.717060
O O10 0.132460 0.931354 0.731476
O O11 0.904499 0.809775 0.676430
O O12 0.618218 0.430870 0.313980
O O13 0.000000 0.000000 0.404940
#
# Coordination Sequence:
#
# PCOD9354511 Si02
#       7
#     8   4   8   8   4   4   8
#     4  11  23  37  66  95 128 163 201 253 316 381
#     4  10  21  40  64  86 126 166 199 256 320 370
#     4  10  21  41  61  93 125 159 204 249 308 379
#     4  10  22  42  63  91 121 161 210 254 316 370
#     4  10  22  42  60  88 120 160 212 266 304 368
#     4  10  21  42  60  92 124 162 203 256 312 378
#     4   9  23  40  60  89 122 160 210 254 306 371
#
# _framework density 19.985040999999999
#
# number of rings (size 3 to 8) (size 9 to 14) (size 15 to 20)
#    0.545    1.455    0.000    3.273    3.818    1.455 
#    6.545    5.455    0.000    0.000    0.000    0.000 
#    0.000    0.000    0.000    0.000    0.000    0.000 
#
# Total GULP energy -122647.415311 kJ/mol
# GULP energy per Si atom -5574.882514 kJ/mol
# Density = 1.993955 g / cm^3
# Si number density = 19.985041 Si / 1000 Ang^3
#
#
#
# Elastic Constant Matrix: (Units=GPa)
#
#
# Indices 1 2 3 4 5 6 
#
# 1 105.1741 28.8439 50.4395 0.0000 0.0000 0.0000
# 2 28.8439 94.7598 45.5985 0.0000 0.0000 0.0000
# 3 50.4395 45.5985 107.0051 0.0000 0.0000 0.0000
# 4 0.0000 0.0000 0.0000 86.0089 0.0000 0.0000
# 5 0.0000 0.0000 0.0000 0.0000 -10.9925 0.0000
# 6 0.0000 0.0000 0.0000 0.0000 0.0000 18.3263
#
#
#
# Elastic Compliance Matrix: (Units=1/GPa)
#
#
# Indices 1 2 3 4 5 6 
#
# 1 0.012394 -0.001209 -0.005327 0.000000 0.000000 0.000000
# 2 -0.001209 0.013393 -0.005137 0.000000 0.000000 0.000000
# 3 -0.005327 -0.005137 0.014046 0.000000 0.000000 0.000000
# 4 0.000000 0.000000 0.000000 0.011627 0.000000 0.000000
# 5 0.000000 0.000000 0.000000 0.000000 -0.090971 0.000000
# 6 0.000000 0.000000 0.000000 0.000000 0.000000 0.054567
#
#
# Mechanical properties :
#
#
# Convention : Reuss Voigt Hill
#
# Bulk Modulus (GPa) = 60.65808 61.85586 61.25697
# Shear Modulus (GPa) = 113.90156 30.80569 72.35362
#
# Velocity S-wave (km/s) = 7.55759 3.93037 6.02349
# Velocity P-wave (km/s) = 10.32346 7.18439 8.89351
#
# Compressibility (1/GPa) = 0.01648585
#
# Stress axis : x y z
#
# Youngs Moduli (GPa) = 80.68107 74.66511 71.19695
#
# Poissons Ratio (x) = 0.09030 0.37927
# Poissons Ratio (y) = 0.09757 0.36575
# Poissons Ratio (z) = 0.42980 0.38357
#
# Static dielectric constant tensor:
#      x y z
#    x 1.682340 0.000000 0.000000 
#    y 0.000000 1.607370 0.000000 
#    z 0.000000 0.000000 1.692010 
# 
# From -- ./inp_files/19295.got.cif
#   From: 2010.05.17/outbox.cif.g08.bks.cpg/sg37_10_cif.got.tgz:19295.got - 2010.06.03 17:53:42.
