data_PCOD9354035
_publ_section_title
;
Structure prediction by ZEFSAII (Michael W. Deem and Ramdas Pophale) SiO2 
 PCOD9354035
Probable space group: C C C 2
;
_chemical_formula_sum "Si O2"
_cell_formula_units_Z 44
_cell_length_a 9.385947
_cell_length_b 17.786864
_cell_length_c 14.213225
_cell_angle_alpha 90.000000
_cell_angle_beta 90.000000
_cell_angle_gamma 90.000000
_cell_volume 2372.849060
_symmetry_space_group_name_H-M "C C C 2"
_symmetry_group_IT_number 37
_symmetry_cell_setting 'orthorhombic'
loop_
_space_group_symop_operation_xyz
x,y,z
-x,-y,z
-x,y,1/2+z
x,-y,1/2+z
1/2+x,1/2+y,z
1/2-x,1/2-y,z
1/2-x,1/2+y,1/2+z
1/2+x,1/2-y,1/2+z
loop_
_atom_site_type_symbol
_atom_site_label
_atom_site_fract_x
_atom_site_fract_y
_atom_site_fract_z
Si Si1 0.324724 0.137691 0.517040
Si Si2 0.671678 0.174369 0.230074
Si Si3 0.000000 0.500000 0.963531
Si Si4 0.279430 0.463374 0.845975
Si Si5 0.596911 0.232046 0.830450
Si Si6 0.063639 0.102772 0.395924
O O1 0.327188 0.175527 0.617660
O O2 0.433364 0.068102 0.521482
O O3 0.372411 0.189882 0.429454
O O4 0.166688 0.110599 0.486068
O O5 0.750000 0.250000 0.264874
O O6 0.748177 0.097875 0.265359
O O7 0.512190 0.182545 0.270999
O O8 0.868862 0.526998 0.899391
O O9 0.345702 0.546581 0.826838
O O10 0.406931 0.430462 0.910462
O O11 0.750000 0.250000 0.784205
O O12 0.540618 0.315050 0.853285
#
# Coordination Sequence:
#
# PCOD9354035 Si02
#       6
#     8   8   4   8   8   8
#     4  10  22  39  63  89 125 161 204 259 310 370
#     4  12  22  38  64  93 119 165 219 254 308 380
#     4  10  20  40  58  92 122 164 204 252 328 354
#     4  10  20  36  63  87 120 165 206 255 308 374
#     4  10  20  40  62  86 125 165 198 257 314 367
#     4   9  19  39  60  85 123 167 198 250 323 360
#
# _framework density 18.543111
#
# number of rings (size 3 to 8) (size 9 to 14) (size 15 to 20)
#    0.000    1.818    3.636    1.636    0.000    0.727 
#    0.000   11.818    0.000    0.000    0.000    0.000 
#    0.000    0.000    0.000    0.000    0.000    0.000 
#
# Total GULP energy -122499.368680 kJ/mol
# GULP energy per Si atom -5568.153122 kJ/mol
# Density = 1.850091 g / cm^3
# Si number density = 18.543111 Si / 1000 Ang^3
#
#
#
# Elastic Constant Matrix: (Units=GPa)
#
#
# Indices 1 2 3 4 5 6 
#
# 1 135.2608 31.7067 44.8032 0.0000 0.0000 0.0000
# 2 31.7067 97.2587 24.5259 0.0000 0.0000 0.0000
# 3 44.8032 24.5259 76.0138 0.0000 0.0000 0.0000
# 4 0.0000 0.0000 0.0000 22.2083 0.0000 0.0000
# 5 0.0000 0.0000 0.0000 0.0000 14.0566 0.0000
# 6 0.0000 0.0000 0.0000 0.0000 0.0000 36.0792
#
#
#
# Elastic Compliance Matrix: (Units=1/GPa)
#
#
# Indices 1 2 3 4 5 6 
#
# 1 0.009477 -0.001830 -0.004995 0.000000 0.000000 0.000000
# 2 -0.001830 0.011546 -0.002647 0.000000 0.000000 0.000000
# 3 -0.004995 -0.002647 0.016954 0.000000 0.000000 0.000000
# 4 0.000000 0.000000 0.000000 0.045028 0.000000 0.000000
# 5 0.000000 0.000000 0.000000 0.000000 0.071141 0.000000
# 6 0.000000 0.000000 0.000000 0.000000 0.000000 0.027717
#
#
# Mechanical properties :
#
#
# Convention : Reuss Voigt Hill
#
# Bulk Modulus (GPa) = 52.54141 56.73387 54.63764
# Shear Modulus (GPa) = 24.13708 28.30198 26.21953
#
# Velocity S-wave (km/s) = 3.61179 3.91100 3.76437
# Velocity P-wave (km/s) = 6.76680 7.14539 6.95867
#
# Compressibility (1/GPa) = 0.01903261
#
# Stress axis : x y z
#
# Youngs Moduli (GPa) = 105.52259 86.61153 58.98404
#
# Poissons Ratio (x) = 0.15848 0.29464
# Poissons Ratio (y) = 0.19308 0.15612
# Poissons Ratio (z) = 0.52711 0.22924
#
# Static dielectric constant tensor:
#      x y z
#    x 1.665210 0.000000 0.000000 
#    y 0.000000 1.727040 0.000000 
#    z 0.000000 0.000000 1.594440 
# 
# From -- ./inp_files/10522.got.cif
#   From: 2010.05.17/outbox.cif.g08.bks.cpg/sg37_6_cif.got.tgz:10522.got - 2010.06.03 17:53:42.
