data_PCOD9354013
_publ_section_title
;
Structure prediction by ZEFSAII (Michael W. Deem and Ramdas Pophale) SiO2 
 PCOD9354013
Probable space group: C C C 2
;
_chemical_formula_sum "Si O2"
_cell_formula_units_Z 60
_cell_length_a 10.517089
_cell_length_b 28.858632
_cell_length_c 8.763769
_cell_angle_alpha 90.000000
_cell_angle_beta 90.000000
_cell_angle_gamma 90.000000
_cell_volume 2659.881023
_symmetry_space_group_name_H-M "C C C 2"
_symmetry_group_IT_number 37
_symmetry_cell_setting 'orthorhombic'
loop_
_space_group_symop_operation_xyz
x,y,z
-x,-y,z
-x,y,1/2+z
x,-y,1/2+z
1/2+x,1/2+y,z
1/2-x,1/2-y,z
1/2-x,1/2+y,1/2+z
1/2+x,1/2-y,1/2+z
loop_
_atom_site_type_symbol
_atom_site_label
_atom_site_fract_x
_atom_site_fract_y
_atom_site_fract_z
Si Si1 0.842113 0.655233 0.404780
Si Si2 0.750000 0.750000 0.499205
Si Si3 0.390653 0.128373 0.981309
Si Si4 0.246508 0.105841 0.687688
Si Si5 0.183167 0.798701 0.554342
Si Si6 0.146816 0.513718 0.040973
Si Si7 0.071323 0.186756 0.716611
Si Si8 0.834016 0.566040 0.226830
O O1 0.803977 0.708494 0.394641
O O2 0.820661 0.642711 0.582468
O O3 0.778125 0.611483 0.315422
O O4 0.992720 0.649679 0.390297
O O5 0.853295 0.776196 0.608152
O O6 0.302174 0.104530 0.856436
O O7 0.300749 0.166050 0.057378
O O8 0.432454 0.092868 0.113671
O O9 0.277965 0.055995 0.619297
O O10 0.111262 0.132741 0.686989
O O11 0.250000 0.750000 0.560896
O O12 0.112462 0.803760 0.390308
O O13 0.076253 0.807115 0.680696
O O14 0.224912 0.468505 0.100086
O O15 0.000000 0.500000 0.085018
O O16 0.134791 0.531234 0.865915
#
# Coordination Sequence:
#
# PCOD9354013 Si02
#       8
#     8   4   8   8   8   8   8   8
#     4  10  20  36  59  89 129 180 230 279 347 409
#     4  10  20  40  62  86 128 184 226 282 342 416
#     4  11  21  38  58  89 134 173 223 286 343 416
#     4   9  21  38  62  89 131 181 217 284 358 417
#     4  11  24  44  66  99 133 186 241 295 347 426
#     4  11  20  34  58  91 131 169 223 272 352 422
#     4  10  22  43  67  92 138 181 237 297 352 416
#     4  11  22  35  57  93 130 172 220 282 347 424
#
# _framework density 22.557399
#
# number of rings (size 3 to 8) (size 9 to 14) (size 15 to 20)
#    0.000    1.600    0.667    5.200    0.000    3.200 
#    9.600    0.667    0.000    0.800    0.000    9.333 
#    0.000    0.000    0.000    0.000    0.000    0.000 
#
# Total GULP energy -167014.978678 kJ/mol
# GULP energy per Si atom -5567.165956 kJ/mol
# Density = 2.250606 g / cm^3
# Si number density = 22.557399 Si / 1000 Ang^3
#
#
#
# Elastic Constant Matrix: (Units=GPa)
#
#
# Indices 1 2 3 4 5 6 
#
# 1 72.2890 61.2610 2.7581 0.0000 0.0000 0.0000
# 2 61.2610 190.8844 85.4854 0.0000 0.0000 0.0000
# 3 2.7581 85.4854 76.0060 0.0000 0.0000 0.0000
# 4 0.0000 0.0000 0.0000 28.5846 0.0000 0.0000
# 5 0.0000 0.0000 0.0000 0.0000 26.9279 0.0000
# 6 0.0000 0.0000 0.0000 0.0000 0.0000 23.2871
#
#
#
# Elastic Compliance Matrix: (Units=1/GPa)
#
#
# Indices 1 2 3 4 5 6 
#
# 1 0.027408 -0.016826 0.017930 0.000000 0.000000 0.000000
# 2 -0.016826 0.020885 -0.022879 0.000000 0.000000 0.000000
# 3 0.017930 -0.022879 0.038239 0.000000 0.000000 0.000000
# 4 0.000000 0.000000 0.000000 0.034984 0.000000 0.000000
# 5 0.000000 0.000000 0.000000 0.000000 0.037136 0.000000
# 6 0.000000 0.000000 0.000000 0.000000 0.000000 0.042942
#
#
# Mechanical properties :
#
#
# Convention : Reuss Voigt Hill
#
# Bulk Modulus (GPa) = 23.26576 70.90984 47.08780
# Shear Modulus (GPa) = 19.26994 28.40490 23.83742
#
# Velocity S-wave (km/s) = 2.92595 3.55241 3.25429
# Velocity P-wave (km/s) = 4.66383 6.95196 5.91950
#
# Compressibility (1/GPa) = 0.04298161
#
# Stress axis : x y z
#
# Youngs Moduli (GPa) = 36.48535 47.88165 26.15152
#
# Poissons Ratio (x) = 0.80565 -0.46889
# Poissons Ratio (y) = 0.61390 0.59832
# Poissons Ratio (z) = -0.65417 1.09548
#
# Static dielectric constant tensor:
#      x y z
#    x 1.872670 0.000000 0.000000 
#    y 0.000000 1.921130 0.000000 
#    z 0.000000 0.000000 1.904990 
# 
# From -- ./inp_files/3066.got.cif
#   From: 2010.05.17/outbox.cif.g08.bks.cpg/sg37_2_cif.got.tgz:3066.got - 2010.06.03 17:53:42.
