data_PCOD9354833
_publ_section_title
;
Structure prediction by ZEFSAII (Michael W. Deem and Ramdas Pophale) SiO2 
 PCOD9354833
Probable space group: C C C 2
;
_chemical_formula_sum "Si O2"
_cell_formula_units_Z 52
_cell_length_a 10.248278
_cell_length_b 25.103341
_cell_length_c 9.325103
_cell_angle_alpha 90.000000
_cell_angle_beta 90.000000
_cell_angle_gamma 90.000000
_cell_volume 2399.032110
_symmetry_space_group_name_H-M "C C C 2"
_symmetry_group_IT_number 37
_symmetry_cell_setting 'orthorhombic'
loop_
_space_group_symop_operation_xyz
x,y,z
-x,-y,z
-x,y,1/2+z
x,-y,1/2+z
1/2+x,1/2+y,z
1/2-x,1/2-y,z
1/2-x,1/2+y,1/2+z
1/2+x,1/2-y,1/2+z
loop_
_atom_site_type_symbol
_atom_site_label
_atom_site_fract_x
_atom_site_fract_y
_atom_site_fract_z
Si Si1 0.523395 0.886401 0.345590
Si Si2 0.331883 0.463729 0.038274
Si Si3 0.500000 0.500000 0.277171
Si Si4 0.397652 0.727605 0.795378
Si Si5 0.744275 0.353945 0.629143
Si Si6 0.893999 0.544782 0.617220
Si Si7 0.069848 0.719395 0.506697
O O1 0.641127 0.872003 0.237838
O O2 0.566847 0.928869 0.465590
O O3 0.410190 0.911349 0.243447
O O4 0.493968 0.833124 0.435976
O O5 0.438293 0.458558 0.165643
O O6 0.271579 0.405617 0.033057
O O7 0.237705 0.511373 0.090761
O O8 0.392424 0.478320 0.886384
O O9 0.250000 0.750000 0.833061
O O10 0.370228 0.669757 0.728119
O O11 0.457187 0.764679 0.670314
O O12 0.503482 0.732822 0.919201
O O13 0.783805 0.303948 0.527956
O O14 0.000000 0.500000 0.655989
#
# Coordination Sequence:
#
# PCOD9354833 Si02
#       7
#     8   8   4   8   8   8   8
#     4  12  21  37  64 104 135 167 210 275 357 393
#     4  11  24  45  66  95 138 181 232 269 327 408
#     4  10  26  46  64  84 142 196 222 266 314 406
#     4  10  22  41  64  89 129 168 208 279 336 394
#     4  11  23  40  71  93 130 174 222 281 339 400
#     4  12  24  36  66 110 137 168 214 286 343 393
#     4  11  20  41  65  94 129 164 217 278 333 396
#
# _framework density 21.675408000000001
#
# number of rings (size 3 to 8) (size 9 to 14) (size 15 to 20)
#    0.000    0.923    6.154    1.385    4.308    1.231 
#    0.000    2.308    0.000    0.000    0.000    0.000 
#    0.000    0.000    0.000    0.000    0.000    0.000 
#
# Total GULP energy -144861.011678 kJ/mol
# GULP energy per Si atom -5571.577372 kJ/mol
# Density = 2.162607 g / cm^3
# Si number density = 21.675408 Si / 1000 Ang^3
#
#
#
# Elastic Constant Matrix: (Units=GPa)
#
#
# Indices 1 2 3 4 5 6 
#
# 1 52.7486 10.6782 41.0682 0.0000 0.0000 0.0000
# 2 10.6782 77.5177 21.4942 0.0000 0.0000 0.0000
# 3 41.0682 21.4942 117.9360 0.0000 0.0000 0.0000
# 4 0.0000 0.0000 0.0000 -11.4409 0.0000 0.0000
# 5 0.0000 0.0000 0.0000 0.0000 16.7282 0.0000
# 6 0.0000 0.0000 0.0000 0.0000 0.0000 26.6662
#
#
#
# Elastic Compliance Matrix: (Units=1/GPa)
#
#
# Indices 1 2 3 4 5 6 
#
# 1 0.026103 -0.001133 -0.008883 0.000000 0.000000 0.000000
# 2 -0.001133 0.013636 -0.002091 0.000000 0.000000 0.000000
# 3 -0.008883 -0.002091 0.011954 0.000000 0.000000 0.000000
# 4 0.000000 0.000000 0.000000 -0.087406 0.000000 0.000000
# 5 0.000000 0.000000 0.000000 0.000000 0.059779 0.000000
# 6 0.000000 0.000000 0.000000 0.000000 0.000000 0.037501
#
#
# Mechanical properties :
#
#
# Convention : Reuss Voigt Hill
#
# Bulk Modulus (GPa) = 36.39080 43.85374 40.12227
# Shear Modulus (GPa) = 52.66422 18.05481 35.35952
#
# Velocity S-wave (km/s) = 4.93452 2.88924 4.04334
# Velocity P-wave (km/s) = 7.02079 5.60413 6.35207
#
# Compressibility (1/GPa) = 0.02747947
#
# Stress axis : x y z
#
# Youngs Moduli (GPa) = 38.30904 73.33509 83.65629
#
# Poissons Ratio (x) = 0.08306 0.74316
# Poissons Ratio (y) = 0.04339 0.17491
# Poissons Ratio (z) = 0.34032 0.15333
#
# Static dielectric constant tensor:
#      x y z
#    x 1.899780 0.000000 0.000000 
#    y 0.000000 1.990380 0.000000 
#    z 0.000000 0.000000 1.756000 
# 
# From -- ./inp_files/3019.got.cif
#   From: 2010.05.17/outbox.cif.g08.bks.cpg/sg37_2_cif.got.tgz:3019.got - 2010.06.03 17:53:42.
