data_PCOD9354351
_publ_section_title
;
Structure prediction by ZEFSAII (Michael W. Deem and Ramdas Pophale) SiO2 
 PCOD9354351
Probable space group: C C C 2
;
_chemical_formula_sum "Si O2"
_cell_formula_units_Z 48
_cell_length_a 9.393895
_cell_length_b 16.642196
_cell_length_c 10.733756
_cell_angle_alpha 90.000000
_cell_angle_beta 90.000000
_cell_angle_gamma 90.000000
_cell_volume 1678.062193
_symmetry_space_group_name_H-M "C C C 2"
_symmetry_group_IT_number 37
_symmetry_cell_setting 'orthorhombic'
loop_
_space_group_symop_operation_xyz
x,y,z
-x,-y,z
-x,y,1/2+z
x,-y,1/2+z
1/2+x,1/2+y,z
1/2-x,1/2-y,z
1/2-x,1/2+y,1/2+z
1/2+x,1/2-y,1/2+z
loop_
_atom_site_type_symbol
_atom_site_label
_atom_site_fract_x
_atom_site_fract_y
_atom_site_fract_z
Si Si1 0.609449 0.802804 0.446510
Si Si2 0.656840 0.564855 0.971819
Si Si3 0.643337 0.824763 0.130185
Si Si4 0.104234 0.200728 0.807267
Si Si5 0.355127 0.023003 0.302321
Si Si6 0.765189 0.918825 0.608226
O O1 0.750000 0.750000 0.451679
O O2 0.517262 0.767487 0.329889
O O3 0.501906 0.794707 0.565326
O O4 0.683155 0.887778 0.484524
O O5 0.558927 0.632589 0.909765
O O6 0.709159 0.510532 0.858296
O O7 0.785193 0.619956 0.021670
O O8 0.639791 0.495875 0.073983
O O9 0.750000 0.750000 0.149987
O O10 0.649483 0.889021 0.242699
O O11 0.250000 0.250000 0.832462
O O12 0.145731 0.149051 0.683499
O O13 0.361535 0.955507 0.190709
O O14 0.500000 0.000000 0.374116
#
# Coordination Sequence:
#
# PCOD9354351 Si02
#       6
#     8   8   8   8   8   8
#     4  12  24  44  75 111 159 216 273 341 417 496
#     4  10  21  40  75 114 151 210 270 333 415 487
#     4  11  21  44  73 114 156 212 271 340 407 495
#     4  11  22  47  82 114 159 218 273 341 421 491
#     4  10  21  35  72 119 156 203 271 340 404 482
#     4  10  24  41  73 118 157 204 274 340 400 495
#
# _framework density 28.604424999999999
#
# number of rings (size 3 to 8) (size 9 to 14) (size 15 to 20)
#    0.000    1.333    5.000    0.500    2.333    0.000 
#    3.000    2.500    0.000   10.000    0.000    0.000 
#    0.000    0.000    0.000    0.000    0.000    0.000 
#
# Total GULP energy -133991.506403 kJ/mol
# GULP energy per Si atom -5582.979433 kJ/mol
# Density = 2.853932 g / cm^3
# Si number density = 28.604425 Si / 1000 Ang^3
#
#
#
# Elastic Constant Matrix: (Units=GPa)
#
#
# Indices 1 2 3 4 5 6 
#
# 1 131.0043 50.7444 18.0781 0.0000 0.0000 0.0000
# 2 50.7444 215.1692 34.9838 0.0000 0.0000 0.0000
# 3 18.0781 34.9838 92.0538 0.0000 0.0000 0.0000
# 4 0.0000 0.0000 0.0000 125.6585 0.0000 0.0000
# 5 0.0000 0.0000 0.0000 0.0000 60.1580 0.0000
# 6 0.0000 0.0000 0.0000 0.0000 0.0000 54.8322
#
#
#
# Elastic Compliance Matrix: (Units=1/GPa)
#
#
# Indices 1 2 3 4 5 6 
#
# 1 0.008480 -0.001843 -0.000965 0.000000 0.000000 0.000000
# 2 -0.001843 0.005354 -0.001673 0.000000 0.000000 0.000000
# 3 -0.000965 -0.001673 0.011688 0.000000 0.000000 0.000000
# 4 0.000000 0.000000 0.000000 0.007958 0.000000 0.000000
# 5 0.000000 0.000000 0.000000 0.000000 0.016623 0.000000
# 6 0.000000 0.000000 0.000000 0.000000 0.000000 0.018237
#
#
# Mechanical properties :
#
#
# Convention : Reuss Voigt Hill
#
# Bulk Modulus (GPa) = 60.38198 71.75998 66.07098
# Shear Modulus (GPa) = 60.36922 70.42446 65.39684
#
# Velocity S-wave (km/s) = 4.59899 4.96725 4.78666
# Velocity P-wave (km/s) = 7.02538 7.61837 7.32788
#
# Compressibility (1/GPa) = 0.01656123
#
# Stress axis : x y z
#
# Youngs Moduli (GPa) = 117.91866 186.77114 85.55450
#
# Poissons Ratio (x) = 0.34423 0.08256
# Poissons Ratio (y) = 0.21733 0.14312
# Poissons Ratio (z) = 0.11379 0.31243
#
# Static dielectric constant tensor:
#      x y z
#    x 2.038800 0.000000 0.000000 
#    y 0.000000 2.405070 0.000000 
#    z 0.000000 0.000000 2.502410 
# 
# From -- ./inp_files/7776.got.cif
#   From: 2010.05.17/outbox.cif.g08.bks.cpg/sg37_4_cif.got.tgz:7776.got - 2010.06.03 17:53:42.
