data_PCOD9354223
_publ_section_title
;
Structure prediction by ZEFSAII (Michael W. Deem and Ramdas Pophale) SiO2 
 PCOD9354223
Probable space group: C C C 2
;
_chemical_formula_sum "Si O2"
_cell_formula_units_Z 60
_cell_length_a 5.379831
_cell_length_b 18.183610
_cell_length_c 26.843834
_cell_angle_alpha 90.000000
_cell_angle_beta 90.000000
_cell_angle_gamma 90.000000
_cell_volume 2625.991317
_symmetry_space_group_name_H-M "C C C 2"
_symmetry_group_IT_number 37
_symmetry_cell_setting 'orthorhombic'
loop_
_space_group_symop_operation_xyz
x,y,z
-x,-y,z
-x,y,1/2+z
x,-y,1/2+z
1/2+x,1/2+y,z
1/2-x,1/2-y,z
1/2-x,1/2+y,1/2+z
1/2+x,1/2-y,1/2+z
loop_
_atom_site_type_symbol
_atom_site_label
_atom_site_fract_x
_atom_site_fract_y
_atom_site_fract_z
Si Si1 0.687048 0.886225 0.324270
Si Si2 0.144678 0.178840 0.487565
Si Si3 0.416851 0.317158 0.887479
Si Si4 0.500000 0.500000 0.284218
Si Si5 0.782999 0.161786 0.573730
Si Si6 0.218821 0.338541 0.627129
Si Si7 0.455900 0.085719 0.929429
Si Si8 0.382944 0.082634 0.729932
O O1 0.544647 0.883707 0.375784
O O2 0.532934 0.875569 0.273944
O O3 0.922703 0.837734 0.339431
O O4 0.783490 0.969584 0.318159
O O5 0.250000 0.250000 0.517348
O O6 0.371448 0.126103 0.470636
O O7 0.038246 0.215740 0.437435
O O8 0.918109 0.146550 0.520626
O O9 0.250000 0.250000 0.870161
O O10 0.327655 0.391346 0.917351
O O11 0.391801 0.564752 0.250796
O O12 0.750000 0.250000 0.576483
O O13 0.504920 0.136782 0.589271
O O14 0.003873 0.135964 0.611008
O O15 0.250000 0.250000 0.631190
O O16 0.136345 0.372286 0.679719
O O17 0.500000 0.000000 0.934798
O O18 0.500000 0.000000 0.722463
#
# Coordination Sequence:
#
# PCOD9354223 Si02
#       8
#     8   8   8   4   8   8   8   8
#     4  10  21  37  63  93 134 178 230 273 339 417
#     4  11  22  39  69  97 127 177 234 282 340 421
#     4  11  22  38  66  95 136 179 229 280 337 414
#     4  10  20  40  66  90 122 192 226 274 338 434
#     4  10  22  41  71  99 131 174 226 279 351 419
#     4  10  23  43  70 100 132 171 224 290 349 414
#     4  11  23  40  63  98 139 181 225 283 344 413
#     4  10  22  40  69  95 129 179 232 281 350 418
#
# _framework density 22.848514999999999
#
# number of rings (size 3 to 8) (size 9 to 14) (size 15 to 20)
#    0.000    1.600    1.333    4.400    5.600    1.600 
#    0.000    4.667    2.933    0.000    0.000    0.000 
#    0.000    0.000    0.000    0.000    0.000    0.000 
#
# Total GULP energy -167028.438745 kJ/mol
# GULP energy per Si atom -5567.614625 kJ/mol
# Density = 2.279651 g / cm^3
# Si number density = 22.848515 Si / 1000 Ang^3
#
#
#
# Elastic Constant Matrix: (Units=GPa)
#
#
# Indices 1 2 3 4 5 6 
#
# 1 93.9610 26.8692 50.0766 0.0000 0.0000 0.0000
# 2 26.8692 79.7291 36.2194 0.0000 0.0000 0.0000
# 3 50.0766 36.2194 163.4396 0.0000 0.0000 0.0000
# 4 0.0000 0.0000 0.0000 22.1107 0.0000 0.0000
# 5 0.0000 0.0000 0.0000 0.0000 28.3723 0.0000
# 6 0.0000 0.0000 0.0000 0.0000 0.0000 29.2584
#
#
#
# Elastic Compliance Matrix: (Units=1/GPa)
#
#
# Indices 1 2 3 4 5 6 
#
# 1 0.013307 -0.002927 -0.003428 0.000000 0.000000 0.000000
# 2 -0.002927 0.014590 -0.002337 0.000000 0.000000 0.000000
# 3 -0.003428 -0.002337 0.007687 0.000000 0.000000 0.000000
# 4 0.000000 0.000000 0.000000 0.045227 0.000000 0.000000
# 5 0.000000 0.000000 0.000000 0.000000 0.035246 0.000000
# 6 0.000000 0.000000 0.000000 0.000000 0.000000 0.034178
#
#
# Mechanical properties :
#
#
# Convention : Reuss Voigt Hill
#
# Bulk Modulus (GPa) = 54.94519 62.60666 58.77593
# Shear Modulus (GPa) = 28.78767 30.87925 29.83346
#
# Velocity S-wave (km/s) = 3.55341 3.68023 3.61738
# Velocity P-wave (km/s) = 6.39808 6.74678 6.57474
#
# Compressibility (1/GPa) = 0.01819995
#
# Stress axis : x y z
#
# Youngs Moduli (GPa) = 75.14868 68.53855 130.09453
#
# Poissons Ratio (x) = 0.20061 0.44603
# Poissons Ratio (y) = 0.21996 0.30397
# Poissons Ratio (z) = 0.25765 0.16014
#
# Static dielectric constant tensor:
#      x y z
#    x 2.734270 0.000000 0.000000 
#    y 0.000000 1.355970 0.000000 
#    z 0.000000 0.000000 1.862950 
# 
# From -- ./inp_files/19515.got.cif
#   From: 2010.05.17/outbox.cif.g08.bks.cpg/sg37_10_cif.got.tgz:19515.got - 2010.06.03 17:53:42.
