data_PCOD9354924
_publ_section_title
;
Structure prediction by ZEFSAII (Michael W. Deem and Ramdas Pophale) SiO2 
 PCOD9354924
Probable space group: C C C 2
;
_chemical_formula_sum "Si O2"
_cell_formula_units_Z 48
_cell_length_a 23.089579
_cell_length_b 7.804569
_cell_length_c 11.533497
_cell_angle_alpha 90.000000
_cell_angle_beta 90.000000
_cell_angle_gamma 90.000000
_cell_volume 2078.384744
_symmetry_space_group_name_H-M "C C C 2"
_symmetry_group_IT_number 37
_symmetry_cell_setting 'orthorhombic'
loop_
_space_group_symop_operation_xyz
x,y,z
-x,-y,z
-x,y,1/2+z
x,-y,1/2+z
1/2+x,1/2+y,z
1/2-x,1/2-y,z
1/2-x,1/2+y,1/2+z
1/2+x,1/2-y,1/2+z
loop_
_atom_site_type_symbol
_atom_site_label
_atom_site_fract_x
_atom_site_fract_y
_atom_site_fract_z
Si Si1 0.313636 0.317710 0.400050
Si Si2 0.028364 0.249264 0.436941
Si Si3 0.099894 0.226165 0.216479
Si Si4 0.318367 0.719968 0.342095
Si Si5 0.087490 0.613384 0.483809
Si Si6 0.388801 0.645536 0.120374
O O1 0.250000 0.250000 0.410928
O O2 0.344048 0.225757 0.291621
O O3 0.319327 0.520943 0.379249
O O4 0.347559 0.288764 0.518061
O O5 0.053513 0.177201 0.316440
O O6 0.058757 0.437122 0.441982
O O7 0.048881 0.172835 0.560363
O O8 0.959312 0.250361 0.435102
O O9 0.115177 0.056395 0.144481
O O10 0.083772 0.369664 0.123209
O O11 0.250000 0.750000 0.317598
O O12 0.348483 0.840705 0.438989
O O13 0.362802 0.734728 0.234100
#
# Coordination Sequence:
#
# PCOD9354924 Si02
#       6
#     8   8   8   8   8   8
#     4  10  22  43  66  97 137 178 232 285 345 419
#     4  10  26  43  72  99 139 188 229 298 360 433
#     4  10  23  45  65 101 137 175 233 291 348 422
#     4  11  25  41  64  99 136 183 228 286 351 428
#     4  11  25  45  66 104 139 180 240 286 364 429
#     4  10  22  46  65  98 132 177 235 283 352 415
#
# _framework density 23.094857000000001
#
# number of rings (size 3 to 8) (size 9 to 14) (size 15 to 20)
#    0.000    1.667    1.667    0.500    9.333    2.667 
#    3.000    0.000    0.000    0.000    0.000    0.000 
#    0.000    0.000    0.000    0.000    0.000    0.000 
#
# Total GULP energy -133993.814784 kJ/mol
# GULP energy per Si atom -5583.075616 kJ/mol
# Density = 2.304229 g / cm^3
# Si number density = 23.094857 Si / 1000 Ang^3
#
#
#
# Elastic Constant Matrix: (Units=GPa)
#
#
# Indices 1 2 3 4 5 6 
#
# 1 111.7094 15.8043 27.0050 0.0000 0.0000 0.0000
# 2 15.8043 29.5346 17.3956 0.0000 0.0000 0.0000
# 3 27.0050 17.3956 100.4688 0.0000 0.0000 0.0000
# 4 0.0000 0.0000 0.0000 24.8475 0.0000 0.0000
# 5 0.0000 0.0000 0.0000 0.0000 14.5835 0.0000
# 6 0.0000 0.0000 0.0000 0.0000 0.0000 33.8332
#
#
#
# Elastic Compliance Matrix: (Units=1/GPa)
#
#
# Indices 1 2 3 4 5 6 
#
# 1 0.010022 -0.004205 -0.001966 0.000000 0.000000 0.000000
# 2 -0.004205 0.039468 -0.005703 0.000000 0.000000 0.000000
# 3 -0.001966 -0.005703 0.011469 0.000000 0.000000 0.000000
# 4 0.000000 0.000000 0.000000 0.040245 0.000000 0.000000
# 5 0.000000 0.000000 0.000000 0.000000 0.068571 0.000000
# 6 0.000000 0.000000 0.000000 0.000000 0.000000 0.029557
#
#
# Mechanical properties :
#
#
# Convention : Reuss Voigt Hill
#
# Bulk Modulus (GPa) = 26.87390 40.23587 33.55488
# Shear Modulus (GPa) = 21.23286 26.75337 23.99311
#
# Velocity S-wave (km/s) = 3.03541 3.40724 3.22668
# Velocity P-wave (km/s) = 4.89352 5.73924 5.33317
#
# Compressibility (1/GPa) = 0.03721083
#
# Stress axis : x y z
#
# Youngs Moduli (GPa) = 99.78139 25.33696 87.18992
#
# Poissons Ratio (x) = 0.10654 0.17139
# Poissons Ratio (y) = 0.41959 0.49728
# Poissons Ratio (z) = 0.19614 0.14451
#
# Static dielectric constant tensor:
#      x y z
#    x 1.917200 0.000000 0.000000 
#    y 0.000000 1.931860 0.000000 
#    z 0.000000 0.000000 1.861870 
# 
# From -- ./inp_files/8835.got.cif
#   From: 2010.05.17/outbox.cif.g08.bks.cpg/sg37_5_cif.got.tgz:8835.got - 2010.06.03 17:53:42.
