data_PCOD9354116
_publ_section_title
;
Structure prediction by ZEFSAII (Michael W. Deem and Ramdas Pophale) SiO2 
 PCOD9354116
Probable space group: C C C 2
;
_chemical_formula_sum "Si O2"
_cell_formula_units_Z 60
_cell_length_a 13.115445
_cell_length_b 8.010612
_cell_length_c 27.819519
_cell_angle_alpha 90.000000
_cell_angle_beta 90.000000
_cell_angle_gamma 90.000000
_cell_volume 2922.794922
_symmetry_space_group_name_H-M "C C C 2"
_symmetry_group_IT_number 37
_symmetry_cell_setting 'orthorhombic'
loop_
_space_group_symop_operation_xyz
x,y,z
-x,-y,z
-x,y,1/2+z
x,-y,1/2+z
1/2+x,1/2+y,z
1/2-x,1/2-y,z
1/2-x,1/2+y,1/2+z
1/2+x,1/2-y,1/2+z
loop_
_atom_site_type_symbol
_atom_site_label
_atom_site_fract_x
_atom_site_fract_y
_atom_site_fract_z
Si Si1 0.657813 0.842673 0.642310
Si Si2 0.500000 0.000000 0.214098
Si Si3 0.033311 0.189560 0.558012
Si Si4 0.814109 0.580794 0.375611
Si Si5 0.649126 0.862206 0.480280
Si Si6 0.667647 0.887712 0.068043
Si Si7 0.439991 0.254086 0.294265
Si Si8 0.830439 0.109656 0.307140
O O1 0.750000 0.750000 0.667264
O O2 0.619485 0.727631 0.597715
O O3 0.573538 0.894176 0.679969
O O4 0.693761 0.008325 0.615127
O O5 0.444392 0.137201 0.247396
O O6 0.063119 0.244371 0.503951
O O7 0.942111 0.307167 0.574813
O O8 0.000000 0.000000 0.558933
O O9 0.750000 0.750000 0.381434
O O10 0.863593 0.555561 0.428029
O O11 0.895270 0.633449 0.335445
O O12 0.734676 0.444357 0.354856
O O13 0.750000 0.750000 0.480071
O O14 0.662575 0.999468 0.521098
O O15 0.750000 0.750000 0.059332
O O16 0.367332 0.421133 0.288336
O O17 0.556769 0.305844 0.308582
O O18 0.750000 0.250000 0.285318
#
# Coordination Sequence:
#
# PCOD9354116 Si02
#       8
#     8   4   8   8   8   8   8   8
#     4  11  23  44  70  96 130 167 221 283 342 412
#     4  12  24  46  66 102 132 172 236 286 356 428
#     4  11  21  41  65  95 136 178 219 275 339 408
#     4   9  20  41  65  93 134 176 226 280 335 401
#     4  10  20  38  61  96 133 173 223 275 326 409
#     4  11  21  40  62  96 136 173 219 273 339 403
#     4  10  23  43  69  94 136 178 222 292 345 408
#     4  10  21  43  67  95 128 177 226 277 345 408
#
# _framework density 20.528296999999998
#
# number of rings (size 3 to 8) (size 9 to 14) (size 15 to 20)
#    0.000    1.600    1.333    5.200    0.000    2.133 
#   19.200    3.333    0.000    0.000    0.000    0.000 
#    0.000    0.000    0.000    0.000    0.000    0.000 
#
# Total GULP energy -167161.850238 kJ/mol
# GULP energy per Si atom -5572.061675 kJ/mol
# Density = 2.048157 g / cm^3
# Si number density = 20.528297 Si / 1000 Ang^3
#
#
#
# Elastic Constant Matrix: (Units=GPa)
#
#
# Indices 1 2 3 4 5 6 
#
# 1 89.8649 31.0241 23.3222 0.0000 0.0000 0.0000
# 2 31.0241 90.5957 39.3796 0.0000 0.0000 0.0000
# 3 23.3222 39.3796 115.6811 0.0000 0.0000 0.0000
# 4 0.0000 0.0000 0.0000 10.7055 0.0000 0.0000
# 5 0.0000 0.0000 0.0000 0.0000 118.8249 0.0000
# 6 0.0000 0.0000 0.0000 0.0000 0.0000 27.4228
#
#
#
# Elastic Compliance Matrix: (Units=1/GPa)
#
#
# Indices 1 2 3 4 5 6 
#
# 1 0.012778 -0.003821 -0.001275 0.000000 0.000000 0.000000
# 2 -0.003821 0.014098 -0.004029 0.000000 0.000000 0.000000
# 3 -0.001275 -0.004029 0.010273 0.000000 0.000000 0.000000
# 4 0.000000 0.000000 0.000000 0.093410 0.000000 0.000000
# 5 0.000000 0.000000 0.000000 0.000000 0.008416 0.000000
# 6 0.000000 0.000000 0.000000 0.000000 0.000000 0.036466
#
#
# Mechanical properties :
#
#
# Convention : Reuss Voigt Hill
#
# Bulk Modulus (GPa) = 52.91548 53.73261 53.32404
# Shear Modulus (GPa) = 25.00117 44.88503 34.94310
#
# Velocity S-wave (km/s) = 3.49361 4.68107 4.13024
# Velocity P-wave (km/s) = 6.48896 7.44636 6.98408
#
# Compressibility (1/GPa) = 0.01889806
#
# Stress axis : x y z
#
# Youngs Moduli (GPa) = 78.25904 70.93273 97.34276
#
# Poissons Ratio (x) = 0.27107 0.12414
# Poissons Ratio (y) = 0.29906 0.39216
# Poissons Ratio (z) = 0.09980 0.28577
#
# Static dielectric constant tensor:
#      x y z
#    x 1.608770 0.000000 0.000000 
#    y 0.000000 1.801380 0.000000 
#    z 0.000000 0.000000 1.760070 
# 
# From -- ./inp_files/19776.got.cif
#   From: 2010.05.17/outbox.cif.g08.bks.cpg/sg37_10_cif.got.tgz:19776.got - 2010.06.03 17:53:42.
