data_PCOD9354886
_publ_section_title
;
Structure prediction by ZEFSAII (Michael W. Deem and Ramdas Pophale) SiO2 
 PCOD9354886
Probable space group: C C C 2
;
_chemical_formula_sum "Si O2"
_cell_formula_units_Z 40
_cell_length_a 14.045207
_cell_length_b 11.767657
_cell_length_c 11.629414
_cell_angle_alpha 90.000000
_cell_angle_beta 90.000000
_cell_angle_gamma 90.000000
_cell_volume 1922.099992
_symmetry_space_group_name_H-M "C C C 2"
_symmetry_group_IT_number 37
_symmetry_cell_setting 'orthorhombic'
loop_
_space_group_symop_operation_xyz
x,y,z
-x,-y,z
-x,y,1/2+z
x,-y,1/2+z
1/2+x,1/2+y,z
1/2-x,1/2-y,z
1/2-x,1/2+y,1/2+z
1/2+x,1/2-y,1/2+z
loop_
_atom_site_type_symbol
_atom_site_label
_atom_site_fract_x
_atom_site_fract_y
_atom_site_fract_z
Si Si1 0.399834 0.536048 0.339310
Si Si2 0.969861 0.631105 0.825108
Si Si3 0.855391 0.768497 0.007647
Si Si4 0.854795 0.795484 0.389807
Si Si5 0.448749 0.703380 0.135057
O O1 0.500000 0.500000 0.397071
O O2 0.347857 0.623811 0.422063
O O3 0.351813 0.415657 0.324619
O O4 0.426130 0.603190 0.224197
O O5 0.063353 0.710209 0.844997
O O6 0.000000 0.500000 0.824675
O O7 0.896287 0.666099 0.926613
O O8 0.929365 0.679125 0.704435
O O9 0.750000 0.750000 0.056673
O O10 0.941268 0.793367 0.094902
O O11 0.750000 0.750000 0.382873
O O12 0.884687 0.811622 0.522888
#
# Coordination Sequence:
#
# PCOD9354886 Si02
#       5
#     8   8   8   8   8
#     4  11  21  42  69  90 128 174 213 272 319 379
#     4  10  23  43  64  88 137 170 206 264 326 376
#     4  10  23  41  66  96 127 170 218 267 318 382
#     4  11  25  43  66  97 129 167 217 270 321 386
#     4  10  22  42  68  93 131 171 218 258 329 381
#
# _framework density 20.810570999999999
#
# number of rings (size 3 to 8) (size 9 to 14) (size 15 to 20)
#    0.000    1.600    6.000    0.000    5.600    7.200 
#    0.000    0.000    0.000    0.000    0.000    0.000 
#    0.000    0.000    0.000    0.000    0.000    0.000 
#
# Total GULP energy -111667.173326 kJ/mol
# GULP energy per Si atom -5583.358666 kJ/mol
# Density = 2.076321 g / cm^3
# Si number density = 20.810571 Si / 1000 Ang^3
#
#
#
# Elastic Constant Matrix: (Units=GPa)
#
#
# Indices 1 2 3 4 5 6 
#
# 1 90.7246 22.2646 8.7710 0.0000 0.0000 0.0000
# 2 22.2646 172.6081 43.2810 0.0000 0.0000 0.0000
# 3 8.7710 43.2810 81.4235 0.0000 0.0000 0.0000
# 4 0.0000 0.0000 0.0000 11.4952 0.0000 0.0000
# 5 0.0000 0.0000 0.0000 0.0000 -0.9089 0.0000
# 6 0.0000 0.0000 0.0000 0.0000 0.0000 21.1992
#
#
#
# Elastic Compliance Matrix: (Units=1/GPa)
#
#
# Indices 1 2 3 4 5 6 
#
# 1 0.011401 -0.001342 -0.000515 0.000000 0.000000 0.000000
# 2 -0.001342 0.006842 -0.003493 0.000000 0.000000 0.000000
# 3 -0.000515 -0.003493 0.014193 0.000000 0.000000 0.000000
# 4 0.000000 0.000000 0.000000 0.086992 0.000000 0.000000
# 5 0.000000 0.000000 0.000000 0.000000 -1.100193 0.000000
# 6 0.000000 0.000000 0.000000 0.000000 0.000000 0.047172
#
#
# Mechanical properties :
#
#
# Convention : Reuss Voigt Hill
#
# Bulk Modulus (GPa) = 46.00062 54.82105 50.41084
# Shear Modulus (GPa) = -5.46061 24.38641 9.46290
#
# Velocity S-wave (km/s) = -1.62162 3.42691 2.13472
# Velocity P-wave (km/s) = 4.31813 6.48524 5.50929
#
# Compressibility (1/GPa) = 0.02173884
#
# Stress axis : x y z
#
# Youngs Moduli (GPa) = 87.70864 146.15072 70.45522
#
# Poissons Ratio (x) = 0.19606 0.03629
# Poissons Ratio (y) = 0.11766 0.24607
# Poissons Ratio (z) = 0.04518 0.51043
#
# Static dielectric constant tensor:
#      x y z
#    x 1.729750 0.000000 0.000000 
#    y 0.000000 1.791940 0.000000 
#    z 0.000000 0.000000 1.786560 
# 
# From -- ./inp_files/7066.got.cif
#   From: 2010.05.17/outbox.cif.g08.bks.cpg/sg37_4_cif.got.tgz:7066.got - 2010.06.03 17:53:42.
