data_PCOD9354764
_publ_section_title
;
Structure prediction by ZEFSAII (Michael W. Deem and Ramdas Pophale) SiO2 
 PCOD9354764
Probable space group: C C C 2
;
_chemical_formula_sum "Si O2"
_cell_formula_units_Z 64
_cell_length_a 8.833770
_cell_length_b 16.945788
_cell_length_c 21.013565
_cell_angle_alpha 90.000000
_cell_angle_beta 90.000000
_cell_angle_gamma 90.000000
_cell_volume 3145.629682
_symmetry_space_group_name_H-M "C C C 2"
_symmetry_group_IT_number 37
_symmetry_cell_setting 'orthorhombic'
loop_
_space_group_symop_operation_xyz
x,y,z
-x,-y,z
-x,y,1/2+z
x,-y,1/2+z
1/2+x,1/2+y,z
1/2-x,1/2-y,z
1/2-x,1/2+y,1/2+z
1/2+x,1/2-y,1/2+z
loop_
_atom_site_type_symbol
_atom_site_label
_atom_site_fract_x
_atom_site_fract_y
_atom_site_fract_z
Si Si1 0.643688 0.050773 0.575530
Si Si2 0.318101 0.335432 0.292240
Si Si3 0.073364 0.222967 0.594958
Si Si4 0.379526 0.811278 0.487602
Si Si5 0.623555 0.439516 0.033398
Si Si6 0.428978 0.247216 0.740619
Si Si7 0.192541 0.662143 0.933058
Si Si8 0.419423 0.083435 0.218996
O O1 0.689028 0.111202 0.520300
O O2 0.596916 0.088824 0.642534
O O3 0.500000 0.000000 0.553195
O O4 0.777910 0.988967 0.583608
O O5 0.250000 0.250000 0.270987
O O6 0.493045 0.312405 0.285895
O O7 0.258654 0.350770 0.362992
O O8 0.246975 0.402888 0.248447
O O9 0.250000 0.250000 0.592740
O O10 0.055366 0.134438 0.570218
O O11 0.026493 0.230253 0.668114
O O12 0.974611 0.274225 0.546498
O O13 0.250000 0.750000 0.466696
O O14 0.510243 0.834061 0.437317
O O15 0.500000 0.500000 0.006397
O O16 0.734618 0.401306 0.980724
O O17 0.250000 0.250000 0.747224
O O18 0.484275 0.156579 0.747076
O O19 0.250000 0.750000 0.951517
O O20 0.500000 0.000000 0.232620
#
# Coordination Sequence:
#
# PCOD9354764 Si02
#       8
#     8   8   8   8   8   8   8   8
#     4  11  22  37  59  96 133 162 202 263 328 384
#     4   9  22  44  69  85 123 181 214 265 322 386
#     4  11  20  39  63  92 134 165 202 264 326 388
#     4  12  22  36  64  99 121 165 216 263 315 387
#     4  12  24  38  61  93 129 170 207 261 325 387
#     4  10  22  39  67  98 121 165 220 267 320 391
#     4  11  22  46  65  85 127 175 221 259 322 387
#     4  10  22  40  61  93 131 164 209 261 323 381
#
# _framework density 20.345689
#
# number of rings (size 3 to 8) (size 9 to 14) (size 15 to 20)
#    0.000    1.250    5.000    0.750    8.750    0.000 
#    2.250    7.500    0.000    0.000    0.000    0.000 
#    0.000    0.000    0.000    0.000    0.000    0.000 
#
# Total GULP energy -178556.144674 kJ/mol
# GULP energy per Si atom -5579.879521 kJ/mol
# Density = 2.029938 g / cm^3
# Si number density = 20.345689 Si / 1000 Ang^3
#
#
#
# Elastic Constant Matrix: (Units=GPa)
#
#
# Indices 1 2 3 4 5 6 
#
# 1 91.7228 31.3546 30.9738 0.0000 0.0000 0.0000
# 2 31.3546 94.2361 29.6744 0.0000 0.0000 0.0000
# 3 30.9738 29.6744 60.2818 0.0000 0.0000 0.0000
# 4 0.0000 0.0000 0.0000 6.6037 0.0000 0.0000
# 5 0.0000 0.0000 0.0000 0.0000 17.5713 0.0000
# 6 0.0000 0.0000 0.0000 0.0000 0.0000 39.7991
#
#
#
# Elastic Compliance Matrix: (Units=1/GPa)
#
#
# Indices 1 2 3 4 5 6 
#
# 1 0.013784 -0.002788 -0.005710 0.000000 0.000000 0.000000
# 2 -0.002788 0.013122 -0.005027 0.000000 0.000000 0.000000
# 3 -0.005710 -0.005027 0.021997 0.000000 0.000000 0.000000
# 4 0.000000 0.000000 0.000000 0.151431 0.000000 0.000000
# 5 0.000000 0.000000 0.000000 0.000000 0.056911 0.000000
# 6 0.000000 0.000000 0.000000 0.000000 0.000000 0.025126
#
#
# Mechanical properties :
#
#
# Convention : Reuss Voigt Hill
#
# Bulk Modulus (GPa) = 45.75987 47.80516 46.78252
# Shear Modulus (GPa) = 15.78752 23.07735 19.43244
#
# Velocity S-wave (km/s) = 2.78864 3.37153 3.09384
# Velocity P-wave (km/s) = 5.73661 6.22124 5.98383
#
# Compressibility (1/GPa) = 0.02185321
#
# Stress axis : x y z
#
# Youngs Moduli (GPa) = 72.54972 76.20609 45.46049
#
# Poissons Ratio (x) = 0.21248 0.25957
# Poissons Ratio (y) = 0.20228 0.22853
# Poissons Ratio (z) = 0.41424 0.38309
#
# Static dielectric constant tensor:
#      x y z
#    x 1.807600 0.000000 0.000000 
#    y 0.000000 1.717450 0.000000 
#    z 0.000000 0.000000 1.715780 
# 
# From -- ./inp_files/18490.got.cif
#   From: 2010.05.17/outbox.cif.g08.bks.cpg/sg37_10_cif.got.tgz:18490.got - 2010.06.03 17:53:42.
