data_PCOD9354209
_publ_section_title
;
Structure prediction by ZEFSAII (Michael W. Deem and Ramdas Pophale) SiO2 
 PCOD9354209
Probable space group: C C C 2
;
_chemical_formula_sum "Si O2"
_cell_formula_units_Z 32
_cell_length_a 9.012446
_cell_length_b 15.142230
_cell_length_c 13.482905
_cell_angle_alpha 90.000000
_cell_angle_beta 90.000000
_cell_angle_gamma 90.000000
_cell_volume 1839.992228
_symmetry_space_group_name_H-M "C C C 2"
_symmetry_group_IT_number 37
_symmetry_cell_setting 'orthorhombic'
loop_
_space_group_symop_operation_xyz
x,y,z
-x,-y,z
-x,y,1/2+z
x,-y,1/2+z
1/2+x,1/2+y,z
1/2-x,1/2-y,z
1/2-x,1/2+y,1/2+z
1/2+x,1/2-y,1/2+z
loop_
_atom_site_type_symbol
_atom_site_label
_atom_site_fract_x
_atom_site_fract_y
_atom_site_fract_z
Si Si1 0.172302 0.155759 0.597310
Si Si2 0.675327 0.005259 0.219805
Si Si3 0.649104 0.663552 0.191563
Si Si4 0.859780 0.935147 0.387436
O O1 0.250000 0.250000 0.590382
O O2 0.178302 0.105598 0.492555
O O3 0.001442 0.167335 0.629870
O O4 0.255866 0.094614 0.677403
O O5 0.755213 0.923331 0.163376
O O6 0.727236 0.988624 0.333238
O O7 0.500000 0.000000 0.209495
O O8 0.750000 0.750000 0.183535
O O9 0.608469 0.642279 0.306650
O O10 0.000000 0.000000 0.393892
#
# Coordination Sequence:
#
# PCOD9354209 Si02
#       4
#     8   8   8   8
#     4  12  23  40  65  97 124 168 213 257 317 378
#     4  10  21  40  64  92 128 167 205 262 309 373
#     4  10  20  40  63  92 127 166 202 263 311 368
#     4  10  21  40  65  88 128 166 207 258 316 368
#
# _framework density 17.391378
#
# number of rings (size 3 to 8) (size 9 to 14) (size 15 to 20)
#    1.500    0.000    2.500    4.500    0.000    1.000 
#    0.000    3.750    0.000    0.000    0.000    0.000 
#    0.000    0.000    0.000    0.000    0.000    0.000 
#
# Total GULP energy -89147.270486 kJ/mol
# GULP energy per Si atom -5571.704405 kJ/mol
# Density = 1.735179 g / cm^3
# Si number density = 17.391378 Si / 1000 Ang^3
#
#
#
# Elastic Constant Matrix: (Units=GPa)
#
#
# Indices 1 2 3 4 5 6 
#
# 1 166.8425 81.3557 52.2973 0.0000 0.0000 0.0000
# 2 81.3557 126.9858 46.9436 0.0000 0.0000 0.0000
# 3 52.2973 46.9436 111.0055 0.0000 0.0000 0.0000
# 4 0.0000 0.0000 0.0000 12.4953 0.0000 0.0000
# 5 0.0000 0.0000 0.0000 0.0000 6.9224 0.0000
# 6 0.0000 0.0000 0.0000 0.0000 0.0000 39.4593
#
#
#
# Elastic Compliance Matrix: (Units=1/GPa)
#
#
# Indices 1 2 3 4 5 6 
#
# 1 0.009137 -0.005052 -0.002168 0.000000 0.000000 0.000000
# 2 -0.005052 0.012128 -0.002749 0.000000 0.000000 0.000000
# 3 -0.002168 -0.002749 0.011192 0.000000 0.000000 0.000000
# 4 0.000000 0.000000 0.000000 0.080030 0.000000 0.000000
# 5 0.000000 0.000000 0.000000 0.000000 0.144459 0.000000
# 6 0.000000 0.000000 0.000000 0.000000 0.000000 0.025343
#
#
# Mechanical properties :
#
#
# Convention : Reuss Voigt Hill
#
# Bulk Modulus (GPa) = 79.87640 85.11410 82.49525
# Shear Modulus (GPa) = 16.31859 26.72455 21.52157
#
# Velocity S-wave (km/s) = 3.06652 3.92427 3.52161
# Velocity P-wave (km/s) = 7.65287 8.34145 8.00457
#
# Compressibility (1/GPa) = 0.01251934
#
# Stress axis : x y z
#
# Youngs Moduli (GPa) = 109.44761 82.45558 89.34705
#
# Poissons Ratio (x) = 0.41658 0.19371
# Poissons Ratio (y) = 0.55295 0.24557
# Poissons Ratio (z) = 0.23728 0.22663
#
# Static dielectric constant tensor:
#      x y z
#    x 1.558870 0.000000 0.000000 
#    y 0.000000 1.580540 0.000000 
#    z 0.000000 0.000000 1.589560 
# 
# From -- ./inp_files/5932.got.cif
#   From: 2010.05.17/outbox.cif.g08.bks.cpg/sg37_3_cif.got.tgz:5932.got - 2010.06.03 17:53:42.
