data_PCOD9354856
_publ_section_title
;
Structure prediction by ZEFSAII (Michael W. Deem and Ramdas Pophale) SiO2 
 PCOD9354856
Probable space group: C C C 2
;
_chemical_formula_sum "Si O2"
_cell_formula_units_Z 40
_cell_length_a 14.421686
_cell_length_b 7.673393
_cell_length_c 17.433251
_cell_angle_alpha 90.000000
_cell_angle_beta 90.000000
_cell_angle_gamma 90.000000
_cell_volume 1929.220465
_symmetry_space_group_name_H-M "C C C 2"
_symmetry_group_IT_number 37
_symmetry_cell_setting 'orthorhombic'
loop_
_space_group_symop_operation_xyz
x,y,z
-x,-y,z
-x,y,1/2+z
x,-y,1/2+z
1/2+x,1/2+y,z
1/2-x,1/2-y,z
1/2-x,1/2+y,1/2+z
1/2+x,1/2-y,1/2+z
loop_
_atom_site_type_symbol
_atom_site_label
_atom_site_fract_x
_atom_site_fract_y
_atom_site_fract_z
Si Si1 0.463295 0.262849 0.837300
Si Si2 0.189201 0.927226 0.103623
Si Si3 0.250000 0.750000 0.701305
Si Si4 0.696423 0.565071 0.933304
Si Si5 0.641703 0.098612 0.837055
Si Si6 0.500000 0.500000 0.694429
O O1 0.396920 0.388155 0.886604
O O2 0.558888 0.204084 0.878324
O O3 0.492518 0.344736 0.756799
O O4 0.403352 0.089887 0.820700
O O5 0.250000 0.750000 0.114251
O O6 0.087091 0.949608 0.140854
O O7 0.240635 0.082872 0.148043
O O8 0.181334 0.973361 0.014218
O O9 0.331042 0.799967 0.760324
O O10 0.750000 0.750000 0.945528
O O11 0.765567 0.445472 0.883592
#
# Coordination Sequence:
#
# PCOD9354856 Si02
#       6
#     8   8   4   8   8   4
#     4  10  22  42  69 100 133 176 245 292 345 434
#     4  12  27  44  69 104 145 186 235 288 363 429
#     4  12  22  46  72  98 138 188 224 296 358 418
#     4  10  23  44  68 102 142 183 231 294 357 424
#     4  10  22  41  71  98 132 184 239 290 353 427
#     4  12  24  44  66 102 136 182 234 300 344 428
#
# _framework density 20.733763
#
# number of rings (size 3 to 8) (size 9 to 14) (size 15 to 20)
#    0.000    1.200    3.000    2.400    1.400    4.000 
#    0.000    0.000    0.000    0.000    0.000    0.000 
#    0.000    0.000    0.000    0.000    0.000    0.000 
#
# Total GULP energy -111539.379053 kJ/mol
# GULP energy per Si atom -5576.968953 kJ/mol
# Density = 2.068657 g / cm^3
# Si number density = 20.733763 Si / 1000 Ang^3
#
#
#
# Elastic Constant Matrix: (Units=GPa)
#
#
# Indices 1 2 3 4 5 6 
#
# 1 184.7432 82.9613 93.5023 0.0000 0.0000 0.0000
# 2 82.9613 156.2248 72.2545 0.0000 0.0000 0.0000
# 3 93.5023 72.2545 144.4418 0.0000 0.0000 0.0000
# 4 0.0000 0.0000 0.0000 39.2490 0.0000 0.0000
# 5 0.0000 0.0000 0.0000 0.0000 5.5741 0.0000
# 6 0.0000 0.0000 0.0000 0.0000 0.0000 15.8230
#
#
#
# Elastic Compliance Matrix: (Units=1/GPa)
#
#
# Indices 1 2 3 4 5 6 
#
# 1 0.008825 -0.002660 -0.004383 0.000000 0.000000 0.000000
# 2 -0.002660 0.009129 -0.002845 0.000000 0.000000 0.000000
# 3 -0.004383 -0.002845 0.011183 0.000000 0.000000 0.000000
# 4 0.000000 0.000000 0.000000 0.025478 0.000000 0.000000
# 5 0.000000 0.000000 0.000000 0.000000 0.179400 0.000000
# 6 0.000000 0.000000 0.000000 0.000000 0.000000 0.063199
#
#
# Mechanical properties :
#
#
# Convention : Reuss Voigt Hill
#
# Bulk Modulus (GPa) = 106.79779 109.20513 108.00146
# Shear Modulus (GPa) = 15.61959 27.90868 21.76414
#
# Velocity S-wave (km/s) = 2.74768 3.67284 3.24342
# Velocity P-wave (km/s) = 7.85413 8.41254 8.13812
#
# Compressibility (1/GPa) = 0.00936349
#
# Stress axis : x y z
#
# Youngs Moduli (GPa) = 113.30993 109.53781 89.41866
#
# Poissons Ratio (x) = 0.29133 0.39188
# Poissons Ratio (y) = 0.30137 0.25440
# Poissons Ratio (z) = 0.49658 0.31164
#
# Static dielectric constant tensor:
#      x y z
#    x 1.806190 0.000000 0.000000 
#    y 0.000000 1.788980 0.000000 
#    z 0.000000 0.000000 1.678330 
# 
# From -- ./inp_files/12013.got.cif
#   From: 2010.05.17/outbox.cif.g08.bks.cpg/sg37_7_cif.got.tgz:12013.got - 2010.06.03 17:53:42.
