data_PCOD9354795
_publ_section_title
;
Structure prediction by ZEFSAII (Michael W. Deem and Ramdas Pophale) SiO2 
 PCOD9354795
Probable space group: C C C 2
;
_chemical_formula_sum "Si O2"
_cell_formula_units_Z 40
_cell_length_a 28.400065
_cell_length_b 5.009444
_cell_length_c 11.763021
_cell_angle_alpha 90.000000
_cell_angle_beta 90.000000
_cell_angle_gamma 90.000000
_cell_volume 1673.507767
_symmetry_space_group_name_H-M "C C C 2"
_symmetry_group_IT_number 37
_symmetry_cell_setting 'orthorhombic'
loop_
_space_group_symop_operation_xyz
x,y,z
-x,-y,z
-x,y,1/2+z
x,-y,1/2+z
1/2+x,1/2+y,z
1/2-x,1/2-y,z
1/2-x,1/2+y,1/2+z
1/2+x,1/2-y,1/2+z
loop_
_atom_site_type_symbol
_atom_site_label
_atom_site_fract_x
_atom_site_fract_y
_atom_site_fract_z
Si Si1 0.750000 0.750000 0.756351
Si Si2 0.425043 0.750001 0.090093
Si Si3 0.500000 0.500000 0.253875
Si Si4 0.652505 0.567024 0.419190
Si Si5 0.000000 0.500000 0.926309
Si Si6 0.347495 0.932976 0.260995
Si Si7 0.750000 0.750000 0.423834
O O1 0.700416 0.827821 0.700235
O O2 0.750000 0.500000 0.840092
O O3 0.456899 0.554326 0.167261
O O4 0.391302 0.899396 0.178512
O O5 0.391302 0.600606 0.001673
O O6 0.456899 0.945677 0.012924
O O7 0.500000 0.250000 0.340092
O O8 0.651076 0.268848 0.369155
O O9 0.700416 0.672175 0.479950
O O10 0.651076 0.768848 0.311030
#
# Coordination Sequence:
#
# PCOD9354795 Si02
#       7
#     4   8   4   8   4   8   4
#     4   8  16  35  60  91 134 172 206 263 330 391
#     4  12  26  45  72  96 128 179 230 280 350 412
#     4  12  28  48  68  96 134 174 226 292 352 412
#     4  10  22  40  65  98 134 172 218 272 330 404
#     4  12  28  48  68  96 134 174 226 292 352 412
#     4  10  22  40  65  98 134 172 218 272 330 404
#     4   8  16  35  60  91 134 172 206 263 330 391
#
# _framework density 23.901893999999999
#
# number of rings (size 3 to 8) (size 9 to 14) (size 15 to 20)
#    0.000    1.600    0.000    3.600    0.000    8.800 
#    0.000    0.000    0.000   14.400    0.000    0.000 
#    0.000    0.000    0.000    0.000    0.000    0.000 
#
# Total GULP energy -111560.399931 kJ/mol
# GULP energy per Si atom -5578.019997 kJ/mol
# Density = 2.384749 g / cm^3
# Si number density = 23.901894 Si / 1000 Ang^3
#
#
#
# Elastic Constant Matrix: (Units=GPa)
#
#
# Indices 1 2 3 4 5 6 
#
# 1 170.1917 15.7489 62.2019 0.0000 0.0000 0.0000
# 2 15.7489 136.5261 27.0054 0.0000 0.0000 0.0000
# 3 62.2019 27.0054 115.9795 0.0000 0.0000 0.0000
# 4 0.0000 0.0000 0.0000 0.0717 0.0000 0.0000
# 5 0.0000 0.0000 0.0000 0.0000 163.3189 0.0000
# 6 0.0000 0.0000 0.0000 0.0000 0.0000 25.5514
#
#
#
# Elastic Compliance Matrix: (Units=1/GPa)
#
#
# Indices 1 2 3 4 5 6 
#
# 1 0.007309 -0.000071 -0.003903 0.000000 0.000000 0.000000
# 2 -0.000071 0.007679 -0.001750 0.000000 0.000000 0.000000
# 3 -0.003903 -0.001750 0.011123 0.000000 0.000000 0.000000
# 4 0.000000 0.000000 0.000000 13.939234 0.000000 0.000000
# 5 0.000000 0.000000 0.000000 0.000000 0.006123 0.000000
# 6 0.000000 0.000000 0.000000 0.000000 0.000000 0.039137
#
#
# Mechanical properties :
#
#
# Convention : Reuss Voigt Hill
#
# Bulk Modulus (GPa) = 68.20185 70.28997 69.24591
# Shear Modulus (GPa) = 0.35646 58.97113 29.66379
#
# Velocity S-wave (km/s) = 0.38660 4.97250 3.52670
# Velocity P-wave (km/s) = 5.36613 7.90185 6.75405
#
# Compressibility (1/GPa) = 0.01466236
#
# Stress axis : x y z
#
# Youngs Moduli (GPa) = 136.81934 130.22631 89.90277
#
# Poissons Ratio (x) = 0.00925 0.35092
# Poissons Ratio (y) = 0.00972 0.15732
# Poissons Ratio (z) = 0.53406 0.22789
#
# Static dielectric constant tensor:
#      x y z
#    x 2.112690 0.000000 0.000000 
#    y 0.000000 1.855830 0.000000 
#    z 0.000000 0.000000 2.014270 
# 
# From -- ./inp_files/5578.got.cif
#   From: 2010.05.17/outbox.cif.g08.bks.cpg/sg37_3_cif.got.tgz:5578.got - 2010.06.03 17:53:42.
