data_PCOD9354093
_publ_section_title
;
Structure prediction by ZEFSAII (Michael W. Deem and Ramdas Pophale) SiO2 
 PCOD9354093
Probable space group: C C C 2
;
_chemical_formula_sum "Si O2"
_cell_formula_units_Z 32
_cell_length_a 5.028940
_cell_length_b 15.024691
_cell_length_c 16.579284
_cell_angle_alpha 90.000000
_cell_angle_beta 90.000000
_cell_angle_gamma 90.000000
_cell_volume 1252.702010
_symmetry_space_group_name_H-M "C C C 2"
_symmetry_group_IT_number 37
_symmetry_cell_setting 'orthorhombic'
loop_
_space_group_symop_operation_xyz
x,y,z
-x,-y,z
-x,y,1/2+z
x,-y,1/2+z
1/2+x,1/2+y,z
1/2-x,1/2-y,z
1/2-x,1/2+y,1/2+z
1/2+x,1/2-y,1/2+z
loop_
_atom_site_type_symbol
_atom_site_label
_atom_site_fract_x
_atom_site_fract_y
_atom_site_fract_z
Si Si1 0.105225 0.592009 0.459550
Si Si2 0.329123 0.644989 0.721675
Si Si3 0.869995 0.850665 0.553212
Si Si4 0.325028 0.849059 0.294366
O O1 0.401126 0.615606 0.490898
O O2 0.063064 0.658467 0.384474
O O3 0.000000 0.500000 0.421316
O O4 0.899943 0.598160 0.533518
O O5 0.250000 0.750000 0.729209
O O6 0.484246 0.634769 0.638080
O O7 0.532982 0.609205 0.789087
O O8 0.038941 0.605506 0.736743
O O9 0.750000 0.750000 0.547563
O O10 0.250000 0.750000 0.265173
#
# Coordination Sequence:
#
# PCOD9354093 Si02
#       4
#     8   8   8   8
#     4  12  26  43  62  96 138 175 216 271 330 398
#     4  10  20  37  64  96 124 155 213 280 325 378
#     4  12  23  42  70  96 126 172 223 273 330 396
#     4  10  20  38  64  92 124 166 213 266 327 392
#
# _framework density 25.544782999999999
#
# number of rings (size 3 to 8) (size 9 to 14) (size 15 to 20)
#    0.000    1.000    0.000    9.750    0.000    2.000 
#    0.000    7.500    0.000    0.000    0.000    0.000 
#    0.000    0.000    0.000    0.000    0.000    0.000 
#
# Total GULP energy -89113.549936 kJ/mol
# GULP energy per Si atom -5569.596871 kJ/mol
# Density = 2.548664 g / cm^3
# Si number density = 25.544783 Si / 1000 Ang^3
#
#
#
# Elastic Constant Matrix: (Units=GPa)
#
#
# Indices 1 2 3 4 5 6 
#
# 1 201.7320 31.1504 65.8829 0.0000 0.0000 0.0000
# 2 31.1504 52.2704 6.8421 0.0000 0.0000 0.0000
# 3 65.8829 6.8421 106.5762 0.0000 0.0000 0.0000
# 4 0.0000 0.0000 0.0000 -33.2494 0.0000 0.0000
# 5 0.0000 0.0000 0.0000 0.0000 33.3692 0.0000
# 6 0.0000 0.0000 0.0000 0.0000 0.0000 6.0447
#
#
#
# Elastic Compliance Matrix: (Units=1/GPa)
#
#
# Indices 1 2 3 4 5 6 
#
# 1 0.006802 -0.003533 -0.003978 0.000000 0.000000 0.000000
# 2 -0.003533 0.021128 0.000827 0.000000 0.000000 0.000000
# 3 -0.003978 0.000827 0.011789 0.000000 0.000000 0.000000
# 4 0.000000 0.000000 0.000000 -0.030076 0.000000 0.000000
# 5 0.000000 0.000000 0.000000 0.000000 0.029968 0.000000
# 6 0.000000 0.000000 0.000000 0.000000 0.000000 0.165433
#
#
# Mechanical properties :
#
#
# Convention : Reuss Voigt Hill
#
# Bulk Modulus (GPa) = 37.94699 63.14769 50.54734
# Shear Modulus (GPa) = 22.00756 18.34644 20.17700
#
# Velocity S-wave (km/s) = 2.93836 2.68285 2.81351
# Velocity P-wave (km/s) = 5.13803 5.86267 5.51227
#
# Compressibility (1/GPa) = 0.02635255
#
# Stress axis : x y z
#
# Youngs Moduli (GPa) = 147.02227 47.32985 84.82592
#
# Poissons Ratio (x) = 0.16720 0.33742
# Poissons Ratio (y) = 0.51939 -0.07019
# Poissons Ratio (z) = 0.58483 -0.03916
#
# Static dielectric constant tensor:
#      x y z
#    x 2.133180 0.000000 0.000000 
#    y 0.000000 2.386930 0.000000 
#    z 0.000000 0.000000 2.024700 
# 
# From -- ./inp_files/9475.got.cif
#   From: 2010.05.17/outbox.cif.g08.bks.cpg/sg37_5_cif.got.tgz:9475.got - 2010.06.03 17:53:42.
