data_PCOD9354566
_publ_section_title
;
Structure prediction by ZEFSAII (Michael W. Deem and Ramdas Pophale) SiO2 
 PCOD9354566
Probable space group: C C C 2
;
_chemical_formula_sum "Si O2"
_cell_formula_units_Z 48
_cell_length_a 10.111243
_cell_length_b 12.915821
_cell_length_c 16.625336
_cell_angle_alpha 90.000000
_cell_angle_beta 90.000000
_cell_angle_gamma 90.000000
_cell_volume 2171.185833
_symmetry_space_group_name_H-M "C C C 2"
_symmetry_group_IT_number 37
_symmetry_cell_setting 'orthorhombic'
loop_
_space_group_symop_operation_xyz
x,y,z
-x,-y,z
-x,y,1/2+z
x,-y,1/2+z
1/2+x,1/2+y,z
1/2-x,1/2-y,z
1/2-x,1/2+y,1/2+z
1/2+x,1/2-y,1/2+z
loop_
_atom_site_type_symbol
_atom_site_label
_atom_site_fract_x
_atom_site_fract_y
_atom_site_fract_z
Si Si1 0.750000 0.250000 0.838351
Si Si2 0.382524 0.811047 0.178417
Si Si3 0.064441 0.108687 0.450379
Si Si4 0.000000 0.500000 0.470359
Si Si5 0.113519 0.190550 0.084216
Si Si6 0.528330 0.115045 0.814257
Si Si7 0.240483 0.509048 0.080092
O O1 0.855352 0.181695 0.889313
O O2 0.664875 0.167382 0.789219
O O3 0.250000 0.750000 0.163977
O O4 0.504463 0.753670 0.134728
O O5 0.415792 0.817905 0.272857
O O6 0.343630 0.921930 0.141327
O O7 0.167680 0.077324 0.520933
O O8 0.948812 0.169256 0.496549
O O9 0.000000 0.000000 0.418736
O O10 0.035170 0.405805 0.409716
O O11 0.125146 0.534425 0.522042
O O12 0.250000 0.250000 0.079619
O O13 0.160727 0.076972 0.115701
O O14 0.500000 0.000000 0.783007
#
# Coordination Sequence:
#
# PCOD9354566 Si02
#       7
#     4   8   8   4   8   8   8
#     4  12  22  48  72  90 154 194 230 298 368 422
#     4  12  26  47  68 100 143 191 232 297 361 431
#     4  10  21  41  68 104 134 176 232 299 363 421
#     4  10  22  44  70 104 136 184 230 296 362 414
#     4  11  25  37  70 110 129 176 244 286 358 428
#     4  10  27  45  67 100 139 191 242 276 359 441
#     4  11  22  43  73 100 141 176 233 310 349 417
#
# _framework density 22.107734000000001
#
# number of rings (size 3 to 8) (size 9 to 14) (size 15 to 20)
#    0.500    0.667    3.333    2.000    7.000    0.000 
#    9.000    0.000    0.000    0.000    0.000    0.000 
#    0.000    0.000    0.000    0.000    0.000    0.000 
#
# Total GULP energy -133867.471249 kJ/mol
# GULP energy per Si atom -5577.811302 kJ/mol
# Density = 2.205742 g / cm^3
# Si number density = 22.107734 Si / 1000 Ang^3
#
#
#
# Elastic Constant Matrix: (Units=GPa)
#
#
# Indices 1 2 3 4 5 6 
#
# 1 158.6617 57.6338 29.4642 0.0000 0.0000 0.0000
# 2 57.6338 103.4088 26.7572 0.0000 0.0000 0.0000
# 3 29.4642 26.7572 34.8898 0.0000 0.0000 0.0000
# 4 0.0000 0.0000 0.0000 -70.7596 0.0000 0.0000
# 5 0.0000 0.0000 0.0000 0.0000 36.7875 0.0000
# 6 0.0000 0.0000 0.0000 0.0000 0.0000 57.3243
#
#
#
# Elastic Compliance Matrix: (Units=1/GPa)
#
#
# Indices 1 2 3 4 5 6 
#
# 1 0.008406 -0.003553 -0.004374 0.000000 0.000000 0.000000
# 2 -0.003553 0.013566 -0.007404 0.000000 0.000000 0.000000
# 3 -0.004374 -0.007404 0.038033 0.000000 0.000000 0.000000
# 4 0.000000 0.000000 0.000000 -0.014132 0.000000 0.000000
# 5 0.000000 0.000000 0.000000 0.000000 0.027183 0.000000
# 6 0.000000 0.000000 0.000000 0.000000 0.000000 0.017445
#
#
# Mechanical properties :
#
#
# Convention : Reuss Voigt Hill
#
# Bulk Modulus (GPa) = 34.07803 58.29673 46.18738
# Shear Modulus (GPa) = 38.18488 16.87744 27.53116
#
# Velocity S-wave (km/s) = 4.16049 2.76600 3.53273
# Velocity P-wave (km/s) = 6.20706 6.05208 6.13006
#
# Compressibility (1/GPa) = 0.02934442
#
# Stress axis : x y z
#
# Youngs Moduli (GPa) = 118.96880 73.71199 26.29307
#
# Poissons Ratio (x) = 0.26191 0.11499
# Poissons Ratio (y) = 0.42271 0.19466
# Poissons Ratio (z) = 0.52031 0.54573
#
# Static dielectric constant tensor:
#      x y z
#    x 1.833730 0.000000 0.000000 
#    y 0.000000 1.991400 0.000000 
#    z 0.000000 0.000000 1.784220 
# 
# From -- ./inp_files/14538.got.cif
#   From: 2010.05.17/outbox.cif.g08.bks.cpg/sg37_8_cif.got.tgz:14538.got - 2010.06.03 17:53:42.
