data_PCOD9354169
_publ_section_title
;
Structure prediction by ZEFSAII (Michael W. Deem and Ramdas Pophale) SiO2 
 PCOD9354169
Probable space group: C C C 2
;
_chemical_formula_sum "Si O2"
_cell_formula_units_Z 56
_cell_length_a 7.313018
_cell_length_b 20.837492
_cell_length_c 15.687528
_cell_angle_alpha 90.000000
_cell_angle_beta 90.000000
_cell_angle_gamma 90.000000
_cell_volume 2390.543234
_symmetry_space_group_name_H-M "C C C 2"
_symmetry_group_IT_number 37
_symmetry_cell_setting 'orthorhombic'
loop_
_space_group_symop_operation_xyz
x,y,z
-x,-y,z
-x,y,1/2+z
x,-y,1/2+z
1/2+x,1/2+y,z
1/2-x,1/2-y,z
1/2-x,1/2+y,1/2+z
1/2+x,1/2-y,1/2+z
loop_
_atom_site_type_symbol
_atom_site_label
_atom_site_fract_x
_atom_site_fract_y
_atom_site_fract_z
Si Si1 0.034633 0.885894 0.050940
Si Si2 0.513277 0.805300 0.686247
Si Si3 0.696435 0.033866 0.954639
Si Si4 0.431784 0.657779 0.224197
Si Si5 0.819820 0.909821 0.884881
Si Si6 0.574216 0.846099 0.357708
Si Si7 0.032060 0.256392 0.001852
O O1 0.184491 0.941827 0.034969
O O2 0.979561 0.883416 0.148994
O O3 0.068035 0.809683 0.030024
O O4 0.879490 0.899063 0.981835
O O5 0.507779 0.731530 0.718930
O O6 0.715476 0.835042 0.698142
O O7 0.387217 0.838485 0.757688
O O8 0.473819 0.802420 0.585643
O O9 0.500000 0.000000 0.974785
O O10 0.688206 0.101065 0.905938
O O11 0.790752 0.985707 0.887570
O O12 0.446401 0.623614 0.314873
O O13 0.628607 0.875836 0.867103
O O14 0.559736 0.783330 0.416567
O O15 0.250000 0.250000 0.984230
#
# Coordination Sequence:
#
# PCOD9354169 Si02
#       7
#     8   8   8   8   8   8   8
#     4  11  21  39  64  91 121 162 204 259 318 363
#     4   9  19  35  59  90 130 157 197 249 317 377
#     4  10  23  41  60  87 122 164 217 257 297 372
#     4   9  19  36  62  90 119 161 201 253 312 371
#     4  10  20  40  64  84 122 166 211 251 306 370
#     4  10  20  39  63  91 124 166 195 253 323 368
#     4  11  21  37  63  97 127 159 203 258 317 388
#
# _framework density 23.425640000000001
#
# number of rings (size 3 to 8) (size 9 to 14) (size 15 to 20)
#    0.000    2.000    1.429    2.143    2.000    1.714 
#    7.714    9.286    0.000    0.000    0.000    0.000 
#    0.000    0.000    0.000    0.000    0.000    0.000 
#
# Total GULP energy -156202.564557 kJ/mol
# GULP energy per Si atom -5578.663020 kJ/mol
# Density = 2.337232 g / cm^3
# Si number density = 23.425640 Si / 1000 Ang^3
#
#
#
# Elastic Constant Matrix: (Units=GPa)
#
#
# Indices 1 2 3 4 5 6 
#
# 1 60.2348 12.2836 18.2887 0.0000 0.0000 0.0000
# 2 12.2836 55.5344 20.8595 0.0000 0.0000 0.0000
# 3 18.2887 20.8595 92.2011 0.0000 0.0000 0.0000
# 4 0.0000 0.0000 0.0000 37.4910 0.0000 0.0000
# 5 0.0000 0.0000 0.0000 0.0000 -29.4589 0.0000
# 6 0.0000 0.0000 0.0000 0.0000 0.0000 33.1269
#
#
#
# Elastic Compliance Matrix: (Units=1/GPa)
#
#
# Indices 1 2 3 4 5 6 
#
# 1 0.018083 -0.002899 -0.002931 0.000000 0.000000 0.000000
# 2 -0.002899 0.020144 -0.003982 0.000000 0.000000 0.000000
# 3 -0.002931 -0.003982 0.012328 0.000000 0.000000 0.000000
# 4 0.000000 0.000000 0.000000 0.026673 0.000000 0.000000
# 5 0.000000 0.000000 0.000000 0.000000 -0.033946 0.000000
# 6 0.000000 0.000000 0.000000 0.000000 0.000000 0.030187
#
#
# Mechanical properties :
#
#
# Convention : Reuss Voigt Hill
#
# Bulk Modulus (GPa) = 32.33046 34.53708 33.43377
# Shear Modulus (GPa) = 48.35420 18.66772 33.51096
#
# Velocity S-wave (km/s) = 4.54823 2.82599 3.78633
# Velocity P-wave (km/s) = 6.43530 5.04218 5.78086
#
# Compressibility (1/GPa) = 0.03093059
#
# Stress axis : x y z
#
# Youngs Moduli (GPa) = 55.30122 49.64291 81.11485
#
# Poissons Ratio (x) = 0.14390 0.23775
# Poissons Ratio (y) = 0.16031 0.32303
# Poissons Ratio (z) = 0.16209 0.19769
#
# Static dielectric constant tensor:
#      x y z
#    x 2.025890 0.000000 0.000000 
#    y 0.000000 1.924170 0.000000 
#    z 0.000000 0.000000 1.906380 
# 
# From -- ./inp_files/10820.got.cif
#   From: 2010.05.17/outbox.cif.g08.bks.cpg/sg37_6_cif.got.tgz:10820.got - 2010.06.03 17:53:42.
