data_PCOD9354412
_publ_section_title
;
Structure prediction by ZEFSAII (Michael W. Deem and Ramdas Pophale) SiO2 
 PCOD9354412
Probable space group: C C C 2
;
_chemical_formula_sum "Si O2"
_cell_formula_units_Z 48
_cell_length_a 8.208496
_cell_length_b 15.593473
_cell_length_c 17.996243
_cell_angle_alpha 90.000000
_cell_angle_beta 90.000000
_cell_angle_gamma 90.000000
_cell_volume 2303.500401
_symmetry_space_group_name_H-M "C C C 2"
_symmetry_group_IT_number 37
_symmetry_cell_setting 'orthorhombic'
loop_
_space_group_symop_operation_xyz
x,y,z
-x,-y,z
-x,y,1/2+z
x,-y,1/2+z
1/2+x,1/2+y,z
1/2-x,1/2-y,z
1/2-x,1/2+y,1/2+z
1/2+x,1/2-y,1/2+z
loop_
_atom_site_type_symbol
_atom_site_label
_atom_site_fract_x
_atom_site_fract_y
_atom_site_fract_z
Si Si1 0.691876 0.980534 0.167650
Si Si2 0.740727 0.655752 0.443342
Si Si3 0.415362 0.408550 0.870175
Si Si4 0.774676 0.342687 0.229538
Si Si5 0.194241 0.984191 0.512518
Si Si6 0.350219 0.837766 0.780324
O O1 0.741332 0.944139 0.087903
O O2 0.731450 0.916047 0.234793
O O3 0.500000 0.000000 0.168074
O O4 0.767533 0.074484 0.180367
O O5 0.750000 0.750000 0.476889
O O6 0.559366 0.644124 0.409225
O O7 0.773144 0.577240 0.497969
O O8 0.848178 0.648999 0.368824
O O9 0.500000 0.500000 0.848320
O O10 0.333728 0.357758 0.803374
O O11 0.288680 0.432015 0.935887
O O12 0.750000 0.250000 0.193961
O O13 0.964134 0.339853 0.253196
O O14 0.000000 0.000000 0.520373
O O15 0.250000 0.750000 0.765826
#
# Coordination Sequence:
#
# PCOD9354412 Si02
#       6
#     8   8   8   8   8   8
#     4  10  22  38  54  78 113 146 181 223 271 325
#     4   9  17  33  56  80 107 137 175 226 272 317
#     4   9  19  37  56  80 108 141 184 225 271 327
#     4  11  22  35  57  86 110 142 185 225 272 330
#     4   9  20  35  54  78 107 145 181 216 269 325
#     4  10  21  38  58  82 110 143 183 229 276 322
#
# _framework density 20.837852999999999
#
# number of rings (size 3 to 8) (size 9 to 14) (size 15 to 20)
#    0.000    2.667    0.000    4.000    0.000    5.333 
#    0.000    5.833    0.000    0.000    0.000    0.000 
#    0.000    0.000    0.000    0.000    0.000    0.000 
#
# Total GULP energy -133860.941776 kJ/mol
# GULP energy per Si atom -5577.539241 kJ/mol
# Density = 2.079042 g / cm^3
# Si number density = 20.837853 Si / 1000 Ang^3
#
#
#
# Elastic Constant Matrix: (Units=GPa)
#
#
# Indices 1 2 3 4 5 6 
#
# 1 25.7489 2.0854 -10.1280 0.0000 0.0000 0.0000
# 2 2.0854 81.0685 -3.4867 0.0000 0.0000 0.0000
# 3 -10.1280 -3.4867 41.2645 0.0000 0.0000 0.0000
# 4 0.0000 0.0000 0.0000 7.6071 0.0000 0.0000
# 5 0.0000 0.0000 0.0000 0.0000 15.2916 0.0000
# 6 0.0000 0.0000 0.0000 0.0000 0.0000 25.6738
#
#
#
# Elastic Compliance Matrix: (Units=1/GPa)
#
#
# Indices 1 2 3 4 5 6 
#
# 1 0.043021 -0.000655 0.010504 0.000000 0.000000 0.000000
# 2 -0.000655 0.012390 0.000886 0.000000 0.000000 0.000000
# 3 0.010504 0.000886 0.026887 0.000000 0.000000 0.000000
# 4 0.000000 0.000000 0.000000 0.131456 0.000000 0.000000
# 5 0.000000 0.000000 0.000000 0.000000 0.065395 0.000000
# 6 0.000000 0.000000 0.000000 0.000000 0.000000 0.038950
#
#
# Mechanical properties :
#
#
# Convention : Reuss Voigt Hill
#
# Bulk Modulus (GPa) = 9.63682 13.89147 11.76414
# Shear Modulus (GPa) = 15.09574 20.35524 17.72549
#
# Velocity S-wave (km/s) = 2.69446 3.12883 2.91974
# Velocity P-wave (km/s) = 3.78350 4.44227 4.12605
#
# Compressibility (1/GPa) = 0.10376865
#
# Stress axis : x y z
#
# Youngs Moduli (GPa) = 23.24434 80.70885 37.19283
#
# Poissons Ratio (x) = 0.05286 -0.39067
# Poissons Ratio (y) = 0.01522 -0.03296
# Poissons Ratio (z) = -0.24416 -0.07152
#
# Static dielectric constant tensor:
#      x y z
#    x 1.772750 0.000000 0.000000 
#    y 0.000000 1.799460 0.000000 
#    z 0.000000 0.000000 1.738240 
# 
# From -- ./inp_files/14498.got.cif
#   From: 2010.05.17/outbox.cif.g08.bks.cpg/sg37_8_cif.got.tgz:14498.got - 2010.06.03 17:53:42.
