data_PCOD9354807
_publ_section_title
;
Structure prediction by ZEFSAII (Michael W. Deem and Ramdas Pophale) SiO2 
 PCOD9354807
Probable space group: C C C 2
;
_chemical_formula_sum "Si O2"
_cell_formula_units_Z 48
_cell_length_a 7.172823
_cell_length_b 23.091037
_cell_length_c 13.353632
_cell_angle_alpha 90.000000
_cell_angle_beta 90.000000
_cell_angle_gamma 90.000000
_cell_volume 2211.734310
_symmetry_space_group_name_H-M "C C C 2"
_symmetry_group_IT_number 37
_symmetry_cell_setting 'orthorhombic'
loop_
_space_group_symop_operation_xyz
x,y,z
-x,-y,z
-x,y,1/2+z
x,-y,1/2+z
1/2+x,1/2+y,z
1/2-x,1/2-y,z
1/2-x,1/2+y,1/2+z
1/2+x,1/2-y,1/2+z
loop_
_atom_site_type_symbol
_atom_site_label
_atom_site_fract_x
_atom_site_fract_y
_atom_site_fract_z
Si Si1 0.250000 0.250000 0.144140
Si Si2 0.651174 0.115805 0.877951
Si Si3 0.636928 0.552802 0.785333
Si Si4 0.067259 0.859742 0.449507
Si Si5 0.648196 0.369292 0.679098
Si Si6 0.000000 0.500000 0.828817
Si Si7 0.533542 0.232368 0.973492
O O1 0.352674 0.300539 0.204245
O O2 0.414229 0.223417 0.074709
O O3 0.693473 0.112096 0.757994
O O4 0.566040 0.053223 0.898035
O O5 0.850621 0.121792 0.933890
O O6 0.540087 0.173840 0.908468
O O7 0.500000 0.500000 0.815272
O O8 0.529411 0.591546 0.705173
O O9 0.831390 0.523523 0.761558
O O10 0.670966 0.598682 0.873316
O O11 0.062136 0.790670 0.429046
O O12 0.149627 0.869978 0.559464
O O13 0.750000 0.250000 0.993580
#
# Coordination Sequence:
#
# PCOD9354807 Si02
#       7
#     4   8   8   8   8   4   8
#     4  10  22  40  68 102 130 178 226 278 346 432
#     4  10  22  42  67  97 139 171 221 288 335 412
#     4  11  23  45  62  93 135 178 228 280 338 409
#     4   9  20  42  70  93 127 178 217 278 343 405
#     4  10  22  42  68  99 132 173 225 279 349 410
#     4  12  24  44  62  96 134 178 234 278 336 414
#     4   9  20  40  67  96 134 165 218 280 338 407
#
# _framework density 21.702424000000001
#
# number of rings (size 3 to 8) (size 9 to 14) (size 15 to 20)
#    0.000    2.000    3.333    0.000   10.500    0.667 
#    9.000    1.667    0.000    0.000    0.000    0.000 
#    0.000    0.000    0.000    0.000    0.000    0.000 
#
# Total GULP energy -133661.741809 kJ/mol
# GULP energy per Si atom -5569.239242 kJ/mol
# Density = 2.165303 g / cm^3
# Si number density = 21.702424 Si / 1000 Ang^3
#
#
#
# Elastic Constant Matrix: (Units=GPa)
#
#
# Indices 1 2 3 4 5 6 
#
# 1 85.3670 63.3890 -0.8580 0.0000 0.0000 0.0000
# 2 63.3890 183.1935 37.7413 0.0000 0.0000 0.0000
# 3 -0.8580 37.7413 59.7671 0.0000 0.0000 0.0000
# 4 0.0000 0.0000 0.0000 126.3679 0.0000 0.0000
# 5 0.0000 0.0000 0.0000 0.0000 13.8954 0.0000
# 6 0.0000 0.0000 0.0000 0.0000 0.0000 56.6195
#
#
#
# Elastic Compliance Matrix: (Units=1/GPa)
#
#
# Indices 1 2 3 4 5 6 
#
# 1 0.016748 -0.006719 0.004483 0.000000 0.000000 0.000000
# 2 -0.006719 0.008970 -0.005761 0.000000 0.000000 0.000000
# 3 0.004483 -0.005761 0.020434 0.000000 0.000000 0.000000
# 4 0.000000 0.000000 0.000000 0.007913 0.000000 0.000000
# 5 0.000000 0.000000 0.000000 0.000000 0.071966 0.000000
# 6 0.000000 0.000000 0.000000 0.000000 0.000000 0.017662
#
#
# Mechanical properties :
#
#
# Convention : Reuss Voigt Hill
#
# Bulk Modulus (GPa) = 33.15734 58.76358 45.96046
# Shear Modulus (GPa) = 29.45671 54.58025 42.01848
#
# Velocity S-wave (km/s) = 3.68815 5.02036 4.40491
# Velocity P-wave (km/s) = 5.78342 7.79365 6.86254
#
# Compressibility (1/GPa) = 0.03015924
#
# Stress axis : x y z
#
# Youngs Moduli (GPa) = 59.70757 111.47662 48.93822
#
# Poissons Ratio (x) = 0.74900 -0.21940
# Poissons Ratio (y) = 0.40117 0.28194
# Poissons Ratio (z) = -0.26768 0.64223
#
# Static dielectric constant tensor:
#      x y z
#    x 1.863170 0.000000 0.000000 
#    y 0.000000 1.855080 0.000000 
#    z 0.000000 0.000000 1.790790 
# 
# From -- ./inp_files/10730.got.cif
#   From: 2010.05.17/outbox.cif.g08.bks.cpg/sg37_6_cif.got.tgz:10730.got - 2010.06.03 17:53:42.
