data_PCOD9354193
_publ_section_title
;
Structure prediction by ZEFSAII (Michael W. Deem and Ramdas Pophale) SiO2 
 PCOD9354193
Probable space group: C C C 2
;
_chemical_formula_sum "Si O2"
_cell_formula_units_Z 48
_cell_length_a 14.555101
_cell_length_b 8.249748
_cell_length_c 18.201143
_cell_angle_alpha 90.000000
_cell_angle_beta 90.000000
_cell_angle_gamma 90.000000
_cell_volume 2185.518906
_symmetry_space_group_name_H-M "C C C 2"
_symmetry_group_IT_number 37
_symmetry_cell_setting 'orthorhombic'
loop_
_space_group_symop_operation_xyz
x,y,z
-x,-y,z
-x,y,1/2+z
x,-y,1/2+z
1/2+x,1/2+y,z
1/2-x,1/2-y,z
1/2-x,1/2+y,1/2+z
1/2+x,1/2-y,1/2+z
loop_
_atom_site_type_symbol
_atom_site_label
_atom_site_fract_x
_atom_site_fract_y
_atom_site_fract_z
Si Si1 0.112262 0.993163 0.378900
Si Si2 0.102126 0.334824 0.332147
Si Si3 0.849441 0.830428 0.624846
Si Si4 0.778046 0.934400 0.026991
Si Si5 0.915320 0.612585 0.505759
Si Si6 0.894468 0.687344 0.783233
O O1 0.159080 0.987940 0.458388
O O2 0.137850 0.823456 0.340682
O O3 0.144685 0.153115 0.332972
O O4 0.000000 0.000000 0.383319
O O5 0.081066 0.353230 0.419137
O O6 0.143123 0.505647 0.301688
O O7 0.004292 0.322979 0.292163
O O8 0.750000 0.750000 0.613749
O O9 0.916075 0.761679 0.561838
O O10 0.877102 0.766016 0.704043
O O11 0.829731 0.015564 0.602487
O O12 0.750000 0.750000 0.024662
O O13 0.681469 0.025650 0.017942
O O14 0.000000 0.500000 0.524837
#
# Coordination Sequence:
#
# PCOD9354193 Si02
#       6
#     8   8   8   8   8   8
#     4  10  22  42  68 102 136 173 234 292 342 425
#     4  10  20  39  69  96 133 175 231 278 355 414
#     4  10  24  44  62  96 145 178 226 293 351 424
#     4  11  24  41  69 102 135 186 235 289 353 415
#     4  11  22  42  68  99 133 177 236 286 345 421
#     4  10  21  40  63  99 135 179 225 283 353 427
#
# _framework density 21.962748000000001
#
# number of rings (size 3 to 8) (size 9 to 14) (size 15 to 20)
#    0.000    1.667    3.333    1.000    4.667    2.000 
#    6.000    4.167    0.000    0.000    0.000    0.000 
#    0.000    0.000    0.000    0.000    0.000    0.000 
#
# Total GULP energy -133844.778298 kJ/mol
# GULP energy per Si atom -5576.865762 kJ/mol
# Density = 2.191276 g / cm^3
# Si number density = 21.962748 Si / 1000 Ang^3
#
#
#
# Elastic Constant Matrix: (Units=GPa)
#
#
# Indices 1 2 3 4 5 6 
#
# 1 67.6835 36.3398 44.9263 0.0000 0.0000 0.0000
# 2 36.3398 159.3528 46.3367 0.0000 0.0000 0.0000
# 3 44.9263 46.3367 99.5910 0.0000 0.0000 0.0000
# 4 0.0000 0.0000 0.0000 19.0899 0.0000 0.0000
# 5 0.0000 0.0000 0.0000 0.0000 28.8624 0.0000
# 6 0.0000 0.0000 0.0000 0.0000 0.0000 17.6678
#
#
#
# Elastic Compliance Matrix: (Units=1/GPa)
#
#
# Indices 1 2 3 4 5 6 
#
# 1 0.021888 -0.002452 -0.008733 0.000000 0.000000 0.000000
# 2 -0.002452 0.007532 -0.002398 0.000000 0.000000 0.000000
# 3 -0.008733 -0.002398 0.015096 0.000000 0.000000 0.000000
# 4 0.000000 0.000000 0.000000 0.052384 0.000000 0.000000
# 5 0.000000 0.000000 0.000000 0.000000 0.034647 0.000000
# 6 0.000000 0.000000 0.000000 0.000000 0.000000 0.056600
#
#
# Mechanical properties :
#
#
# Convention : Reuss Voigt Hill
#
# Bulk Modulus (GPa) = 57.63782 64.64810 61.14296
# Shear Modulus (GPa) = 22.61452 26.39231 24.50342
#
# Velocity S-wave (km/s) = 3.21234 3.47029 3.34380
# Velocity P-wave (km/s) = 6.32924 6.74956 6.54277
#
# Compressibility (1/GPa) = 0.01734972
#
# Stress axis : x y z
#
# Youngs Moduli (GPa) = 45.68752 132.76813 66.24108
#
# Poissons Ratio (x) = 0.32556 0.57848
# Poissons Ratio (y) = 0.11203 0.15886
# Poissons Ratio (z) = 0.39898 0.31841
#
# Static dielectric constant tensor:
#      x y z
#    x 1.784240 0.000000 0.000000 
#    y 0.000000 1.906340 0.000000 
#    z 0.000000 0.000000 1.835370 
# 
# From -- ./inp_files/15223.got.cif
#   From: 2010.05.17/outbox.cif.g08.bks.cpg/sg37_8_cif.got.tgz:15223.got - 2010.06.03 17:53:42.
