data_PCOD9354352
_publ_section_title
;
Structure prediction by ZEFSAII (Michael W. Deem and Ramdas Pophale) SiO2 
 PCOD9354352
Probable space group: C C C 2
;
_chemical_formula_sum "Si O2"
_cell_formula_units_Z 64
_cell_length_a 15.952246
_cell_length_b 7.823611
_cell_length_c 25.540608
_cell_angle_alpha 90.000000
_cell_angle_beta 90.000000
_cell_angle_gamma 90.000000
_cell_volume 3187.574313
_symmetry_space_group_name_H-M "C C C 2"
_symmetry_group_IT_number 37
_symmetry_cell_setting 'orthorhombic'
loop_
_space_group_symop_operation_xyz
x,y,z
-x,-y,z
-x,y,1/2+z
x,-y,1/2+z
1/2+x,1/2+y,z
1/2-x,1/2-y,z
1/2-x,1/2+y,1/2+z
1/2+x,1/2-y,1/2+z
loop_
_atom_site_type_symbol
_atom_site_label
_atom_site_fract_x
_atom_site_fract_y
_atom_site_fract_z
Si Si1 0.096728 0.954174 0.443580
Si Si2 0.903237 0.043862 0.326195
Si Si3 0.405548 0.947964 0.558663
Si Si4 0.751608 0.540103 0.755034
Si Si5 0.901622 0.457058 0.444397
Si Si6 0.261795 0.048793 0.636116
Si Si7 0.173474 0.884071 0.542307
Si Si8 0.598406 0.956182 0.829589
O O1 0.115561 0.020874 0.385359
O O2 0.108166 0.748262 0.442348
O O3 0.154379 0.002930 0.492723
O O4 0.000000 0.000000 0.453921
O O5 0.832626 0.985088 0.285536
O O6 0.898348 0.249818 0.328988
O O7 0.000000 0.000000 0.313490
O O8 0.372063 0.017153 0.501846
O O9 0.403351 0.743281 0.552424
O O10 0.500000 0.000000 0.566113
O O11 0.348027 0.002863 0.606696
O O12 0.750000 0.750000 0.754965
O O13 0.754936 0.480984 0.695013
O O14 0.835052 0.485112 0.786352
O O15 0.872043 0.519119 0.387453
O O16 0.000000 0.500000 0.444589
O O17 0.250000 0.250000 0.638893
O O18 0.193744 0.977041 0.595839
O O19 0.250000 0.750000 0.532049
O O20 0.500000 0.000000 0.821592
#
# Coordination Sequence:
#
# PCOD9354352 Si02
#       8
#     8   8   8   8   8   8   8   8
#     4   9  17  29  51  78 101 125 161 204 247 301
#     4   9  18  34  53  75 103 132 162 204 255 304
#     4   9  18  34  54  75 101 133 165 203 253 308
#     4   9  19  35  53  72  99 136 173 207 250 299
#     4   8  15  28  49  76 104 128 156 198 252 305
#     4  10  21  36  50  71 102 134 173 216 250 291
#     4   9  19  34  51  74 102 133 167 204 252 306
#     4   9  17  32  55  79 101 129 166 206 248 302
#
# _framework density 20.077964000000001
#
# number of rings (size 3 to 8) (size 9 to 14) (size 15 to 20)
#    0.000    3.000    0.000    0.000    0.000    8.000 
#    0.000    8.750    0.000    0.000    0.000    0.000 
#    0.000    0.000    0.000    0.000    0.000    0.000 
#
# Total GULP energy -178214.271108 kJ/mol
# GULP energy per Si atom -5569.195972 kJ/mol
# Density = 2.003227 g / cm^3
# Si number density = 20.077964 Si / 1000 Ang^3
#
#
#
# Elastic Constant Matrix: (Units=GPa)
#
#
# Indices 1 2 3 4 5 6 
#
# 1 90.6738 10.1222 98.8191 0.0000 0.0000 0.0000
# 2 10.1222 20.0223 17.3788 0.0000 0.0000 0.0000
# 3 98.8191 17.3788 231.9148 0.0000 0.0000 0.0000
# 4 0.0000 0.0000 0.0000 19.0714 0.0000 0.0000
# 5 0.0000 0.0000 0.0000 0.0000 -19.6338 0.0000
# 6 0.0000 0.0000 0.0000 0.0000 0.0000 28.8995
#
#
#
# Elastic Compliance Matrix: (Units=1/GPa)
#
#
# Indices 1 2 3 4 5 6 
#
# 1 0.020759 -0.003013 -0.008620 0.000000 0.000000 0.000000
# 2 -0.003013 0.053856 -0.002752 0.000000 0.000000 0.000000
# 3 -0.008620 -0.002752 0.008191 0.000000 0.000000 0.000000
# 4 0.000000 0.000000 0.000000 0.052435 0.000000 0.000000
# 5 0.000000 0.000000 0.000000 0.000000 -0.050933 0.000000
# 6 0.000000 0.000000 0.000000 0.000000 0.000000 0.034603
#
#
# Mechanical properties :
#
#
# Convention : Reuss Voigt Hill
#
# Bulk Modulus (GPa) = 18.50592 66.13905 42.32248
# Shear Modulus (GPa) = 30.17653 20.08679 25.13166
#
# Velocity S-wave (km/s) = 3.88102 3.16640 3.54178
# Velocity P-wave (km/s) = 5.41480 6.81034 6.15227
#
# Compressibility (1/GPa) = 0.05403677
#
# Stress axis : x y z
#
# Youngs Moduli (GPa) = 48.17252 18.56802 122.08616
#
# Poissons Ratio (x) = 0.05595 1.05233
# Poissons Ratio (y) = 0.14514 0.33597
# Poissons Ratio (z) = 0.41522 0.05110
#
# Static dielectric constant tensor:
#      x y z
#    x 1.712550 0.000000 0.000000 
#    y 0.000000 1.773960 0.000000 
#    z 0.000000 0.000000 1.767960 
# 
# From -- ./inp_files/18538.got.cif
#   From: 2010.05.17/outbox.cif.g08.bks.cpg/sg37_10_cif.got.tgz:18538.got - 2010.06.03 17:53:42.
