data_PCOD9354524
_publ_section_title
;
Structure prediction by ZEFSAII (Michael W. Deem and Ramdas Pophale) SiO2 
 PCOD9354524
Probable space group: C C C 2
;
_chemical_formula_sum "Si O2"
_cell_formula_units_Z 36
_cell_length_a 24.870038
_cell_length_b 11.715331
_cell_length_c 5.013045
_cell_angle_alpha 90.000000
_cell_angle_beta 90.000000
_cell_angle_gamma 90.000000
_cell_volume 1460.604436
_symmetry_space_group_name_H-M "C C C 2"
_symmetry_group_IT_number 37
_symmetry_cell_setting 'orthorhombic'
loop_
_space_group_symop_operation_xyz
x,y,z
-x,-y,z
-x,y,1/2+z
x,-y,1/2+z
1/2+x,1/2+y,z
1/2-x,1/2-y,z
1/2-x,1/2+y,1/2+z
1/2+x,1/2-y,1/2+z
loop_
_atom_site_type_symbol
_atom_site_label
_atom_site_fract_x
_atom_site_fract_y
_atom_site_fract_z
Si Si1 0.558703 0.579737 0.781270
Si Si2 0.818885 0.934249 0.753640
Si Si3 0.750000 0.250000 0.154631
Si Si4 0.654554 0.083158 0.991538
Si Si5 0.533478 0.166883 0.131966
O O1 0.551018 0.475744 0.572613
O O2 0.621570 0.609801 0.792062
O O3 0.532946 0.694915 0.669355
O O4 0.776167 0.844185 0.840928
O O5 0.812026 0.957279 0.441249
O O6 0.699870 0.183329 0.013488
O O7 0.593277 0.130632 0.038668
O O8 0.661149 0.985876 0.217669
O O9 0.512072 0.129006 0.421159
#
# Coordination Sequence:
#
# PCOD9354524 Si02
#       5
#     8   8   4   8   8
#     4  10  21  40  65  98 139 178 226 285 347 414
#     4  10  22  39  64  97 132 175 218 273 348 419
#     4  12  24  48  74 104 142 180 230 300 356 430
#     4  12  29  50  75 109 144 188 243 297 358 431
#     4  12  26  46  73 105 144 194 244 296 356 423
#
# _framework density 24.64733
#
# number of rings (size 3 to 8) (size 9 to 14) (size 15 to 20)
#    0.000    0.889    2.222    4.000    0.000    8.889 
#    0.000    0.000    0.000    0.000    0.000    0.000 
#    0.000    0.000    0.000    0.000    0.000    0.000 
#
# Total GULP energy -100564.688859 kJ/mol
# GULP energy per Si atom -5586.927159 kJ/mol
# Density = 2.459123 g / cm^3
# Si number density = 24.647330 Si / 1000 Ang^3
#
#
#
# Elastic Constant Matrix: (Units=GPa)
#
#
# Indices 1 2 3 4 5 6 
#
# 1 128.1293 -8.8177 -9.6345 0.0000 0.0000 0.0000
# 2 -8.8177 28.5651 -21.5192 0.0000 0.0000 0.0000
# 3 -9.6345 -21.5192 83.4800 0.0000 0.0000 0.0000
# 4 0.0000 0.0000 0.0000 62.3843 0.0000 0.0000
# 5 0.0000 0.0000 0.0000 0.0000 9.6518 0.0000
# 6 0.0000 0.0000 0.0000 0.0000 0.0000 59.4196
#
#
#
# Elastic Compliance Matrix: (Units=1/GPa)
#
#
# Indices 1 2 3 4 5 6 
#
# 1 0.008233 0.004042 0.001992 0.000000 0.000000 0.000000
# 2 0.004042 0.045429 0.012177 0.000000 0.000000 0.000000
# 3 0.001992 0.012177 0.015348 0.000000 0.000000 0.000000
# 4 0.000000 0.000000 0.000000 0.016030 0.000000 0.000000
# 5 0.000000 0.000000 0.000000 0.000000 0.103608 0.000000
# 6 0.000000 0.000000 0.000000 0.000000 0.000000 0.016829
#
#
# Mechanical properties :
#
#
# Convention : Reuss Voigt Hill
#
# Bulk Modulus (GPa) = 9.48486 17.80352 13.64419
# Shear Modulus (GPa) = 24.48609 44.96752 34.72681
#
# Velocity S-wave (km/s) = 3.15534 4.27598 3.75767
# Velocity P-wave (km/s) = 4.13902 5.62296 4.93706
#
# Compressibility (1/GPa) = 0.10543114
#
# Stress axis : x y z
#
# Youngs Moduli (GPa) = 121.46878 22.01245 65.15608
#
# Poissons Ratio (x) = -0.08897 -0.12979
# Poissons Ratio (y) = -0.49097 -0.79340
# Poissons Ratio (z) = -0.24197 -0.26804
#
# Static dielectric constant tensor:
#      x y z
#    x 2.508100 0.000000 0.000000 
#    y 0.000000 -0.369320 0.000000 
#    z 0.000000 0.000000 2.033740 
# 
# From -- ./inp_files/1450.got.cif
#   From: 2010.05.17/outbox.cif.g08.bks.cpg/sg37_1_cif.got.tgz:1450.got - 2010.06.03 17:53:42.
