data_PCOD9354134
_publ_section_title
;
Structure prediction by ZEFSAII (Michael W. Deem and Ramdas Pophale) SiO2 
 PCOD9354134
Probable space group: C C C 2
;
_chemical_formula_sum "Si O2"
_cell_formula_units_Z 64
_cell_length_a 21.392697
_cell_length_b 12.096971
_cell_length_c 11.172197
_cell_angle_alpha 90.000000
_cell_angle_beta 90.000000
_cell_angle_gamma 90.000000
_cell_volume 2891.217504
_symmetry_space_group_name_H-M "C C C 2"
_symmetry_group_IT_number 37
_symmetry_cell_setting 'orthorhombic'
loop_
_space_group_symop_operation_xyz
x,y,z
-x,-y,z
-x,y,1/2+z
x,-y,1/2+z
1/2+x,1/2+y,z
1/2-x,1/2-y,z
1/2-x,1/2+y,1/2+z
1/2+x,1/2-y,1/2+z
loop_
_atom_site_type_symbol
_atom_site_label
_atom_site_fract_x
_atom_site_fract_y
_atom_site_fract_z
Si Si1 0.900042 0.401982 0.210110
Si Si2 0.842027 0.219975 0.607035
Si Si3 0.012646 0.749798 0.652569
Si Si4 0.491407 0.630017 0.408472
Si Si5 0.203453 0.012384 0.684518
Si Si6 0.179120 0.591577 0.776976
Si Si7 0.354904 0.307336 0.852111
Si Si8 0.212865 0.358824 0.533253
O O1 0.968814 0.358733 0.172295
O O2 0.885459 0.523387 0.263233
O O3 0.875105 0.311777 0.304137
O O4 0.850084 0.389689 0.103337
O O5 0.809039 0.320856 0.673160
O O6 0.816646 0.207264 0.472937
O O7 0.914577 0.260721 0.618644
O O8 0.834714 0.100806 0.670991
O O9 0.011945 0.813943 0.781577
O O10 0.985358 0.814336 0.533946
O O11 0.500000 0.500000 0.409377
O O12 0.417142 0.639593 0.404854
O O13 0.167431 0.113578 0.745943
O O14 0.234943 0.047811 0.558805
O O15 0.263800 0.993792 0.768216
O O16 0.189011 0.654783 0.899670
O O17 0.250000 0.250000 0.574635
#
# Coordination Sequence:
#
# PCOD9354134 Si02
#       8
#     8   8   8   8   8   8   8   8
#     4  10  24  43  65  95 132 179 227 277 338 416
#     4  11  24  42  68  99 137 174 225 290 344 413
#     4  10  23  41  65  97 133 184 227 282 353 419
#     4  10  20  38  63  98 135 175 226 279 348 420
#     4  11  22  42  65 104 130 177 219 286 355 408
#     4  11  26  41  64  96 132 176 234 280 337 404
#     4  10  22  41  64  96 135 171 218 277 348 414
#     4  11  22  42  67  98 133 178 230 282 348 420
#
# _framework density 22.136004
#
# number of rings (size 3 to 8) (size 9 to 14) (size 15 to 20)
#    0.000    1.500    1.250    3.000    5.250    3.500 
#    6.750    0.000    0.000    0.000    0.000    0.000 
#    0.000    0.000    0.000    0.000    0.000    0.000 
#
# Total GULP energy -178330.897731 kJ/mol
# GULP energy per Si atom -5572.840554 kJ/mol
# Density = 2.208562 g / cm^3
# Si number density = 22.136004 Si / 1000 Ang^3
#
#
#
# Elastic Constant Matrix: (Units=GPa)
#
#
# Indices 1 2 3 4 5 6 
#
# 1 80.9162 23.9206 1.6817 0.0000 0.0000 0.0000
# 2 23.9206 98.4231 12.4184 0.0000 0.0000 0.0000
# 3 1.6817 12.4184 90.4709 0.0000 0.0000 0.0000
# 4 0.0000 0.0000 0.0000 6.7529 0.0000 0.0000
# 5 0.0000 0.0000 0.0000 0.0000 36.6940 0.0000
# 6 0.0000 0.0000 0.0000 0.0000 0.0000 28.6883
#
#
#
# Elastic Compliance Matrix: (Units=1/GPa)
#
#
# Indices 1 2 3 4 5 6 
#
# 1 0.013319 -0.003262 0.000200 0.000000 0.000000 0.000000
# 2 -0.003262 0.011138 -0.001468 0.000000 0.000000 0.000000
# 3 0.000200 -0.001468 0.011251 0.000000 0.000000 0.000000
# 4 0.000000 0.000000 0.000000 0.148085 0.000000 0.000000
# 5 0.000000 0.000000 0.000000 0.000000 0.027252 0.000000
# 6 0.000000 0.000000 0.000000 0.000000 0.000000 0.034857
#
#
# Mechanical properties :
#
#
# Convention : Reuss Voigt Hill
#
# Bulk Modulus (GPa) = 37.52685 38.42796 37.97741
# Shear Modulus (GPa) = 18.95043 29.87966 24.41504
#
# Velocity S-wave (km/s) = 2.92908 3.67798 3.32468
# Velocity P-wave (km/s) = 5.33188 5.95267 5.65081
#
# Compressibility (1/GPa) = 0.02664758
#
# Stress axis : x y z
#
# Youngs Moduli (GPa) = 75.08248 89.78013 88.88024
#
# Poissons Ratio (x) = 0.29288 -0.01780
# Poissons Ratio (y) = 0.24494 0.13050
# Poissons Ratio (z) = -0.01503 0.13182
#
# Static dielectric constant tensor:
#      x y z
#    x 1.903300 0.000000 0.000000 
#    y 0.000000 1.749730 0.000000 
#    z 0.000000 0.000000 1.894380 
# 
# From -- ./inp_files/8915.got.cif
#   From: 2010.05.17/outbox.cif.g08.bks.cpg/sg37_5_cif.got.tgz:8915.got - 2010.06.03 17:53:42.
