data_PCOD9354794
_publ_section_title
;
Structure prediction by ZEFSAII (Michael W. Deem and Ramdas Pophale) SiO2 
 PCOD9354794
Probable space group: C C C 2
;
_chemical_formula_sum "Si O2"
_cell_formula_units_Z 64
_cell_length_a 11.784137
_cell_length_b 29.771237
_cell_length_c 8.448870
_cell_angle_alpha 90.000000
_cell_angle_beta 90.000000
_cell_angle_gamma 90.000000
_cell_volume 2964.102999
_symmetry_space_group_name_H-M "C C C 2"
_symmetry_group_IT_number 37
_symmetry_cell_setting 'orthorhombic'
loop_
_space_group_symop_operation_xyz
x,y,z
-x,-y,z
-x,y,1/2+z
x,-y,1/2+z
1/2+x,1/2+y,z
1/2-x,1/2-y,z
1/2-x,1/2+y,1/2+z
1/2+x,1/2-y,1/2+z
loop_
_atom_site_type_symbol
_atom_site_label
_atom_site_fract_x
_atom_site_fract_y
_atom_site_fract_z
Si Si1 0.475065 0.093201 0.925670
Si Si2 0.690087 0.204804 0.221003
Si Si3 0.976128 0.342535 0.671992
Si Si4 0.250454 0.053923 0.081679
Si Si5 0.078118 0.126374 0.984176
Si Si6 0.836745 0.876094 0.621638
Si Si7 0.296881 0.954998 0.954952
Si Si8 0.749758 0.301996 0.592979
O O1 0.486671 0.108951 0.744609
O O2 0.568405 0.055713 0.962868
O O3 0.498592 0.143366 0.990839
O O4 0.351267 0.080038 0.987654
O O5 0.750000 0.250000 0.168075
O O6 0.556089 0.199561 0.203210
O O7 0.748173 0.164519 0.125792
O O8 0.713044 0.199804 0.408250
O O9 0.844930 0.329810 0.688289
O O10 0.269333 0.052026 0.269778
O O11 0.134566 0.080930 0.052645
O O12 0.259893 0.004097 0.011175
O O13 0.113077 0.124483 0.799858
O O14 0.135813 0.168392 0.077808
O O15 0.944197 0.129036 0.007312
O O16 0.768694 0.919882 0.566464
O O17 0.750000 0.250000 0.647119
#
# Coordination Sequence:
#
# PCOD9354794 Si02
#       8
#     8   8   8   8   8   8   8   8
#     4  12  23  40  68  96 137 171 219 270 341 399
#     4  10  22  40  65  97 134 179 227 278 337 399
#     4  12  21  41  68  97 135 182 218 280 338 397
#     4  12  26  43  67  99 132 172 220 275 336 406
#     4  11  23  44  66  93 132 177 223 276 333 396
#     4  11  24  43  68  93 133 177 223 277 330 399
#     4  12  26  42  67  99 132 172 221 273 337 406
#     4  10  22  41  66  96 135 180 226 279 337 400
#
# _framework density 21.591691000000001
#
# number of rings (size 3 to 8) (size 9 to 14) (size 15 to 20)
#    0.000    0.750    5.000    2.625    3.500    1.500 
#    0.000    3.125    0.000    0.000    0.000    0.000 
#    0.000    0.000    0.000    0.000    0.000    0.000 
#
# Total GULP energy -178619.942897 kJ/mol
# GULP energy per Si atom -5581.873216 kJ/mol
# Density = 2.154255 g / cm^3
# Si number density = 21.591691 Si / 1000 Ang^3
#
#
#
# Elastic Constant Matrix: (Units=GPa)
#
#
# Indices 1 2 3 4 5 6 
#
# 1 74.2403 15.6297 5.0458 0.0000 0.0000 0.0000
# 2 15.6297 121.8770 16.4418 0.0000 0.0000 0.0000
# 3 5.0458 16.4418 44.3644 0.0000 0.0000 0.0000
# 4 0.0000 0.0000 0.0000 27.0658 0.0000 0.0000
# 5 0.0000 0.0000 0.0000 0.0000 31.6320 0.0000
# 6 0.0000 0.0000 0.0000 0.0000 0.0000 28.1385
#
#
#
# Elastic Compliance Matrix: (Units=1/GPa)
#
#
# Indices 1 2 3 4 5 6 
#
# 1 0.013883 -0.001650 -0.000968 0.000000 0.000000 0.000000
# 2 -0.001650 0.008833 -0.003086 0.000000 0.000000 0.000000
# 3 -0.000968 -0.003086 0.023794 0.000000 0.000000 0.000000
# 4 0.000000 0.000000 0.000000 0.036947 0.000000 0.000000
# 5 0.000000 0.000000 0.000000 0.000000 0.031614 0.000000
# 6 0.000000 0.000000 0.000000 0.000000 0.000000 0.035538
#
#
# Mechanical properties :
#
#
# Convention : Reuss Voigt Hill
#
# Bulk Modulus (GPa) = 28.48716 34.96848 31.72782
# Shear Modulus (GPa) = 28.78250 30.92491 29.85371
#
# Velocity S-wave (km/s) = 3.65504 3.78863 3.72243
# Velocity P-wave (km/s) = 5.57087 5.94716 5.76209
#
# Compressibility (1/GPa) = 0.03510353
#
# Stress axis : x y z
#
# Youngs Moduli (GPa) = 72.03125 113.21351 42.02691
#
# Poissons Ratio (x) = 0.18678 0.04066
# Poissons Ratio (y) = 0.11884 0.12969
# Poissons Ratio (z) = 0.06969 0.34936
#
# Static dielectric constant tensor:
#      x y z
#    x 1.759390 0.000000 0.000000 
#    y 0.000000 1.776480 0.000000 
#    z 0.000000 0.000000 1.797090 
# 
# From -- ./inp_files/3114.got.cif
#   From: 2010.05.17/outbox.cif.g08.bks.cpg/sg37_2_cif.got.tgz:3114.got - 2010.06.03 17:53:42.
