data_PCOD9354072
_publ_section_title
;
Structure prediction by ZEFSAII (Michael W. Deem and Ramdas Pophale) SiO2 
 PCOD9354072
Probable space group: C C C 2
;
_chemical_formula_sum "Si O2"
_cell_formula_units_Z 28
_cell_length_a 12.494465
_cell_length_b 6.733140
_cell_length_c 12.519598
_cell_angle_alpha 90.000000
_cell_angle_beta 90.000000
_cell_angle_gamma 90.000000
_cell_volume 1053.235996
_symmetry_space_group_name_H-M "C C C 2"
_symmetry_group_IT_number 37
_symmetry_cell_setting 'orthorhombic'
loop_
_space_group_symop_operation_xyz
x,y,z
-x,-y,z
-x,y,1/2+z
x,-y,1/2+z
1/2+x,1/2+y,z
1/2-x,1/2-y,z
1/2-x,1/2+y,1/2+z
1/2+x,1/2-y,1/2+z
loop_
_atom_site_type_symbol
_atom_site_label
_atom_site_fract_x
_atom_site_fract_y
_atom_site_fract_z
Si Si1 0.250000 0.250000 0.413381
Si Si2 0.904557 0.765589 0.228813
Si Si3 0.383303 0.103281 0.012173
Si Si4 0.868302 0.298814 0.276554
O O1 0.164330 0.151335 0.328433
O O2 0.195569 0.417767 0.487054
O O3 0.864059 0.758340 0.107813
O O4 0.889233 0.530833 0.256143
O O5 0.030821 0.809515 0.225815
O O6 0.500000 0.000000 0.026979
O O7 0.380335 0.224501 0.902847
O O8 0.750000 0.250000 0.238512
#
# Coordination Sequence:
#
# PCOD9354072 Si02
#       4
#     4   8   8   8
#     4  10  22  40  64  96 132 160 224 270 304 406
#     4  10  21  38  60  93 125 169 215 255 329 378
#     4  11  20  39  64  93 127 173 212 256 333 376
#     4  10  20  37  60  90 125 163 213 265 306 383
#
# _framework density 26.584733
#
# number of rings (size 3 to 8) (size 9 to 14) (size 15 to 20)
#    0.000    1.714    8.571    0.000    4.000    0.000 
#    0.000    5.714    0.000    3.429    0.000    0.000 
#    0.000    0.000    0.000    0.000    0.000    0.000 
#
# Total GULP energy -78277.617626 kJ/mol
# GULP energy per Si atom -5591.258402 kJ/mol
# Density = 2.652423 g / cm^3
# Si number density = 26.584733 Si / 1000 Ang^3
#
#
#
# Elastic Constant Matrix: (Units=GPa)
#
#
# Indices 1 2 3 4 5 6 
#
# 1 226.8669 22.9721 19.3765 0.0000 0.0000 0.0000
# 2 22.9721 80.5960 6.1353 0.0000 0.0000 0.0000
# 3 19.3765 6.1353 148.9902 0.0000 0.0000 0.0000
# 4 0.0000 0.0000 0.0000 13.9211 0.0000 0.0000
# 5 0.0000 0.0000 0.0000 0.0000 33.1903 0.0000
# 6 0.0000 0.0000 0.0000 0.0000 0.0000 38.8921
#
#
#
# Elastic Compliance Matrix: (Units=1/GPa)
#
#
# Indices 1 2 3 4 5 6 
#
# 1 0.004582 -0.001265 -0.000544 0.000000 0.000000 0.000000
# 2 -0.001265 0.012796 -0.000362 0.000000 0.000000 0.000000
# 3 -0.000544 -0.000362 0.006798 0.000000 0.000000 0.000000
# 4 0.000000 0.000000 0.000000 0.071834 0.000000 0.000000
# 5 0.000000 0.000000 0.000000 0.000000 0.030129 0.000000
# 6 0.000000 0.000000 0.000000 0.000000 0.000000 0.025712
#
#
# Mechanical properties :
#
#
# Convention : Reuss Voigt Hill
#
# Bulk Modulus (GPa) = 50.41975 61.49121 55.95548
# Shear Modulus (GPa) = 30.71181 44.39863 37.55522
#
# Velocity S-wave (km/s) = 3.40257 4.09109 3.76262
# Velocity P-wave (km/s) = 5.86886 6.74511 6.32219
#
# Compressibility (1/GPa) = 0.01983350
#
# Stress axis : x y z
#
# Youngs Moduli (GPa) = 218.22706 78.15168 147.11278
#
# Poissons Ratio (x) = 0.09884 0.08001
# Poissons Ratio (y) = 0.27599 0.05332
# Poissons Ratio (z) = 0.11869 0.02833
#
# Static dielectric constant tensor:
#      x y z
#    x 2.124850 0.000000 0.000000 
#    y 0.000000 2.187880 0.000000 
#    z 0.000000 0.000000 2.156200 
# 
# From -- ./inp_files/6792.got.cif
#   From: 2010.05.17/outbox.cif.g08.bks.cpg/sg37_4_cif.got.tgz:6792.got - 2010.06.03 17:53:42.
