data_PCOD9354103
_publ_section_title
;
Structure prediction by ZEFSAII (Michael W. Deem and Ramdas Pophale) SiO2 
 PCOD9354103
Probable space group: C C C 2
;
_chemical_formula_sum "Si O2"
_cell_formula_units_Z 52
_cell_length_a 20.966998
_cell_length_b 6.097606
_cell_length_c 19.573023
_cell_angle_alpha 90.000000
_cell_angle_beta 90.000000
_cell_angle_gamma 90.000000
_cell_volume 2502.381490
_symmetry_space_group_name_H-M "C C C 2"
_symmetry_group_IT_number 37
_symmetry_cell_setting 'orthorhombic'
loop_
_space_group_symop_operation_xyz
x,y,z
-x,-y,z
-x,y,1/2+z
x,-y,1/2+z
1/2+x,1/2+y,z
1/2-x,1/2-y,z
1/2-x,1/2+y,1/2+z
1/2+x,1/2-y,1/2+z
loop_
_atom_site_type_symbol
_atom_site_label
_atom_site_fract_x
_atom_site_fract_y
_atom_site_fract_z
Si Si1 0.342387 0.398688 0.419180
Si Si2 0.750000 0.250000 0.356994
Si Si3 0.100506 0.663373 0.041744
Si Si4 0.362249 0.972003 0.804258
Si Si5 0.956349 0.829990 0.856852
Si Si6 0.000000 0.500000 0.953831
Si Si7 0.500000 0.500000 0.597240
Si Si8 0.430147 0.113435 0.169581
O O1 0.282955 0.560287 0.403429
O O2 0.347589 0.283866 0.493891
O O3 0.348072 0.207249 0.362418
O O4 0.402518 0.553308 0.401804
O O5 0.801629 0.368144 0.308814
O O6 0.044468 0.839840 0.053952
O O7 0.107417 0.540503 0.114213
O O8 0.064625 0.481378 0.995982
O O9 0.383768 0.861915 0.733977
O O10 0.421227 0.135958 0.818252
O O11 0.005350 0.710967 0.906954
O O12 0.000000 0.000000 0.815143
O O13 0.548331 0.347410 0.639823
O O14 0.500000 0.000000 0.182832
#
# Coordination Sequence:
#
# PCOD9354103 Si02
#       8
#     8   4   8   8   8   4   4   8
#     4  11  23  39  68  92 125 167 226 282 333 380
#     4  10  26  46  70  90 116 174 236 286 336 372
#     4  11  20  36  60  93 136 172 206 265 323 405
#     4  11  24  44  63  93 130 172 222 278 327 392
#     4  11  21  32  59  97 129 165 208 265 332 398
#     4  12  18  34  54  98 140 166 202 248 336 408
#     4  10  20  38  56  94 142 182 208 250 334 414
#     4  10  24  37  60  97 139 174 212 260 334 412
#
# _framework density 20.780206
#
# number of rings (size 3 to 8) (size 9 to 14) (size 15 to 20)
#    0.000    1.231    5.385    1.385    3.231    4.923 
#    1.385    0.000    6.769    0.000    0.000    0.000 
#    0.000    0.000    0.000    0.000    0.000    0.000 
#
# Total GULP energy -144961.677229 kJ/mol
# GULP energy per Si atom -5575.449124 kJ/mol
# Density = 2.073291 g / cm^3
# Si number density = 20.780206 Si / 1000 Ang^3
#
#
#
# Elastic Constant Matrix: (Units=GPa)
#
#
# Indices 1 2 3 4 5 6 
#
# 1 77.1426 34.0425 47.4865 0.0000 0.0000 0.0000
# 2 34.0425 102.5703 44.8406 0.0000 0.0000 0.0000
# 3 47.4865 44.8406 99.1489 0.0000 0.0000 0.0000
# 4 0.0000 0.0000 0.0000 13.6860 0.0000 0.0000
# 5 0.0000 0.0000 0.0000 0.0000 9.8106 0.0000
# 6 0.0000 0.0000 0.0000 0.0000 0.0000 44.4922
#
#
#
# Elastic Compliance Matrix: (Units=1/GPa)
#
#
# Indices 1 2 3 4 5 6 
#
# 1 0.019055 -0.002910 -0.007810 0.000000 0.000000 0.000000
# 2 -0.002910 0.012596 -0.004303 0.000000 0.000000 0.000000
# 3 -0.007810 -0.004303 0.015773 0.000000 0.000000 0.000000
# 4 0.000000 0.000000 0.000000 0.073067 0.000000 0.000000
# 5 0.000000 0.000000 0.000000 0.000000 0.101930 0.000000
# 6 0.000000 0.000000 0.000000 0.000000 0.000000 0.022476
#
#
# Mechanical properties :
#
#
# Convention : Reuss Voigt Hill
#
# Bulk Modulus (GPa) = 57.54568 59.06677 58.30623
# Shear Modulus (GPa) = 17.81034 23.76392 20.78713
#
# Velocity S-wave (km/s) = 2.93077 3.38536 3.16624
# Velocity P-wave (km/s) = 6.26141 6.61567 6.44098
#
# Compressibility (1/GPa) = 0.01737750
#
# Stress axis : x y z
#
# Youngs Moduli (GPa) = 52.48038 79.38796 63.40128
#
# Poissons Ratio (x) = 0.23100 0.49517
# Poissons Ratio (y) = 0.15271 0.27282
# Poissons Ratio (z) = 0.40988 0.34162
#
# Static dielectric constant tensor:
#      x y z
#    x 1.783500 0.000000 0.000000 
#    y 0.000000 1.794190 0.000000 
#    z 0.000000 0.000000 1.788990 
# 
# From -- ./inp_files/17472.got.cif
#   From: 2010.05.17/outbox.cif.g08.bks.cpg/sg37_9_cif.got.tgz:17472.got - 2010.06.03 17:53:42.
