data_PCOD9354612
_publ_section_title
;
Structure prediction by ZEFSAII (Michael W. Deem and Ramdas Pophale) SiO2 
 PCOD9354612
Probable space group: C C C 2
;
_chemical_formula_sum "Si O2"
_cell_formula_units_Z 52
_cell_length_a 11.246827
_cell_length_b 24.868907
_cell_length_c 8.879864
_cell_angle_alpha 90.000000
_cell_angle_beta 90.000000
_cell_angle_gamma 90.000000
_cell_volume 2483.665058
_symmetry_space_group_name_H-M "C C C 2"
_symmetry_group_IT_number 37
_symmetry_cell_setting 'orthorhombic'
loop_
_space_group_symop_operation_xyz
x,y,z
-x,-y,z
-x,y,1/2+z
x,-y,1/2+z
1/2+x,1/2+y,z
1/2-x,1/2-y,z
1/2-x,1/2+y,1/2+z
1/2+x,1/2-y,1/2+z
loop_
_atom_site_type_symbol
_atom_site_label
_atom_site_fract_x
_atom_site_fract_y
_atom_site_fract_z
Si Si1 0.000000 0.500000 0.573220
Si Si2 0.824805 0.677209 0.384234
Si Si3 0.584087 0.229062 0.401769
Si Si4 0.134570 0.553765 0.815908
Si Si5 0.296371 0.676471 0.568060
Si Si6 0.135225 0.944628 0.626064
Si Si7 0.500000 0.500000 0.868486
Si Si8 0.250000 0.250000 0.633321
O O1 0.032156 0.547960 0.688289
O O2 0.103224 0.483151 0.457783
O O3 0.850182 0.613940 0.375259
O O4 0.749107 0.689360 0.235366
O O5 0.751723 0.698057 0.526870
O O6 0.951303 0.707694 0.391012
O O7 0.608303 0.280467 0.508456
O O8 0.678052 0.184580 0.465013
O O9 0.635718 0.246016 0.240162
O O10 0.249330 0.537607 0.719816
O O11 0.344535 0.616122 0.571999
O O12 0.102155 0.980767 0.482997
O O13 0.034184 0.952071 0.754153
#
# Coordination Sequence:
#
# PCOD9354612 Si02
#       8
#     4   8   8   8   8   8   4   4
#     4  10  22  42  60 106 122 166 206 250 326 378
#     4  11  22  40  67  90 127 173 203 258 324 371
#     4  10  22  42  62  92 126 166 207 268 310 379
#     4  10  23  39  68  92 133 160 208 262 312 385
#     4   9  21  42  61  91 129 160 212 259 312 377
#     4  10  21  43  63  94 123 169 210 263 316 372
#     4  10  22  42  68  88 130 170 214 264 318 370
#     4  10  22  38  58  96 118 156 218 246 304 384
#
# _framework density 20.936799000000001
#
# number of rings (size 3 to 8) (size 9 to 14) (size 15 to 20)
#    0.000    2.154    0.000    2.769    6.462    0.000 
#   16.615    6.154    0.000    0.000    0.000    0.000 
#    0.000    0.000    0.000    0.000    0.000    0.000 
#
# Total GULP energy -145091.291646 kJ/mol
# GULP energy per Si atom -5580.434294 kJ/mol
# Density = 2.088915 g / cm^3
# Si number density = 20.936799 Si / 1000 Ang^3
#
#
#
# Elastic Constant Matrix: (Units=GPa)
#
#
# Indices 1 2 3 4 5 6 
#
# 1 44.3366 20.7983 34.8830 0.0000 0.0000 0.0000
# 2 20.7983 113.3641 62.7626 0.0000 0.0000 0.0000
# 3 34.8830 62.7626 148.7229 0.0000 0.0000 0.0000
# 4 0.0000 0.0000 0.0000 -62.8643 0.0000 0.0000
# 5 0.0000 0.0000 0.0000 0.0000 27.9873 0.0000
# 6 0.0000 0.0000 0.0000 0.0000 0.0000 29.1946
#
#
#
# Elastic Compliance Matrix: (Units=1/GPa)
#
#
# Indices 1 2 3 4 5 6 
#
# 1 0.027988 -0.001958 -0.005738 0.000000 0.000000 0.000000
# 2 -0.001958 0.011647 -0.004456 0.000000 0.000000 0.000000
# 3 -0.005738 -0.004456 0.009950 0.000000 0.000000 0.000000
# 4 0.000000 0.000000 0.000000 -0.015907 0.000000 0.000000
# 5 0.000000 0.000000 0.000000 0.000000 0.035731 0.000000
# 6 0.000000 0.000000 0.000000 0.000000 0.000000 0.034253
#
#
# Mechanical properties :
#
#
# Convention : Reuss Voigt Hill
#
# Bulk Modulus (GPa) = 39.55520 60.36795 49.96158
# Shear Modulus (GPa) = 36.65863 11.39549 24.02706
#
# Velocity S-wave (km/s) = 4.18894 2.33551 3.39130
# Velocity P-wave (km/s) = 6.50615 6.01405 6.26493
#
# Compressibility (1/GPa) = 0.02528112
#
# Stress axis : x y z
#
# Youngs Moduli (GPa) = 35.72965 85.85606 100.49876
#
# Poissons Ratio (x) = 0.16809 0.57670
# Poissons Ratio (y) = 0.06995 0.44783
# Poissons Ratio (z) = 0.20503 0.38258
#
# Static dielectric constant tensor:
#      x y z
#    x 1.802390 0.000000 0.000000 
#    y 0.000000 1.749570 0.000000 
#    z 0.000000 0.000000 1.749190 
# 
# From -- ./inp_files/3025.got.cif
#   From: 2010.05.17/outbox.cif.g08.bks.cpg/sg37_2_cif.got.tgz:3025.got - 2010.06.03 17:53:42.
