data_PCOD9354094
_publ_section_title
;
Structure prediction by ZEFSAII (Michael W. Deem and Ramdas Pophale) SiO2 
 PCOD9354094
Probable space group: C C C 2
;
_chemical_formula_sum "Si O2"
_cell_formula_units_Z 32
_cell_length_a 4.764705
_cell_length_b 14.075855
_cell_length_c 16.547245
_cell_angle_alpha 90.000000
_cell_angle_beta 90.000000
_cell_angle_gamma 90.000000
_cell_volume 1109.778990
_symmetry_space_group_name_H-M "C C C 2"
_symmetry_group_IT_number 37
_symmetry_cell_setting 'orthorhombic'
loop_
_space_group_symop_operation_xyz
x,y,z
-x,-y,z
-x,y,1/2+z
x,-y,1/2+z
1/2+x,1/2+y,z
1/2-x,1/2-y,z
1/2-x,1/2+y,1/2+z
1/2+x,1/2-y,1/2+z
loop_
_atom_site_type_symbol
_atom_site_label
_atom_site_fract_x
_atom_site_fract_y
_atom_site_fract_z
Si Si1 0.257864 0.084352 0.219240
Si Si2 0.810989 0.647088 0.632019
Si Si3 0.765483 0.635536 0.994886
Si Si4 0.758499 0.864816 0.394285
O O1 0.480711 0.169524 0.206782
O O2 0.978685 0.098609 0.162505
O O3 0.151863 0.090891 0.310152
O O4 0.500000 0.000000 0.210038
O O5 0.750000 0.750000 0.595893
O O6 0.547942 0.606406 0.471205
O O7 0.045207 0.603219 0.570579
O O8 0.750000 0.750000 0.000419
O O9 0.944042 0.607646 0.916762
O O10 0.750000 0.750000 0.388460
#
# Coordination Sequence:
#
# PCOD9354094 Si02
#       4
#     8   8   8   8
#     4  12  26  43  66 105 152 194 237 298 371 447
#     4  12  23  42  71 102 138 189 247 305 368 443
#     4  10  20  37  66 101 133 172 239 312 363 419
#     4  10  20  38  65  98 135 181 236 299 365 435
#
# _framework density 28.834567
#
# number of rings (size 3 to 8) (size 9 to 14) (size 15 to 20)
#    0.000    1.000    0.000    9.750    0.000    2.000 
#    0.000    1.250    0.000   12.000    0.000    0.000 
#    0.000    0.000    0.000    2.500    0.000    0.000 
#
# Total GULP energy -89279.283158 kJ/mol
# GULP energy per Si atom -5579.955197 kJ/mol
# Density = 2.876894 g / cm^3
# Si number density = 28.834567 Si / 1000 Ang^3
#
#
#
# Elastic Constant Matrix: (Units=GPa)
#
#
# Indices 1 2 3 4 5 6 
#
# 1 282.9924 39.7452 95.3634 0.0000 0.0000 0.0000
# 2 39.7452 130.1809 30.3966 0.0000 0.0000 0.0000
# 3 95.3634 30.3966 156.2482 0.0000 0.0000 0.0000
# 4 0.0000 0.0000 0.0000 6.6737 0.0000 0.0000
# 5 0.0000 0.0000 0.0000 0.0000 -27.5136 0.0000
# 6 0.0000 0.0000 0.0000 0.0000 0.0000 35.5676
#
#
#
# Elastic Compliance Matrix: (Units=1/GPa)
#
#
# Indices 1 2 3 4 5 6 
#
# 1 0.004521 -0.000771 -0.002609 0.000000 0.000000 0.000000
# 2 -0.000771 0.008179 -0.001120 0.000000 0.000000 0.000000
# 3 -0.002609 -0.001120 0.008211 0.000000 0.000000 0.000000
# 4 0.000000 0.000000 0.000000 0.149841 0.000000 0.000000
# 5 0.000000 0.000000 0.000000 0.000000 -0.036346 0.000000
# 6 0.000000 0.000000 0.000000 0.000000 0.000000 0.028115
#
#
# Mechanical properties :
#
#
# Convention : Reuss Voigt Hill
#
# Bulk Modulus (GPa) = 83.97297 100.04798 92.01047
# Shear Modulus (GPa) = 28.49112 29.87331 29.18222
#
# Velocity S-wave (km/s) = 3.14680 3.22222 3.18474
# Velocity P-wave (km/s) = 6.51066 6.97253 6.74555
#
# Compressibility (1/GPa) = 0.01190859
#
# Stress axis : x y z
#
# Youngs Moduli (GPa) = 221.17459 122.26945 121.79215
#
# Poissons Ratio (x) = 0.09428 0.31782
# Poissons Ratio (y) = 0.17054 0.13646
# Poissons Ratio (z) = 0.57716 0.13700
#
# Static dielectric constant tensor:
#      x y z
#    x 6.061950 0.000000 0.000000 
#    y 0.000000 2.507280 0.000000 
#    z 0.000000 0.000000 2.322860 
# 
# From -- ./inp_files/6071.got.cif
#   From: 2010.05.17/outbox.cif.g08.bks.cpg/sg37_4_cif.got.tgz:6071.got - 2010.06.03 17:53:42.
