data_PCOD9354213
_publ_section_title
;
Structure prediction by ZEFSAII (Michael W. Deem and Ramdas Pophale) SiO2 
 PCOD9354213
Probable space group: C C C 2
;
_chemical_formula_sum "Si O2"
_cell_formula_units_Z 64
_cell_length_a 5.366019
_cell_length_b 32.577607
_cell_length_c 18.287039
_cell_angle_alpha 90.000000
_cell_angle_beta 90.000000
_cell_angle_gamma 90.000000
_cell_volume 3196.794925
_symmetry_space_group_name_H-M "C C C 2"
_symmetry_group_IT_number 37
_symmetry_cell_setting 'orthorhombic'
loop_
_space_group_symop_operation_xyz
x,y,z
-x,-y,z
-x,y,1/2+z
x,-y,1/2+z
1/2+x,1/2+y,z
1/2-x,1/2-y,z
1/2-x,1/2+y,1/2+z
1/2+x,1/2-y,1/2+z
loop_
_atom_site_type_symbol
_atom_site_label
_atom_site_fract_x
_atom_site_fract_y
_atom_site_fract_z
Si Si1 0.465798 0.548503 0.155150
Si Si2 0.099524 0.153747 0.306566
Si Si3 0.669853 0.842471 0.997241
Si Si4 0.314144 0.876748 0.657175
Si Si5 0.249225 0.527296 0.011746
Si Si6 0.565557 0.908823 0.402322
Si Si7 0.709609 0.093512 0.272509
Si Si8 0.825771 0.797030 0.439743
O O1 0.500000 0.500000 0.160987
O O2 0.677504 0.581040 0.133172
O O3 0.265078 0.550316 0.089868
O O4 0.410079 0.564586 0.235905
O O5 0.172051 0.149407 0.221202
O O6 0.268747 0.123036 0.355259
O O7 0.131276 0.195112 0.352493
O O8 0.824608 0.134413 0.308302
O O9 0.657056 0.850608 0.083963
O O10 0.632311 0.886065 0.955407
O O11 0.418026 0.819960 0.970935
O O12 0.921832 0.817254 0.975471
O O13 0.552210 0.891356 0.703162
O O14 0.500000 0.500000 0.005150
O O15 0.000000 0.500000 0.009245
O O16 0.232252 0.561351 0.949664
O O17 0.425474 0.931046 0.336087
O O18 0.750000 0.750000 0.452771
#
# Coordination Sequence:
#
# PCOD9354213 Si02
#       8
#     8   8   8   8   8   8   8   8
#     4  10  24  39  60  89 131 172 227 279 341 382
#     4   9  21  41  65  97 128 173 222 268 330 412
#     4  11  24  40  75  98 134 176 226 272 329 410
#     4  10  23  40  66  97 126 181 227 276 319 406
#     4  11  27  42  61  90 132 177 231 289 348 401
#     4  10  22  40  63  93 128 173 234 277 336 402
#     4  10  20  40  64  89 128 172 231 275 334 398
#     4  11  24  45  70 106 139 171 212 276 346 409
#
# _framework density 20.020053000000001
#
# number of rings (size 3 to 8) (size 9 to 14) (size 15 to 20)
#    0.000    1.750    1.250    1.125   15.750    0.000 
#    6.750    1.250    0.000    0.000    0.000    0.000 
#    0.000    0.000    0.000    0.000    0.000    0.000 
#
# Total GULP energy -178153.870759 kJ/mol
# GULP energy per Si atom -5567.308461 kJ/mol
# Density = 1.997449 g / cm^3
# Si number density = 20.020053 Si / 1000 Ang^3
#
#
#
# Elastic Constant Matrix: (Units=GPa)
#
#
# Indices 1 2 3 4 5 6 
#
# 1 86.9882 31.1709 42.8299 0.0000 0.0000 0.0000
# 2 31.1709 70.1363 50.5521 0.0000 0.0000 0.0000
# 3 42.8299 50.5521 116.8722 0.0000 0.0000 0.0000
# 4 0.0000 0.0000 0.0000 17.9677 0.0000 0.0000
# 5 0.0000 0.0000 0.0000 0.0000 79.1795 0.0000
# 6 0.0000 0.0000 0.0000 0.0000 0.0000 20.4048
#
#
#
# Elastic Compliance Matrix: (Units=1/GPa)
#
#
# Indices 1 2 3 4 5 6 
#
# 1 0.014710 -0.003854 -0.003724 0.000000 0.000000 0.000000
# 2 -0.003854 0.021726 -0.007985 0.000000 0.000000 0.000000
# 3 -0.003724 -0.007985 0.013375 0.000000 0.000000 0.000000
# 4 0.000000 0.000000 0.000000 0.055655 0.000000 0.000000
# 5 0.000000 0.000000 0.000000 0.000000 0.012630 0.000000
# 6 0.000000 0.000000 0.000000 0.000000 0.000000 0.049008
#
#
# Mechanical properties :
#
#
# Convention : Reuss Voigt Hill
#
# Bulk Modulus (GPa) = 53.51667 58.12252 55.81960
# Shear Modulus (GPa) = 24.45483 33.47333 28.96408
#
# Velocity S-wave (km/s) = 3.49881 4.09343 3.80775
# Velocity P-wave (km/s) = 6.56596 7.17194 6.87563
#
# Compressibility (1/GPa) = 0.01868577
#
# Stress axis : x y z
#
# Youngs Moduli (GPa) = 67.97982 46.02747 74.76608
#
# Poissons Ratio (x) = 0.17737 0.27843
# Poissons Ratio (y) = 0.26197 0.59703
# Poissons Ratio (z) = 0.25316 0.36754
#
# Static dielectric constant tensor:
#      x y z
#    x 1.826340 0.000000 0.000000 
#    y 0.000000 1.656160 0.000000 
#    z 0.000000 0.000000 1.725310 
# 
# From -- ./inp_files/14083.got.cif
#   From: 2010.05.17/outbox.cif.g08.bks.cpg/sg37_8_cif.got.tgz:14083.got - 2010.06.03 17:53:42.
