data_PCOD9354759
_publ_section_title
;
Structure prediction by ZEFSAII (Michael W. Deem and Ramdas Pophale) SiO2 
 PCOD9354759
Probable space group: C C C 2
;
_chemical_formula_sum "Si O2"
_cell_formula_units_Z 52
_cell_length_a 7.599744
_cell_length_b 23.424431
_cell_length_c 12.771777
_cell_angle_alpha 90.000000
_cell_angle_beta 90.000000
_cell_angle_gamma 90.000000
_cell_volume 2273.627641
_symmetry_space_group_name_H-M "C C C 2"
_symmetry_group_IT_number 37
_symmetry_cell_setting 'orthorhombic'
loop_
_space_group_symop_operation_xyz
x,y,z
-x,-y,z
-x,y,1/2+z
x,-y,1/2+z
1/2+x,1/2+y,z
1/2-x,1/2-y,z
1/2-x,1/2+y,1/2+z
1/2+x,1/2-y,1/2+z
loop_
_atom_site_type_symbol
_atom_site_label
_atom_site_fract_x
_atom_site_fract_y
_atom_site_fract_z
Si Si1 0.141503 0.371678 0.365340
Si Si2 0.792239 0.489144 0.759939
Si Si3 0.845650 0.308238 0.658488
Si Si4 0.000000 0.000000 0.585738
Si Si5 0.929459 0.870060 0.025623
Si Si6 0.736968 0.606691 0.825982
Si Si7 0.730553 0.158127 0.100503
O O1 0.223405 0.428498 0.314881
O O2 0.184634 0.322306 0.281460
O O3 0.183944 0.366841 0.486758
O O4 0.931749 0.377175 0.360438
O O5 0.673741 0.495215 0.658084
O O6 0.724458 0.538670 0.836957
O O7 0.000000 0.500000 0.738296
O O8 0.750000 0.250000 0.630416
O O9 0.749897 0.358157 0.590432
O O10 0.055115 0.307916 0.634217
O O11 0.004684 0.936137 0.535470
O O12 0.069657 0.824853 0.071906
O O13 0.895872 0.861487 0.902270
O O14 0.731152 0.620276 0.703432
#
# Coordination Sequence:
#
# PCOD9354759 Si02
#       7
#     8   8   8   4   8   8   8
#     4  10  22  46  73 101 149 194 248 311 383 442
#     4  10  22  39  66 103 148 189 245 303 363 444
#     4  11  26  53  77 104 142 192 259 330 382 453
#     4  12  24  38  70 104 150 202 240 298 372 452
#     4  12  26  43  71 109 153 192 251 302 373 465
#     4  10  23  42  67 111 148 197 248 297 370 465
#     4  11  25  46  75 104 149 195 242 312 383 441
#
# _framework density 22.870940000000001
#
# number of rings (size 3 to 8) (size 9 to 14) (size 15 to 20)
#    0.000    1.231    4.615    0.000    6.462    0.615 
#    2.769    2.308    0.000    0.000    0.000    0.000 
#    0.000    0.000    0.000    0.000    0.000    0.000 
#
# Total GULP energy -144949.354965 kJ/mol
# GULP energy per Si atom -5574.975191 kJ/mol
# Density = 2.281888 g / cm^3
# Si number density = 22.870940 Si / 1000 Ang^3
#
#
#
# Elastic Constant Matrix: (Units=GPa)
#
#
# Indices 1 2 3 4 5 6 
#
# 1 89.6774 29.4036 35.0643 0.0000 0.0000 0.0000
# 2 29.4036 85.8556 31.4047 0.0000 0.0000 0.0000
# 3 35.0643 31.4047 147.0526 0.0000 0.0000 0.0000
# 4 0.0000 0.0000 0.0000 -7.3496 0.0000 0.0000
# 5 0.0000 0.0000 0.0000 0.0000 107.2725 0.0000
# 6 0.0000 0.0000 0.0000 0.0000 0.0000 19.7247
#
#
#
# Elastic Compliance Matrix: (Units=1/GPa)
#
#
# Indices 1 2 3 4 5 6 
#
# 1 0.013289 -0.003680 -0.002383 0.000000 0.000000 0.000000
# 2 -0.003680 0.013653 -0.002038 0.000000 0.000000 0.000000
# 3 -0.002383 -0.002038 0.007804 0.000000 0.000000 0.000000
# 4 0.000000 0.000000 0.000000 -0.136062 0.000000 0.000000
# 5 0.000000 0.000000 0.000000 0.000000 0.009322 0.000000
# 6 0.000000 0.000000 0.000000 0.000000 0.000000 0.050698
#
#
# Mechanical properties :
#
#
# Convention : Reuss Voigt Hill
#
# Bulk Modulus (GPa) = 53.92470 57.14789 55.53629
# Shear Modulus (GPa) = -264.38009 39.04371 -112.66819
#
# Velocity S-wave (km/s) = -10.76325 4.13623 -7.02635
# Velocity P-wave (km/s) = 11.43828 6.91755 6.44134
#
# Compressibility (1/GPa) = 0.01854438
#
# Stress axis : x y z
#
# Youngs Moduli (GPa) = 75.24836 73.24247 128.14226
#
# Poissons Ratio (x) = 0.26951 0.30536
# Poissons Ratio (y) = 0.27689 0.26121
# Poissons Ratio (z) = 0.17931 0.14930
#
# Static dielectric constant tensor:
#      x y z
#    x 1.909140 0.000000 0.000000 
#    y 0.000000 3.539930 0.000000 
#    z 0.000000 0.000000 1.868380 
# 
# From -- ./inp_files/6506.got.cif
#   From: 2010.05.17/outbox.cif.g08.bks.cpg/sg37_4_cif.got.tgz:6506.got - 2010.06.03 17:53:42.
