data_PCOD9354291
_publ_section_title
;
Structure prediction by ZEFSAII (Michael W. Deem and Ramdas Pophale) SiO2 
 PCOD9354291
Probable space group: C C C 2
;
_chemical_formula_sum "Si O2"
_cell_formula_units_Z 60
_cell_length_a 22.976418
_cell_length_b 8.086497
_cell_length_c 15.006444
_cell_angle_alpha 90.000000
_cell_angle_beta 90.000000
_cell_angle_gamma 90.000000
_cell_volume 2788.178315
_symmetry_space_group_name_H-M "C C C 2"
_symmetry_group_IT_number 37
_symmetry_cell_setting 'orthorhombic'
loop_
_space_group_symop_operation_xyz
x,y,z
-x,-y,z
-x,y,1/2+z
x,-y,1/2+z
1/2+x,1/2+y,z
1/2-x,1/2-y,z
1/2-x,1/2+y,1/2+z
1/2+x,1/2-y,1/2+z
loop_
_atom_site_type_symbol
_atom_site_label
_atom_site_fract_x
_atom_site_fract_y
_atom_site_fract_z
Si Si1 0.121732 0.061921 0.886020
Si Si2 0.123324 0.871338 0.705632
Si Si3 0.750000 0.750000 0.248247
Si Si4 0.566564 0.065573 0.117962
Si Si5 0.065369 0.564416 0.794741
Si Si6 0.064570 0.063634 0.550933
Si Si7 0.127273 0.575043 0.453697
Si Si8 0.251665 0.938325 0.376816
O O1 0.108445 0.251237 0.909932
O O2 0.188162 0.030336 0.916587
O O3 0.121727 0.012006 0.782815
O O4 0.079881 0.954624 0.947334
O O5 0.188372 0.793414 0.701518
O O6 0.076604 0.737387 0.743638
O O7 0.105584 0.949310 0.612067
O O8 0.762623 0.586255 0.307683
O O9 0.589196 0.060015 0.218932
O O10 0.569191 0.248798 0.081136
O O11 0.500000 0.000000 0.119115
O O12 0.602596 0.950197 0.051384
O O13 0.100421 0.559306 0.886064
O O14 0.000000 0.500000 0.813386
O O15 0.000000 0.000000 0.566935
O O16 0.196549 0.562827 0.447750
O O17 0.250000 0.750000 0.337857
#
# Coordination Sequence:
#
# PCOD9354291 Si02
#       8
#     8   8   4   8   8   8   8   8
#     4  10  23  41  64  95 128 170 219 269 333 387
#     4  11  23  43  69  99 131 180 220 279 339 395
#     4  10  20  42  70  94 138 166 228 274 334 402
#     4  11  24  41  61  91 127 171 218 270 332 399
#     4  11  22  38  61  92 126 165 212 259 326 393
#     4  12  25  43  65  96 135 169 224 279 331 406
#     4  11  20  40  64  91 126 171 213 267 328 394
#     4   9  20  38  65  97 129 169 220 274 325 396
#
# _framework density 21.519427
#
# number of rings (size 3 to 8) (size 9 to 14) (size 15 to 20)
#    0.000    1.333    1.333    5.200    1.867    1.600 
#    6.000    0.000    0.000    0.000    0.000    0.000 
#    0.000    0.000    0.000    0.000    0.000    0.000 
#
# Total GULP energy -167584.756380 kJ/mol
# GULP energy per Si atom -5586.158546 kJ/mol
# Density = 2.147045 g / cm^3
# Si number density = 21.519427 Si / 1000 Ang^3
#
#
#
# Elastic Constant Matrix: (Units=GPa)
#
#
# Indices 1 2 3 4 5 6 
#
# 1 81.6179 20.5279 16.3077 0.0000 0.0000 0.0000
# 2 20.5279 86.0799 -4.4504 0.0000 0.0000 0.0000
# 3 16.3077 -4.4504 71.7936 0.0000 0.0000 0.0000
# 4 0.0000 0.0000 0.0000 28.1699 0.0000 0.0000
# 5 0.0000 0.0000 0.0000 0.0000 85.7713 0.0000
# 6 0.0000 0.0000 0.0000 0.0000 0.0000 28.7304
#
#
#
# Elastic Compliance Matrix: (Units=1/GPa)
#
#
# Indices 1 2 3 4 5 6 
#
# 1 0.013792 -0.003462 -0.003347 0.000000 0.000000 0.000000
# 2 -0.003462 0.012524 0.001563 0.000000 0.000000 0.000000
# 3 -0.003347 0.001563 0.014786 0.000000 0.000000 0.000000
# 4 0.000000 0.000000 0.000000 0.035499 0.000000 0.000000
# 5 0.000000 0.000000 0.000000 0.000000 0.011659 0.000000
# 6 0.000000 0.000000 0.000000 0.000000 0.000000 0.034806
#
#
# Mechanical properties :
#
#
# Convention : Reuss Voigt Hill
#
# Bulk Modulus (GPa) = 32.67131 33.80689 33.23910
# Shear Modulus (GPa) = 34.77981 42.34140 38.56060
#
# Velocity S-wave (km/s) = 4.02457 4.44056 4.23767
# Velocity P-wave (km/s) = 6.06724 6.48348 6.27881
#
# Compressibility (1/GPa) = 0.03060790
#
# Stress axis : x y z
#
# Youngs Moduli (GPa) = 72.50688 79.84969 67.63135
#
# Poissons Ratio (x) = 0.27644 0.22639
# Poissons Ratio (y) = 0.25102 -0.10569
# Poissons Ratio (z) = 0.24271 -0.12478
#
# Static dielectric constant tensor:
#      x y z
#    x 1.768810 0.000000 0.000000 
#    y 0.000000 1.899230 0.000000 
#    z 0.000000 0.000000 1.744520 
# 
# From -- ./inp_files/13137.got.cif
#   From: 2010.05.17/outbox.cif.g08.bks.cpg/sg37_7_cif.got.tgz:13137.got - 2010.06.03 17:53:42.
