data_PCOD9354919
_publ_section_title
;
Structure prediction by ZEFSAII (Michael W. Deem and Ramdas Pophale) SiO2 
 PCOD9354919
Probable space group: C C C 2
;
_chemical_formula_sum "Si O2"
_cell_formula_units_Z 44
_cell_length_a 8.985197
_cell_length_b 21.496441
_cell_length_c 10.257421
_cell_angle_alpha 90.000000
_cell_angle_beta 90.000000
_cell_angle_gamma 90.000000
_cell_volume 1981.218375
_symmetry_space_group_name_H-M "C C C 2"
_symmetry_group_IT_number 37
_symmetry_cell_setting 'orthorhombic'
loop_
_space_group_symop_operation_xyz
x,y,z
-x,-y,z
-x,y,1/2+z
x,-y,1/2+z
1/2+x,1/2+y,z
1/2-x,1/2-y,z
1/2-x,1/2+y,1/2+z
1/2+x,1/2-y,1/2+z
loop_
_atom_site_type_symbol
_atom_site_label
_atom_site_fract_x
_atom_site_fract_y
_atom_site_fract_z
Si Si1 0.895467 0.584101 0.747660
Si Si2 0.074911 0.236598 0.874596
Si Si3 0.827103 0.889202 0.985013
Si Si4 0.500000 0.500000 0.890329
Si Si5 0.781526 0.547925 0.227590
Si Si6 0.905714 0.714778 0.606953
O O1 0.793262 0.599019 0.871763
O O2 0.831337 0.521518 0.678475
O O3 0.886112 0.644661 0.656935
O O4 0.064353 0.570341 0.793826
O O5 0.250000 0.250000 0.864118
O O6 0.999782 0.282681 0.975962
O O7 0.074597 0.169527 0.942613
O O8 0.018377 0.247183 0.727824
O O9 0.750333 0.897080 0.124302
O O10 0.932804 0.948066 0.981181
O O11 0.367599 0.532378 0.807641
O O12 0.750000 0.750000 0.580654
#
# Coordination Sequence:
#
# PCOD9354919 Si02
#       6
#     8   8   8   4   8   8
#     4  10  22  43  65  94 130 170 231 273 334 406
#     4  11  24  44  69  94 137 178 226 285 342 405
#     4  11  22  43  64  93 135 170 219 282 337 402
#     4  10  24  40  62 102 130 172 216 272 342 406
#     4  10  23  39  68  95 126 175 214 280 336 400
#     4  11  24  45  67 100 133 183 227 287 342 408
#
# _framework density 22.208558
#
# number of rings (size 3 to 8) (size 9 to 14) (size 15 to 20)
#    0.000    1.455    3.636    1.636    2.545    8.000 
#    3.273    0.000    0.000    0.000    0.000    0.000 
#    0.000    0.000    0.000    0.000    0.000    0.000 
#
# Total GULP energy -122770.539396 kJ/mol
# GULP energy per Si atom -5580.479063 kJ/mol
# Density = 2.215801 g / cm^3
# Si number density = 22.208558 Si / 1000 Ang^3
#
#
#
# Elastic Constant Matrix: (Units=GPa)
#
#
# Indices 1 2 3 4 5 6 
#
# 1 63.8969 -7.5332 -10.0398 0.0000 0.0000 0.0000
# 2 -7.5332 69.3170 -23.9534 0.0000 0.0000 0.0000
# 3 -10.0398 -23.9534 35.3550 0.0000 0.0000 0.0000
# 4 0.0000 0.0000 0.0000 53.2209 0.0000 0.0000
# 5 0.0000 0.0000 0.0000 0.0000 9.2345 0.0000
# 6 0.0000 0.0000 0.0000 0.0000 0.0000 27.6119
#
#
#
# Elastic Compliance Matrix: (Units=1/GPa)
#
#
# Indices 1 2 3 4 5 6 
#
# 1 0.017490 0.004723 0.008167 0.000000 0.000000 0.000000
# 2 0.004723 0.020112 0.014967 0.000000 0.000000 0.000000
# 3 0.008167 0.014967 0.040744 0.000000 0.000000 0.000000
# 4 0.000000 0.000000 0.000000 0.018790 0.000000 0.000000
# 5 0.000000 0.000000 0.000000 0.000000 0.108290 0.000000
# 6 0.000000 0.000000 0.000000 0.000000 0.000000 0.036216
#
#
# Mechanical properties :
#
#
# Convention : Reuss Voigt Hill
#
# Bulk Modulus (GPa) = 7.45938 9.50176 8.48057
# Shear Modulus (GPa) = 21.68115 32.01981 26.85048
#
# Velocity S-wave (km/s) = 3.12789 3.80119 3.48086
# Velocity P-wave (km/s) = 4.05105 4.85316 4.47013
#
# Compressibility (1/GPa) = 0.13405933
#
# Stress axis : x y z
#
# Youngs Moduli (GPa) = 57.17494 49.72185 24.54344
#
# Poissons Ratio (x) = -0.23483 -0.20043
# Poissons Ratio (y) = -0.27003 -0.36735
# Poissons Ratio (z) = -0.46692 -0.74420
#
# Static dielectric constant tensor:
#      x y z
#    x 2.091280 0.000000 0.000000 
#    y 0.000000 1.891970 0.000000 
#    z 0.000000 0.000000 1.791940 
# 
# From -- ./inp_files/6342.got.cif
#   From: 2010.05.17/outbox.cif.g08.bks.cpg/sg37_4_cif.got.tgz:6342.got - 2010.06.03 17:53:42.
