data_PCOD9354943
_publ_section_title
;
Structure prediction by ZEFSAII (Michael W. Deem and Ramdas Pophale) SiO2 
 PCOD9354943
Probable space group: C C C 2
;
_chemical_formula_sum "Si O2"
_cell_formula_units_Z 48
_cell_length_a 13.631765
_cell_length_b 8.464378
_cell_length_c 17.869660
_cell_angle_alpha 90.000000
_cell_angle_beta 90.000000
_cell_angle_gamma 90.000000
_cell_volume 2061.880208
_symmetry_space_group_name_H-M "C C C 2"
_symmetry_group_IT_number 37
_symmetry_cell_setting 'orthorhombic'
loop_
_space_group_symop_operation_xyz
x,y,z
-x,-y,z
-x,y,1/2+z
x,-y,1/2+z
1/2+x,1/2+y,z
1/2-x,1/2-y,z
1/2-x,1/2+y,1/2+z
1/2+x,1/2-y,1/2+z
loop_
_atom_site_type_symbol
_atom_site_label
_atom_site_fract_x
_atom_site_fract_y
_atom_site_fract_z
Si Si1 0.313626 0.391593 0.268930
Si Si2 0.474594 0.688371 0.887170
Si Si3 0.587238 0.116020 0.176407
Si Si4 0.166583 0.643525 0.335053
Si Si5 0.580423 0.362108 0.046237
Si Si6 0.769528 0.930056 0.113792
O O1 0.250000 0.250000 0.237998
O O2 0.400736 0.318763 0.317191
O O3 0.234134 0.488665 0.318612
O O4 0.340544 0.460379 0.187489
O O5 0.500000 0.500000 0.890800
O O6 0.564761 0.810779 0.875806
O O7 0.425752 0.725130 0.966547
O O8 0.636350 0.191623 0.250016
O O9 0.559963 0.242555 0.113935
O O10 0.500000 0.000000 0.201490
O O11 0.667351 0.003720 0.138879
O O12 0.250000 0.750000 0.371601
O O13 0.500000 0.500000 0.048374
O O14 0.682763 0.454968 0.052954
O O15 0.750000 0.750000 0.088357
#
# Coordination Sequence:
#
# PCOD9354943 Si02
#       6
#     8   8   8   8   8   8
#     4  10  23  41  67 107 134 176 231 292 348 412
#     4  11  25  44  67 101 139 185 235 279 356 424
#     4  11  24  42  69 105 134 177 236 284 345 415
#     4  11  23  43  73  97 137 182 233 297 345 414
#     4  11  25  44  64 101 136 187 226 276 355 413
#     4  10  22  43  72 102 135 177 232 290 347 407
#
# _framework density 23.279724000000002
#
# number of rings (size 3 to 8) (size 9 to 14) (size 15 to 20)
#    0.000    1.333    1.667    3.500    9.333    1.333 
#   12.000    0.000    0.000    0.000    0.000    0.000 
#    0.000    0.000    0.000    0.000    0.000    0.000 
#
# Total GULP energy -133710.576081 kJ/mol
# GULP energy per Si atom -5571.274003 kJ/mol
# Density = 2.322674 g / cm^3
# Si number density = 23.279724 Si / 1000 Ang^3
#
#
#
# Elastic Constant Matrix: (Units=GPa)
#
#
# Indices 1 2 3 4 5 6 
#
# 1 109.8867 4.2845 38.5021 0.0000 0.0000 0.0000
# 2 4.2845 46.9634 2.2181 0.0000 0.0000 0.0000
# 3 38.5021 2.2181 69.4445 0.0000 0.0000 0.0000
# 4 0.0000 0.0000 0.0000 486.9071 0.0000 0.0000
# 5 0.0000 0.0000 0.0000 0.0000 -39.8449 0.0000
# 6 0.0000 0.0000 0.0000 0.0000 0.0000 43.3678
#
#
#
# Elastic Compliance Matrix: (Units=1/GPa)
#
#
# Indices 1 2 3 4 5 6 
#
# 1 0.011320 -0.000737 -0.006252 0.000000 0.000000 0.000000
# 2 -0.000737 0.021373 -0.000274 0.000000 0.000000 0.000000
# 3 -0.006252 -0.000274 0.017875 0.000000 0.000000 0.000000
# 4 0.000000 0.000000 0.000000 0.002054 0.000000 0.000000
# 5 0.000000 0.000000 0.000000 0.000000 -0.025097 0.000000
# 6 0.000000 0.000000 0.000000 0.000000 0.000000 0.023059
#
#
# Mechanical properties :
#
#
# Convention : Reuss Voigt Hill
#
# Bulk Modulus (GPa) = 27.74614 35.14488 31.44551
# Shear Modulus (GPa) = 64.83017 110.17199 87.50108
#
# Velocity S-wave (km/s) = 5.28288 6.88680 6.13746
# Velocity P-wave (km/s) = 7.01115 8.85251 7.98508
#
# Compressibility (1/GPa) = 0.03604105
#
# Stress axis : x y z
#
# Youngs Moduli (GPa) = 88.34103 46.78715 55.94318
#
# Poissons Ratio (x) = 0.03450 0.34978
# Poissons Ratio (y) = 0.06514 0.01532
# Poissons Ratio (z) = 0.55235 0.01281
#
# Static dielectric constant tensor:
#      x y z
#    x 2.230000 0.000000 0.000000 
#    y 0.000000 -5.142580 0.000000 
#    z 0.000000 0.000000 1.921160 
# 
# From -- ./inp_files/15219.got.cif
#   From: 2010.05.17/outbox.cif.g08.bks.cpg/sg37_8_cif.got.tgz:15219.got - 2010.06.03 17:53:42.
