data_PCOD9354292
_publ_section_title
;
Structure prediction by ZEFSAII (Michael W. Deem and Ramdas Pophale) SiO2 
 PCOD9354292
Probable space group: C C C 2
;
_chemical_formula_sum "Si O2"
_cell_formula_units_Z 48
_cell_length_a 8.731702
_cell_length_b 11.642327
_cell_length_c 19.428676
_cell_angle_alpha 90.000000
_cell_angle_beta 90.000000
_cell_angle_gamma 90.000000
_cell_volume 1975.067327
_symmetry_space_group_name_H-M "C C C 2"
_symmetry_group_IT_number 37
_symmetry_cell_setting 'orthorhombic'
loop_
_space_group_symop_operation_xyz
x,y,z
-x,-y,z
-x,y,1/2+z
x,-y,1/2+z
1/2+x,1/2+y,z
1/2-x,1/2-y,z
1/2-x,1/2+y,1/2+z
1/2+x,1/2-y,1/2+z
loop_
_atom_site_type_symbol
_atom_site_label
_atom_site_fract_x
_atom_site_fract_y
_atom_site_fract_z
Si Si1 0.325154 0.507062 0.268470
Si Si2 0.177810 0.123120 0.631539
Si Si3 0.368392 0.906776 0.005135
Si Si4 0.890878 0.615108 0.355172
Si Si5 0.603357 0.672939 0.895060
Si Si6 0.082714 0.192619 0.045241
O O1 0.500000 0.500000 0.246729
O O2 0.258954 0.565342 0.200754
O O3 0.227572 0.398550 0.292997
O O4 0.344426 0.583656 0.337389
O O5 0.250000 0.250000 0.635574
O O6 0.250201 0.063693 0.564302
O O7 0.997258 0.135008 0.611795
O O8 0.460721 0.792955 0.026096
O O9 0.500000 0.000000 0.000218
O O10 0.304156 0.893257 0.928524
O O11 0.000000 0.500000 0.349001
O O12 0.983526 0.734475 0.362644
O O13 0.750000 0.750000 0.909297
O O14 0.576160 0.624931 0.972035
O O15 0.250000 0.250000 0.058432
#
# Coordination Sequence:
#
# PCOD9354292 Si02
#       6
#     8   8   8   8   8   8
#     4  12  27  42  59 103 132 172 222 267 343 396
#     4  10  23  45  64  88 134 173 210 264 334 403
#     4   9  20  39  65  96 120 164 221 261 318 391
#     4  10  21  41  70  97 125 171 227 269 322 397
#     4  10  20  42  70  96 129 170 222 277 326 400
#     4   9  20  39  67  95 123 166 214 270 333 380
#
# _framework density 24.302970999999999
#
# number of rings (size 3 to 8) (size 9 to 14) (size 15 to 20)
#    0.000    2.000    1.667    0.500    4.667    2.667 
#    6.000    0.000    0.000    0.000    0.000    0.000 
#    0.000    0.000    0.000    0.000    0.000    0.000 
#
# Total GULP energy -133942.779794 kJ/mol
# GULP energy per Si atom -5580.949158 kJ/mol
# Density = 2.424766 g / cm^3
# Si number density = 24.302971 Si / 1000 Ang^3
#
#
#
# Elastic Constant Matrix: (Units=GPa)
#
#
# Indices 1 2 3 4 5 6 
#
# 1 100.1230 21.3351 49.4095 0.0000 0.0000 0.0000
# 2 21.3351 56.9726 33.1303 0.0000 0.0000 0.0000
# 3 49.4095 33.1303 148.5835 0.0000 0.0000 0.0000
# 4 0.0000 0.0000 0.0000 27.8352 0.0000 0.0000
# 5 0.0000 0.0000 0.0000 0.0000 55.5027 0.0000
# 6 0.0000 0.0000 0.0000 0.0000 0.0000 37.1563
#
#
#
# Elastic Compliance Matrix: (Units=1/GPa)
#
#
# Indices 1 2 3 4 5 6 
#
# 1 0.012263 -0.002552 -0.003509 0.000000 0.000000 0.000000
# 2 -0.002552 0.020698 -0.003767 0.000000 0.000000 0.000000
# 3 -0.003509 -0.003767 0.008737 0.000000 0.000000 0.000000
# 4 0.000000 0.000000 0.000000 0.035926 0.000000 0.000000
# 5 0.000000 0.000000 0.000000 0.000000 0.018017 0.000000
# 6 0.000000 0.000000 0.000000 0.000000 0.000000 0.026913
#
#
# Mechanical properties :
#
#
# Convention : Reuss Voigt Hill
#
# Bulk Modulus (GPa) = 45.36471 57.04766 51.20618
# Shear Modulus (GPa) = 33.43207 37.55245 35.49226
#
# Velocity S-wave (km/s) = 3.71298 3.93514 3.82567
# Velocity P-wave (km/s) = 6.09003 6.64617 6.37417
#
# Compressibility (1/GPa) = 0.02204357
#
# Stress axis : x y z
#
# Youngs Moduli (GPa) = 81.54542 48.31337 114.45664
#
# Poissons Ratio (x) = 0.12329 0.40162
# Poissons Ratio (y) = 0.20809 0.43111
# Poissons Ratio (z) = 0.28614 0.18198
#
# Static dielectric constant tensor:
#      x y z
#    x 1.978730 0.000000 0.000000 
#    y 0.000000 2.036180 0.000000 
#    z 0.000000 0.000000 1.999730 
# 
# From -- ./inp_files/14513.got.cif
#   From: 2010.05.17/outbox.cif.g08.bks.cpg/sg37_8_cif.got.tgz:14513.got - 2010.06.03 17:53:42.
