data_PCOD9354000
_publ_section_title
;
Structure prediction by ZEFSAII (Michael W. Deem and Ramdas Pophale) SiO2 
 PCOD9354000
Probable space group: C C C 2
;
_chemical_formula_sum "Si O2"
_cell_formula_units_Z 40
_cell_length_a 6.087624
_cell_length_b 23.409961
_cell_length_c 13.123072
_cell_angle_alpha 90.000000
_cell_angle_beta 90.000000
_cell_angle_gamma 90.000000
_cell_volume 1870.182644
_symmetry_space_group_name_H-M "C C C 2"
_symmetry_group_IT_number 37
_symmetry_cell_setting 'orthorhombic'
loop_
_space_group_symop_operation_xyz
x,y,z
-x,-y,z
-x,y,1/2+z
x,-y,1/2+z
1/2+x,1/2+y,z
1/2-x,1/2-y,z
1/2-x,1/2+y,1/2+z
1/2+x,1/2-y,1/2+z
loop_
_atom_site_type_symbol
_atom_site_label
_atom_site_fract_x
_atom_site_fract_y
_atom_site_fract_z
Si Si1 0.635684 0.688328 0.314190
Si Si2 0.250000 0.250000 0.907445
Si Si3 0.500000 0.500000 0.200052
Si Si4 0.124397 0.448197 0.837497
Si Si5 0.017259 0.649566 0.974387
Si Si6 0.692119 0.903408 0.163505
O O1 0.750000 0.750000 0.297945
O O2 0.388692 0.706216 0.339170
O O3 0.674658 0.647985 0.217445
O O4 0.754807 0.657653 0.412041
O O5 0.085455 0.287381 0.974194
O O6 0.657011 0.465464 0.278241
O O7 0.362367 0.453946 0.133796
O O8 0.133723 0.393394 0.908237
O O9 0.000000 0.500000 0.895691
O O10 0.950284 0.432770 0.750641
O O11 0.983933 0.622010 0.084411
#
# Coordination Sequence:
#
# PCOD9354000 Si02
#       6
#     8   4   4   8   8   8
#     4   9  20  39  60  84 121 160 201 259 316 373
#     4  10  20  38  60  86 118 156 202 256 316 374
#     4  10  20  36  56  82 118 162 204 250 312 368
#     4   9  20  37  55  81 117 158 199 254 309 367
#     4  10  21  36  59  86 118 155 203 255 310 380
#     4  10  21  36  59  87 121 156 209 254 310 376
#
# _framework density 21.388283999999999
#
# number of rings (size 3 to 8) (size 9 to 14) (size 15 to 20)
#    0.000    2.400    0.000    1.200    1.400    4.800 
#    0.000    0.000    8.800    0.000    0.000    0.000 
#    0.000    0.000    0.000    0.000    0.000    0.000 
#
# Total GULP energy -111422.437977 kJ/mol
# GULP energy per Si atom -5571.121899 kJ/mol
# Density = 2.133960 g / cm^3
# Si number density = 21.388284 Si / 1000 Ang^3
#
#
#
# Elastic Constant Matrix: (Units=GPa)
#
#
# Indices 1 2 3 4 5 6 
#
# 1 47.0479 14.3516 -4.4002 0.0000 0.0000 0.0000
# 2 14.3516 98.3375 18.3982 0.0000 0.0000 0.0000
# 3 -4.4002 18.3982 32.8245 0.0000 0.0000 0.0000
# 4 0.0000 0.0000 0.0000 16.7573 0.0000 0.0000
# 5 0.0000 0.0000 0.0000 0.0000 3.6941 0.0000
# 6 0.0000 0.0000 0.0000 0.0000 0.0000 40.9423
#
#
#
# Elastic Compliance Matrix: (Units=1/GPa)
#
#
# Indices 1 2 3 4 5 6 
#
# 1 0.023124 -0.004418 0.005576 0.000000 0.000000 0.000000
# 2 -0.004418 0.012204 -0.007433 0.000000 0.000000 0.000000
# 3 0.005576 -0.007433 0.035379 0.000000 0.000000 0.000000
# 4 0.000000 0.000000 0.000000 0.059676 0.000000 0.000000
# 5 0.000000 0.000000 0.000000 0.000000 0.270700 0.000000
# 6 0.000000 0.000000 0.000000 0.000000 0.000000 0.024425
#
#
# Mechanical properties :
#
#
# Convention : Reuss Voigt Hill
#
# Bulk Modulus (GPa) = 17.19457 26.10100 21.64778
# Shear Modulus (GPa) = 10.93032 22.26943 16.59987
#
# Velocity S-wave (km/s) = 2.26308 3.23026 2.78892
# Velocity P-wave (km/s) = 3.85816 5.11299 4.52924
#
# Compressibility (1/GPa) = 0.05815790
#
# Stress axis : x y z
#
# Youngs Moduli (GPa) = 43.24483 81.93713 28.26555
#
# Poissons Ratio (x) = 0.36200 -0.15761
# Poissons Ratio (y) = 0.19106 0.21010
# Poissons Ratio (z) = -0.24114 0.60903
#
# Static dielectric constant tensor:
#      x y z
#    x 1.814690 0.000000 0.000000 
#    y 0.000000 1.848130 0.000000 
#    z 0.000000 0.000000 1.764530 
# 
# From -- ./inp_files/5542.got.cif
#   From: 2010.05.17/outbox.cif.g08.bks.cpg/sg37_3_cif.got.tgz:5542.got - 2010.06.03 17:53:42.
