data_PCOD9354994
_publ_section_title
;
Structure prediction by ZEFSAII (Michael W. Deem and Ramdas Pophale) SiO2 
 PCOD9354994
Probable space group: C C C 2
;
_chemical_formula_sum "Si O2"
_cell_formula_units_Z 64
_cell_length_a 9.969252
_cell_length_b 24.236285
_cell_length_c 11.467293
_cell_angle_alpha 90.000000
_cell_angle_beta 90.000000
_cell_angle_gamma 90.000000
_cell_volume 2770.700188
_symmetry_space_group_name_H-M "C C C 2"
_symmetry_group_IT_number 37
_symmetry_cell_setting 'orthorhombic'
loop_
_space_group_symop_operation_xyz
x,y,z
-x,-y,z
-x,y,1/2+z
x,-y,1/2+z
1/2+x,1/2+y,z
1/2-x,1/2-y,z
1/2-x,1/2+y,1/2+z
1/2+x,1/2-y,1/2+z
loop_
_atom_site_type_symbol
_atom_site_label
_atom_site_fract_x
_atom_site_fract_y
_atom_site_fract_z
Si Si1 0.062980 0.725676 0.885210
Si Si2 0.655515 0.005015 0.011850
Si Si3 0.723614 0.602938 0.667966
Si Si4 0.872072 0.026158 0.358715
Si Si5 0.289617 0.117488 0.106325
Si Si6 0.524214 0.612536 0.016506
Si Si7 0.552221 0.192809 0.141498
Si Si8 0.692153 0.658718 0.342867
O O1 0.159281 0.671728 0.890937
O O2 0.134803 0.779466 0.832317
O O3 0.962947 0.713868 0.776246
O O4 0.042671 0.733537 0.026737
O O5 0.682007 0.945346 0.071550
O O6 0.500000 0.000000 0.979355
O O7 0.699426 0.054758 0.095910
O O8 0.751978 0.012554 0.900205
O O9 0.701926 0.576340 0.794143
O O10 0.571169 0.613413 0.627672
O O11 0.811184 0.657462 0.649506
O O12 0.937545 0.051469 0.475400
O O13 0.000000 0.000000 0.293074
O O14 0.425275 0.152563 0.114198
O O15 0.218329 0.122801 0.230318
O O16 0.168679 0.141739 0.026175
O O17 0.421011 0.632284 0.920275
#
# Coordination Sequence:
#
# PCOD9354994 Si02
#       8
#     8   8   8   8   8   8   8   8
#     4  10  24  44  75 102 141 183 239 299 371 426
#     4  11  24  44  65  99 138 186 237 287 359 434
#     4  12  25  41  69  98 138 185 236 291 357 438
#     4  11  26  41  65 100 135 182 235 295 352 433
#     4  10  24  41  69 100 141 178 237 288 357 422
#     4  11  23  43  66  93 137 179 234 287 359 433
#     4  11  24  47  73 105 140 184 239 303 356 434
#     4  10  22  45  69  99 138 190 226 295 368 427
#
# _framework density 23.098853999999999
#
# number of rings (size 3 to 8) (size 9 to 14) (size 15 to 20)
#    0.000    1.250    3.750    0.750   10.500    0.500 
#    0.000    0.000    0.000    0.000    0.000    0.000 
#    0.000    0.000    0.000    0.000    0.000    0.000 
#
# Total GULP energy -178173.801225 kJ/mol
# GULP energy per Si atom -5567.931288 kJ/mol
# Density = 2.304628 g / cm^3
# Si number density = 23.098854 Si / 1000 Ang^3
#
#
#
# Elastic Constant Matrix: (Units=GPa)
#
#
# Indices 1 2 3 4 5 6 
#
# 1 107.0244 14.9514 23.3351 0.0000 0.0000 0.0000
# 2 14.9514 27.6488 12.6623 0.0000 0.0000 0.0000
# 3 23.3351 12.6623 98.2750 0.0000 0.0000 0.0000
# 4 0.0000 0.0000 0.0000 66.1888 0.0000 0.0000
# 5 0.0000 0.0000 0.0000 0.0000 12.0261 0.0000
# 6 0.0000 0.0000 0.0000 0.0000 0.0000 12.7133
#
#
#
# Elastic Compliance Matrix: (Units=1/GPa)
#
#
# Indices 1 2 3 4 5 6 
#
# 1 0.010417 -0.004782 -0.001857 0.000000 0.000000 0.000000
# 2 -0.004782 0.040632 -0.004100 0.000000 0.000000 0.000000
# 3 -0.001857 -0.004100 0.011145 0.000000 0.000000 0.000000
# 4 0.000000 0.000000 0.000000 0.015108 0.000000 0.000000
# 5 0.000000 0.000000 0.000000 0.000000 0.083153 0.000000
# 6 0.000000 0.000000 0.000000 0.000000 0.000000 0.078658
#
#
# Mechanical properties :
#
#
# Convention : Reuss Voigt Hill
#
# Bulk Modulus (GPa) = 24.56129 37.20510 30.88319
# Shear Modulus (GPa) = 18.23739 30.31893 24.27816
#
# Velocity S-wave (km/s) = 2.81292 3.62688 3.24551
# Velocity P-wave (km/s) = 4.60502 5.80352 5.23866
#
# Compressibility (1/GPa) = 0.04071447
#
# Stress axis : x y z
#
# Youngs Moduli (GPa) = 95.99963 24.61143 89.72841
#
# Poissons Ratio (x) = 0.11770 0.16665
# Poissons Ratio (y) = 0.45911 0.36785
# Poissons Ratio (z) = 0.17829 0.10090
#
# Static dielectric constant tensor:
#      x y z
#    x 1.937450 0.000000 0.000000 
#    y 0.000000 1.629630 0.000000 
#    z 0.000000 0.000000 1.979870 
# 
# From -- ./inp_files/6632.got.cif
#   From: 2010.05.17/outbox.cif.g08.bks.cpg/sg37_4_cif.got.tgz:6632.got - 2010.06.03 17:53:42.
