data_PCOD9354089
_publ_section_title
;
Structure prediction by ZEFSAII (Michael W. Deem and Ramdas Pophale) SiO2 
 PCOD9354089
Probable space group: C C C 2
;
_chemical_formula_sum "Si O2"
_cell_formula_units_Z 48
_cell_length_a 5.842950
_cell_length_b 27.193282
_cell_length_c 14.325354
_cell_angle_alpha 90.000000
_cell_angle_beta 90.000000
_cell_angle_gamma 90.000000
_cell_volume 2276.140986
_symmetry_space_group_name_H-M "C C C 2"
_symmetry_group_IT_number 37
_symmetry_cell_setting 'orthorhombic'
loop_
_space_group_symop_operation_xyz
x,y,z
-x,-y,z
-x,y,1/2+z
x,-y,1/2+z
1/2+x,1/2+y,z
1/2-x,1/2-y,z
1/2-x,1/2+y,1/2+z
1/2+x,1/2-y,1/2+z
loop_
_atom_site_type_symbol
_atom_site_label
_atom_site_fract_x
_atom_site_fract_y
_atom_site_fract_z
Si Si1 0.185330 0.806533 0.134870
Si Si2 0.845727 0.041759 0.205562
Si Si3 0.060108 0.625386 0.993858
Si Si4 0.802805 0.125140 0.650893
Si Si5 0.753542 0.478390 0.999222
Si Si6 0.081383 0.373008 0.791473
O O1 0.250000 0.750000 0.140572
O O2 0.306202 0.830999 0.045032
O O3 0.277668 0.834854 0.227363
O O4 0.921237 0.822893 0.128030
O O5 0.738142 0.018194 0.112741
O O6 0.677802 0.072133 0.271783
O O7 0.007659 0.083837 0.162279
O O8 0.000000 0.000000 0.252644
O O9 0.227294 0.579464 0.974369
O O10 0.874813 0.609496 0.071471
O O11 0.930925 0.638958 0.899538
O O12 0.670451 0.128722 0.747859
O O13 0.500000 0.500000 0.973867
O O14 0.000000 0.500000 0.964367
#
# Coordination Sequence:
#
# PCOD9354089 Si02
#       6
#     8   8   8   8   8   8
#     4  10  23  45  66  96 128 177 230 287 368 424
#     4  10  20  37  63  88 127 180 225 269 344 409
#     4  11  22  42  65  97 136 172 232 284 356 412
#     4  10  20  43  65  84 134 178 212 290 342 416
#     4  11  22  39  68  94 134 186 229 279 346 426
#     4  10  23  40  62  97 130 172 226 290 340 423
#
# _framework density 21.088325000000001
#
# number of rings (size 3 to 8) (size 9 to 14) (size 15 to 20)
#    0.000    1.667    5.000    2.000    0.000    5.333 
#    9.000    0.833    0.000    0.000    0.000    0.000 
#    0.000    0.000    0.000    0.000    0.000    0.000 
#
# Total GULP energy -133955.534023 kJ/mol
# GULP energy per Si atom -5581.480584 kJ/mol
# Density = 2.104033 g / cm^3
# Si number density = 21.088325 Si / 1000 Ang^3
#
#
#
# Elastic Constant Matrix: (Units=GPa)
#
#
# Indices 1 2 3 4 5 6 
#
# 1 89.4697 41.4514 -11.1358 0.0000 0.0000 0.0000
# 2 41.4514 143.3097 14.8760 0.0000 0.0000 0.0000
# 3 -11.1358 14.8760 74.3270 0.0000 0.0000 0.0000
# 4 0.0000 0.0000 0.0000 11.8497 0.0000 0.0000
# 5 0.0000 0.0000 0.0000 0.0000 -2.6111 0.0000
# 6 0.0000 0.0000 0.0000 0.0000 0.0000 27.8255
#
#
#
# Elastic Compliance Matrix: (Units=1/GPa)
#
#
# Indices 1 2 3 4 5 6 
#
# 1 0.013476 -0.004195 0.002859 0.000000 0.000000 0.000000
# 2 -0.004195 0.008432 -0.002316 0.000000 0.000000 0.000000
# 3 0.002859 -0.002316 0.014346 0.000000 0.000000 0.000000
# 4 0.000000 0.000000 0.000000 0.084390 0.000000 0.000000
# 5 0.000000 0.000000 0.000000 0.000000 -0.382983 0.000000
# 6 0.000000 0.000000 0.000000 0.000000 0.000000 0.035938
#
#
# Mechanical properties :
#
#
# Convention : Reuss Voigt Hill
#
# Bulk Modulus (GPa) = 34.54292 44.16548 39.35420
# Shear Modulus (GPa) = -23.87233 24.87382 0.50074
#
# Velocity S-wave (km/s) = -3.36820 3.43812 0.48782
# Velocity P-wave (km/s) = 1.13550 6.06213 4.36112
#
# Compressibility (1/GPa) = 0.02894950
#
# Stress axis : x y z
#
# Youngs Moduli (GPa) = 74.20530 118.60198 69.70656
#
# Poissons Ratio (x) = 0.49749 -0.19926
# Poissons Ratio (y) = 0.31126 0.16144
# Poissons Ratio (z) = -0.21212 0.27468
#
# Static dielectric constant tensor:
#      x y z
#    x 1.846820 0.000000 0.000000 
#    y 0.000000 1.775390 0.000000 
#    z 0.000000 0.000000 1.736730 
# 
# From -- ./inp_files/9743.got.cif
#   From: 2010.05.17/outbox.cif.g08.bks.cpg/sg37_5_cif.got.tgz:9743.got - 2010.06.03 17:53:42.
