data_PCOD9354872
_publ_section_title
;
Structure prediction by ZEFSAII (Michael W. Deem and Ramdas Pophale) SiO2 
 PCOD9354872
Probable space group: C C C 2
;
_chemical_formula_sum "Si O2"
_cell_formula_units_Z 60
_cell_length_a 8.622226
_cell_length_b 22.893829
_cell_length_c 15.163971
_cell_angle_alpha 90.000000
_cell_angle_beta 90.000000
_cell_angle_gamma 90.000000
_cell_volume 2993.303696
_symmetry_space_group_name_H-M "C C C 2"
_symmetry_group_IT_number 37
_symmetry_cell_setting 'orthorhombic'
loop_
_space_group_symop_operation_xyz
x,y,z
-x,-y,z
-x,y,1/2+z
x,-y,1/2+z
1/2+x,1/2+y,z
1/2-x,1/2-y,z
1/2-x,1/2+y,1/2+z
1/2+x,1/2-y,1/2+z
loop_
_atom_site_type_symbol
_atom_site_label
_atom_site_fract_x
_atom_site_fract_y
_atom_site_fract_z
Si Si1 0.250000 0.250000 0.934480
Si Si2 0.838889 0.533789 0.387373
Si Si3 0.353301 0.461109 0.745486
Si Si4 0.688177 0.166477 0.867818
Si Si5 0.426258 0.241058 0.202905
Si Si6 0.876501 0.449301 0.081504
Si Si7 0.457001 0.664129 0.314806
Si Si8 0.486288 0.821723 0.037402
O O1 0.345094 0.295635 0.873571
O O2 0.363424 0.208142 0.991701
O O3 0.728612 0.501220 0.319352
O O4 0.867916 0.600101 0.357416
O O5 0.786233 0.536660 0.489762
O O6 0.000000 0.500000 0.388494
O O7 0.500000 0.500000 0.714166
O O8 0.239031 0.445955 0.664224
O O9 0.401359 0.400700 0.792943
O O10 0.604472 0.205382 0.793534
O O11 0.872262 0.163952 0.857651
O O12 0.644555 0.188562 0.964350
O O13 0.250000 0.250000 0.169730
O O14 0.509678 0.301308 0.224425
O O15 0.526431 0.207481 0.132086
O O16 0.025127 0.609206 0.058600
O O17 0.000000 0.500000 0.100158
#
# Coordination Sequence:
#
# PCOD9354872 Si02
#       8
#     4   8   8   8   8   8   8   8
#     4  12  26  46  72 108 138 188 242 296 350 434
#     4  10  23  44  72  97 134 186 230 284 356 421
#     4  12  26  47  71 104 142 184 238 296 358 411
#     4  10  22  47  67  96 144 183 227 285 357 421
#     4  10  22  42  66  97 138 178 228 279 348 415
#     4  10  26  45  70 107 139 188 238 290 356 434
#     4  11  26  45  69 103 141 188 233 296 349 430
#     4  11  24  45  72 105 138 187 235 294 362 421
#
# _framework density 20.044741999999999
#
# number of rings (size 3 to 8) (size 9 to 14) (size 15 to 20)
#    0.000    1.333    3.333    0.400   11.200    0.533 
#    7.200    0.000    0.000    0.000    0.000    0.000 
#    0.000    0.000    0.000    0.000    0.000    0.000 
#
# Total GULP energy -167432.851212 kJ/mol
# GULP energy per Si atom -5581.095040 kJ/mol
# Density = 1.999912 g / cm^3
# Si number density = 20.044742 Si / 1000 Ang^3
#
#
#
# Elastic Constant Matrix: (Units=GPa)
#
#
# Indices 1 2 3 4 5 6 
#
# 1 55.2580 44.1269 39.4772 0.0000 0.0000 0.0000
# 2 44.1269 130.3319 41.0852 0.0000 0.0000 0.0000
# 3 39.4772 41.0852 93.8703 0.0000 0.0000 0.0000
# 4 0.0000 0.0000 0.0000 48.9835 0.0000 0.0000
# 5 0.0000 0.0000 0.0000 0.0000 -0.7116 0.0000
# 6 0.0000 0.0000 0.0000 0.0000 0.0000 36.8295
#
#
#
# Elastic Compliance Matrix: (Units=1/GPa)
#
#
# Indices 1 2 3 4 5 6 
#
# 1 0.031018 -0.007412 -0.009800 0.000000 0.000000 0.000000
# 2 -0.007412 0.010672 -0.001554 0.000000 0.000000 0.000000
# 3 -0.009800 -0.001554 0.015455 0.000000 0.000000 0.000000
# 4 0.000000 0.000000 0.000000 0.020415 0.000000 0.000000
# 5 0.000000 0.000000 0.000000 0.000000 -1.405358 0.000000
# 6 0.000000 0.000000 0.000000 0.000000 0.000000 0.027152
#
#
# Mechanical properties :
#
#
# Convention : Reuss Voigt Hill
#
# Bulk Modulus (GPa) = 50.99005 58.75984 54.87495
# Shear Modulus (GPa) = -3.97906 27.33835 11.67964
#
# Velocity S-wave (km/s) = -1.41046 3.69706 2.41649
# Velocity P-wave (km/s) = 4.77921 6.89945 5.93478
#
# Compressibility (1/GPa) = 0.01961167
#
# Stress axis : x y z
#
# Youngs Moduli (GPa) = 32.23980 93.70205 64.70607
#
# Poissons Ratio (x) = 0.69455 0.63413
# Poissons Ratio (y) = 0.23897 0.10053
# Poissons Ratio (z) = 0.31596 0.14559
#
# Static dielectric constant tensor:
#      x y z
#    x 1.718860 0.000000 0.000000 
#    y 0.000000 1.745630 0.000000 
#    z 0.000000 0.000000 1.726550 
# 
# From -- ./inp_files/10927.got.cif
#   From: 2010.05.17/outbox.cif.g08.bks.cpg/sg37_6_cif.got.tgz:10927.got - 2010.06.03 17:53:42.
