data_PCOD9354932
_publ_section_title
;
Structure prediction by ZEFSAII (Michael W. Deem and Ramdas Pophale) SiO2 
 PCOD9354932
Probable space group: C C C 2
;
_chemical_formula_sum "Si O2"
_cell_formula_units_Z 60
_cell_length_a 8.101812
_cell_length_b 24.833179
_cell_length_c 14.013229
_cell_angle_alpha 90.000000
_cell_angle_beta 90.000000
_cell_angle_gamma 90.000000
_cell_volume 2819.374059
_symmetry_space_group_name_H-M "C C C 2"
_symmetry_group_IT_number 37
_symmetry_cell_setting 'orthorhombic'
loop_
_space_group_symop_operation_xyz
x,y,z
-x,-y,z
-x,y,1/2+z
x,-y,1/2+z
1/2+x,1/2+y,z
1/2-x,1/2-y,z
1/2-x,1/2+y,1/2+z
1/2+x,1/2-y,1/2+z
loop_
_atom_site_type_symbol
_atom_site_label
_atom_site_fract_x
_atom_site_fract_y
_atom_site_fract_z
Si Si1 0.500000 0.000000 0.257311
Si Si2 0.846116 0.958997 0.287116
Si Si3 0.551088 0.400662 0.606367
Si Si4 0.707454 0.100602 0.209322
Si Si5 0.089571 0.223627 0.118100
Si Si6 0.439383 0.258369 0.427654
Si Si7 0.090339 0.287253 0.764436
Si Si8 0.555349 0.379151 0.388608
O O1 0.664494 0.979749 0.311342
O O2 0.420176 0.948578 0.203482
O O3 0.856402 0.942662 0.175027
O O4 0.891366 0.906411 0.346621
O O5 0.000000 0.000000 0.303803
O O6 0.356295 0.405113 0.633516
O O7 0.600471 0.339717 0.634119
O O8 0.583895 0.403322 0.493819
O O9 0.614921 0.157362 0.209025
O O10 0.803421 0.105486 0.312060
O O11 0.250000 0.250000 0.072526
O O12 0.054813 0.254235 0.214964
O O13 0.949308 0.237372 0.041736
O O14 0.250000 0.250000 0.402174
O O15 0.543144 0.211156 0.375933
O O16 0.522403 0.315317 0.395685
O O17 0.250000 0.250000 0.753457
#
# Coordination Sequence:
#
# PCOD9354932 Si02
#       8
#     4   8   8   8   8   8   8   8
#     4  12  26  46  68  96 132 170 232 288 330 398
#     4  11  23  47  67  92 128 172 220 282 335 388
#     4  10  22  43  68  92 135 175 215 271 351 404
#     4  11  24  44  66 100 131 179 224 283 335 403
#     4  11  24  39  61  99 136 177 219 269 337 415
#     4  11  24  39  61  99 136 177 219 269 337 415
#     4  12  21  39  67  94 136 175 218 263 337 412
#     4  10  22  43  68  92 135 175 215 271 351 404
#
# _framework density 21.281319
#
# number of rings (size 3 to 8) (size 9 to 14) (size 15 to 20)
#    0.000    1.067    5.333    2.000    7.467    0.533 
#    0.000    2.667    0.000    0.000    0.000    0.000 
#    0.000    0.000    0.000    0.000    0.000    0.000 
#
# Total GULP energy -167381.899638 kJ/mol
# GULP energy per Si atom -5579.396655 kJ/mol
# Density = 2.123288 g / cm^3
# Si number density = 21.281319 Si / 1000 Ang^3
#
#
#
# Elastic Constant Matrix: (Units=GPa)
#
#
# Indices 1 2 3 4 5 6 
#
# 1 106.5175 29.6756 0.1068 0.0000 0.0000 0.0000
# 2 29.6756 65.7426 -5.3899 0.0000 0.0000 0.0000
# 3 0.1068 -5.3899 74.6657 0.0000 0.0000 0.0000
# 4 0.0000 0.0000 0.0000 10.9736 0.0000 0.0000
# 5 0.0000 0.0000 0.0000 0.0000 132.7073 0.0000
# 6 0.0000 0.0000 0.0000 0.0000 0.0000 35.1596
#
#
#
# Elastic Compliance Matrix: (Units=1/GPa)
#
#
# Indices 1 2 3 4 5 6 
#
# 1 0.010749 -0.004882 -0.000368 0.000000 0.000000 0.000000
# 2 -0.004882 0.017519 0.001272 0.000000 0.000000 0.000000
# 3 -0.000368 0.001272 0.013485 0.000000 0.000000 0.000000
# 4 0.000000 0.000000 0.000000 0.091127 0.000000 0.000000
# 5 0.000000 0.000000 0.000000 0.000000 0.007535 0.000000
# 6 0.000000 0.000000 0.000000 0.000000 0.000000 0.028442
#
#
# Mechanical properties :
#
#
# Convention : Reuss Voigt Hill
#
# Bulk Modulus (GPa) = 29.58892 32.85675 31.22283
# Shear Modulus (GPa) = 26.58458 50.60368 38.59413
#
# Velocity S-wave (km/s) = 3.53823 4.88161 4.26317
# Velocity P-wave (km/s) = 5.53408 6.87359 6.23988
#
# Compressibility (1/GPa) = 0.03379643
#
# Stress axis : x y z
#
# Youngs Moduli (GPa) = 93.03530 57.08166 74.15454
#
# Poissons Ratio (x) = 0.27867 0.02727
# Poissons Ratio (y) = 0.45420 -0.09430
# Poissons Ratio (z) = 0.03422 -0.07259
#
# Static dielectric constant tensor:
#      x y z
#    x 1.107900 0.000000 0.000000 
#    y 0.000000 1.823030 0.000000 
#    z 0.000000 0.000000 1.773940 
# 
# From -- ./inp_files/10936.got.cif
#   From: 2010.05.17/outbox.cif.g08.bks.cpg/sg37_6_cif.got.tgz:10936.got - 2010.06.03 17:53:42.
