data_PCOD9354520
_publ_section_title
;
Structure prediction by ZEFSAII (Michael W. Deem and Ramdas Pophale) SiO2 
 PCOD9354520
Probable space group: C C C 2
;
_chemical_formula_sum "Si O2"
_cell_formula_units_Z 56
_cell_length_a 5.240736
_cell_length_b 25.130656
_cell_length_c 18.427615
_cell_angle_alpha 90.000000
_cell_angle_beta 90.000000
_cell_angle_gamma 90.000000
_cell_volume 2426.974640
_symmetry_space_group_name_H-M "C C C 2"
_symmetry_group_IT_number 37
_symmetry_cell_setting 'orthorhombic'
loop_
_space_group_symop_operation_xyz
x,y,z
-x,-y,z
-x,y,1/2+z
x,-y,1/2+z
1/2+x,1/2+y,z
1/2-x,1/2-y,z
1/2-x,1/2+y,1/2+z
1/2+x,1/2-y,1/2+z
loop_
_atom_site_type_symbol
_atom_site_label
_atom_site_fract_x
_atom_site_fract_y
_atom_site_fract_z
Si Si1 0.649516 0.336303 0.952120
Si Si2 0.649514 0.663697 0.283228
Si Si3 0.827739 0.304043 0.530739
Si Si4 0.500000 0.897785 0.117674
Si Si5 0.890244 0.055192 0.034528
Si Si6 0.327741 0.804043 0.204609
Si Si7 0.890244 0.055192 0.700820
O O1 0.711042 0.336060 0.867674
O O2 0.391011 0.304946 0.969755
O O3 0.577820 0.395537 0.980461
O O4 0.891789 0.312724 0.996288
O O5 0.391008 0.695054 0.265593
O O6 0.577818 0.604463 0.254887
O O7 0.891786 0.687276 0.239060
O O8 0.750000 0.250000 0.571818
O O9 0.803550 0.354733 0.584039
O O10 0.407672 0.936307 0.053995
O O11 0.303551 0.854733 0.151309
O O12 0.592329 0.936307 0.181353
O O13 0.000000 0.058632 0.117674
O O14 0.000000 0.000000 0.005666
O O15 0.250000 0.750000 0.163530
O O16 0.000000 0.000000 0.729682
#
# Coordination Sequence:
#
# PCOD9354520 Si02
#       7
#     8   8   8   8   8   8   8
#     4  11  24  43  64  95 133 170 216 269 324 394
#     4  11  24  43  64  95 133 170 216 269 324 394
#     4  11  24  41  66  95 130 174 217 268 327 390
#     4  10  22  41  64  96 136 164 225 278 332 390
#     4  10  21  40  65  93 122 169 214 270 331 391
#     4  11  24  41  66  95 130 174 217 268 327 390
#     4  10  21  40  65  93 122 169 214 270 331 391
#
# _framework density 23.073996999999999
#
# number of rings (size 3 to 8) (size 9 to 14) (size 15 to 20)
#    0.000    1.429    2.857    1.714    0.000   10.857 
#    0.000    0.000    0.000    5.143    0.000    0.000 
#    0.000    0.000    0.000    0.000    0.000    0.000 
#
# Total GULP energy -155978.635005 kJ/mol
# GULP energy per Si atom -5570.665536 kJ/mol
# Density = 2.302148 g / cm^3
# Si number density = 23.073997 Si / 1000 Ang^3
#
#
#
# Elastic Constant Matrix: (Units=GPa)
#
#
# Indices 1 2 3 4 5 6 
#
# 1 115.7687 69.8602 31.9362 0.0000 0.0000 0.0000
# 2 69.8602 177.7474 13.8751 0.0000 0.0000 0.0000
# 3 31.9362 13.8751 79.1059 0.0000 0.0000 0.0000
# 4 0.0000 0.0000 0.0000 10.3988 0.0000 0.0000
# 5 0.0000 0.0000 0.0000 0.0000 32.3386 0.0000
# 6 0.0000 0.0000 0.0000 0.0000 0.0000 31.6005
#
#
#
# Elastic Compliance Matrix: (Units=1/GPa)
#
#
# Indices 1 2 3 4 5 6 
#
# 1 0.012607 -0.004621 -0.004279 0.000000 0.000000 0.000000
# 2 -0.004621 0.007398 0.000568 0.000000 0.000000 0.000000
# 3 -0.004279 0.000568 0.014269 0.000000 0.000000 0.000000
# 4 0.000000 0.000000 0.000000 0.096165 0.000000 0.000000
# 5 0.000000 0.000000 0.000000 0.000000 0.030923 0.000000
# 6 0.000000 0.000000 0.000000 0.000000 0.000000 0.031645
#
#
# Mechanical properties :
#
#
# Convention : Reuss Voigt Hill
#
# Bulk Modulus (GPa) = 56.78648 67.10724 61.94686
# Shear Modulus (GPa) = 23.19754 31.99761 27.59758
#
# Velocity S-wave (km/s) = 3.17417 3.72793 3.46214
# Velocity P-wave (km/s) = 6.17235 6.90483 6.54883
#
# Compressibility (1/GPa) = 0.01760983
#
# Stress axis : x y z
#
# Youngs Moduli (GPa) = 79.32253 135.17616 70.08114
#
# Poissons Ratio (x) = 0.62462 0.29988
# Poissons Ratio (y) = 0.36654 -0.03980
# Poissons Ratio (z) = 0.33942 -0.07677
#
# Static dielectric constant tensor:
#      x y z
#    x 2.181150 0.000000 0.000000 
#    y 0.000000 1.925920 0.000000 
#    z 0.000000 0.000000 1.844510 
# 
# From -- ./inp_files/15913.got.cif
#   From: 2010.05.17/outbox.cif.g08.bks.cpg/sg37_8_cif.got.tgz:15913.got - 2010.06.03 17:53:42.
