data_PCOD9354611
_publ_section_title
;
Structure prediction by ZEFSAII (Michael W. Deem and Ramdas Pophale) SiO2 
 PCOD9354611
Probable space group: C C C 2
;
_chemical_formula_sum "Si O2"
_cell_formula_units_Z 40
_cell_length_a 26.095281
_cell_length_b 5.020072
_cell_length_c 13.733911
_cell_angle_alpha 90.000000
_cell_angle_beta 90.000000
_cell_angle_gamma 90.000000
_cell_volume 1799.144943
_symmetry_space_group_name_H-M "C C C 2"
_symmetry_group_IT_number 37
_symmetry_cell_setting 'orthorhombic'
loop_
_space_group_symop_operation_xyz
x,y,z
-x,-y,z
-x,y,1/2+z
x,-y,1/2+z
1/2+x,1/2+y,z
1/2-x,1/2-y,z
1/2-x,1/2+y,1/2+z
1/2+x,1/2-y,1/2+z
loop_
_atom_site_type_symbol
_atom_site_label
_atom_site_fract_x
_atom_site_fract_y
_atom_site_fract_z
Si Si1 0.750000 0.250000 0.133471
Si Si2 0.558962 0.557850 0.644168
Si Si3 0.500000 0.000000 0.360862
Si Si4 0.402901 0.084341 0.239842
Si Si5 0.203792 0.467247 0.313962
Si Si6 0.000000 0.000000 0.468534
Si Si7 0.250000 0.250000 0.992699
O O1 0.790365 0.362524 0.213362
O O2 0.735973 0.500070 0.063190
O O3 0.500000 0.500000 0.679797
O O4 0.591548 0.290808 0.651686
O O5 0.544588 0.631777 0.534429
O O6 0.588292 0.787167 0.700572
O O7 0.546539 0.870762 0.303073
O O8 0.476085 0.749680 0.415617
O O9 0.352703 0.146014 0.301539
O O10 0.250000 0.250000 0.314904
O O11 0.208968 0.637470 0.413359
#
# Coordination Sequence:
#
# PCOD9354611 Si02
#       7
#     4   8   4   8   8   4   4
#     4  11  24  49  74  98 142 191 236 293 364 428
#     4  10  21  43  63  91 133 178 220 274 330 411
#     4  12  20  42  60 100 132 176 220 282 346 408
#     4  12  24  42  71  95 134 185 225 278 355 417
#     4  11  27  48  73 107 146 185 246 300 360 435
#     4  10  22  40  62  94 144 162 230 276 332 412
#     4  11  24  49  72 102 146 181 240 301 354 422
#
# _framework density 22.232783000000001
#
# number of rings (size 3 to 8) (size 9 to 14) (size 15 to 20)
#    0.600    0.400    4.000    2.400    5.600    0.000 
#   10.800    0.000    0.000    0.000    0.000    0.000 
#    0.000    0.000    0.000    0.000    0.000    0.000 
#
# Total GULP energy -111346.316740 kJ/mol
# GULP energy per Si atom -5567.315837 kJ/mol
# Density = 2.218218 g / cm^3
# Si number density = 22.232783 Si / 1000 Ang^3
#
#
#
# Elastic Constant Matrix: (Units=GPa)
#
#
# Indices 1 2 3 4 5 6 
#
# 1 68.4285 7.6426 -0.8766 0.0000 0.0000 0.0000
# 2 7.6426 115.9077 30.4316 0.0000 0.0000 0.0000
# 3 -0.8766 30.4316 97.4189 0.0000 0.0000 0.0000
# 4 0.0000 0.0000 0.0000 927.4223 0.0000 0.0000
# 5 0.0000 0.0000 0.0000 0.0000 77.4835 0.0000
# 6 0.0000 0.0000 0.0000 0.0000 0.0000 21.2417
#
#
#
# Elastic Compliance Matrix: (Units=1/GPa)
#
#
# Indices 1 2 3 4 5 6 
#
# 1 0.014742 -0.001097 0.000475 0.000000 0.000000 0.000000
# 2 -0.001097 0.009480 -0.002971 0.000000 0.000000 0.000000
# 3 0.000475 -0.002971 0.011197 0.000000 0.000000 0.000000
# 4 0.000000 0.000000 0.000000 0.001078 0.000000 0.000000
# 5 0.000000 0.000000 0.000000 0.000000 0.012906 0.000000
# 6 0.000000 0.000000 0.000000 0.000000 0.000000 0.047077
#
#
# Mechanical properties :
#
#
# Convention : Reuss Voigt Hill
#
# Bulk Modulus (GPa) = 35.41807 39.57226 37.49517
# Shear Modulus (GPa) = 44.21720 221.53334 132.87527
#
# Velocity S-wave (km/s) = 4.46447 9.99295 7.73920
# Velocity P-wave (km/s) = 6.52230 12.28751 9.83675
#
# Compressibility (1/GPa) = 0.02823417
#
# Stress axis : x y z
#
# Youngs Moduli (GPa) = 67.83162 105.48555 89.30674
#
# Poissons Ratio (x) = 0.11570 -0.04245
# Poissons Ratio (y) = 0.07440 0.26535
# Poissons Ratio (z) = -0.03224 0.31342
#
# Static dielectric constant tensor:
#      x y z
#    x 1.540680 0.000000 0.000000 
#    y 0.000000 1.485300 0.000000 
#    z 0.000000 0.000000 1.887980 
# 
# From -- ./inp_files/9007.got.cif
#   From: 2010.05.17/outbox.cif.g08.bks.cpg/sg37_5_cif.got.tgz:9007.got - 2010.06.03 17:53:42.
