data_PCOD9354678
_publ_section_title
;
Structure prediction by ZEFSAII (Michael W. Deem and Ramdas Pophale) SiO2 
 PCOD9354678
Probable space group: C C C 2
;
_chemical_formula_sum "Si O2"
_cell_formula_units_Z 64
_cell_length_a 17.807162
_cell_length_b 26.349611
_cell_length_c 5.393939
_cell_angle_alpha 90.000000
_cell_angle_beta 90.000000
_cell_angle_gamma 90.000000
_cell_volume 2530.899783
_symmetry_space_group_name_H-M "C C C 2"
_symmetry_group_IT_number 37
_symmetry_cell_setting 'orthorhombic'
loop_
_space_group_symop_operation_xyz
x,y,z
-x,-y,z
-x,y,1/2+z
x,-y,1/2+z
1/2+x,1/2+y,z
1/2-x,1/2-y,z
1/2-x,1/2+y,1/2+z
1/2+x,1/2-y,1/2+z
loop_
_atom_site_type_symbol
_atom_site_label
_atom_site_fract_x
_atom_site_fract_y
_atom_site_fract_z
Si Si1 0.296618 0.067220 0.755090
Si Si2 0.975616 0.760821 0.833622
Si Si3 0.698664 0.839250 0.433447
Si Si4 0.315400 0.379573 0.133845
Si Si5 0.675755 0.781380 0.953777
Si Si6 0.467257 0.057220 0.909291
Si Si7 0.839833 0.012323 0.754736
Si Si8 0.472041 0.376534 0.868767
O O1 0.314043 0.101920 0.513499
O O2 0.377678 0.053571 0.868690
O O3 0.239063 0.019569 0.718814
O O4 0.250817 0.102997 0.946837
O O5 0.018023 0.736165 0.064783
O O6 0.890439 0.758098 0.915923
O O7 0.002651 0.819089 0.817780
O O8 0.784443 0.838339 0.325874
O O9 0.686238 0.809102 0.688006
O O10 0.656793 0.816759 0.191975
O O11 0.329621 0.428781 0.300734
O O12 0.387392 0.371317 0.964778
O O13 0.750000 0.750000 0.007527
O O14 0.506357 0.081755 0.667670
O O15 0.500000 0.000000 0.924574
O O16 0.879337 0.010589 0.490437
O O17 0.482424 0.400522 0.598087
#
# Coordination Sequence:
#
# PCOD9354678 Si02
#       8
#     8   8   8   8   8   8   8   8
#     4  11  25  44  69 100 142 184 249 280 351 411
#     4  10  22  44  69  96 128 183 227 273 346 431
#     4  12  25  42  69 104 138 179 233 289 351 405
#     4  11  24  42  72 104 141 182 238 292 353 408
#     4  12  26  45  70 104 142 177 225 294 356 423
#     4  10  25  39  64  92 134 180 238 302 337 383
#     4  10  22  36  65  93 128 178 233 276 325 404
#     4  10  24  42  71 103 141 175 231 289 347 421
#
# _framework density 25.287448999999999
#
# number of rings (size 3 to 8) (size 9 to 14) (size 15 to 20)
#    0.000    1.250    2.500    1.875   10.500    2.000 
#    0.000    3.750    0.000    9.000    0.000    0.000 
#    0.000    0.000    0.000    0.000    0.000    0.000 
#
# Total GULP energy -178655.816436 kJ/mol
# GULP energy per Si atom -5582.994264 kJ/mol
# Density = 2.522989 g / cm^3
# Si number density = 25.287449 Si / 1000 Ang^3
#
#
#
# Elastic Constant Matrix: (Units=GPa)
#
#
# Indices 1 2 3 4 5 6 
#
# 1 101.4832 14.4214 19.9964 0.0000 0.0000 0.0000
# 2 14.4214 48.3704 35.8656 0.0000 0.0000 0.0000
# 3 19.9964 35.8656 180.8580 0.0000 0.0000 0.0000
# 4 0.0000 0.0000 0.0000 22.2255 0.0000 0.0000
# 5 0.0000 0.0000 0.0000 0.0000 40.9350 0.0000
# 6 0.0000 0.0000 0.0000 0.0000 0.0000 21.5601
#
#
#
# Elastic Compliance Matrix: (Units=1/GPa)
#
#
# Indices 1 2 3 4 5 6 
#
# 1 0.010350 -0.002623 -0.000624 0.000000 0.000000 0.000000
# 2 -0.002623 0.024902 -0.004648 0.000000 0.000000 0.000000
# 3 -0.000624 -0.004648 0.006520 0.000000 0.000000 0.000000
# 4 0.000000 0.000000 0.000000 0.044993 0.000000 0.000000
# 5 0.000000 0.000000 0.000000 0.000000 0.024429 0.000000
# 6 0.000000 0.000000 0.000000 0.000000 0.000000 0.046382
#
#
# Mechanical properties :
#
#
# Convention : Reuss Voigt Hill
#
# Bulk Modulus (GPa) = 38.48930 52.36427 45.42678
# Shear Modulus (GPa) = 27.46838 34.30599 30.88719
#
# Velocity S-wave (km/s) = 3.29940 3.68726 3.49871
# Velocity P-wave (km/s) = 5.45605 6.23541 5.85871
#
# Compressibility (1/GPa) = 0.02598125
#
# Stress axis : x y z
#
# Youngs Moduli (GPa) = 96.62245 40.15672 153.37389
#
# Poissons Ratio (x) = 0.10533 0.09573
# Poissons Ratio (y) = 0.25343 0.71294
# Poissons Ratio (z) = 0.06031 0.18666
#
# Static dielectric constant tensor:
#      x y z
#    x 2.026040 0.000000 0.000000 
#    y 0.000000 1.930050 0.000000 
#    z 0.000000 0.000000 2.116370 
# 
# From -- ./inp_files/899.got.cif
#   From: 2010.05.17/outbox.cif.g08.bks.cpg/sg37_1_cif.got.tgz:899.got - 2010.06.03 17:53:42.
