data_PCOD9354518
_publ_section_title
;
Structure prediction by ZEFSAII (Michael W. Deem and Ramdas Pophale) SiO2 
 PCOD9354518
Probable space group: C C C 2
;
_chemical_formula_sum "Si O2"
_cell_formula_units_Z 48
_cell_length_a 5.018409
_cell_length_b 27.298951
_cell_length_c 14.589660
_cell_angle_alpha 90.000000
_cell_angle_beta 90.000000
_cell_angle_gamma 90.000000
_cell_volume 1998.744048
_symmetry_space_group_name_H-M "C C C 2"
_symmetry_group_IT_number 37
_symmetry_cell_setting 'orthorhombic'
loop_
_space_group_symop_operation_xyz
x,y,z
-x,-y,z
-x,y,1/2+z
x,-y,1/2+z
1/2+x,1/2+y,z
1/2-x,1/2-y,z
1/2-x,1/2+y,1/2+z
1/2+x,1/2-y,1/2+z
loop_
_atom_site_type_symbol
_atom_site_label
_atom_site_fract_x
_atom_site_fract_y
_atom_site_fract_z
Si Si1 0.741515 0.125349 0.275710
Si Si2 0.136202 0.106134 0.968710
Si Si3 0.500000 0.000000 0.144803
Si Si4 0.500000 0.500000 0.010344
Si Si5 0.509467 0.284730 0.509079
Si Si6 0.261490 0.903624 0.679247
Si Si7 0.013348 0.219077 0.222746
O O1 0.681873 0.109324 0.378722
O O2 0.466905 0.135086 0.222724
O O3 0.919901 0.173741 0.281002
O O4 0.960715 0.094229 0.217106
O O5 0.265207 0.101782 0.069579
O O6 0.983384 0.158899 0.973579
O O7 0.005607 0.052004 0.957595
O O8 0.748792 0.006852 0.077399
O O9 0.583147 0.953491 0.203995
O O10 0.250000 0.250000 0.502109
O O11 0.578521 0.294231 0.617205
O O12 0.750000 0.250000 0.471974
O O13 0.750000 0.250000 0.213798
O O14 0.250000 0.250000 0.264551
#
# Coordination Sequence:
#
# PCOD9354518 Si02
#       7
#     8   8   4   4   8   8   8
#     4  12  26  42  73 104 134 191 229 293 357 419
#     4  11  26  47  74 105 148 185 241 291 356 425
#     4  10  22  42  72  94 134 194 228 286 362 410
#     4  10  24  44  70 106 140 190 234 298 346 414
#     4  10  23  39  69 103 136 188 227 286 352 415
#     4  11  25  45  67 101 141 178 238 291 347 419
#     4  10  21  40  64  99 138 180 230 286 347 413
#
# _framework density 24.015083000000001
#
# number of rings (size 3 to 8) (size 9 to 14) (size 15 to 20)
#    0.000    1.333    1.667    3.000    4.667    9.333 
#    0.000    0.833    0.000    0.000    0.000    0.000 
#    0.000    0.000    0.000    0.000    0.000    0.000 
#
# Total GULP energy -133832.077416 kJ/mol
# GULP energy per Si atom -5576.336559 kJ/mol
# Density = 2.396042 g / cm^3
# Si number density = 24.015083 Si / 1000 Ang^3
#
#
#
# Elastic Constant Matrix: (Units=GPa)
#
#
# Indices 1 2 3 4 5 6 
#
# 1 91.4343 14.3957 10.3208 0.0000 0.0000 0.0000
# 2 14.3957 151.3236 6.4055 0.0000 0.0000 0.0000
# 3 10.3208 6.4055 113.8239 0.0000 0.0000 0.0000
# 4 0.0000 0.0000 0.0000 208.9974 0.0000 0.0000
# 5 0.0000 0.0000 0.0000 0.0000 10.6317 0.0000
# 6 0.0000 0.0000 0.0000 0.0000 0.0000 27.0884
#
#
#
# Elastic Compliance Matrix: (Units=1/GPa)
#
#
# Indices 1 2 3 4 5 6 
#
# 1 0.011206 -0.001026 -0.000958 0.000000 0.000000 0.000000
# 2 -0.001026 0.006718 -0.000285 0.000000 0.000000 0.000000
# 3 -0.000958 -0.000285 0.008888 0.000000 0.000000 0.000000
# 4 0.000000 0.000000 0.000000 0.004785 0.000000 0.000000
# 5 0.000000 0.000000 0.000000 0.000000 0.094058 0.000000
# 6 0.000000 0.000000 0.000000 0.000000 0.000000 0.036916
#
#
# Mechanical properties :
#
#
# Convention : Reuss Voigt Hill
#
# Bulk Modulus (GPa) = 44.89367 46.53623 45.71495
# Shear Modulus (GPa) = 28.64759 71.04084 49.84421
#
# Velocity S-wave (km/s) = 3.45759 5.44481 4.56075
# Velocity P-wave (km/s) = 5.88850 7.67776 6.84187
#
# Compressibility (1/GPa) = 0.02227486
#
# Stress axis : x y z
#
# Youngs Moduli (GPa) = 89.23430 148.85427 112.50563
#
# Poissons Ratio (x) = 0.15265 0.10783
# Poissons Ratio (y) = 0.09151 0.03207
# Poissons Ratio (z) = 0.08552 0.04243
#
# Static dielectric constant tensor:
#      x y z
#    x 1.886260 0.000000 0.000000 
#    y 0.000000 1.954150 0.000000 
#    z 0.000000 0.000000 1.989480 
# 
# From -- ./inp_files/9801.got.cif
#   From: 2010.05.17/outbox.cif.g08.bks.cpg/sg37_5_cif.got.tgz:9801.got - 2010.06.03 17:53:42.
