data_PCOD9354404
_publ_section_title
;
Structure prediction by ZEFSAII (Michael W. Deem and Ramdas Pophale) SiO2 
 PCOD9354404
Probable space group: C C C 2
;
_chemical_formula_sum "Si O2"
_cell_formula_units_Z 60
_cell_length_a 10.965457
_cell_length_b 20.074146
_cell_length_c 12.703039
_cell_angle_alpha 90.000000
_cell_angle_beta 90.000000
_cell_angle_gamma 90.000000
_cell_volume 2796.220698
_symmetry_space_group_name_H-M "C C C 2"
_symmetry_group_IT_number 37
_symmetry_cell_setting 'orthorhombic'
loop_
_space_group_symop_operation_xyz
x,y,z
-x,-y,z
-x,y,1/2+z
x,-y,1/2+z
1/2+x,1/2+y,z
1/2-x,1/2-y,z
1/2-x,1/2+y,1/2+z
1/2+x,1/2-y,1/2+z
loop_
_atom_site_type_symbol
_atom_site_label
_atom_site_fract_x
_atom_site_fract_y
_atom_site_fract_z
Si Si1 0.128705 0.908098 0.959000
Si Si2 0.117832 0.717045 0.602039
Si Si3 0.274838 0.468134 0.257856
Si Si4 0.915381 0.588558 0.985589
Si Si5 0.577531 0.143927 0.809212
Si Si6 0.883997 0.239607 0.977903
Si Si7 0.842553 0.455924 0.087792
Si Si8 0.500000 0.500000 0.105962
O O1 0.156453 0.961788 0.868553
O O2 0.111334 0.832765 0.921954
O O3 0.242713 0.907902 0.039046
O O4 0.023632 0.937197 0.031282
O O5 0.250000 0.750000 0.625764
O O6 0.147820 0.655916 0.522379
O O7 0.054273 0.687390 0.706239
O O8 0.007349 0.757481 0.547268
O O9 0.187506 0.403793 0.270924
O O10 0.184233 0.523244 0.207305
O O11 0.385085 0.477973 0.175770
O O12 0.976582 0.599349 0.871141
O O13 0.839798 0.522363 0.012666
O O14 0.028261 0.576676 0.065898
O O15 0.610428 0.199191 0.896521
O O16 0.750000 0.250000 0.030813
#
# Coordination Sequence:
#
# PCOD9354404 Si02
#       8
#     8   8   8   8   8   8   8   4
#     4  11  22  40  61  96 134 173 219 282 347 411
#     4  11  25  40  66 100 131 180 236 284 336 418
#     4  11  21  41  66  97 130 183 232 271 356 429
#     4  10  21  41  61  98 131 168 222 293 340 397
#     4  11  22  41  69  94 130 183 236 276 345 417
#     4  11  23  43  69  94 133 180 233 287 342 409
#     4  10  21  37  65  95 133 166 222 286 347 406
#     4  10  26  38  64 100 138 176 220 294 348 422
#
# _framework density 21.457533000000002
#
# number of rings (size 3 to 8) (size 9 to 14) (size 15 to 20)
#    0.000    1.333    4.000    1.600    1.867    1.067 
#    0.000    2.667    0.000    1.600    0.000    0.000 
#    0.000    0.000    0.000    0.000    0.000    0.000 
#
# Total GULP energy -167022.627340 kJ/mol
# GULP energy per Si atom -5567.420911 kJ/mol
# Density = 2.140869 g / cm^3
# Si number density = 21.457533 Si / 1000 Ang^3
#
#
#
# Elastic Constant Matrix: (Units=GPa)
#
#
# Indices 1 2 3 4 5 6 
#
# 1 62.7500 18.2987 41.0524 0.0000 0.0000 0.0000
# 2 18.2987 80.1326 35.5044 0.0000 0.0000 0.0000
# 3 41.0524 35.5044 104.7413 0.0000 0.0000 0.0000
# 4 0.0000 0.0000 0.0000 18.1408 0.0000 0.0000
# 5 0.0000 0.0000 0.0000 0.0000 20.3778 0.0000
# 6 0.0000 0.0000 0.0000 0.0000 0.0000 -8.8021
#
#
#
# Elastic Compliance Matrix: (Units=1/GPa)
#
#
# Indices 1 2 3 4 5 6 
#
# 1 0.021562 -0.001388 -0.007981 0.000000 0.000000 0.000000
# 2 -0.001388 0.014774 -0.004464 0.000000 0.000000 0.000000
# 3 -0.007981 -0.004464 0.014188 0.000000 0.000000 0.000000
# 4 0.000000 0.000000 0.000000 0.055124 0.000000 0.000000
# 5 0.000000 0.000000 0.000000 0.000000 0.049073 0.000000
# 6 0.000000 0.000000 0.000000 0.000000 0.000000 -0.113609
#
#
# Mechanical properties :
#
#
# Convention : Reuss Voigt Hill
#
# Bulk Modulus (GPa) = 43.74528 48.59278 46.16903
# Shear Modulus (GPa) = 65.44667 16.12784 40.78726
#
# Velocity S-wave (km/s) = 5.52872 2.74454 4.36459
# Velocity P-wave (km/s) = 7.82220 5.72176 6.85293
#
# Compressibility (1/GPa) = 0.02285961
#
# Stress axis : x y z
#
# Youngs Moduli (GPa) = 46.37773 67.68585 70.47981
#
# Poissons Ratio (x) = 0.09394 0.56247
# Poissons Ratio (y) = 0.06436 0.31463
# Poissons Ratio (z) = 0.37012 0.30215
#
# Static dielectric constant tensor:
#      x y z
#    x 1.820890 0.000000 0.000000 
#    y 0.000000 1.792320 0.000000 
#    z 0.000000 0.000000 1.808800 
# 
# From -- ./inp_files/7348.got.cif
#   From: 2010.05.17/outbox.cif.g08.bks.cpg/sg37_4_cif.got.tgz:7348.got - 2010.06.03 17:53:42.
