data_PCOD9354342
_publ_section_title
;
Structure prediction by ZEFSAII (Michael W. Deem and Ramdas Pophale) SiO2 
 PCOD9354342
Probable space group: C C C 2
;
_chemical_formula_sum "Si O2"
_cell_formula_units_Z 36
_cell_length_a 10.764054
_cell_length_b 15.762053
_cell_length_c 7.908035
_cell_angle_alpha 90.000000
_cell_angle_beta 90.000000
_cell_angle_gamma 90.000000
_cell_volume 1341.705605
_symmetry_space_group_name_H-M "C C C 2"
_symmetry_group_IT_number 37
_symmetry_cell_setting 'orthorhombic'
loop_
_space_group_symop_operation_xyz
x,y,z
-x,-y,z
-x,y,1/2+z
x,-y,1/2+z
1/2+x,1/2+y,z
1/2-x,1/2-y,z
1/2-x,1/2+y,1/2+z
1/2+x,1/2-y,1/2+z
loop_
_atom_site_type_symbol
_atom_site_label
_atom_site_fract_x
_atom_site_fract_y
_atom_site_fract_z
Si Si1 0.358716 0.321983 0.274820
Si Si2 0.272038 0.094110 0.976101
Si Si3 0.000000 0.500000 0.864662
Si Si4 0.011246 0.329210 0.141854
Si Si5 0.263845 0.654682 0.123435
O O1 0.250000 0.250000 0.282350
O O2 0.475752 0.262800 0.229167
O O3 0.353632 0.358901 0.464380
O O4 0.322394 0.389987 0.130162
O O5 0.214515 0.099103 0.789669
O O6 0.370686 0.017104 0.964490
O O7 0.374634 0.168213 0.010367
O O8 0.022611 0.585619 0.755928
O O9 0.879113 0.346816 0.058837
O O10 0.250000 0.750000 0.191668
#
# Coordination Sequence:
#
# PCOD9354342 Si02
#       5
#     8   8   4   8   8
#     4   9  20  38  57  85 130 171 226 276 325 416
#     4  10  21  39  56  88 133 170 216 269 347 418
#     4  10  22  36  62  96 138 174 206 286 378 398
#     4  10  21  38  60  93 139 169 216 288 341 402
#     4  10  21  34  58  88 123 174 223 269 341 396
#
# _framework density 26.831519
#
# number of rings (size 3 to 8) (size 9 to 14) (size 15 to 20)
#    0.000    2.222    0.000    2.667   18.667    0.000 
#    0.000    1.111    0.000    0.000    0.000    1.556 
#    0.000    0.000    0.000    0.000    0.000    0.000 
#
# Total GULP energy -100375.715650 kJ/mol
# GULP energy per Si atom -5576.428647 kJ/mol
# Density = 2.677045 g / cm^3
# Si number density = 26.831519 Si / 1000 Ang^3
#
#
#
# Elastic Constant Matrix: (Units=GPa)
#
#
# Indices 1 2 3 4 5 6 
#
# 1 52.8112 49.2412 57.6212 0.0000 0.0000 0.0000
# 2 49.2412 104.3518 77.0016 0.0000 0.0000 0.0000
# 3 57.6212 77.0016 196.4615 0.0000 0.0000 0.0000
# 4 0.0000 0.0000 0.0000 50.4923 0.0000 0.0000
# 5 0.0000 0.0000 0.0000 0.0000 34.4534 0.0000
# 6 0.0000 0.0000 0.0000 0.0000 0.0000 49.4870
#
#
#
# Elastic Compliance Matrix: (Units=1/GPa)
#
#
# Indices 1 2 3 4 5 6 
#
# 1 0.037978 -0.013649 -0.005789 0.000000 0.000000 0.000000
# 2 -0.013649 0.018388 -0.003204 0.000000 0.000000 0.000000
# 3 -0.005789 -0.003204 0.008044 0.000000 0.000000 0.000000
# 4 0.000000 0.000000 0.000000 0.019805 0.000000 0.000000
# 5 0.000000 0.000000 0.000000 0.000000 0.029025 0.000000
# 6 0.000000 0.000000 0.000000 0.000000 0.000000 0.020207
#
#
# Mechanical properties :
#
#
# Convention : Reuss Voigt Hill
#
# Bulk Modulus (GPa) = 52.28603 80.15028 66.21815
# Shear Modulus (GPa) = 27.01156 38.20393 32.60774
#
# Velocity S-wave (km/s) = 3.17631 3.77748 3.48987
# Velocity P-wave (km/s) = 5.74291 6.99731 6.40091
#
# Compressibility (1/GPa) = 0.01912557
#
# Stress axis : x y z
#
# Youngs Moduli (GPa) = 26.33081 54.38412 124.32194
#
# Poissons Ratio (x) = 0.74230 0.71972
# Poissons Ratio (y) = 0.35940 0.39829
# Poissons Ratio (z) = 0.15243 0.17423
#
# Static dielectric constant tensor:
#      x y z
#    x 2.194540 0.000000 0.000000 
#    y 0.000000 2.223460 0.000000 
#    z 0.000000 0.000000 2.243290 
# 
# From -- ./inp_files/3276.got.cif
#   From: 2010.05.17/outbox.cif.g08.bks.cpg/sg37_2_cif.got.tgz:3276.got - 2010.06.03 17:53:42.
