data_PCOD9354490
_publ_section_title
;
Structure prediction by ZEFSAII (Michael W. Deem and Ramdas Pophale) SiO2 
 PCOD9354490
Probable space group: C C C 2
;
_chemical_formula_sum "Si O2"
_cell_formula_units_Z 56
_cell_length_a 21.316988
_cell_length_b 22.635019
_cell_length_c 5.155427
_cell_angle_alpha 90.000000
_cell_angle_beta 90.000000
_cell_angle_gamma 90.000000
_cell_volume 2487.547290
_symmetry_space_group_name_H-M "C C C 2"
_symmetry_group_IT_number 37
_symmetry_cell_setting 'orthorhombic'
loop_
_space_group_symop_operation_xyz
x,y,z
-x,-y,z
-x,y,1/2+z
x,-y,1/2+z
1/2+x,1/2+y,z
1/2-x,1/2-y,z
1/2-x,1/2+y,1/2+z
1/2+x,1/2-y,1/2+z
loop_
_atom_site_type_symbol
_atom_site_label
_atom_site_fract_x
_atom_site_fract_y
_atom_site_fract_z
Si Si1 0.140933 0.623467 0.942410
Si Si2 0.973262 0.433269 0.672261
Si Si3 0.675050 0.374490 0.247169
Si Si4 0.734706 0.681317 0.248290
Si Si5 0.285215 0.038218 0.782812
Si Si6 0.960126 0.861512 0.565857
Si Si7 0.959302 0.277796 0.007372
O O1 0.199577 0.645415 0.769746
O O2 0.206825 0.512598 0.567490
O O3 0.094180 0.578725 0.792133
O O4 0.167398 0.589011 0.190744
O O5 0.000000 0.500000 0.634719
O O6 0.980365 0.406878 0.388509
O O7 0.899210 0.319620 0.026636
O O8 0.689729 0.343180 0.521616
O O9 0.716891 0.433336 0.249695
O O10 0.604039 0.388860 0.171553
O O11 0.701992 0.331728 0.022853
O O12 0.750000 0.750000 0.210700
O O13 0.986255 0.874851 0.279710
O O14 0.945046 0.791192 0.553336
O O15 0.987104 0.288124 0.721391
#
# Coordination Sequence:
#
# PCOD9354490 Si02
#       7
#     8   8   8   8   8   8   8
#     4  11  24  40  64  87 128 175 230 272 334 387
#     4  10  23  38  56  83 117 166 220 283 318 360
#     4  11  23  44  66  96 134 167 217 273 334 402
#     4  11  24  40  64  98 131 174 219 278 342 405
#     4  11  26  43  64  90 123 175 226 280 324 377
#     4  10  21  39  68  99 127 167 201 253 333 418
#     4  10  22  38  59  92 132 167 214 269 330 390
#
# _framework density 22.512134
#
# number of rings (size 3 to 8) (size 9 to 14) (size 15 to 20)
#    0.000    1.429    0.000    4.714    4.000    9.143 
#    0.000    0.000    0.000    2.571    0.000    0.000 
#    0.000    0.000    0.000    0.000    0.000    0.000 
#
# Total GULP energy -156611.058185 kJ/mol
# GULP energy per Si atom -5593.252078 kJ/mol
# Density = 2.246090 g / cm^3
# Si number density = 22.512134 Si / 1000 Ang^3
#
#
#
# Elastic Constant Matrix: (Units=GPa)
#
#
# Indices 1 2 3 4 5 6 
#
# 1 87.3126 1.3556 -6.2792 0.0000 0.0000 0.0000
# 2 1.3556 22.2873 10.2528 0.0000 0.0000 0.0000
# 3 -6.2792 10.2528 89.6321 0.0000 0.0000 0.0000
# 4 0.0000 0.0000 0.0000 20.1479 0.0000 0.0000
# 5 0.0000 0.0000 0.0000 0.0000 27.9569 0.0000
# 6 0.0000 0.0000 0.0000 0.0000 0.0000 38.3971
#
#
#
# Elastic Compliance Matrix: (Units=1/GPa)
#
#
# Indices 1 2 3 4 5 6 
#
# 1 0.011538 -0.001133 0.000938 0.000000 0.000000 0.000000
# 2 -0.001133 0.047472 -0.005510 0.000000 0.000000 0.000000
# 3 0.000938 -0.005510 0.011853 0.000000 0.000000 0.000000
# 4 0.000000 0.000000 0.000000 0.049633 0.000000 0.000000
# 5 0.000000 0.000000 0.000000 0.000000 0.035769 0.000000
# 6 0.000000 0.000000 0.000000 0.000000 0.000000 0.026044
#
#
# Mechanical properties :
#
#
# Convention : Reuss Voigt Hill
#
# Bulk Modulus (GPa) = 16.81999 23.32115 20.07057
# Shear Modulus (GPa) = 23.41520 30.22723 26.82122
#
# Velocity S-wave (km/s) = 3.22858 3.66827 3.45543
# Velocity P-wave (km/s) = 4.62450 5.32198 4.98546
#
# Compressibility (1/GPa) = 0.05945307
#
# Stress axis : x y z
#
# Youngs Moduli (GPa) = 86.66899 21.06498 84.36931
#
# Poissons Ratio (x) = 0.02387 -0.07913
# Poissons Ratio (y) = 0.09822 0.46484
# Poissons Ratio (z) = -0.08129 0.11606
#
# Static dielectric constant tensor:
#      x y z
#    x 1.852940 0.000000 0.000000 
#    y 0.000000 2.589580 0.000000 
#    z 0.000000 0.000000 1.833130 
# 
# From -- ./inp_files/1036.got.cif
#   From: 2010.05.17/outbox.cif.g08.bks.cpg/sg37_1_cif.got.tgz:1036.got - 2010.06.03 17:53:42.
