data_PCOD9354737
_publ_section_title
;
Structure prediction by ZEFSAII (Michael W. Deem and Ramdas Pophale) SiO2 
 PCOD9354737
Probable space group: C C C 2
;
_chemical_formula_sum "Si O2"
_cell_formula_units_Z 60
_cell_length_a 23.328636
_cell_length_b 13.713623
_cell_length_c 8.960750
_cell_angle_alpha 90.000000
_cell_angle_beta 90.000000
_cell_angle_gamma 90.000000
_cell_volume 2866.724208
_symmetry_space_group_name_H-M "C C C 2"
_symmetry_group_IT_number 37
_symmetry_cell_setting 'orthorhombic'
loop_
_space_group_symop_operation_xyz
x,y,z
-x,-y,z
-x,y,1/2+z
x,-y,1/2+z
1/2+x,1/2+y,z
1/2-x,1/2-y,z
1/2-x,1/2+y,1/2+z
1/2+x,1/2-y,1/2+z
loop_
_atom_site_type_symbol
_atom_site_label
_atom_site_fract_x
_atom_site_fract_y
_atom_site_fract_z
Si Si1 0.809272 0.975459 0.496150
Si Si2 0.052195 0.676172 0.389254
Si Si3 0.570933 0.150288 0.037365
Si Si4 0.000000 0.000000 0.466774
Si Si5 0.854603 0.458625 0.489160
Si Si6 0.226412 0.511795 0.243431
Si Si7 0.089622 0.845246 0.875109
Si Si8 0.399945 0.637271 0.542253
O O1 0.757994 0.960529 0.379441
O O2 0.860083 0.914285 0.429021
O O3 0.779805 0.944163 0.651414
O O4 0.838764 0.083460 0.512399
O O5 0.058433 0.649231 0.214732
O O6 0.092426 0.612337 0.495653
O O7 0.075765 0.785801 0.421716
O O8 0.988440 0.649219 0.443800
O O9 0.616639 0.066563 0.992424
O O10 0.591987 0.256442 0.988880
O O11 0.968195 0.910598 0.383322
O O12 0.052101 0.948302 0.553017
O O13 0.821682 0.430257 0.335699
O O14 0.809561 0.450650 0.623596
O O15 0.099901 0.813847 0.705011
#
# Coordination Sequence:
#
# PCOD9354737 Si02
#       8
#     8   8   8   4   8   8   8   8
#     4  10  22  43  71  97 139 174 228 274 338 394
#     4  12  27  44  68 103 137 174 223 279 341 409
#     4  12  27  44  68 103 137 174 223 279 341 409
#     4  10  22  38  68  96 140 180 212 268 328 406
#     4  11  25  47  73  91 133 177 233 280 338 382
#     4  10  22  46  71  95 128 184 228 284 326 392
#     4  11  23  40  67 102 139 177 219 271 340 405
#     4  11  23  40  67 102 139 177 219 271 340 405
#
# _framework density 20.929812999999999
#
# number of rings (size 3 to 8) (size 9 to 14) (size 15 to 20)
#    0.000    1.067    4.000    1.600    5.600    2.133 
#    0.000    8.000    0.000    0.000    0.000    0.000 
#    0.000    0.000    0.000    0.000    0.000    0.000 
#
# Total GULP energy -167045.877847 kJ/mol
# GULP energy per Si atom -5568.195928 kJ/mol
# Density = 2.088218 g / cm^3
# Si number density = 20.929813 Si / 1000 Ang^3
#
#
#
# Elastic Constant Matrix: (Units=GPa)
#
#
# Indices 1 2 3 4 5 6 
#
# 1 63.0316 0.4254 4.7898 0.0000 0.0000 0.0000
# 2 0.4254 48.5238 -4.6509 0.0000 0.0000 0.0000
# 3 4.7898 -4.6509 93.0190 0.0000 0.0000 0.0000
# 4 0.0000 0.0000 0.0000 13.1350 0.0000 0.0000
# 5 0.0000 0.0000 0.0000 0.0000 23.4147 0.0000
# 6 0.0000 0.0000 0.0000 0.0000 0.0000 -0.4522
#
#
#
# Elastic Compliance Matrix: (Units=1/GPa)
#
#
# Indices 1 2 3 4 5 6 
#
# 1 0.015930 -0.000219 -0.000831 0.000000 0.000000 0.000000
# 2 -0.000219 0.020711 0.001047 0.000000 0.000000 0.000000
# 3 -0.000831 0.001047 0.010846 0.000000 0.000000 0.000000
# 4 0.000000 0.000000 0.000000 0.076133 0.000000 0.000000
# 5 0.000000 0.000000 0.000000 0.000000 0.042708 0.000000
# 6 0.000000 0.000000 0.000000 0.000000 0.000000 -2.211320
#
#
# Mechanical properties :
#
#
# Convention : Reuss Voigt Hill
#
# Bulk Modulus (GPa) = 21.06214 22.85590 21.95902
# Shear Modulus (GPa) = -2.46407 20.82016 9.17804
#
# Velocity S-wave (km/s) = -1.08621 3.15740 2.09635
# Velocity P-wave (km/s) = 2.91752 4.92303 4.04649
#
# Compressibility (1/GPa) = 0.04747855
#
# Stress axis : x y z
#
# Youngs Moduli (GPa) = 62.77580 48.28418 92.20304
#
# Poissons Ratio (x) = 0.01059 0.07664
# Poissons Ratio (y) = 0.01377 -0.09652
# Poissons Ratio (z) = 0.05218 -0.05054
#
# Static dielectric constant tensor:
#      x y z
#    x 1.814860 0.000000 0.000000 
#    y 0.000000 1.744680 0.000000 
#    z 0.000000 0.000000 1.779930 
# 
# From -- ./inp_files/4639.got.cif
#   From: 2010.05.17/outbox.cif.g08.bks.cpg/sg37_3_cif.got.tgz:4639.got - 2010.06.03 17:53:42.
