data_PCOD9354816
_publ_section_title
;
Structure prediction by ZEFSAII (Michael W. Deem and Ramdas Pophale) SiO2 
 PCOD9354816
Probable space group: C C C 2
;
_chemical_formula_sum "Si O2"
_cell_formula_units_Z 48
_cell_length_a 18.257998
_cell_length_b 11.636999
_cell_length_c 10.467170
_cell_angle_alpha 90.000000
_cell_angle_beta 90.000000
_cell_angle_gamma 90.000000
_cell_volume 2223.941862
_symmetry_space_group_name_H-M "C C C 2"
_symmetry_group_IT_number 37
_symmetry_cell_setting 'orthorhombic'
loop_
_space_group_symop_operation_xyz
x,y,z
-x,-y,z
-x,y,1/2+z
x,-y,1/2+z
1/2+x,1/2+y,z
1/2-x,1/2-y,z
1/2-x,1/2+y,1/2+z
1/2+x,1/2-y,1/2+z
loop_
_atom_site_type_symbol
_atom_site_label
_atom_site_fract_x
_atom_site_fract_y
_atom_site_fract_z
Si Si1 0.000000 0.000000 0.884960
Si Si2 0.415166 0.697267 0.504378
Si Si3 0.787927 0.855650 0.816248
Si Si4 0.168545 0.470397 0.416244
Si Si5 0.076850 0.438306 0.150438
Si Si6 0.250000 0.750000 0.885571
Si Si7 0.354045 0.426270 0.234433
O O1 0.070978 0.962852 0.804206
O O2 0.982069 0.883750 0.962921
O O3 0.358685 0.702794 0.385514
O O4 0.433160 0.809374 0.589852
O O5 0.369283 0.617432 0.596430
O O6 0.750000 0.750000 0.750169
O O7 0.728939 0.926442 0.904322
O O8 0.810912 0.955976 0.723960
O O9 0.128010 0.448942 0.277890
O O10 0.113337 0.500183 0.528954
O O11 0.205818 0.350290 0.453343
O O12 0.000000 0.500000 0.181076
O O13 0.307756 0.672940 0.804216
#
# Coordination Sequence:
#
# PCOD9354816 Si02
#       7
#     4   8   8   8   8   4   8
#     4  10  24  42  64 108 124 180 232 286 334 426
#     4  11  23  44  72  91 139 181 223 282 354 418
#     4  10  22  41  67 102 129 173 227 281 341 410
#     4  11  25  45  70 103 136 183 234 285 347 417
#     4  12  27  45  71  99 144 187 229 282 353 421
#     4  10  22  42  68  96 134 176 232 288 342 408
#     4  10  22  40  70  93 135 177 229 278 349 412
#
# _framework density 21.583300000000001
#
# number of rings (size 3 to 8) (size 9 to 14) (size 15 to 20)
#    0.000    1.333    3.333    1.000    8.167    1.333 
#    4.500    0.000    0.000    0.000    0.000    0.000 
#    0.000    0.000    0.000    0.000    0.000    0.000 
#
# Total GULP energy -133767.273259 kJ/mol
# GULP energy per Si atom -5573.636386 kJ/mol
# Density = 2.153418 g / cm^3
# Si number density = 21.583300 Si / 1000 Ang^3
#
#
#
# Elastic Constant Matrix: (Units=GPa)
#
#
# Indices 1 2 3 4 5 6 
#
# 1 79.3225 47.4676 7.3146 0.0000 0.0000 0.0000
# 2 47.4676 112.7404 21.0000 0.0000 0.0000 0.0000
# 3 7.3146 21.0000 52.0561 0.0000 0.0000 0.0000
# 4 0.0000 0.0000 0.0000 -1.6753 0.0000 0.0000
# 5 0.0000 0.0000 0.0000 0.0000 6.8860 0.0000
# 6 0.0000 0.0000 0.0000 0.0000 0.0000 33.1083
#
#
#
# Elastic Compliance Matrix: (Units=1/GPa)
#
#
# Indices 1 2 3 4 5 6 
#
# 1 0.016867 -0.007201 0.000535 0.000000 0.000000 0.000000
# 2 -0.007201 0.012665 -0.004097 0.000000 0.000000 0.000000
# 3 0.000535 -0.004097 0.020788 0.000000 0.000000 0.000000
# 4 0.000000 0.000000 0.000000 -0.596894 0.000000 0.000000
# 5 0.000000 0.000000 0.000000 0.000000 0.145222 0.000000
# 6 0.000000 0.000000 0.000000 0.000000 0.000000 0.030204
#
#
# Mechanical properties :
#
#
# Convention : Reuss Voigt Hill
#
# Bulk Modulus (GPa) = 34.73117 43.96483 39.34800
# Shear Modulus (GPa) = -14.70483 18.88625 2.09071
#
# Velocity S-wave (km/s) = -2.61302 2.96132 0.98528
# Velocity P-wave (km/s) = 2.65006 5.66627 4.42320
#
# Compressibility (1/GPa) = 0.02879258
#
# Stress axis : x y z
#
# Youngs Moduli (GPa) = 59.28851 78.95734 48.10519
#
# Poissons Ratio (x) = 0.56858 -0.02574
# Poissons Ratio (y) = 0.42694 0.19711
# Poissons Ratio (z) = -0.03172 0.32352
#
# Static dielectric constant tensor:
#      x y z
#    x 1.763200 0.000000 0.000000 
#    y 0.000000 1.768920 0.000000 
#    z 0.000000 0.000000 1.774860 
# 
# From -- ./inp_files/7217.got.cif
#   From: 2010.05.17/outbox.cif.g08.bks.cpg/sg37_4_cif.got.tgz:7217.got - 2010.06.03 17:53:42.
