data_PCOD9354140
_publ_section_title
;
Structure prediction by ZEFSAII (Michael W. Deem and Ramdas Pophale) SiO2 
 PCOD9354140
Probable space group: C C C 2
;
_chemical_formula_sum "Si O2"
_cell_formula_units_Z 60
_cell_length_a 12.772659
_cell_length_b 7.457558
_cell_length_c 27.383692
_cell_angle_alpha 90.000000
_cell_angle_beta 90.000000
_cell_angle_gamma 90.000000
_cell_volume 2608.374578
_symmetry_space_group_name_H-M "C C C 2"
_symmetry_group_IT_number 37
_symmetry_cell_setting 'orthorhombic'
loop_
_space_group_symop_operation_xyz
x,y,z
-x,-y,z
-x,y,1/2+z
x,-y,1/2+z
1/2+x,1/2+y,z
1/2-x,1/2-y,z
1/2-x,1/2+y,1/2+z
1/2+x,1/2-y,1/2+z
loop_
_atom_site_type_symbol
_atom_site_label
_atom_site_fract_x
_atom_site_fract_y
_atom_site_fract_z
Si Si1 0.634343 0.775378 0.735320
Si Si2 0.151282 0.360409 0.293733
Si Si3 0.500000 0.000000 0.557889
Si Si4 0.210055 0.451051 0.996921
Si Si5 0.941760 0.165782 0.329125
Si Si6 0.914183 0.257917 0.132880
Si Si7 0.126490 0.469664 0.893739
Si Si8 0.229531 0.033471 0.099384
O O1 0.750000 0.750000 0.713566
O O2 0.625860 0.634466 0.780278
O O3 0.556454 0.766177 0.689784
O O4 0.632339 0.968039 0.760453
O O5 0.250000 0.250000 0.274858
O O6 0.175298 0.422020 0.348960
O O7 0.039066 0.268791 0.303140
O O8 0.401597 0.971622 0.523089
O O9 0.503701 0.825336 0.592942
O O10 0.250000 0.250000 0.989739
O O11 0.189798 0.516490 0.942211
O O12 0.281826 0.520055 0.041568
O O13 0.877939 0.270087 0.370283
O O14 0.000000 0.000000 0.352544
O O15 0.825414 0.413625 0.121357
O O16 0.870526 0.058475 0.124054
O O17 0.000000 0.500000 0.900558
O O18 0.250000 0.250000 0.103767
#
# Coordination Sequence:
#
# PCOD9354140 Si02
#       8
#     8   8   4   8   8   8   8   8
#     4  11  21  38  62  88 121 163 215 262 324 390
#     4  10  22  39  61  90 125 165 211 265 321 388
#     4  10  22  40  66  88 132 166 218 276 328 394
#     4  10  20  38  64  93 122 168 213 264 328 393
#     4  10  22  40  59  89 131 164 208 270 319 389
#     4  10  21  40  63  90 124 175 208 268 338 378
#     4   9  19  39  62  86 126 164 207 263 324 388
#     4   9  19  40  61  90 129 161 214 270 316 392
#
# _framework density 23.002828999999998
#
# number of rings (size 3 to 8) (size 9 to 14) (size 15 to 20)
#    0.000    2.133    2.000    2.000    1.867    3.733 
#    7.200   10.000    0.000    0.000    0.000    0.000 
#    0.000    0.000    0.000    0.000    0.000    0.000 
#
# Total GULP energy -167113.685498 kJ/mol
# GULP energy per Si atom -5570.456183 kJ/mol
# Density = 2.295047 g / cm^3
# Si number density = 23.002829 Si / 1000 Ang^3
#
#
#
# Elastic Constant Matrix: (Units=GPa)
#
#
# Indices 1 2 3 4 5 6 
#
# 1 41.2775 17.6669 -2.0979 0.0000 0.0000 0.0000
# 2 17.6669 87.1565 13.8334 0.0000 0.0000 0.0000
# 3 -2.0979 13.8334 154.0581 0.0000 0.0000 0.0000
# 4 0.0000 0.0000 0.0000 7.2007 0.0000 0.0000
# 5 0.0000 0.0000 0.0000 0.0000 51.6434 0.0000
# 6 0.0000 0.0000 0.0000 0.0000 0.0000 33.2009
#
#
#
# Elastic Compliance Matrix: (Units=1/GPa)
#
#
# Indices 1 2 3 4 5 6 
#
# 1 0.026640 -0.005536 0.000860 0.000000 0.000000 0.000000
# 2 -0.005536 0.012790 -0.001224 0.000000 0.000000 0.000000
# 3 0.000860 -0.001224 0.006613 0.000000 0.000000 0.000000
# 4 0.000000 0.000000 0.000000 0.138875 0.000000 0.000000
# 5 0.000000 0.000000 0.000000 0.000000 0.019364 0.000000
# 6 0.000000 0.000000 0.000000 0.000000 0.000000 0.030120
#
#
# Mechanical properties :
#
#
# Convention : Reuss Voigt Hill
#
# Bulk Modulus (GPa) = 29.20424 37.92188 33.56306
# Shear Modulus (GPa) = 19.40881 35.28165 27.34523
#
# Velocity S-wave (km/s) = 2.90790 3.92062 3.45160
# Velocity P-wave (km/s) = 4.89878 6.08412 5.52334
#
# Compressibility (1/GPa) = 0.03424160
#
# Stress axis : x y z
#
# Youngs Moduli (GPa) = 37.53815 78.18539 151.22497
#
# Poissons Ratio (x) = 0.43287 -0.13004
# Poissons Ratio (y) = 0.20783 0.18508
# Poissons Ratio (z) = -0.03228 0.09569
#
# Static dielectric constant tensor:
#      x y z
#    x 1.995770 0.000000 0.000000 
#    y 0.000000 1.894200 0.000000 
#    z 0.000000 0.000000 1.857170 
# 
# From -- ./inp_files/18857.got.cif
#   From: 2010.05.17/outbox.cif.g08.bks.cpg/sg37_10_cif.got.tgz:18857.got - 2010.06.03 17:53:42.
