data_PCOD9354957
_publ_section_title
;
Structure prediction by ZEFSAII (Michael W. Deem and Ramdas Pophale) SiO2 
 PCOD9354957
Probable space group: C C C 2
;
_chemical_formula_sum "Si O2"
_cell_formula_units_Z 60
_cell_length_a 15.210465
_cell_length_b 15.349503
_cell_length_c 11.732611
_cell_angle_alpha 90.000000
_cell_angle_beta 90.000000
_cell_angle_gamma 90.000000
_cell_volume 2739.248805
_symmetry_space_group_name_H-M "C C C 2"
_symmetry_group_IT_number 37
_symmetry_cell_setting 'orthorhombic'
loop_
_space_group_symop_operation_xyz
x,y,z
-x,-y,z
-x,y,1/2+z
x,-y,1/2+z
1/2+x,1/2+y,z
1/2-x,1/2-y,z
1/2-x,1/2+y,1/2+z
1/2+x,1/2-y,1/2+z
loop_
_atom_site_type_symbol
_atom_site_label
_atom_site_fract_x
_atom_site_fract_y
_atom_site_fract_z
Si Si1 0.750000 0.750000 0.626251
Si Si2 0.645310 0.360505 0.300882
Si Si3 0.950414 0.817513 0.213286
Si Si4 0.391912 0.775975 0.485613
Si Si5 0.695646 0.559780 0.318244
Si Si6 0.356315 0.070502 0.146438
Si Si7 0.674649 0.101288 0.005501
Si Si8 0.534445 0.859583 0.326633
O O1 0.709598 0.675582 0.704773
O O2 0.676458 0.801502 0.555852
O O3 0.547244 0.348905 0.249737
O O4 0.654563 0.297507 0.410023
O O5 0.668471 0.459325 0.328400
O O6 0.881872 0.890137 0.253079
O O7 0.927111 0.734068 0.290938
O O8 0.943702 0.780785 0.083431
O O9 0.342814 0.850469 0.557429
O O10 0.445368 0.833255 0.390938
O O11 0.780647 0.575257 0.240244
O O12 0.731276 0.590977 0.441484
O O13 0.450308 0.087329 0.209418
O O14 0.342918 0.976640 0.091737
O O15 0.594252 0.094032 0.918826
#
# Coordination Sequence:
#
# PCOD9354957 Si02
#       8
#     4   8   8   8   8   8   8   8
#     4  12  24  40  64  92 136 174 218 292 336 420
#     4  11  25  41  66 101 135 175 230 286 343 417
#     4  10  22  44  67  96 137 178 231 282 349 414
#     4  10  23  42  70  95 134 181 225 282 356 410
#     4  11  24  43  64 102 135 173 236 284 333 429
#     4  10  23  42  66 100 133 177 231 281 347 421
#     4  11  23  41  67  92 132 181 224 278 360 399
#     4   9  21  43  64  97 129 174 232 281 341 426
#
# _framework density 21.903814000000001
#
# number of rings (size 3 to 8) (size 9 to 14) (size 15 to 20)
#    0.000    1.600    1.333    2.000    3.733    5.867 
#    0.000    8.000    0.000    0.000    0.000    0.000 
#    0.000    0.000    0.000    0.000    0.000    0.000 
#
# Total GULP energy -167399.901560 kJ/mol
# GULP energy per Si atom -5579.996719 kJ/mol
# Density = 2.185396 g / cm^3
# Si number density = 21.903814 Si / 1000 Ang^3
#
#
#
# Elastic Constant Matrix: (Units=GPa)
#
#
# Indices 1 2 3 4 5 6 
#
# 1 42.5350 22.1990 11.2282 0.0000 0.0000 0.0000
# 2 22.1990 103.3022 25.1905 0.0000 0.0000 0.0000
# 3 11.2282 25.1905 86.1224 0.0000 0.0000 0.0000
# 4 0.0000 0.0000 0.0000 21.6625 0.0000 0.0000
# 5 0.0000 0.0000 0.0000 0.0000 13.9005 0.0000
# 6 0.0000 0.0000 0.0000 0.0000 0.0000 37.5022
#
#
#
# Elastic Compliance Matrix: (Units=1/GPa)
#
#
# Indices 1 2 3 4 5 6 
#
# 1 0.026780 -0.005280 -0.001947 0.000000 0.000000 0.000000
# 2 -0.005280 0.011465 -0.002665 0.000000 0.000000 0.000000
# 3 -0.001947 -0.002665 0.012645 0.000000 0.000000 0.000000
# 4 0.000000 0.000000 0.000000 0.046163 0.000000 0.000000
# 5 0.000000 0.000000 0.000000 0.000000 0.071940 0.000000
# 6 0.000000 0.000000 0.000000 0.000000 0.000000 0.026665
#
#
# Mechanical properties :
#
#
# Convention : Reuss Voigt Hill
#
# Bulk Modulus (GPa) = 32.14907 38.79945 35.47426
# Shear Modulus (GPa) = 22.14257 26.16916 24.15587
#
# Velocity S-wave (km/s) = 3.18291 3.46024 3.32447
# Velocity P-wave (km/s) = 5.31198 5.80658 5.56478
#
# Compressibility (1/GPa) = 0.03110510
#
# Stress axis : x y z
#
# Youngs Moduli (GPa) = 37.34183 87.22305 79.08430
#
# Poissons Ratio (x) = 0.46054 0.15398
# Poissons Ratio (y) = 0.19716 0.21076
# Poissons Ratio (z) = 0.07271 0.23245
#
# Static dielectric constant tensor:
#      x y z
#    x 1.826510 0.000000 0.000000 
#    y 0.000000 1.794920 0.000000 
#    z 0.000000 0.000000 1.864560 
# 
# From -- ./inp_files/8340.got.cif
#   From: 2010.05.17/outbox.cif.g08.bks.cpg/sg37_5_cif.got.tgz:8340.got - 2010.06.03 17:53:42.
