data_PCOD9354080
_publ_section_title
;
Structure prediction by ZEFSAII (Michael W. Deem and Ramdas Pophale) SiO2 
 PCOD9354080
Probable space group: C C C 2
;
_chemical_formula_sum "Si O2"
_cell_formula_units_Z 64
_cell_length_a 9.469447
_cell_length_b 15.428411
_cell_length_c 21.528185
_cell_angle_alpha 90.000000
_cell_angle_beta 90.000000
_cell_angle_gamma 90.000000
_cell_volume 3145.235972
_symmetry_space_group_name_H-M "C C C 2"
_symmetry_group_IT_number 37
_symmetry_cell_setting 'orthorhombic'
loop_
_space_group_symop_operation_xyz
x,y,z
-x,-y,z
-x,y,1/2+z
x,-y,1/2+z
1/2+x,1/2+y,z
1/2-x,1/2-y,z
1/2-x,1/2+y,1/2+z
1/2+x,1/2-y,1/2+z
loop_
_atom_site_type_symbol
_atom_site_label
_atom_site_fract_x
_atom_site_fract_y
_atom_site_fract_z
Si Si1 0.666001 0.660802 0.871470
Si Si2 0.153741 0.004361 0.945909
Si Si3 0.988767 0.709538 0.055967
Si Si4 0.744872 0.926843 0.063649
Si Si5 0.335232 0.659532 0.225260
Si Si6 0.870877 0.807617 0.440993
Si Si7 0.621586 0.934582 0.638666
Si Si8 0.864190 0.819563 0.160949
O O1 0.750000 0.750000 0.881425
O O2 0.733452 0.576081 0.904916
O O3 0.659479 0.641749 0.798408
O O4 0.511809 0.679968 0.900605
O O5 0.193259 0.903892 0.952897
O O6 0.000000 0.000000 0.915310
O O7 0.139012 0.051465 0.012659
O O8 0.064486 0.656373 0.111360
O O9 0.865154 0.642971 0.036207
O O10 0.911920 0.785684 0.093008
O O11 0.081873 0.753438 0.002666
O O12 0.784365 0.903529 0.134935
O O13 0.668893 0.017861 0.075550
O O14 0.250000 0.750000 0.217525
O O15 0.245125 0.589634 0.186287
O O16 0.495868 0.666507 0.200340
O O17 0.750000 0.750000 0.409502
O O18 0.500000 0.000000 0.664355
O O19 0.750000 0.750000 0.186131
#
# Coordination Sequence:
#
# PCOD9354080 Si02
#       8
#     8   8   8   8   8   8   8   8
#     4  10  23  45  63  84 120 178 222 258 322 391
#     4  10  21  37  59  88 129 154 212 259 314 396
#     4  10  20  37  61  88 131 164 202 257 330 398
#     4  10  21  35  57  94 125 163 196 261 326 386
#     4  11  23  41  68  85 121 181 223 264 326 407
#     4  11  23  38  65  96 123 165 209 277 330 377
#     4  10  22  38  59  96 132 161 213 268 331 401
#     4  10  21  36  58  93 124 162 208 262 320 388
#
# _framework density 20.348234999999999
#
# number of rings (size 3 to 8) (size 9 to 14) (size 15 to 20)
#    0.000    1.750    1.250    3.000    5.250    1.500 
#    6.750    4.375    0.000    0.000    0.000    0.000 
#    0.000    0.000    0.000    0.000    0.000    0.000 
#
# Total GULP energy -178136.969382 kJ/mol
# GULP energy per Si atom -5566.780293 kJ/mol
# Density = 2.030192 g / cm^3
# Si number density = 20.348235 Si / 1000 Ang^3
#
#
#
# Elastic Constant Matrix: (Units=GPa)
#
#
# Indices 1 2 3 4 5 6 
#
# 1 90.9540 39.2196 42.7661 0.0000 0.0000 0.0000
# 2 39.2196 121.6115 52.9125 0.0000 0.0000 0.0000
# 3 42.7661 52.9125 77.6614 0.0000 0.0000 0.0000
# 4 0.0000 0.0000 0.0000 13.1108 0.0000 0.0000
# 5 0.0000 0.0000 0.0000 0.0000 15.8284 0.0000
# 6 0.0000 0.0000 0.0000 0.0000 0.0000 22.7824
#
#
#
# Elastic Compliance Matrix: (Units=1/GPa)
#
#
# Indices 1 2 3 4 5 6 
#
# 1 0.015102 -0.001780 -0.007104 0.000000 0.000000 0.000000
# 2 -0.001780 0.011897 -0.007126 0.000000 0.000000 0.000000
# 3 -0.007104 -0.007126 0.021643 0.000000 0.000000 0.000000
# 4 0.000000 0.000000 0.000000 0.076273 0.000000 0.000000
# 5 0.000000 0.000000 0.000000 0.000000 0.063178 0.000000
# 6 0.000000 0.000000 0.000000 0.000000 0.000000 0.043894
#
#
# Mechanical properties :
#
#
# Convention : Reuss Voigt Hill
#
# Bulk Modulus (GPa) = 60.15384 62.22480 61.18932
# Shear Modulus (GPa) = 18.54964 20.69957 19.62460
#
# Velocity S-wave (km/s) = 3.02256 3.19292 3.10891
# Velocity P-wave (km/s) = 6.46588 6.65126 6.55923
#
# Compressibility (1/GPa) = 0.01662404
#
# Stress axis : x y z
#
# Youngs Moduli (GPa) = 66.21581 84.05299 46.20344
#
# Poissons Ratio (x) = 0.14958 0.32822
# Poissons Ratio (y) = 0.11783 0.32924
# Poissons Ratio (z) = 0.47039 0.59896
#
# Static dielectric constant tensor:
#      x y z
#    x 1.782470 0.000000 0.000000 
#    y 0.000000 1.765380 0.000000 
#    z 0.000000 0.000000 1.683060 
# 
# From -- ./inp_files/18492.got.cif
#   From: 2010.05.17/outbox.cif.g08.bks.cpg/sg37_10_cif.got.tgz:18492.got - 2010.06.03 17:53:42.
