data_PCOD9354949
_publ_section_title
;
Structure prediction by ZEFSAII (Michael W. Deem and Ramdas Pophale) SiO2 
 PCOD9354949
Probable space group: C C C 2
;
_chemical_formula_sum "Si O2"
_cell_formula_units_Z 60
_cell_length_a 12.213300
_cell_length_b 25.959447
_cell_length_c 9.791704
_cell_angle_alpha 90.000000
_cell_angle_beta 90.000000
_cell_angle_gamma 90.000000
_cell_volume 3104.464787
_symmetry_space_group_name_H-M "C C C 2"
_symmetry_group_IT_number 37
_symmetry_cell_setting 'orthorhombic'
loop_
_space_group_symop_operation_xyz
x,y,z
-x,-y,z
-x,y,1/2+z
x,-y,1/2+z
1/2+x,1/2+y,z
1/2-x,1/2-y,z
1/2-x,1/2+y,1/2+z
1/2+x,1/2-y,1/2+z
loop_
_atom_site_type_symbol
_atom_site_label
_atom_site_fract_x
_atom_site_fract_y
_atom_site_fract_z
Si Si1 0.739914 0.812221 0.673510
Si Si2 0.715223 0.867781 0.100943
Si Si3 0.896883 0.059748 0.655535
Si Si4 0.019357 0.162547 0.756553
Si Si5 0.814389 0.303977 0.872607
Si Si6 0.500000 0.500000 0.899838
Si Si7 0.909544 0.204604 0.517132
Si Si8 0.927345 0.314635 0.405307
O O1 0.750000 0.750000 0.678315
O O2 0.851351 0.836466 0.729886
O O3 0.727812 0.826004 0.515873
O O4 0.634940 0.826074 0.764398
O O5 0.773100 0.922601 0.122886
O O6 0.705676 0.841551 0.247538
O O7 0.805778 0.832436 0.025056
O O8 0.605914 0.859147 0.012900
O O9 0.913054 0.022730 0.788101
O O10 0.963468 0.110497 0.705463
O O11 0.947016 0.039490 0.511099
O O12 0.965927 0.207022 0.663962
O O13 0.005597 0.177177 0.913852
O O14 0.750000 0.250000 0.849245
O O15 0.945348 0.302036 0.889124
O O16 0.881159 0.260729 0.464609
#
# Coordination Sequence:
#
# PCOD9354949 Si02
#       8
#     8   8   8   8   8   4   8   8
#     4  11  21  35  50  79 117 163 212 247 291 332
#     4  11  23  38  57  86 118 167 206 253 313 365
#     4  10  23  39  67  91 127 146 202 253 332 406
#     4  11  22  35  58  88 118 168 206 251 299 370
#     4  11  25  34  55  82 119 170 220 255 286 342
#     4  10  22  44  64  98 120 148 180 270 348 400
#     4  11  22  34  55  79 124 168 216 250 284 348
#     4  12  22  38  51  79 126 172 213 257 290 338
#
# _framework density 19.327005
#
# number of rings (size 3 to 8) (size 9 to 14) (size 15 to 20)
#    0.000    1.067    2.667    5.200   11.200    0.000 
#    0.000    0.000    0.000    0.000    0.000    2.800 
#    0.000    0.000    0.000    0.000    0.000    0.000 
#
# Total GULP energy -167452.669515 kJ/mol
# GULP energy per Si atom -5581.755650 kJ/mol
# Density = 1.928302 g / cm^3
# Si number density = 19.327005 Si / 1000 Ang^3
#
#
#
# Elastic Constant Matrix: (Units=GPa)
#
#
# Indices 1 2 3 4 5 6 
#
# 1 88.6786 11.3812 21.9799 0.0000 0.0000 0.0000
# 2 11.3812 44.9770 20.9580 0.0000 0.0000 0.0000
# 3 21.9799 20.9580 128.9615 0.0000 0.0000 0.0000
# 4 0.0000 0.0000 0.0000 23.9237 0.0000 0.0000
# 5 0.0000 0.0000 0.0000 0.0000 33.2028 0.0000
# 6 0.0000 0.0000 0.0000 0.0000 0.0000 0.6592
#
#
#
# Elastic Compliance Matrix: (Units=1/GPa)
#
#
# Indices 1 2 3 4 5 6 
#
# 1 0.011981 -0.002251 -0.001676 0.000000 0.000000 0.000000
# 2 -0.002251 0.024478 -0.003594 0.000000 0.000000 0.000000
# 3 -0.001676 -0.003594 0.008624 0.000000 0.000000 0.000000
# 4 0.000000 0.000000 0.000000 0.041800 0.000000 0.000000
# 5 0.000000 0.000000 0.000000 0.000000 0.030118 0.000000
# 6 0.000000 0.000000 0.000000 0.000000 0.000000 1.516950
#
#
# Mechanical properties :
#
#
# Convention : Reuss Voigt Hill
#
# Bulk Modulus (GPa) = 33.28844 41.25058 37.26951
# Shear Modulus (GPa) = 3.01385 25.44369 14.22877
#
# Velocity S-wave (km/s) = 1.25011 3.63227 2.71627
# Velocity P-wave (km/s) = 4.39828 6.24348 5.40028
#
# Compressibility (1/GPa) = 0.03004046
#
# Stress axis : x y z
#
# Youngs Moduli (GPa) = 83.46541 40.85307 115.95432
#
# Poissons Ratio (x) = 0.09195 0.19437
# Poissons Ratio (y) = 0.18785 0.41679
# Poissons Ratio (z) = 0.13991 0.14684
#
# Static dielectric constant tensor:
#      x y z
#    x 1.752150 0.000000 0.000000 
#    y 0.000000 1.689590 0.000000 
#    z 0.000000 0.000000 1.734250 
# 
# From -- ./inp_files/3039.got.cif
#   From: 2010.05.17/outbox.cif.g08.bks.cpg/sg37_2_cif.got.tgz:3039.got - 2010.06.03 17:53:42.
