data_PCOD9354383
_publ_section_title
;
Structure prediction by ZEFSAII (Michael W. Deem and Ramdas Pophale) SiO2 
 PCOD9354383
Probable space group: C C C 2
;
_chemical_formula_sum "Si O2"
_cell_formula_units_Z 48
_cell_length_a 10.197646
_cell_length_b 30.583847
_cell_length_c 8.605069
_cell_angle_alpha 90.000000
_cell_angle_beta 90.000000
_cell_angle_gamma 90.000000
_cell_volume 2683.776843
_symmetry_space_group_name_H-M "C C C 2"
_symmetry_group_IT_number 37
_symmetry_cell_setting 'orthorhombic'
loop_
_space_group_symop_operation_xyz
x,y,z
-x,-y,z
-x,y,1/2+z
x,-y,1/2+z
1/2+x,1/2+y,z
1/2-x,1/2-y,z
1/2-x,1/2+y,1/2+z
1/2+x,1/2-y,1/2+z
loop_
_atom_site_type_symbol
_atom_site_label
_atom_site_fract_x
_atom_site_fract_y
_atom_site_fract_z
Si Si1 0.854166 0.383058 0.965520
Si Si2 0.643769 0.786880 0.337882
Si Si3 0.355328 0.548416 0.837439
Si Si4 0.855330 0.048416 0.465283
Si Si5 0.854165 0.616943 0.837202
Si Si6 0.356232 0.213120 0.964842
O O1 0.821417 0.333830 0.910597
O O2 0.750524 0.417058 0.897134
O O3 0.000001 0.392487 0.901361
O O4 0.855229 0.385085 0.151361
O O5 0.750000 0.750000 0.376456
O O6 0.637153 0.791516 0.151362
O O7 0.500000 0.774889 0.401362
O O8 0.358499 0.547388 0.651361
O O9 0.499999 0.559675 0.901362
O O10 0.323964 0.500000 0.901360
O O11 0.749479 0.082943 0.405587
O O12 0.821416 0.666170 0.892125
O O13 0.250000 0.250000 0.926268
#
# Coordination Sequence:
#
# PCOD9354383 Si02
#       6
#     8   8   8   8   8   8
#     4  11  22  38  59  84 114 149 188 232 281 332
#     4  10  21  37  57  82 112 146 186 231 279 332
#     4  11  22  39  60  85 115 148 187 230 279 332
#     4  11  22  39  60  85 115 148 187 230 279 332
#     4  11  22  38  59  84 114 149 188 232 281 332
#     4  10  21  37  57  82 112 146 186 231 279 332
#
# _framework density 17.885242000000002
#
# number of rings (size 3 to 8) (size 9 to 14) (size 15 to 20)
#    0.000    1.333    0.000   10.000    0.000    4.667 
#    0.000    6.667    0.000    0.000    0.000    0.000 
#    0.000    0.000    0.000    0.000    0.000    0.000 
#
# Total GULP energy -134176.124177 kJ/mol
# GULP energy per Si atom -5590.671841 kJ/mol
# Density = 1.784453 g / cm^3
# Si number density = 17.885242 Si / 1000 Ang^3
#
#
#
# Elastic Constant Matrix: (Units=GPa)
#
#
# Indices 1 2 3 4 5 6 
#
# 1 148.9611 144.1735 92.6162 0.0000 0.0000 0.0000
# 2 144.1735 148.8724 93.3976 0.0000 0.0000 0.0000
# 3 92.6162 93.3976 189.8656 0.0000 0.0000 0.0000
# 4 0.0000 0.0000 0.0000 39.3045 0.0000 0.0000
# 5 0.0000 0.0000 0.0000 0.0000 41.6497 0.0000
# 6 0.0000 0.0000 0.0000 0.0000 0.0000 43.3457
#
#
#
# Elastic Compliance Matrix: (Units=1/GPa)
#
#
# Indices 1 2 3 4 5 6 
#
# 1 0.107500 -0.102994 -0.001774 0.000000 0.000000 0.000000
# 2 -0.102994 0.108392 -0.003079 0.000000 0.000000 0.000000
# 3 -0.001774 -0.003079 0.007647 0.000000 0.000000 0.000000
# 4 0.000000 0.000000 0.000000 0.025442 0.000000 0.000000
# 5 0.000000 0.000000 0.000000 0.000000 0.024010 0.000000
# 6 0.000000 0.000000 0.000000 0.000000 0.000000 0.023070
#
#
# Mechanical properties :
#
#
# Convention : Reuss Voigt Hill
#
# Bulk Modulus (GPa) = 127.48006 127.56376 127.52191
# Shear Modulus (GPa) = 9.72062 35.36077 22.54070
#
# Velocity S-wave (km/s) = 2.33384 4.45127 3.55392
# Velocity P-wave (km/s) = 8.87095 9.89428 9.39656
#
# Compressibility (1/GPa) = 0.00784436
#
# Stress axis : x y z
#
# Youngs Moduli (GPa) = 9.30235 9.22578 130.76842
#
# Poissons Ratio (x) = 0.95020 0.23201
# Poissons Ratio (y) = 0.95808 0.40268
# Poissons Ratio (z) = 0.01650 0.02841
#
# Static dielectric constant tensor:
#      x y z
#    x 1.584830 0.000000 0.000000 
#    y 0.000000 1.585550 0.000000 
#    z 0.000000 0.000000 1.597550 
# 
# From -- ./inp_files/2384.got.cif
#   From: 2010.05.17/outbox.cif.g08.bks.cpg/sg37_2_cif.got.tgz:2384.got - 2010.06.03 17:53:42.
