data_PCOD9354857
_publ_section_title
;
Structure prediction by ZEFSAII (Michael W. Deem and Ramdas Pophale) SiO2 
 PCOD9354857
Probable space group: C C C 2
;
_chemical_formula_sum "Si O2"
_cell_formula_units_Z 56
_cell_length_a 5.835041
_cell_length_b 14.453798
_cell_length_c 28.836652
_cell_angle_alpha 90.000000
_cell_angle_beta 90.000000
_cell_angle_gamma 90.000000
_cell_volume 2432.040088
_symmetry_space_group_name_H-M "C C C 2"
_symmetry_group_IT_number 37
_symmetry_cell_setting 'orthorhombic'
loop_
_space_group_symop_operation_xyz
x,y,z
-x,-y,z
-x,y,1/2+z
x,-y,1/2+z
1/2+x,1/2+y,z
1/2-x,1/2-y,z
1/2-x,1/2+y,1/2+z
1/2+x,1/2-y,1/2+z
loop_
_atom_site_type_symbol
_atom_site_label
_atom_site_fract_x
_atom_site_fract_y
_atom_site_fract_z
Si Si1 0.583356 0.604742 0.577370
Si Si2 0.750000 0.250000 0.606911
Si Si3 0.534411 0.604026 0.298125
Si Si4 0.376945 0.347888 0.401028
Si Si5 0.250000 0.250000 0.956765
Si Si6 0.099180 0.601875 0.990025
Si Si7 0.035453 0.608563 0.267414
Si Si8 0.424109 0.105998 0.657901
O O1 0.500000 0.500000 0.573501
O O2 0.386464 0.679128 0.575283
O O3 0.753220 0.622289 0.535336
O O4 0.695384 0.618278 0.627982
O O5 0.595898 0.182838 0.638432
O O6 0.500000 0.500000 0.278556
O O7 0.589810 0.601639 0.352702
O O8 0.273756 0.643865 0.291300
O O9 0.773610 0.644944 0.276833
O O10 0.250000 0.250000 0.391616
O O11 0.616054 0.320874 0.423861
O O12 0.239340 0.399146 0.441664
O O13 0.423834 0.185941 0.984416
O O14 0.000000 0.500000 0.996843
O O15 0.090219 0.615861 0.212894
O O16 0.000000 0.500000 0.280536
O O17 0.500000 0.000000 0.648000
#
# Coordination Sequence:
#
# PCOD9354857 Si02
#       8
#     8   4   8   8   4   8   8   8
#     4  12  28  50  75 112 148 196 250 311 380 460
#     4  12  28  49  76 106 148 196 248 310 383 458
#     4  10  22  41  72 107 144 197 251 306 378 451
#     4  10  25  45  68 104 142 191 241 308 374 442
#     4  10  26  49  70 102 148 188 240 314 369 452
#     4  11  28  48  75 106 142 194 248 303 381 452
#     4   9  22  41  71 108 147 196 253 310 376 447
#     4  11  24  48  77 106 149 200 250 316 375 453
#
# _framework density 23.025933999999999
#
# number of rings (size 3 to 8) (size 9 to 14) (size 15 to 20)
#    0.000    1.429    1.429    0.857   10.000    5.714 
#    1.286    0.000    0.000    0.000    0.000    0.000 
#    0.000    0.000    0.000    0.000    0.000    0.000 
#
# Total GULP energy -156524.403043 kJ/mol
# GULP energy per Si atom -5590.157252 kJ/mol
# Density = 2.297353 g / cm^3
# Si number density = 23.025934 Si / 1000 Ang^3
#
#
#
# Elastic Constant Matrix: (Units=GPa)
#
#
# Indices 1 2 3 4 5 6 
#
# 1 140.7439 22.4379 60.9012 0.0000 0.0000 0.0000
# 2 22.4379 91.3336 22.4286 0.0000 0.0000 0.0000
# 3 60.9012 22.4286 114.4332 0.0000 0.0000 0.0000
# 4 0.0000 0.0000 0.0000 84.8931 0.0000 0.0000
# 5 0.0000 0.0000 0.0000 0.0000 25.0902 0.0000
# 6 0.0000 0.0000 0.0000 0.0000 0.0000 11.1074
#
#
#
# Elastic Compliance Matrix: (Units=1/GPa)
#
#
# Indices 1 2 3 4 5 6 
#
# 1 0.009340 -0.001128 -0.004750 0.000000 0.000000 0.000000
# 2 -0.001128 0.011639 -0.001681 0.000000 0.000000 0.000000
# 3 -0.004750 -0.001681 0.011596 0.000000 0.000000 0.000000
# 4 0.000000 0.000000 0.000000 0.011780 0.000000 0.000000
# 5 0.000000 0.000000 0.000000 0.000000 0.039856 0.000000
# 6 0.000000 0.000000 0.000000 0.000000 0.000000 0.090030
#
#
# Mechanical properties :
#
#
# Convention : Reuss Voigt Hill
#
# Bulk Modulus (GPa) = 57.28174 62.00514 59.64344
# Shear Modulus (GPa) = 25.61778 40.26768 32.94273
#
# Velocity S-wave (km/s) = 3.33913 4.18640 3.78654
# Velocity P-wave (km/s) = 6.30852 7.09611 6.71387
#
# Compressibility (1/GPa) = 0.01745757
#
# Stress axis : x y z
#
# Youngs Moduli (GPa) = 107.06391 85.91969 86.23711
#
# Poissons Ratio (x) = 0.09694 0.40960
# Poissons Ratio (y) = 0.12079 0.14494
# Poissons Ratio (z) = 0.50852 0.14441
#
# Static dielectric constant tensor:
#      x y z
#    x 1.966990 0.000000 0.000000 
#    y 0.000000 1.761050 0.000000 
#    z 0.000000 0.000000 1.797240 
# 
# From -- ./inp_files/20175.got.cif
#   From: 2010.05.17/outbox.cif.g08.bks.cpg/sg37_11_cif.got.tgz:20175.got - 2010.06.03 17:53:42.
