data_PCOD9354742
_publ_section_title
;
Structure prediction by ZEFSAII (Michael W. Deem and Ramdas Pophale) SiO2 
 PCOD9354742
Probable space group: C C C 2
;
_chemical_formula_sum "Si O2"
_cell_formula_units_Z 64
_cell_length_a 21.122975
_cell_length_b 15.079883
_cell_length_c 9.443264
_cell_angle_alpha 90.000000
_cell_angle_beta 90.000000
_cell_angle_gamma 90.000000
_cell_volume 3007.981689
_symmetry_space_group_name_H-M "C C C 2"
_symmetry_group_IT_number 37
_symmetry_cell_setting 'orthorhombic'
loop_
_space_group_symop_operation_xyz
x,y,z
-x,-y,z
-x,y,1/2+z
x,-y,1/2+z
1/2+x,1/2+y,z
1/2-x,1/2-y,z
1/2-x,1/2+y,1/2+z
1/2+x,1/2-y,1/2+z
loop_
_atom_site_type_symbol
_atom_site_label
_atom_site_fract_x
_atom_site_fract_y
_atom_site_fract_z
Si Si1 0.936283 0.946284 0.295820
Si Si2 0.570449 0.033234 0.525171
Si Si3 0.449344 0.794686 0.719561
Si Si4 0.342391 0.985031 0.261764
Si Si5 0.240621 0.653916 0.404684
Si Si6 0.507107 0.288932 0.454186
Si Si7 0.809240 0.313828 0.712276
Si Si8 0.621822 0.594865 0.990175
O O1 0.961070 0.864777 0.392978
O O2 0.895417 0.010057 0.395569
O O3 0.899763 0.922858 0.151573
O O4 0.000000 0.000000 0.253450
O O5 0.560833 0.117570 0.628130
O O6 0.622347 0.975835 0.612181
O O7 0.500000 0.000000 0.506516
O O8 0.603240 0.039558 0.374124
O O9 0.491980 0.730980 0.620567
O O10 0.486225 0.797577 0.866852
O O11 0.376287 0.766972 0.744433
O O12 0.315232 0.086105 0.274742
O O13 0.287132 0.916485 0.296306
O O14 0.250000 0.750000 0.336478
O O15 0.196472 0.670430 0.542485
O O16 0.305680 0.619159 0.472029
O O17 0.578079 0.324705 0.431631
O O18 0.750000 0.250000 0.751614
#
# Coordination Sequence:
#
# PCOD9354742 Si02
#       8
#     8   8   8   8   8   8   8   8
#     4  10  22  39  60  92 136 173 215 273 334 403
#     4  11  26  42  69  94 136 172 221 280 354 394
#     4  11  24  40  65  97 127 178 213 286 332 406
#     4  11  23  45  67 102 131 177 230 286 336 419
#     4  11  24  43  72  93 136 179 232 278 337 412
#     4  11  22  39  63  95 135 165 228 269 333 401
#     4  10  23  44  70  95 136 184 228 275 349 416
#     4  11  24  38  65  96 130 183 219 272 342 407
#
# _framework density 21.276726
#
# number of rings (size 3 to 8) (size 9 to 14) (size 15 to 20)
#    0.000    1.250    3.750    3.000    8.750    0.000 
#    0.000    0.625    2.750    0.000    0.000    0.000 
#    0.000    0.000    0.000    0.000    0.000    0.000 
#
# Total GULP energy -178601.926768 kJ/mol
# GULP energy per Si atom -5581.310212 kJ/mol
# Density = 2.122830 g / cm^3
# Si number density = 21.276726 Si / 1000 Ang^3
#
#
#
# Elastic Constant Matrix: (Units=GPa)
#
#
# Indices 1 2 3 4 5 6 
#
# 1 82.4185 35.4033 25.7350 0.0000 0.0000 0.0000
# 2 35.4033 100.8276 17.2454 0.0000 0.0000 0.0000
# 3 25.7350 17.2454 58.9809 0.0000 0.0000 0.0000
# 4 0.0000 0.0000 0.0000 33.3183 0.0000 0.0000
# 5 0.0000 0.0000 0.0000 0.0000 16.9923 0.0000
# 6 0.0000 0.0000 0.0000 0.0000 0.0000 31.1679
#
#
#
# Elastic Compliance Matrix: (Units=1/GPa)
#
#
# Indices 1 2 3 4 5 6 
#
# 1 0.015854 -0.004614 -0.005568 0.000000 0.000000 0.000000
# 2 -0.004614 0.011783 -0.001432 0.000000 0.000000 0.000000
# 3 -0.005568 -0.001432 0.019803 0.000000 0.000000 0.000000
# 4 0.000000 0.000000 0.000000 0.030014 0.000000 0.000000
# 5 0.000000 0.000000 0.000000 0.000000 0.058850 0.000000
# 6 0.000000 0.000000 0.000000 0.000000 0.000000 0.032084
#
#
# Mechanical properties :
#
#
# Convention : Reuss Voigt Hill
#
# Bulk Modulus (GPa) = 41.30384 44.33271 42.81827
# Shear Modulus (GPa) = 25.03910 27.21858 26.12884
#
# Velocity S-wave (km/s) = 3.43422 3.58056 3.50815
# Velocity P-wave (km/s) = 5.93127 6.16242 6.04795
#
# Compressibility (1/GPa) = 0.02421082
#
# Stress axis : x y z
#
# Youngs Moduli (GPa) = 63.07541 84.86769 50.49760
#
# Poissons Ratio (x) = 0.39161 0.28119
# Poissons Ratio (y) = 0.29105 0.07231
# Poissons Ratio (z) = 0.35123 0.12152
#
# Static dielectric constant tensor:
#      x y z
#    x 1.757600 0.000000 0.000000 
#    y 0.000000 1.891020 0.000000 
#    z 0.000000 0.000000 1.721670 
# 
# From -- ./inp_files/4443.got.cif
#   From: 2010.05.17/outbox.cif.g08.bks.cpg/sg37_3_cif.got.tgz:4443.got - 2010.06.03 17:53:42.
