data_PCOD9354791
_publ_section_title
;
Structure prediction by ZEFSAII (Michael W. Deem and Ramdas Pophale) SiO2 
 PCOD9354791
Probable space group: C C C 2
;
_chemical_formula_sum "Si O2"
_cell_formula_units_Z 56
_cell_length_a 13.924169
_cell_length_b 13.924187
_cell_length_c 14.306226
_cell_angle_alpha 90.000000
_cell_angle_beta 90.000000
_cell_angle_gamma 90.000000
_cell_volume 2773.730195
_symmetry_space_group_name_H-M "C C C 2"
_symmetry_group_IT_number 37
_symmetry_cell_setting 'orthorhombic'
loop_
_space_group_symop_operation_xyz
x,y,z
-x,-y,z
-x,y,1/2+z
x,-y,1/2+z
1/2+x,1/2+y,z
1/2-x,1/2-y,z
1/2-x,1/2+y,1/2+z
1/2+x,1/2-y,1/2+z
loop_
_atom_site_type_symbol
_atom_site_label
_atom_site_fract_x
_atom_site_fract_y
_atom_site_fract_z
Si Si1 0.857651 0.786186 0.447810
Si Si2 0.177906 0.972672 0.848346
Si Si3 0.884304 0.375190 0.609238
Si Si4 0.875191 0.384304 0.815117
Si Si5 0.527329 0.322096 0.576009
Si Si6 0.000000 0.500000 0.462178
Si Si7 0.500000 0.500000 0.212178
Si Si8 0.286185 0.357651 0.976545
O O1 0.750000 0.750000 0.472225
O O2 0.861043 0.899647 0.427073
O O3 0.886039 0.723750 0.355964
O O4 0.934011 0.773543 0.530133
O O5 0.262710 0.908041 0.806064
O O6 0.094436 0.998449 0.776870
O O7 0.226459 0.065989 0.894223
O O8 0.910761 0.410758 0.712178
O O9 0.908039 0.262708 0.618288
O O10 0.947800 0.424250 0.529317
O O11 0.776250 0.386041 0.568391
O O12 0.924250 0.447799 0.895039
O O13 0.501552 0.405564 0.647486
O O14 0.600353 0.361045 0.497281
O O15 0.250000 0.250000 0.952132
#
# Coordination Sequence:
#
# PCOD9354791 Si02
#       8
#     8   8   8   8   8   4   4   8
#     4  10  22  40  65  91 129 173 220 271 337 394
#     4  11  22  41  62  94 133 170 220 271 332 401
#     4  11  23  41  67  95 126 170 217 275 332 402
#     4  11  23  41  67  95 126 170 217 275 332 402
#     4  11  22  41  62  94 133 170 220 271 332 401
#     4  12  22  44  64  98 128 168 226 268 344 386
#     4  12  24  38  64 100 132 182 220 268 338 416
#     4  10  22  40  65  91 129 173 220 271 337 394
#
# _framework density 20.189419000000001
#
# number of rings (size 3 to 8) (size 9 to 14) (size 15 to 20)
#    0.000    1.143    2.857    3.857    0.000    4.000 
#    0.000    0.714    0.000    0.000    0.000    0.000 
#    0.000    0.000    0.000    0.000    0.000    0.000 
#
# Total GULP energy -156204.999533 kJ/mol
# GULP energy per Si atom -5578.749983 kJ/mol
# Density = 2.014347 g / cm^3
# Si number density = 20.189419 Si / 1000 Ang^3
#
#
#
# Elastic Constant Matrix: (Units=GPa)
#
#
# Indices 1 2 3 4 5 6 
#
# 1 89.6872 14.4187 34.4013 0.0000 0.0000 0.0000
# 2 14.4187 89.6881 34.4024 0.0000 0.0000 0.0000
# 3 34.4013 34.4024 105.6365 0.0000 0.0000 0.0000
# 4 0.0000 0.0000 0.0000 15.0610 0.0000 0.0000
# 5 0.0000 0.0000 0.0000 0.0000 15.0606 0.0000
# 6 0.0000 0.0000 0.0000 0.0000 0.0000 27.9142
#
#
#
# Elastic Compliance Matrix: (Units=1/GPa)
#
#
# Indices 1 2 3 4 5 6 
#
# 1 0.012763 -0.000523 -0.003986 0.000000 0.000000 0.000000
# 2 -0.000523 0.012763 -0.003986 0.000000 0.000000 0.000000
# 3 -0.003986 -0.003986 0.012063 0.000000 0.000000 0.000000
# 4 0.000000 0.000000 0.000000 0.066396 0.000000 0.000000
# 5 0.000000 0.000000 0.000000 0.000000 0.066399 0.000000
# 6 0.000000 0.000000 0.000000 0.000000 0.000000 0.035824
#
#
# Mechanical properties :
#
#
# Convention : Reuss Voigt Hill
#
# Bulk Modulus (GPa) = 48.54792 50.16185 49.35488
# Shear Modulus (GPa) = 21.73311 25.05978 23.39645
#
# Velocity S-wave (km/s) = 3.28451 3.52694 3.40788
# Velocity P-wave (km/s) = 6.20342 6.44090 6.32328
#
# Compressibility (1/GPa) = 0.02059821
#
# Stress axis : x y z
#
# Youngs Moduli (GPa) = 78.35247 78.35263 82.90037
#
# Poissons Ratio (x) = 0.04097 0.33044
# Poissons Ratio (y) = 0.04097 0.33045
# Poissons Ratio (z) = 0.31232 0.31233
#
# Static dielectric constant tensor:
#      x y z
#    x 1.759320 0.000000 0.000000 
#    y 0.000000 1.759320 0.000000 
#    z 0.000000 0.000000 1.768350 
# 
# From -- ./inp_files/7862.got.cif
#   From: 2010.05.17/outbox.cif.g08.bks.cpg/sg37_4_cif.got.tgz:7862.got - 2010.06.03 17:53:42.
