data_PCOD9354287
_publ_section_title
;
Structure prediction by ZEFSAII (Michael W. Deem and Ramdas Pophale) SiO2 
 PCOD9354287
Probable space group: C C C 2
;
_chemical_formula_sum "Si O2"
_cell_formula_units_Z 44
_cell_length_a 8.905327
_cell_length_b 18.687250
_cell_length_c 13.333191
_cell_angle_alpha 90.000000
_cell_angle_beta 90.000000
_cell_angle_gamma 90.000000
_cell_volume 2218.857273
_symmetry_space_group_name_H-M "C C C 2"
_symmetry_group_IT_number 37
_symmetry_cell_setting 'orthorhombic'
loop_
_space_group_symop_operation_xyz
x,y,z
-x,-y,z
-x,y,1/2+z
x,-y,1/2+z
1/2+x,1/2+y,z
1/2-x,1/2-y,z
1/2-x,1/2+y,1/2+z
1/2+x,1/2-y,1/2+z
loop_
_atom_site_type_symbol
_atom_site_label
_atom_site_fract_x
_atom_site_fract_y
_atom_site_fract_z
Si Si1 0.621164 0.153714 0.758500
Si Si2 0.358717 0.109488 0.630292
Si Si3 0.750000 0.750000 0.516030
Si Si4 0.658873 0.034636 0.923634
Si Si5 0.429176 0.302613 0.324927
Si Si6 0.377252 0.442081 0.796432
O O1 0.528666 0.113131 0.673252
O O2 0.647256 0.105154 0.855800
O O3 0.523177 0.224101 0.786131
O O4 0.794494 0.177295 0.746284
O O5 0.316863 0.187449 0.585243
O O6 0.334743 0.055811 0.538654
O O7 0.248239 0.082514 0.717307
O O8 0.633467 0.714142 0.436734
O O9 0.500000 0.000000 0.903645
O O10 0.791986 0.984017 0.885459
O O11 0.539993 0.369032 0.327843
O O12 0.500000 0.500000 0.757235
#
# Coordination Sequence:
#
# PCOD9354287 Si02
#       6
#     8   8   4   8   8   8
#     4  10  21  44  67  92 131 179 214 273 326 386
#     4  12  24  41  71  96 129 176 230 258 331 404
#     4  10  20  42  68  98 132 180 214 274 326 390
#     4  12  25  44  64  97 134 176 219 275 332 391
#     4  10  21  44  70  92 141 168 215 281 333 378
#     4  12  25  41  66 100 136 172 218 280 336 387
#
# _framework density 19.830027999999999
#
# number of rings (size 3 to 8) (size 9 to 14) (size 15 to 20)
#    0.000    1.091    7.273    1.091    2.545    2.182 
#    0.000    3.636    0.000    0.000    0.000    0.000 
#    0.000    0.000    0.000    0.000    0.000    0.000 
#
# Total GULP energy -122633.973125 kJ/mol
# GULP energy per Si atom -5574.271506 kJ/mol
# Density = 1.978489 g / cm^3
# Si number density = 19.830028 Si / 1000 Ang^3
#
#
#
# Elastic Constant Matrix: (Units=GPa)
#
#
# Indices 1 2 3 4 5 6 
#
# 1 76.0685 41.5737 34.9655 0.0000 0.0000 0.0000
# 2 41.5737 120.4433 34.6409 0.0000 0.0000 0.0000
# 3 34.9655 34.6409 96.9129 0.0000 0.0000 0.0000
# 4 0.0000 0.0000 0.0000 81.4475 0.0000 0.0000
# 5 0.0000 0.0000 0.0000 0.0000 -73.9393 0.0000
# 6 0.0000 0.0000 0.0000 0.0000 0.0000 20.6586
#
#
#
# Elastic Compliance Matrix: (Units=1/GPa)
#
#
# Indices 1 2 3 4 5 6 
#
# 1 0.017976 -0.004837 -0.004757 0.000000 0.000000 0.000000
# 2 -0.004837 0.010555 -0.002028 0.000000 0.000000 0.000000
# 3 -0.004757 -0.002028 0.012760 0.000000 0.000000 0.000000
# 4 0.000000 0.000000 0.000000 0.012278 0.000000 0.000000
# 5 0.000000 0.000000 0.000000 0.000000 -0.013525 0.000000
# 6 0.000000 0.000000 0.000000 0.000000 0.000000 0.048406
#
#
# Mechanical properties :
#
#
# Convention : Reuss Voigt Hill
#
# Bulk Modulus (GPa) = 55.40708 57.30941 56.35825
# Shear Modulus (GPa) = 42.47763 17.78300 30.13031
#
# Velocity S-wave (km/s) = 4.63329 2.99786 3.90221
# Velocity P-wave (km/s) = 7.52495 6.39890 6.98465
#
# Compressibility (1/GPa) = 0.01804823
#
# Stress axis : x y z
#
# Youngs Moduli (GPa) = 55.62996 94.73816 78.37228
#
# Poissons Ratio (x) = 0.45822 0.37280
# Poissons Ratio (y) = 0.26907 0.15893
# Poissons Ratio (z) = 0.26462 0.19212
#
# Static dielectric constant tensor:
#      x y z
#    x 2.760070 0.000000 0.000000 
#    y 0.000000 1.352230 0.000000 
#    z 0.000000 0.000000 1.688030 
# 
# From -- ./inp_files/10520.got.cif
#   From: 2010.05.17/outbox.cif.g08.bks.cpg/sg37_6_cif.got.tgz:10520.got - 2010.06.03 17:53:42.
