data_PCOD9354026
_publ_section_title
;
Structure prediction by ZEFSAII (Michael W. Deem and Ramdas Pophale) SiO2 
 PCOD9354026
Probable space group: C C C 2
;
_chemical_formula_sum "Si O2"
_cell_formula_units_Z 52
_cell_length_a 13.963002
_cell_length_b 17.759449
_cell_length_c 9.172138
_cell_angle_alpha 90.000000
_cell_angle_beta 90.000000
_cell_angle_gamma 90.000000
_cell_volume 2274.462956
_symmetry_space_group_name_H-M "C C C 2"
_symmetry_group_IT_number 37
_symmetry_cell_setting 'orthorhombic'
loop_
_space_group_symop_operation_xyz
x,y,z
-x,-y,z
-x,y,1/2+z
x,-y,1/2+z
1/2+x,1/2+y,z
1/2-x,1/2-y,z
1/2-x,1/2+y,1/2+z
1/2+x,1/2-y,1/2+z
loop_
_atom_site_type_symbol
_atom_site_label
_atom_site_fract_x
_atom_site_fract_y
_atom_site_fract_z
Si Si1 0.689156 0.143700 0.597180
Si Si2 0.387672 0.313202 0.087212
Si Si3 0.523904 0.107017 0.807408
Si Si4 0.301940 0.091230 0.487481
Si Si5 0.816809 0.446077 0.312656
Si Si6 0.250000 0.750000 0.058073
Si Si7 0.565642 0.726308 0.763977
O O1 0.652379 0.228498 0.609138
O O2 0.799791 0.136029 0.642482
O O3 0.607330 0.098625 0.684502
O O4 0.694992 0.120189 0.429278
O O5 0.485617 0.319632 0.175059
O O6 0.407226 0.315243 0.913846
O O7 0.432146 0.053999 0.797788
O O8 0.482209 0.192260 0.799508
O O9 0.583619 0.099321 0.957702
O O10 0.278362 0.071659 0.653736
O O11 0.261376 0.174699 0.462160
O O12 0.275040 0.020388 0.388270
O O13 0.342921 0.741572 0.161129
#
# Coordination Sequence:
#
# PCOD9354026 Si02
#       7
#     8   8   8   8   8   4   8
#     4  10  21  38  63  92 141 187 244 296 363 441
#     4  10  20  36  60  97 133 190 244 304 360 434
#     4  11  22  39  62  98 139 192 235 291 361 450
#     4  12  26  41  67  99 146 185 239 289 369 435
#     4  12  23  41  63  99 141 189 229 295 371 443
#     4  12  24  44  66 100 138 202 246 316 362 444
#     4  11  21  37  65  93 138 189 253 302 366 421
#
# _framework density 22.862541
#
# number of rings (size 3 to 8) (size 9 to 14) (size 15 to 20)
#    0.000    0.923    3.077    5.077    0.000    4.923 
#    0.000    0.000    0.000    1.846    0.000    6.462 
#    0.000    0.000    0.000    0.000    0.000    0.000 
#
# Total GULP energy -145368.225696 kJ/mol
# GULP energy per Si atom -5591.085604 kJ/mol
# Density = 2.281051 g / cm^3
# Si number density = 22.862541 Si / 1000 Ang^3
#
#
#
# Elastic Constant Matrix: (Units=GPa)
#
#
# Indices 1 2 3 4 5 6 
#
# 1 125.2523 9.7045 44.7487 0.0000 0.0000 0.0000
# 2 9.7045 71.2754 22.4994 0.0000 0.0000 0.0000
# 3 44.7487 22.4994 118.9742 0.0000 0.0000 0.0000
# 4 0.0000 0.0000 0.0000 18.5673 0.0000 0.0000
# 5 0.0000 0.0000 0.0000 0.0000 17.5724 0.0000
# 6 0.0000 0.0000 0.0000 0.0000 0.0000 41.6741
#
#
#
# Elastic Compliance Matrix: (Units=1/GPa)
#
#
# Indices 1 2 3 4 5 6 
#
# 1 0.009225 -0.000171 -0.003437 0.000000 0.000000 0.000000
# 2 -0.000171 0.014924 -0.002758 0.000000 0.000000 0.000000
# 3 -0.003437 -0.002758 0.010220 0.000000 0.000000 0.000000
# 4 0.000000 0.000000 0.000000 0.053858 0.000000 0.000000
# 5 0.000000 0.000000 0.000000 0.000000 0.056907 0.000000
# 6 0.000000 0.000000 0.000000 0.000000 0.000000 0.023996
#
#
# Mechanical properties :
#
#
# Convention : Reuss Voigt Hill
#
# Bulk Modulus (GPa) = 46.21924 52.15634 49.18779
# Shear Modulus (GPa) = 26.44452 31.46603 28.95528
#
# Velocity S-wave (km/s) = 3.40468 3.71389 3.56264
# Velocity P-wave (km/s) = 5.97627 6.42287 6.20359
#
# Compressibility (1/GPa) = 0.02163601
#
# Stress axis : x y z
#
# Youngs Moduli (GPa) = 108.39829 67.00625 97.85060
#
# Poissons Ratio (x) = 0.01146 0.33636
# Poissons Ratio (y) = 0.01853 0.26987
# Poissons Ratio (z) = 0.37262 0.18480
#
# Static dielectric constant tensor:
#      x y z
#    x 1.856380 0.000000 0.000000 
#    y 0.000000 1.920900 0.000000 
#    z 0.000000 0.000000 1.902150 
# 
# From -- ./inp_files/3600.got.cif
#   From: 2010.05.17/outbox.cif.g08.bks.cpg/sg37_2_cif.got.tgz:3600.got - 2010.06.03 17:53:42.
