data_PCOD9354652
_publ_section_title
;
Structure prediction by ZEFSAII (Michael W. Deem and Ramdas Pophale) SiO2 
 PCOD9354652
Probable space group: C C C 2
;
_chemical_formula_sum "Si O2"
_cell_formula_units_Z 56
_cell_length_a 18.130239
_cell_length_b 17.453147
_cell_length_c 7.653574
_cell_angle_alpha 90.000000
_cell_angle_beta 90.000000
_cell_angle_gamma 90.000000
_cell_volume 2421.818327
_symmetry_space_group_name_H-M "C C C 2"
_symmetry_group_IT_number 37
_symmetry_cell_setting 'orthorhombic'
loop_
_space_group_symop_operation_xyz
x,y,z
-x,-y,z
-x,y,1/2+z
x,-y,1/2+z
1/2+x,1/2+y,z
1/2-x,1/2-y,z
1/2-x,1/2+y,1/2+z
1/2+x,1/2-y,1/2+z
loop_
_atom_site_type_symbol
_atom_site_label
_atom_site_fract_x
_atom_site_fract_y
_atom_site_fract_z
Si Si1 0.064450 0.087718 0.202560
Si Si2 0.447032 0.076699 0.489870
Si Si3 0.100625 0.927794 0.099221
Si Si4 0.088462 0.356596 0.858308
Si Si5 0.673338 0.134426 0.717877
Si Si6 0.679680 0.311791 0.648675
Si Si7 0.681400 0.711087 0.758703
O O1 0.087111 0.091598 0.400970
O O2 0.095903 0.163011 0.118522
O O3 0.977794 0.081149 0.195050
O O4 0.109417 0.018517 0.114135
O O5 0.417349 0.089015 0.686833
O O6 0.506281 0.142898 0.439400
O O7 0.378703 0.089271 0.354937
O O8 0.500000 0.000000 0.480211
O O9 0.156641 0.867563 0.174417
O O10 0.118733 0.275580 0.786031
O O11 0.140618 0.381835 0.022195
O O12 0.671672 0.227967 0.733209
O O13 0.762672 0.128451 0.737131
O O14 0.709080 0.309921 0.451761
O O15 0.750000 0.750000 0.660752
#
# Coordination Sequence:
#
# PCOD9354652 Si02
#       7
#     8   8   8   8   8   8   8
#     4  11  23  43  70 104 140 180 231 289 360 432
#     4  12  26  44  70 103 140 189 252 301 359 441
#     4  11  24  41  70 104 139 184 231 290 357 431
#     4  11  24  42  69  98 138 188 237 300 363 419
#     4  10  23  46  70 101 140 187 239 305 364 430
#     4  10  21  46  71 101 140 181 236 302 364 437
#     4  11  23  44  68 101 145 184 237 302 360 434
#
# _framework density 23.123124000000001
#
# number of rings (size 3 to 8) (size 9 to 14) (size 15 to 20)
#    0.000    1.143    4.286    3.857    4.000    1.714 
#    2.571    0.000    0.000    0.000    0.000    0.000 
#    0.000    0.000    0.000    0.000    0.000    0.000 
#
# Total GULP energy -156066.391971 kJ/mol
# GULP energy per Si atom -5573.799713 kJ/mol
# Density = 2.307049 g / cm^3
# Si number density = 23.123124 Si / 1000 Ang^3
#
#
#
# Elastic Constant Matrix: (Units=GPa)
#
#
# Indices 1 2 3 4 5 6 
#
# 1 75.6919 35.7673 9.9200 0.0000 0.0000 0.0000
# 2 35.7673 48.3647 1.0039 0.0000 0.0000 0.0000
# 3 9.9200 1.0039 102.9432 0.0000 0.0000 0.0000
# 4 0.0000 0.0000 0.0000 13.9266 0.0000 0.0000
# 5 0.0000 0.0000 0.0000 0.0000 -60.0040 0.0000
# 6 0.0000 0.0000 0.0000 0.0000 0.0000 60.9518
#
#
#
# Elastic Compliance Matrix: (Units=1/GPa)
#
#
# Indices 1 2 3 4 5 6 
#
# 1 0.020652 -0.015234 -0.001842 0.000000 0.000000 0.000000
# 2 -0.015234 0.031919 0.001157 0.000000 0.000000 0.000000
# 3 -0.001842 0.001157 0.009880 0.000000 0.000000 0.000000
# 4 0.000000 0.000000 0.000000 0.071805 0.000000 0.000000
# 5 0.000000 0.000000 0.000000 0.000000 -0.016666 0.000000
# 6 0.000000 0.000000 0.000000 0.000000 0.000000 0.016406
#
#
# Mechanical properties :
#
#
# Convention : Reuss Voigt Hill
#
# Bulk Modulus (GPa) = 32.66663 35.59802 34.13232
# Shear Modulus (GPa) = 28.40285 14.99543 21.69914
#
# Velocity S-wave (km/s) = 3.50856 2.54934 3.06668
# Velocity P-wave (km/s) = 5.52913 4.90855 5.22806
#
# Compressibility (1/GPa) = 0.03061228
#
# Stress axis : x y z
#
# Youngs Moduli (GPa) = 48.42241 31.32974 101.21179
#
# Poissons Ratio (x) = 0.47729 0.18638
# Poissons Ratio (y) = 0.73768 -0.11708
# Poissons Ratio (z) = 0.08917 -0.03624
#
# Static dielectric constant tensor:
#      x y z
#    x 6.382180 0.000000 0.000000 
#    y 0.000000 1.904550 0.000000 
#    z 0.000000 0.000000 1.894660 
# 
# From -- ./inp_files/4124.got.cif
#   From: 2010.05.17/outbox.cif.g08.bks.cpg/sg37_3_cif.got.tgz:4124.got - 2010.06.03 17:53:42.
