data_PCOD9354408
_publ_section_title
;
Structure prediction by ZEFSAII (Michael W. Deem and Ramdas Pophale) SiO2 
 PCOD9354408
Probable space group: C C C 2
;
_chemical_formula_sum "Si O2"
_cell_formula_units_Z 60
_cell_length_a 9.377130
_cell_length_b 26.387399
_cell_length_c 10.760773
_cell_angle_alpha 90.000000
_cell_angle_beta 90.000000
_cell_angle_gamma 90.000000
_cell_volume 2662.624911
_symmetry_space_group_name_H-M "C C C 2"
_symmetry_group_IT_number 37
_symmetry_cell_setting 'orthorhombic'
loop_
_space_group_symop_operation_xyz
x,y,z
-x,-y,z
-x,y,1/2+z
x,-y,1/2+z
1/2+x,1/2+y,z
1/2-x,1/2-y,z
1/2-x,1/2+y,1/2+z
1/2+x,1/2-y,1/2+z
loop_
_atom_site_type_symbol
_atom_site_label
_atom_site_fract_x
_atom_site_fract_y
_atom_site_fract_z
Si Si1 0.364307 0.091276 0.042140
Si Si2 0.534188 0.940942 0.302039
Si Si3 0.253312 0.196091 0.816641
Si Si4 0.998751 0.777552 0.635794
Si Si5 0.750000 0.750000 0.311994
Si Si6 0.082545 0.875354 0.491533
Si Si7 0.237524 0.866440 0.918303
Si Si8 0.049627 0.324019 0.605787
O O1 0.455427 0.064261 0.151436
O O2 0.400412 0.149639 0.077172
O O3 0.422805 0.081594 0.903636
O O4 0.193237 0.083568 0.045768
O O5 0.676964 0.908703 0.339508
O O6 0.500000 0.000000 0.322710
O O7 0.250000 0.250000 0.890248
O O8 0.175742 0.150735 0.884227
O O9 0.399658 0.180860 0.748920
O O10 0.146122 0.209646 0.705114
O O11 0.111943 0.750852 0.724127
O O12 0.059189 0.829376 0.586523
O O13 0.955111 0.731882 0.544124
O O14 0.764933 0.807492 0.370409
O O15 0.923103 0.885871 0.443677
O O16 0.331290 0.859164 0.042446
#
# Coordination Sequence:
#
# PCOD9354408 Si02
#       8
#     8   8   8   8   4   8   8   8
#     4  11  25  43  74 103 139 180 245 316 380 459
#     4  11  25  50  77 106 135 187 246 311 382 463
#     4  10  22  34  52  84 134 191 242 291 347 432
#     4  11  21  33  53  84 133 190 236 289 337 444
#     4  12  22  36  58  94 142 190 244 280 368 440
#     4  12  23  38  60  99 139 182 244 298 373 439
#     4  11  23  39  66  97 138 187 234 305 365 447
#     4  10  21  38  55  85 130 182 233 280 355 422
#
# _framework density 22.534154999999998
#
# number of rings (size 3 to 8) (size 9 to 14) (size 15 to 20)
#    0.000    1.067    2.667    4.400    3.733    2.133 
#    0.000    0.667    0.000    1.600    0.000    0.000 
#    0.000    0.000    0.000    0.000    0.000    0.000 
#
# Total GULP energy -167080.028371 kJ/mol
# GULP energy per Si atom -5569.334279 kJ/mol
# Density = 2.248287 g / cm^3
# Si number density = 22.534155 Si / 1000 Ang^3
#
#
#
# Elastic Constant Matrix: (Units=GPa)
#
#
# Indices 1 2 3 4 5 6 
#
# 1 155.6798 29.0149 35.0665 0.0000 0.0000 0.0000
# 2 29.0149 93.7586 25.5217 0.0000 0.0000 0.0000
# 3 35.0665 25.5217 51.7181 0.0000 0.0000 0.0000
# 4 0.0000 0.0000 0.0000 20.4864 0.0000 0.0000
# 5 0.0000 0.0000 0.0000 0.0000 30.2986 0.0000
# 6 0.0000 0.0000 0.0000 0.0000 0.0000 12.9749
#
#
#
# Elastic Compliance Matrix: (Units=1/GPa)
#
#
# Indices 1 2 3 4 5 6 
#
# 1 0.007680 -0.001108 -0.004660 0.000000 0.000000 0.000000
# 2 -0.001108 0.012481 -0.005408 0.000000 0.000000 0.000000
# 3 -0.004660 -0.005408 0.025164 0.000000 0.000000 0.000000
# 4 0.000000 0.000000 0.000000 0.048813 0.000000 0.000000
# 5 0.000000 0.000000 0.000000 0.000000 0.033005 0.000000
# 6 0.000000 0.000000 0.000000 0.000000 0.000000 0.077072
#
#
# Mechanical properties :
#
#
# Convention : Reuss Voigt Hill
#
# Bulk Modulus (GPa) = 43.53056 53.37364 48.45210
# Shear Modulus (GPa) = 21.34716 26.85553 24.10135
#
# Velocity S-wave (km/s) = 3.08120 3.45595 3.27394
# Velocity P-wave (km/s) = 5.65844 6.29777 5.98664
#
# Compressibility (1/GPa) = 0.02297237
#
# Stress axis : x y z
#
# Youngs Moduli (GPa) = 130.21410 80.12453 39.73944
#
# Poissons Ratio (x) = 0.08878 0.18520
# Poissons Ratio (y) = 0.14428 0.21490
# Poissons Ratio (z) = 0.60683 0.43328
#
# Static dielectric constant tensor:
#      x y z
#    x 1.874390 0.000000 0.000000 
#    y 0.000000 1.912050 0.000000 
#    z 0.000000 0.000000 1.987340 
# 
# From -- ./inp_files/6559.got.cif
#   From: 2010.05.17/outbox.cif.g08.bks.cpg/sg37_4_cif.got.tgz:6559.got - 2010.06.03 17:53:42.
