data_PCOD9354823
_publ_section_title
;
Structure prediction by ZEFSAII (Michael W. Deem and Ramdas Pophale) SiO2 
 PCOD9354823
Probable space group: C C C 2
;
_chemical_formula_sum "Si O2"
_cell_formula_units_Z 36
_cell_length_a 5.387524
_cell_length_b 21.358248
_cell_length_c 13.099049
_cell_angle_alpha 90.000000
_cell_angle_beta 90.000000
_cell_angle_gamma 90.000000
_cell_volume 1507.282336
_symmetry_space_group_name_H-M "C C C 2"
_symmetry_group_IT_number 37
_symmetry_cell_setting 'orthorhombic'
loop_
_space_group_symop_operation_xyz
x,y,z
-x,-y,z
-x,y,1/2+z
x,-y,1/2+z
1/2+x,1/2+y,z
1/2-x,1/2-y,z
1/2-x,1/2+y,1/2+z
1/2+x,1/2-y,1/2+z
loop_
_atom_site_type_symbol
_atom_site_label
_atom_site_fract_x
_atom_site_fract_y
_atom_site_fract_z
Si Si1 0.509201 0.368290 0.195190
Si Si2 0.750000 0.750000 0.697376
Si Si3 0.358256 0.065435 0.846445
Si Si4 0.149001 0.311639 0.353122
Si Si5 0.240487 0.037557 0.063454
O O1 0.629558 0.308657 0.138550
O O2 0.716017 0.413377 0.244779
O O3 0.385167 0.338745 0.294727
O O4 0.290575 0.400658 0.131600
O O5 0.545482 0.783363 0.770153
O O6 0.520980 0.124137 0.889559
O O7 0.500000 0.000000 0.825872
O O8 0.191137 0.052078 0.944734
O O9 0.250000 0.250000 0.412378
O O10 0.500000 0.000000 0.070110
O O11 0.000000 0.000000 0.098827
#
# Coordination Sequence:
#
# PCOD9354823 Si02
#       5
#     8   4   8   8   8
#     4  10  22  40  75  94 136 186 231 287 357 417
#     4   8  18  40  66  98 128 172 234 286 336 426
#     4  10  24  42  68 102 141 182 233 294 353 419
#     4   9  19  38  69  94 129 177 232 280 346 417
#     4  11  28  44  65 106 149 176 233 297 352 430
#
# _framework density 23.884045
#
# number of rings (size 3 to 8) (size 9 to 14) (size 15 to 20)
#    0.000    2.222    0.000    0.000   15.556    0.000 
#    0.000    0.000   58.667    0.000    0.000    0.000 
#    0.000    0.000    0.000    0.000    0.000    0.000 
#
# Total GULP energy -100285.353408 kJ/mol
# GULP energy per Si atom -5571.408523 kJ/mol
# Density = 2.382968 g / cm^3
# Si number density = 23.884045 Si / 1000 Ang^3
#
#
#
# Elastic Constant Matrix: (Units=GPa)
#
#
# Indices 1 2 3 4 5 6 
#
# 1 85.7114 60.6786 9.6108 0.0000 0.0000 0.0000
# 2 60.6786 181.3564 43.7699 0.0000 0.0000 0.0000
# 3 9.6108 43.7699 52.3941 0.0000 0.0000 0.0000
# 4 0.0000 0.0000 0.0000 0.5536 0.0000 0.0000
# 5 0.0000 0.0000 0.0000 0.0000 15.1707 0.0000
# 6 0.0000 0.0000 0.0000 0.0000 0.0000 49.6842
#
#
#
# Elastic Compliance Matrix: (Units=1/GPa)
#
#
# Indices 1 2 3 4 5 6 
#
# 1 0.015431 -0.005611 0.001857 0.000000 0.000000 0.000000
# 2 -0.005611 0.008947 -0.006445 0.000000 0.000000 0.000000
# 3 0.001857 -0.006445 0.024130 0.000000 0.000000 0.000000
# 4 0.000000 0.000000 0.000000 1.806246 0.000000 0.000000
# 5 0.000000 0.000000 0.000000 0.000000 0.065916 0.000000
# 6 0.000000 0.000000 0.000000 0.000000 0.000000 0.020127
#
#
# Mechanical properties :
#
#
# Convention : Reuss Voigt Hill
#
# Bulk Modulus (GPa) = 35.57526 60.84228 48.20877
# Shear Modulus (GPa) = 2.53734 26.77523 14.65629
#
# Velocity S-wave (km/s) = 1.03183 3.35184 2.47987
# Velocity P-wave (km/s) = 4.04313 6.36468 5.33179
#
# Compressibility (1/GPa) = 0.02810942
#
# Stress axis : x y z
#
# Youngs Moduli (GPa) = 64.80367 111.77083 41.44292
#
# Poissons Ratio (x) = 0.62717 -0.07696
# Poissons Ratio (y) = 0.36363 0.26710
# Poissons Ratio (z) = -0.12034 0.72035
#
# Static dielectric constant tensor:
#      x y z
#    x 1.999840 0.000000 0.000000 
#    y 0.000000 2.197690 0.000000 
#    z 0.000000 0.000000 1.877360 
# 
# From -- ./inp_files/9534.got.cif
#   From: 2010.05.17/outbox.cif.g08.bks.cpg/sg37_5_cif.got.tgz:9534.got - 2010.06.03 17:53:42.
