data_PCOD9354101
_publ_section_title
;
Structure prediction by ZEFSAII (Michael W. Deem and Ramdas Pophale) SiO2 
 PCOD9354101
Probable space group: C C C 2
;
_chemical_formula_sum "Si O2"
_cell_formula_units_Z 40
_cell_length_a 15.129486
_cell_length_b 10.512231
_cell_length_c 10.036367
_cell_angle_alpha 90.000000
_cell_angle_beta 90.000000
_cell_angle_gamma 90.000000
_cell_volume 1596.230494
_symmetry_space_group_name_H-M "C C C 2"
_symmetry_group_IT_number 37
_symmetry_cell_setting 'orthorhombic'
loop_
_space_group_symop_operation_xyz
x,y,z
-x,-y,z
-x,y,1/2+z
x,-y,1/2+z
1/2+x,1/2+y,z
1/2-x,1/2-y,z
1/2-x,1/2+y,1/2+z
1/2+x,1/2-y,1/2+z
loop_
_atom_site_type_symbol
_atom_site_label
_atom_site_fract_x
_atom_site_fract_y
_atom_site_fract_z
Si Si1 0.250000 0.750000 0.483070
Si Si2 0.215890 0.448219 0.746400
Si Si3 0.437227 0.128780 0.305135
Si Si4 0.500000 0.500000 0.376970
Si Si5 0.949809 0.363370 0.086015
Si Si6 0.118306 0.916057 0.628134
O O1 0.228803 0.634357 0.380527
O O2 0.172196 0.790659 0.582215
O O3 0.160326 0.574737 0.785374
O O4 0.145852 0.377980 0.649901
O O5 0.302766 0.482465 0.664041
O O6 0.485976 0.202887 0.188619
O O7 0.444341 0.198943 0.443888
O O8 0.500000 0.000000 0.313225
O O9 0.567766 0.444498 0.488939
O O10 0.436863 0.430724 0.266079
O O11 0.000000 0.500000 0.066174
#
# Coordination Sequence:
#
# PCOD9354101 Si02
#       6
#     4   8   8   4   8   8
#     4  12  24  42  74 116 138 196 272 318 386 476
#     4  10  20  37  67  99 142 188 243 327 374 452
#     4   8  15  30  54  86 126 178 210 269 379 455
#     4  10  24  48  80 102 154 222 250 332 390 462
#     4   8  15  28  52  83 127 176 213 269 378 448
#     4  11  23  47  77 105 153 201 271 324 388 464
#
# _framework density 25.059038000000001
#
# number of rings (size 3 to 8) (size 9 to 14) (size 15 to 20)
#    0.000    2.800    2.000    1.200    0.000    1.600 
#    0.000   17.000    0.000    0.000    0.000    0.000 
#    0.000    0.000    0.000    0.000    0.000    0.000 
#
# Total GULP energy -111429.937190 kJ/mol
# GULP energy per Si atom -5571.496860 kJ/mol
# Density = 2.500200 g / cm^3
# Si number density = 25.059038 Si / 1000 Ang^3
#
#
#
# Elastic Constant Matrix: (Units=GPa)
#
#
# Indices 1 2 3 4 5 6 
#
# 1 173.8546 58.7860 90.4759 0.0000 0.0000 0.0000
# 2 58.7860 62.0858 59.2934 0.0000 0.0000 0.0000
# 3 90.4759 59.2934 277.8093 0.0000 0.0000 0.0000
# 4 0.0000 0.0000 0.0000 33.6844 0.0000 0.0000
# 5 0.0000 0.0000 0.0000 0.0000 89.9276 0.0000
# 6 0.0000 0.0000 0.0000 0.0000 0.0000 23.5626
#
#
#
# Elastic Compliance Matrix: (Units=1/GPa)
#
#
# Indices 1 2 3 4 5 6 
#
# 1 0.008860 -0.007076 -0.001375 0.000000 0.000000 0.000000
# 2 -0.007076 0.025881 -0.003219 0.000000 0.000000 0.000000
# 3 -0.001375 -0.003219 0.004735 0.000000 0.000000 0.000000
# 4 0.000000 0.000000 0.000000 0.029687 0.000000 0.000000
# 5 0.000000 0.000000 0.000000 0.000000 0.011120 0.000000
# 6 0.000000 0.000000 0.000000 0.000000 0.000000 0.042440
#
#
# Mechanical properties :
#
#
# Convention : Reuss Voigt Hill
#
# Bulk Modulus (GPa) = 61.97796 103.42894 82.70345
# Shear Modulus (GPa) = 33.01570 49.78120 41.39845
#
# Velocity S-wave (km/s) = 3.63370 4.46192 4.06893
# Velocity P-wave (km/s) = 6.51087 8.24067 7.42631
#
# Compressibility (1/GPa) = 0.01613477
#
# Stress axis : x y z
#
# Youngs Moduli (GPa) = 112.86340 38.63816 211.20900
#
# Poissons Ratio (x) = 0.27340 0.29049
# Poissons Ratio (y) = 0.79860 0.67997
# Poissons Ratio (z) = 0.15523 0.12439
#
# Static dielectric constant tensor:
#      x y z
#    x 1.988910 0.000000 0.000000 
#    y 0.000000 2.214990 0.000000 
#    z 0.000000 0.000000 2.059920 
# 
# From -- ./inp_files/7719.got.cif
#   From: 2010.05.17/outbox.cif.g08.bks.cpg/sg37_4_cif.got.tgz:7719.got - 2010.06.03 17:53:42.
