data_PCOD9354970
_publ_section_title
;
Structure prediction by ZEFSAII (Michael W. Deem and Ramdas Pophale) SiO2 
 PCOD9354970
Probable space group: C C C 2
;
_chemical_formula_sum "Si O2"
_cell_formula_units_Z 40
_cell_length_a 21.954187
_cell_length_b 9.703931
_cell_length_c 8.880213
_cell_angle_alpha 90.000000
_cell_angle_beta 90.000000
_cell_angle_gamma 90.000000
_cell_volume 1891.857590
_symmetry_space_group_name_H-M "C C C 2"
_symmetry_group_IT_number 37
_symmetry_cell_setting 'orthorhombic'
loop_
_space_group_symop_operation_xyz
x,y,z
-x,-y,z
-x,y,1/2+z
x,-y,1/2+z
1/2+x,1/2+y,z
1/2-x,1/2-y,z
1/2-x,1/2+y,1/2+z
1/2+x,1/2-y,1/2+z
loop_
_atom_site_type_symbol
_atom_site_label
_atom_site_fract_x
_atom_site_fract_y
_atom_site_fract_z
Si Si1 0.935999 0.160403 0.226710
Si Si2 0.851628 0.437338 0.661643
Si Si3 0.562649 0.933564 0.899866
Si Si4 0.250000 0.750000 0.803684
Si Si5 0.314600 0.250252 0.597778
Si Si6 0.000000 0.000000 0.973297
O O1 0.953554 0.310650 0.286615
O O2 0.866354 0.163728 0.176815
O O3 0.948562 0.055586 0.361661
O O4 0.975496 0.118173 0.082728
O O5 0.895947 0.459818 0.804634
O O6 0.893641 0.374770 0.530367
O O7 0.790594 0.354749 0.705876
O O8 0.834743 0.590631 0.602665
O O9 0.500000 0.000000 0.957270
O O10 0.298742 0.695218 0.929510
O O11 0.250000 0.250000 0.681929
#
# Coordination Sequence:
#
# PCOD9354970 Si02
#       6
#     8   8   8   4   8   4
#     4  10  24  44  68  98 140 178 233 280 345 422
#     4  11  22  44  67 103 130 179 230 282 359 408
#     4  11  24  41  71 104 137 175 229 296 351 418
#     4  10  22  44  70  92 144 174 230 298 340 414
#     4   9  21  44  64  96 135 176 224 286 332 421
#     4  10  24  46  64 102 138 184 230 280 350 416
#
# _framework density 21.143241
#
# number of rings (size 3 to 8) (size 9 to 14) (size 15 to 20)
#    0.600    1.200    2.000    0.600    8.400    1.600 
#   14.400    0.000    0.000    0.000    0.000    0.000 
#    0.000    0.000    0.000    0.000    0.000    0.000 
#
# Total GULP energy -111528.039561 kJ/mol
# GULP energy per Si atom -5576.401978 kJ/mol
# Density = 2.109512 g / cm^3
# Si number density = 21.143241 Si / 1000 Ang^3
#
#
#
# Elastic Constant Matrix: (Units=GPa)
#
#
# Indices 1 2 3 4 5 6 
#
# 1 130.9716 53.3676 75.5949 0.0000 0.0000 0.0000
# 2 53.3676 58.8864 45.4696 0.0000 0.0000 0.0000
# 3 75.5949 45.4696 131.8849 0.0000 0.0000 0.0000
# 4 0.0000 0.0000 0.0000 12.4337 0.0000 0.0000
# 5 0.0000 0.0000 0.0000 0.0000 33.0131 0.0000
# 6 0.0000 0.0000 0.0000 0.0000 0.0000 40.2389
#
#
#
# Elastic Compliance Matrix: (Units=1/GPa)
#
#
# Indices 1 2 3 4 5 6 
#
# 1 0.014207 -0.008978 -0.005048 0.000000 0.000000 0.000000
# 2 -0.008978 0.028816 -0.004789 0.000000 0.000000 0.000000
# 3 -0.005048 -0.004789 0.012127 0.000000 0.000000 0.000000
# 4 0.000000 0.000000 0.000000 0.080427 0.000000 0.000000
# 5 0.000000 0.000000 0.000000 0.000000 0.030291 0.000000
# 6 0.000000 0.000000 0.000000 0.000000 0.000000 0.024852
#
#
# Mechanical properties :
#
#
# Convention : Reuss Voigt Hill
#
# Bulk Modulus (GPa) = 57.07570 74.51188 65.79379
# Shear Modulus (GPa) = 21.35028 26.95786 24.15407
#
# Velocity S-wave (km/s) = 3.18117 3.57460 3.38361
# Velocity P-wave (km/s) = 6.36761 7.23568 6.81548
#
# Compressibility (1/GPa) = 0.01752059
#
# Stress axis : x y z
#
# Youngs Moduli (GPa) = 70.38707 34.70300 82.46089
#
# Poissons Ratio (x) = 0.31155 0.41628
# Poissons Ratio (y) = 0.63191 0.39490
# Poissons Ratio (z) = 0.35533 0.16619
#
# Static dielectric constant tensor:
#      x y z
#    x 1.780420 0.000000 0.000000 
#    y 0.000000 1.782120 0.000000 
#    z 0.000000 0.000000 1.794850 
# 
# From -- ./inp_files/2235.got.cif
#   From: 2010.05.17/outbox.cif.g08.bks.cpg/sg37_2_cif.got.tgz:2235.got - 2010.06.03 17:53:42.
