data_PCOD9354461
_publ_section_title
;
Structure prediction by ZEFSAII (Michael W. Deem and Ramdas Pophale) SiO2 
 PCOD9354461
Probable space group: C C C 2
;
_chemical_formula_sum "Si O2"
_cell_formula_units_Z 64
_cell_length_a 23.252404
_cell_length_b 9.841075
_cell_length_c 13.002035
_cell_angle_alpha 90.000000
_cell_angle_beta 90.000000
_cell_angle_gamma 90.000000
_cell_volume 2975.238138
_symmetry_space_group_name_H-M "C C C 2"
_symmetry_group_IT_number 37
_symmetry_cell_setting 'orthorhombic'
loop_
_space_group_symop_operation_xyz
x,y,z
-x,-y,z
-x,y,1/2+z
x,-y,1/2+z
1/2+x,1/2+y,z
1/2-x,1/2-y,z
1/2-x,1/2+y,1/2+z
1/2+x,1/2-y,1/2+z
loop_
_atom_site_type_symbol
_atom_site_label
_atom_site_fract_x
_atom_site_fract_y
_atom_site_fract_z
Si Si1 0.283969 0.627474 0.595160
Si Si2 0.036546 0.867956 0.485098
Si Si3 0.562995 0.933831 0.698969
Si Si4 0.883295 0.304336 0.604969
Si Si5 0.929795 0.706297 0.478378
Si Si6 0.247494 0.413014 0.305607
Si Si7 0.632260 0.053167 0.389072
Si Si8 0.855562 0.029754 0.930797
O O1 0.250000 0.750000 0.539354
O O2 0.334685 0.710291 0.652417
O O3 0.243929 0.566164 0.682657
O O4 0.315658 0.521798 0.524326
O O5 0.062678 0.791921 0.583271
O O6 0.990876 0.763035 0.437670
O O7 0.090556 0.926736 0.421497
O O8 0.000000 0.000000 0.515321
O O9 0.562798 0.836174 0.598592
O O10 0.500000 0.000000 0.718019
O O11 0.600979 0.065157 0.668553
O O12 0.597645 0.875248 0.796275
O O13 0.864837 0.354449 0.490772
O O14 0.908328 0.573120 0.420804
O O15 0.883552 0.825198 0.458345
O O16 0.250000 0.250000 0.328873
O O17 0.194439 0.491017 0.358952
O O18 0.309686 0.468343 0.339954
#
# Coordination Sequence:
#
# PCOD9354461 Si02
#       8
#     8   8   8   8   8   8   8   8
#     4  10  21  39  65  85 123 166 209 252 313 374
#     4   9  19  38  64  85 121 163 208 252 311 384
#     4  11  22  36  61  93 126 165 211 256 320 378
#     4  10  21  39  61  89 123 167 203 258 316 370
#     4  10  21  41  62  91 128 165 209 262 318 377
#     4  11  21  40  61  91 123 160 218 255 306 387
#     4  11  24  37  63  94 129 161 215 264 312 381
#     4  10  21  40  66  90 122 169 206 261 325 367
#
# _framework density 21.510883
#
# number of rings (size 3 to 8) (size 9 to 14) (size 15 to 20)
#    0.000    1.750    2.500    2.250    1.750    1.000 
#    4.500    0.000    0.000    0.000    0.000    0.000 
#    0.000    0.000    0.000    0.000    0.000    0.000 
#
# Total GULP energy -178521.299692 kJ/mol
# GULP energy per Si atom -5578.790615 kJ/mol
# Density = 2.146192 g / cm^3
# Si number density = 21.510883 Si / 1000 Ang^3
#
#
#
# Elastic Constant Matrix: (Units=GPa)
#
#
# Indices 1 2 3 4 5 6 
#
# 1 106.8339 16.9569 27.9604 0.0000 0.0000 0.0000
# 2 16.9569 58.4165 9.9336 0.0000 0.0000 0.0000
# 3 27.9604 9.9336 75.9711 0.0000 0.0000 0.0000
# 4 0.0000 0.0000 0.0000 16.3588 0.0000 0.0000
# 5 0.0000 0.0000 0.0000 0.0000 29.4577 0.0000
# 6 0.0000 0.0000 0.0000 0.0000 0.0000 36.8705
#
#
#
# Elastic Compliance Matrix: (Units=1/GPa)
#
#
# Indices 1 2 3 4 5 6 
#
# 1 0.010701 -0.002492 -0.003613 0.000000 0.000000 0.000000
# 2 -0.002492 0.018088 -0.001448 0.000000 0.000000 0.000000
# 3 -0.003613 -0.001448 0.014682 0.000000 0.000000 0.000000
# 4 0.000000 0.000000 0.000000 0.061129 0.000000 0.000000
# 5 0.000000 0.000000 0.000000 0.000000 0.033947 0.000000
# 6 0.000000 0.000000 0.000000 0.000000 0.000000 0.027122
#
#
# Mechanical properties :
#
#
# Convention : Reuss Voigt Hill
#
# Bulk Modulus (GPa) = 35.25350 38.99145 37.12248
# Shear Modulus (GPa) = 26.28400 28.96212 27.62306
#
# Velocity S-wave (km/s) = 3.49935 3.67330 3.58738
# Velocity P-wave (km/s) = 5.72290 6.01304 5.86976
#
# Compressibility (1/GPa) = 0.02836598
#
# Stress axis : x y z
#
# Youngs Moduli (GPa) = 93.44596 55.28517 68.11135
#
# Poissons Ratio (x) = 0.13777 0.24607
# Poissons Ratio (y) = 0.23287 0.09862
# Poissons Ratio (z) = 0.33759 0.08005
#
# Static dielectric constant tensor:
#      x y z
#    x 1.828980 0.000000 0.000000 
#    y 0.000000 1.761190 0.000000 
#    z 0.000000 0.000000 1.784040 
# 
# From -- ./inp_files/8937.got.cif
#   From: 2010.05.17/outbox.cif.g08.bks.cpg/sg37_5_cif.got.tgz:8937.got - 2010.06.03 17:53:42.
