data_PCOD9354568
_publ_section_title
;
Structure prediction by ZEFSAII (Michael W. Deem and Ramdas Pophale) SiO2 
 PCOD9354568
Probable space group: C C C 2
;
_chemical_formula_sum "Si O2"
_cell_formula_units_Z 48
_cell_length_a 11.443073
_cell_length_b 15.602902
_cell_length_c 12.256020
_cell_angle_alpha 90.000000
_cell_angle_beta 90.000000
_cell_angle_gamma 90.000000
_cell_volume 2188.252888
_symmetry_space_group_name_H-M "C C C 2"
_symmetry_group_IT_number 37
_symmetry_cell_setting 'orthorhombic'
loop_
_space_group_symop_operation_xyz
x,y,z
-x,-y,z
-x,y,1/2+z
x,-y,1/2+z
1/2+x,1/2+y,z
1/2-x,1/2-y,z
1/2-x,1/2+y,1/2+z
1/2+x,1/2-y,1/2+z
loop_
_atom_site_type_symbol
_atom_site_label
_atom_site_fract_x
_atom_site_fract_y
_atom_site_fract_z
Si Si1 0.677968 0.429812 0.456230
Si Si2 0.476211 0.697665 0.975403
Si Si3 0.207607 0.649764 0.264713
Si Si4 0.346408 0.817741 0.608013
Si Si5 0.762498 0.616126 0.516583
Si Si6 0.049517 0.658944 0.831401
O O1 0.552736 0.388041 0.481542
O O2 0.700371 0.408324 0.329499
O O3 0.774683 0.376425 0.524895
O O4 0.700591 0.526723 0.487281
O O5 0.464425 0.738781 0.854812
O O6 0.549921 0.766524 0.046607
O O7 0.344523 0.683299 0.012242
O O8 0.250000 0.750000 0.274543
O O9 0.193343 0.622665 0.139851
O O10 0.084389 0.631233 0.323956
O O11 0.250000 0.750000 0.647864
O O12 0.394431 0.862497 0.715466
O O13 0.866330 0.628063 0.428710
#
# Coordination Sequence:
#
# PCOD9354568 Si02
#       6
#     8   8   8   8   8   8
#     4  11  25  47  69 104 145 185 228 299 371 412
#     4  11  22  47  72 103 137 189 240 285 355 440
#     4  12  24  49  75  97 144 201 237 279 362 449
#     4  10  21  41  68  95 133 182 234 280 345 425
#     4  12  28  43  71 113 141 176 245 306 354 412
#     4  12  23  43  71 102 136 187 237 290 342 431
#
# _framework density 21.935307999999999
#
# number of rings (size 3 to 8) (size 9 to 14) (size 15 to 20)
#    0.000    0.667    3.333    5.500    2.333    0.667 
#    0.000    1.667    0.000    0.000    0.000    0.000 
#    0.000    0.000    0.000    0.000    0.000    0.000 
#
# Total GULP energy -134080.470291 kJ/mol
# GULP energy per Si atom -5586.686262 kJ/mol
# Density = 2.188538 g / cm^3
# Si number density = 21.935308 Si / 1000 Ang^3
#
#
#
# Elastic Constant Matrix: (Units=GPa)
#
#
# Indices 1 2 3 4 5 6 
#
# 1 157.0387 27.3801 55.7430 0.0000 0.0000 0.0000
# 2 27.3801 56.8158 -1.1778 0.0000 0.0000 0.0000
# 3 55.7430 -1.1778 101.1047 0.0000 0.0000 0.0000
# 4 0.0000 0.0000 0.0000 17.7837 0.0000 0.0000
# 5 0.0000 0.0000 0.0000 0.0000 20.1227 0.0000
# 6 0.0000 0.0000 0.0000 0.0000 0.0000 21.4053
#
#
#
# Elastic Compliance Matrix: (Units=1/GPa)
#
#
# Indices 1 2 3 4 5 6 
#
# 1 0.008891 -0.004387 -0.004953 0.000000 0.000000 0.000000
# 2 -0.004387 0.019770 0.002649 0.000000 0.000000 0.000000
# 3 -0.004953 0.002649 0.012652 0.000000 0.000000 0.000000
# 4 0.000000 0.000000 0.000000 0.056231 0.000000 0.000000
# 5 0.000000 0.000000 0.000000 0.000000 0.049695 0.000000
# 6 0.000000 0.000000 0.000000 0.000000 0.000000 0.046717
#
#
# Mechanical properties :
#
#
# Convention : Reuss Voigt Hill
#
# Bulk Modulus (GPa) = 35.80253 53.20553 44.50403
# Shear Modulus (GPa) = 23.07870 27.39658 25.23764
#
# Velocity S-wave (km/s) = 3.24717 3.53791 3.39565
# Velocity P-wave (km/s) = 5.51508 6.40292 5.97551
#
# Compressibility (1/GPa) = 0.02793099
#
# Stress axis : x y z
#
# Youngs Moduli (GPa) = 112.47406 50.58187 79.03643
#
# Poissons Ratio (x) = 0.22192 0.39147
# Poissons Ratio (y) = 0.49346 -0.20938
# Poissons Ratio (z) = 0.55709 -0.13400
#
# Static dielectric constant tensor:
#      x y z
#    x 1.824530 0.000000 0.000000 
#    y 0.000000 1.835890 0.000000 
#    z 0.000000 0.000000 1.802490 
# 
# From -- ./inp_files/7179.got.cif
#   From: 2010.05.17/outbox.cif.g08.bks.cpg/sg37_4_cif.got.tgz:7179.got - 2010.06.03 17:53:42.
