data_PCOD9354398
_publ_section_title
;
Structure prediction by ZEFSAII (Michael W. Deem and Ramdas Pophale) SiO2 
 PCOD9354398
Probable space group: C C C 2
;
_chemical_formula_sum "Si O2"
_cell_formula_units_Z 60
_cell_length_a 16.177978
_cell_length_b 19.207909
_cell_length_c 8.972393
_cell_angle_alpha 90.000000
_cell_angle_beta 90.000000
_cell_angle_gamma 90.000000
_cell_volume 2788.127422
_symmetry_space_group_name_H-M "C C C 2"
_symmetry_group_IT_number 37
_symmetry_cell_setting 'orthorhombic'
loop_
_space_group_symop_operation_xyz
x,y,z
-x,-y,z
-x,y,1/2+z
x,-y,1/2+z
1/2+x,1/2+y,z
1/2-x,1/2-y,z
1/2-x,1/2+y,1/2+z
1/2+x,1/2-y,1/2+z
loop_
_atom_site_type_symbol
_atom_site_label
_atom_site_fract_x
_atom_site_fract_y
_atom_site_fract_z
Si Si1 0.750000 0.750000 0.545051
Si Si2 0.071018 0.232764 0.599374
Si Si3 0.780788 0.403675 0.987795
Si Si4 0.463138 0.130553 0.415259
Si Si5 0.431926 0.940100 0.624058
Si Si6 0.072789 0.056592 0.079066
Si Si7 0.748146 0.510181 0.198240
Si Si8 0.504752 0.354030 0.848526
O O1 0.834258 0.752643 0.636062
O O2 0.756981 0.676777 0.456113
O O3 0.037548 0.296376 0.500316
O O4 0.023763 0.210636 0.747181
O O5 0.064543 0.168888 0.482429
O O6 0.880233 0.406831 0.977140
O O7 0.745770 0.457097 0.863809
O O8 0.754403 0.428654 0.152764
O O9 0.543768 0.087988 0.462348
O O10 0.450385 0.122921 0.239776
O O11 0.336507 0.960733 0.638331
O O12 0.500000 0.000000 0.659829
O O13 0.164886 0.032188 0.113440
O O14 0.045805 0.095050 0.230561
O O15 0.068915 0.107529 0.936403
O O16 0.000000 0.000000 0.051117
#
# Coordination Sequence:
#
# PCOD9354398 Si02
#       8
#     4   8   8   8   8   8   8   8
#     4  10  22  40  68  88 128 174 218 258 326 400
#     4  10  21  41  64  90 124 169 212 257 318 389
#     4  10  23  40  62  97 125 170 214 267 323 387
#     4  10  21  37  61  92 127 169 208 254 321 379
#     4  11  21  38  60  94 131 166 206 264 317 379
#     4  11  25  41  63  93 123 166 210 268 332 374
#     4  11  25  39  66  95 129 165 219 269 323 385
#     4  10  23  42  63  89 127 163 212 266 320 388
#
# _framework density 21.519821
#
# number of rings (size 3 to 8) (size 9 to 14) (size 15 to 20)
#    0.000    1.600    1.333    2.400    9.333    0.000 
#    0.000    2.667    0.000    2.400    0.000    0.000 
#    0.000    0.000    0.000    0.000    0.000    0.000 
#
# Total GULP energy -167205.404331 kJ/mol
# GULP energy per Si atom -5573.513478 kJ/mol
# Density = 2.147084 g / cm^3
# Si number density = 21.519821 Si / 1000 Ang^3
#
#
#
# Elastic Constant Matrix: (Units=GPa)
#
#
# Indices 1 2 3 4 5 6 
#
# 1 114.8076 21.2198 27.7987 0.0000 0.0000 0.0000
# 2 21.2198 81.8521 38.5887 0.0000 0.0000 0.0000
# 3 27.7987 38.5887 86.1532 0.0000 0.0000 0.0000
# 4 0.0000 0.0000 0.0000 29.2740 0.0000 0.0000
# 5 0.0000 0.0000 0.0000 0.0000 15.9353 0.0000
# 6 0.0000 0.0000 0.0000 0.0000 0.0000 23.3327
#
#
#
# Elastic Compliance Matrix: (Units=1/GPa)
#
#
# Indices 1 2 3 4 5 6 
#
# 1 0.009556 -0.001298 -0.002502 0.000000 0.000000 0.000000
# 2 -0.001298 0.015664 -0.006597 0.000000 0.000000 0.000000
# 3 -0.002502 -0.006597 0.015370 0.000000 0.000000 0.000000
# 4 0.000000 0.000000 0.000000 0.034160 0.000000 0.000000
# 5 0.000000 0.000000 0.000000 0.000000 0.062754 0.000000
# 6 0.000000 0.000000 0.000000 0.000000 0.000000 0.042858
#
#
# Mechanical properties :
#
#
# Convention : Reuss Voigt Hill
#
# Bulk Modulus (GPa) = 50.51741 50.89192 50.70467
# Shear Modulus (GPa) = 24.06692 26.72209 25.39451
#
# Velocity S-wave (km/s) = 3.34782 3.52766 3.43892
# Velocity P-wave (km/s) = 6.20239 6.34765 6.27544
#
# Compressibility (1/GPa) = 0.01979516
#
# Stress axis : x y z
#
# Youngs Moduli (GPa) = 104.64710 63.84141 65.06379
#
# Poissons Ratio (x) = 0.08285 0.16280
# Poissons Ratio (y) = 0.13580 0.42924
# Poissons Ratio (z) = 0.26184 0.42118
#
# Static dielectric constant tensor:
#      x y z
#    x 1.800360 0.000000 0.000000 
#    y 0.000000 1.885090 0.000000 
#    z 0.000000 0.000000 1.764080 
# 
# From -- ./inp_files/4097.got.cif
#   From: 2010.05.17/outbox.cif.g08.bks.cpg/sg37_3_cif.got.tgz:4097.got - 2010.06.03 17:53:42.
