data_PCOD9354867
_publ_section_title
;
Structure prediction by ZEFSAII (Michael W. Deem and Ramdas Pophale) SiO2 
 PCOD9354867
Probable space group: C C C 2
;
_chemical_formula_sum "Si O2"
_cell_formula_units_Z 56
_cell_length_a 14.015200
_cell_length_b 5.679630
_cell_length_c 29.490215
_cell_angle_alpha 90.000000
_cell_angle_beta 90.000000
_cell_angle_gamma 90.000000
_cell_volume 2347.455039
_symmetry_space_group_name_H-M "C C C 2"
_symmetry_group_IT_number 37
_symmetry_cell_setting 'orthorhombic'
loop_
_space_group_symop_operation_xyz
x,y,z
-x,-y,z
-x,y,1/2+z
x,-y,1/2+z
1/2+x,1/2+y,z
1/2-x,1/2-y,z
1/2-x,1/2+y,1/2+z
1/2+x,1/2-y,1/2+z
loop_
_atom_site_type_symbol
_atom_site_label
_atom_site_fract_x
_atom_site_fract_y
_atom_site_fract_z
Si Si1 0.354200 0.372769 0.089840
Si Si2 0.892971 0.403729 0.676433
Si Si3 0.853938 0.862781 0.411192
Si Si4 0.886915 0.045947 0.321093
Si Si5 0.636592 0.694720 0.990546
Si Si6 0.000000 0.500000 0.929373
Si Si7 0.750000 0.750000 0.627556
Si Si8 0.386793 0.049098 0.281556
O O1 0.250000 0.250000 0.087840
O O2 0.395788 0.300535 0.138440
O O3 0.330164 0.645155 0.094586
O O4 0.400881 0.315747 0.042081
O O5 0.808196 0.571342 0.658715
O O6 0.871449 0.372817 0.729283
O O7 0.000000 0.500000 0.675111
O O8 0.750000 0.750000 0.409566
O O9 0.861602 0.069536 0.374211
O O10 0.939358 0.683365 0.400190
O O11 0.873647 0.955609 0.461849
O O12 0.850970 0.782325 0.307767
O O13 0.852770 0.283896 0.295448
O O14 0.000000 0.000000 0.313767
O O15 0.750000 0.750000 0.990686
O O16 0.578177 0.881058 0.961622
O O17 0.500000 0.000000 0.287403
#
# Coordination Sequence:
#
# PCOD9354867 Si02
#       8
#     8   8   8   8   8   4   4   8
#     4   9  22  41  67 100 137 183 238 294 356 433
#     4  10  22  42  67 101 135 178 233 290 359 436
#     4  12  27  46  71 105 145 191 248 306 371 442
#     4  10  22  42  71 100 141 188 240 301 369 439
#     4  11  24  45  73 103 145 191 245 303 367 439
#     4  12  26  46  74  98 148 196 236 306 372 440
#     4  10  22  42  66  88 140 184 222 294 366 412
#     4   9  21  40  69 103 139 183 237 300 366 434
#
# _framework density 23.855623000000001
#
# number of rings (size 3 to 8) (size 9 to 14) (size 15 to 20)
#    0.000    1.714    1.429    1.286    9.000    1.714 
#    5.143    0.000    0.000    0.000    0.000    0.000 
#    0.000    0.000    0.000    0.000    0.000    0.000 
#
# Total GULP energy -156255.080910 kJ/mol
# GULP energy per Si atom -5580.538604 kJ/mol
# Density = 2.380133 g / cm^3
# Si number density = 23.855623 Si / 1000 Ang^3
#
#
#
# Elastic Constant Matrix: (Units=GPa)
#
#
# Indices 1 2 3 4 5 6 
#
# 1 96.7704 17.4463 12.0589 0.0000 0.0000 0.0000
# 2 17.4463 100.2080 51.6032 0.0000 0.0000 0.0000
# 3 12.0589 51.6032 150.2726 0.0000 0.0000 0.0000
# 4 0.0000 0.0000 0.0000 44.8466 0.0000 0.0000
# 5 0.0000 0.0000 0.0000 0.0000 19.2729 0.0000
# 6 0.0000 0.0000 0.0000 0.0000 0.0000 15.6335
#
#
#
# Elastic Compliance Matrix: (Units=1/GPa)
#
#
# Indices 1 2 3 4 5 6 
#
# 1 0.010677 -0.001722 -0.000265 0.000000 0.000000 0.000000
# 2 -0.001722 0.012401 -0.004120 0.000000 0.000000 0.000000
# 3 -0.000265 -0.004120 0.008091 0.000000 0.000000 0.000000
# 4 0.000000 0.000000 0.000000 0.022298 0.000000 0.000000
# 5 0.000000 0.000000 0.000000 0.000000 0.051886 0.000000
# 6 0.000000 0.000000 0.000000 0.000000 0.000000 0.063965
#
#
# Mechanical properties :
#
#
# Convention : Reuss Voigt Hill
#
# Bulk Modulus (GPa) = 52.76168 56.60753 54.68460
# Shear Modulus (GPa) = 26.61670 33.69345 30.15508
#
# Velocity S-wave (km/s) = 3.34389 3.76226 3.55923
# Velocity P-wave (km/s) = 6.08884 6.53096 6.31377
#
# Compressibility (1/GPa) = 0.01895315
#
# Stress axis : x y z
#
# Youngs Moduli (GPa) = 93.65653 80.63979 123.59818
#
# Poissons Ratio (x) = 0.13888 0.03280
# Poissons Ratio (y) = 0.16130 0.50925
# Poissons Ratio (z) = 0.02486 0.33225
#
# Static dielectric constant tensor:
#      x y z
#    x 1.967620 0.000000 0.000000 
#    y 0.000000 2.045800 0.000000 
#    z 0.000000 0.000000 1.974440 
# 
# From -- ./inp_files/20199.got.cif
#   From: 2010.05.17/outbox.cif.g08.bks.cpg/sg37_11_cif.got.tgz:20199.got - 2010.06.03 17:53:42.
