data_PCOD9354156
_publ_section_title
;
Structure prediction by ZEFSAII (Michael W. Deem and Ramdas Pophale) SiO2 
 PCOD9354156
Probable space group: C C C 2
;
_chemical_formula_sum "Si O2"
_cell_formula_units_Z 36
_cell_length_a 11.531799
_cell_length_b 10.108970
_cell_length_c 14.420977
_cell_angle_alpha 90.000000
_cell_angle_beta 90.000000
_cell_angle_gamma 90.000000
_cell_volume 1681.119772
_symmetry_space_group_name_H-M "C C C 2"
_symmetry_group_IT_number 37
_symmetry_cell_setting 'orthorhombic'
loop_
_space_group_symop_operation_xyz
x,y,z
-x,-y,z
-x,y,1/2+z
x,-y,1/2+z
1/2+x,1/2+y,z
1/2-x,1/2-y,z
1/2-x,1/2+y,1/2+z
1/2+x,1/2-y,1/2+z
loop_
_atom_site_type_symbol
_atom_site_label
_atom_site_fract_x
_atom_site_fract_y
_atom_site_fract_z
Si Si1 0.513462 0.152088 0.094630
Si Si2 0.938093 0.795277 0.916246
Si Si3 0.127004 0.693820 0.783046
Si Si4 0.738336 0.928685 0.842835
Si Si5 0.250000 0.750000 0.172311
O O1 0.449659 0.160058 0.193792
O O2 0.644426 0.197234 0.112342
O O3 0.500000 0.000000 0.061622
O O4 0.463577 0.255191 0.020840
O O5 0.855150 0.922203 0.903782
O O6 0.854946 0.677528 0.878713
O O7 0.051618 0.786008 0.851431
O O8 0.250000 0.750000 0.750421
O O9 0.167911 0.563209 0.837161
O O10 0.777258 0.873510 0.741490
#
# Coordination Sequence:
#
# PCOD9354156 Si02
#       5
#     8   8   8   8   4
#     4  12  22  41  70 100 129 173 234 280 333 417
#     4  10  23  41  67  93 127 172 227 273 336 401
#     4  12  24  39  65  96 135 178 220 271 347 406
#     4  10  20  45  66  86 132 178 213 280 334 397
#     4  10  20  38  70  88 126 170 222 268 336 386
#
# _framework density 21.414297000000001
#
# number of rings (size 3 to 8) (size 9 to 14) (size 15 to 20)
#    0.000    1.333    6.667    2.000    4.667    0.889 
#    0.000    0.000    4.889    0.000    0.000    0.000 
#    0.000    0.000    0.000    0.000    0.000    0.000 
#
# Total GULP energy -100507.188043 kJ/mol
# GULP energy per Si atom -5583.732669 kJ/mol
# Density = 2.136556 g / cm^3
# Si number density = 21.414297 Si / 1000 Ang^3
#
#
#
# Elastic Constant Matrix: (Units=GPa)
#
#
# Indices 1 2 3 4 5 6 
#
# 1 150.2445 39.8687 38.8561 0.0000 0.0000 0.0000
# 2 39.8687 39.6459 14.7254 0.0000 0.0000 0.0000
# 3 38.8561 14.7254 85.1210 0.0000 0.0000 0.0000
# 4 0.0000 0.0000 0.0000 11.7100 0.0000 0.0000
# 5 0.0000 0.0000 0.0000 0.0000 -15.4798 0.0000
# 6 0.0000 0.0000 0.0000 0.0000 0.0000 24.1035
#
#
#
# Elastic Compliance Matrix: (Units=1/GPa)
#
#
# Indices 1 2 3 4 5 6 
#
# 1 0.009719 -0.008684 -0.002934 0.000000 0.000000 0.000000
# 2 -0.008684 0.034714 -0.002041 0.000000 0.000000 0.000000
# 3 -0.002934 -0.002041 0.013441 0.000000 0.000000 0.000000
# 4 0.000000 0.000000 0.000000 0.085397 0.000000 0.000000
# 5 0.000000 0.000000 0.000000 0.000000 -0.064600 0.000000
# 6 0.000000 0.000000 0.000000 0.000000 0.000000 0.041488
#
#
# Mechanical properties :
#
#
# Convention : Reuss Voigt Hill
#
# Bulk Modulus (GPa) = 32.72807 51.32354 42.02581
# Shear Modulus (GPa) = 31.71345 16.17082 23.94214
#
# Velocity S-wave (km/s) = 3.85248 2.75096 3.34734
# Velocity P-wave (km/s) = 5.92497 5.84032 5.88280
#
# Compressibility (1/GPa) = 0.03055481
#
# Stress axis : x y z
#
# Youngs Moduli (GPa) = 102.89134 28.80680 74.40161
#
# Poissons Ratio (x) = 0.25015 0.21832
# Poissons Ratio (y) = 0.89348 0.15188
# Poissons Ratio (z) = 0.30191 0.05880
#
# Static dielectric constant tensor:
#      x y z
#    x 1.807490 0.000000 0.000000 
#    y 0.000000 1.853680 0.000000 
#    z 0.000000 0.000000 1.769550 
# 
# From -- ./inp_files/11266.got.cif
#   From: 2010.05.17/outbox.cif.g08.bks.cpg/sg37_6_cif.got.tgz:11266.got - 2010.06.03 17:53:42.
