data_PCOD9354904
_publ_section_title
;
Structure prediction by ZEFSAII (Michael W. Deem and Ramdas Pophale) SiO2 
 PCOD9354904
Probable space group: C C C 2
;
_chemical_formula_sum "Si O2"
_cell_formula_units_Z 40
_cell_length_a 7.924833
_cell_length_b 13.538324
_cell_length_c 13.981086
_cell_angle_alpha 90.000000
_cell_angle_beta 90.000000
_cell_angle_gamma 90.000000
_cell_volume 1500.016132
_symmetry_space_group_name_H-M "C C C 2"
_symmetry_group_IT_number 37
_symmetry_cell_setting 'orthorhombic'
loop_
_space_group_symop_operation_xyz
x,y,z
-x,-y,z
-x,y,1/2+z
x,-y,1/2+z
1/2+x,1/2+y,z
1/2-x,1/2-y,z
1/2-x,1/2+y,1/2+z
1/2+x,1/2-y,1/2+z
loop_
_atom_site_type_symbol
_atom_site_label
_atom_site_fract_x
_atom_site_fract_y
_atom_site_fract_z
Si Si1 0.912614 0.192375 0.416590
Si Si2 0.292564 0.952708 0.486258
Si Si3 0.387691 0.866495 0.892034
Si Si4 0.736823 0.423292 0.685968
Si Si5 0.866268 0.155779 0.192830
O O1 0.750000 0.250000 0.458511
O O2 0.891237 0.088301 0.464763
O O3 0.884946 0.179293 0.304782
O O4 0.079392 0.254890 0.422326
O O5 0.420799 0.911274 0.404923
O O6 0.349504 0.916849 0.590412
O O7 0.291249 0.068715 0.469583
O O8 0.317888 0.885573 0.785425
O O9 0.703408 0.542327 0.689507
O O10 0.564748 0.360742 0.665292
O O11 0.750000 0.250000 0.156401
#
# Coordination Sequence:
#
# PCOD9354904 Si02
#       5
#     8   8   8   8   8
#     4   9  19  43  70 102 152 197 254 328 388 462
#     4  10  22  42  73 111 156 206 266 327 392 497
#     4  10  22  43  73 108 152 211 258 325 409 470
#     4  11  24  46  77 114 155 214 266 332 413 470
#     4  10  23  47  76 106 158 209 264 336 394 480
#
# _framework density 26.66638
#
# number of rings (size 3 to 8) (size 9 to 14) (size 15 to 20)
#    0.000    2.000    2.000    0.000    2.800    5.600 
#   18.000    0.000    0.000    0.000    0.000    0.000 
#    0.000    0.000    0.000    0.000    0.000    0.000 
#
# Total GULP energy -111549.901267 kJ/mol
# GULP energy per Si atom -5577.495063 kJ/mol
# Density = 2.660569 g / cm^3
# Si number density = 26.666380 Si / 1000 Ang^3
#
#
#
# Elastic Constant Matrix: (Units=GPa)
#
#
# Indices 1 2 3 4 5 6 
#
# 1 151.2977 79.4423 61.9234 0.0000 0.0000 0.0000
# 2 79.4423 151.3952 23.2010 0.0000 0.0000 0.0000
# 3 61.9234 23.2010 116.6737 0.0000 0.0000 0.0000
# 4 0.0000 0.0000 0.0000 15.2232 0.0000 0.0000
# 5 0.0000 0.0000 0.0000 0.0000 16.2960 0.0000
# 6 0.0000 0.0000 0.0000 0.0000 0.0000 71.7531
#
#
#
# Elastic Compliance Matrix: (Units=1/GPa)
#
#
# Indices 1 2 3 4 5 6 
#
# 1 0.011398 -0.005213 -0.005013 0.000000 0.000000 0.000000
# 2 -0.005213 0.009197 0.000938 0.000000 0.000000 0.000000
# 3 -0.005013 0.000938 0.011045 0.000000 0.000000 0.000000
# 4 0.000000 0.000000 0.000000 0.065689 0.000000 0.000000
# 5 0.000000 0.000000 0.000000 0.000000 0.061365 0.000000
# 6 0.000000 0.000000 0.000000 0.000000 0.000000 0.013937
#
#
# Mechanical properties :
#
#
# Convention : Reuss Voigt Hill
#
# Bulk Modulus (GPa) = 76.54481 83.16668 79.85574
# Shear Modulus (GPa) = 25.56741 37.64113 31.60427
#
# Velocity S-wave (km/s) = 3.09979 3.76115 3.44637
# Velocity P-wave (km/s) = 6.44814 7.07935 6.77110
#
# Compressibility (1/GPa) = 0.01306424
#
# Stress axis : x y z
#
# Youngs Moduli (GPa) = 87.73213 108.73251 90.53881
#
# Poissons Ratio (x) = 0.56681 0.45387
# Poissons Ratio (y) = 0.45734 -0.08491
# Poissons Ratio (z) = 0.43980 -0.10197
#
# Static dielectric constant tensor:
#      x y z
#    x 2.203950 0.000000 0.000000 
#    y 0.000000 2.434660 0.000000 
#    z 0.000000 0.000000 1.969270 
# 
# From -- ./inp_files/10334.got.cif
#   From: 2010.05.17/outbox.cif.g08.bks.cpg/sg37_6_cif.got.tgz:10334.got - 2010.06.03 17:53:42.
