data_PCOD9354639
_publ_section_title
;
Structure prediction by ZEFSAII (Michael W. Deem and Ramdas Pophale) SiO2 
 PCOD9354639
Probable space group: C C C 2
;
_chemical_formula_sum "Si O2"
_cell_formula_units_Z 40
_cell_length_a 8.624271
_cell_length_b 13.219538
_cell_length_c 13.570097
_cell_angle_alpha 90.000000
_cell_angle_beta 90.000000
_cell_angle_gamma 90.000000
_cell_volume 1547.111536
_symmetry_space_group_name_H-M "C C C 2"
_symmetry_group_IT_number 37
_symmetry_cell_setting 'orthorhombic'
loop_
_space_group_symop_operation_xyz
x,y,z
-x,-y,z
-x,y,1/2+z
x,-y,1/2+z
1/2+x,1/2+y,z
1/2-x,1/2-y,z
1/2-x,1/2+y,1/2+z
1/2+x,1/2-y,1/2+z
loop_
_atom_site_type_symbol
_atom_site_label
_atom_site_fract_x
_atom_site_fract_y
_atom_site_fract_z
Si Si1 0.767555 0.437514 0.615920
Si Si2 0.518971 0.114195 0.914543
Si Si3 0.998056 0.791900 0.074578
Si Si4 0.896530 0.629892 0.702304
Si Si5 0.151855 0.952882 0.930010
O O1 0.644518 0.347164 0.630112
O O2 0.767938 0.548900 0.667398
O O3 0.722967 0.460872 0.501610
O O4 0.934496 0.403559 0.657262
O O5 0.414178 0.126216 0.818838
O O6 0.702321 0.106688 0.882619
O O7 0.500000 0.000000 0.955110
O O8 0.478764 0.201139 0.992758
O O9 0.101128 0.741678 0.158900
O O10 0.082580 0.873774 0.007566
O O11 0.000000 0.000000 0.875400
#
# Coordination Sequence:
#
# PCOD9354639 Si02
#       5
#     8   8   8   8   8
#     4  10  21  44  69 105 145 203 247 315 394 464
#     4  12  24  44  74 108 150 200 262 323 396 475
#     4  11  24  41  76 106 148 200 260 319 398 476
#     4  11  23  44  75 104 155 205 255 322 397 471
#     4  10  23  44  73 107 150 198 253 328 393 470
#
# _framework density 25.854633
#
# number of rings (size 3 to 8) (size 9 to 14) (size 15 to 20)
#    0.000    1.200    4.000    2.400    0.000    4.800 
#    0.000    7.000   13.200    0.000    0.000    0.000 
#    0.000    0.000    0.000    0.000    0.000    0.000 
#
# Total GULP energy -111378.782969 kJ/mol
# GULP energy per Si atom -5568.939148 kJ/mol
# Density = 2.579579 g / cm^3
# Si number density = 25.854633 Si / 1000 Ang^3
#
#
#
# Elastic Constant Matrix: (Units=GPa)
#
#
# Indices 1 2 3 4 5 6 
#
# 1 116.6829 84.9344 37.5200 0.0000 0.0000 0.0000
# 2 84.9344 129.0097 7.0838 0.0000 0.0000 0.0000
# 3 37.5200 7.0838 88.6399 0.0000 0.0000 0.0000
# 4 0.0000 0.0000 0.0000 -3.8299 0.0000 0.0000
# 5 0.0000 0.0000 0.0000 0.0000 32.1233 0.0000
# 6 0.0000 0.0000 0.0000 0.0000 0.0000 41.3528
#
#
#
# Elastic Compliance Matrix: (Units=1/GPa)
#
#
# Indices 1 2 3 4 5 6 
#
# 1 0.020604 -0.013144 -0.007671 0.000000 0.000000 0.000000
# 2 -0.013144 0.016170 0.004271 0.000000 0.000000 0.000000
# 3 -0.007671 0.004271 0.014187 0.000000 0.000000 0.000000
# 4 0.000000 0.000000 0.000000 -0.261106 0.000000 0.000000
# 5 0.000000 0.000000 0.000000 0.000000 0.031130 0.000000
# 6 0.000000 0.000000 0.000000 0.000000 0.000000 0.024182
#
#
# Mechanical properties :
#
#
# Convention : Reuss Voigt Hill
#
# Bulk Modulus (GPa) = 55.94530 65.93433 60.93982
# Shear Modulus (GPa) = -43.18282 27.58220 -7.80031
#
# Velocity S-wave (km/s) = -4.09126 3.26976 -1.73883
# Velocity P-wave (km/s) = 0.79531 6.30971 4.42605
#
# Compressibility (1/GPa) = 0.01787460
#
# Stress axis : x y z
#
# Youngs Moduli (GPa) = 48.53325 61.84230 70.48547
#
# Poissons Ratio (x) = 0.81285 0.54070
# Poissons Ratio (y) = 0.63791 -0.30107
# Poissons Ratio (z) = 0.37231 -0.26415
#
# Static dielectric constant tensor:
#      x y z
#    x 2.305880 0.000000 0.000000 
#    y 0.000000 2.319620 0.000000 
#    z 0.000000 0.000000 1.987050 
# 
# From -- ./inp_files/10338.got.cif
#   From: 2010.05.17/outbox.cif.g08.bks.cpg/sg37_6_cif.got.tgz:10338.got - 2010.06.03 17:53:42.
