data_PCOD9354819
_publ_section_title
;
Structure prediction by ZEFSAII (Michael W. Deem and Ramdas Pophale) SiO2 
 PCOD9354819
Probable space group: C C C 2
;
_chemical_formula_sum "Si O2"
_cell_formula_units_Z 48
_cell_length_a 14.492742
_cell_length_b 12.996748
_cell_length_c 10.051637
_cell_angle_alpha 90.000000
_cell_angle_beta 90.000000
_cell_angle_gamma 90.000000
_cell_volume 1893.311425
_symmetry_space_group_name_H-M "C C C 2"
_symmetry_group_IT_number 37
_symmetry_cell_setting 'orthorhombic'
loop_
_space_group_symop_operation_xyz
x,y,z
-x,-y,z
-x,y,1/2+z
x,-y,1/2+z
1/2+x,1/2+y,z
1/2-x,1/2-y,z
1/2-x,1/2+y,1/2+z
1/2+x,1/2-y,1/2+z
loop_
_atom_site_type_symbol
_atom_site_label
_atom_site_fract_x
_atom_site_fract_y
_atom_site_fract_z
Si Si1 0.470425 0.614538 0.915250
Si Si2 0.538631 0.105202 0.522775
Si Si3 0.672619 0.327642 0.398284
Si Si4 0.805255 0.845104 0.600192
Si Si5 0.399302 0.809425 0.798739
Si Si6 0.793539 0.482211 0.926652
O O1 0.500000 0.500000 0.871272
O O2 0.568447 0.668982 0.948552
O O3 0.464263 0.849081 0.921100
O O4 0.409979 0.686380 0.816146
O O5 0.432843 0.168486 0.150821
O O6 0.500000 0.000000 0.584760
O O7 0.622981 0.062860 0.434503
O O8 0.750000 0.250000 0.458976
O O9 0.667339 0.300978 0.242615
O O10 0.709037 0.444153 0.393342
O O11 0.750000 0.750000 0.533195
O O12 0.900608 0.885008 0.538955
O O13 0.731269 0.935265 0.572366
O O14 0.313399 0.887164 0.827357
#
# Coordination Sequence:
#
# PCOD9354819 Si02
#       6
#     8   8   8   8   8   8
#     4  12  26  47  71 105 143 192 245 301 367 444
#     4  10  22  40  71 107 142 184 243 313 368 426
#     4  11  26  46  72 102 145 188 245 302 373 442
#     4  11  24  47  73  97 139 197 240 297 370 445
#     4  11  24  42  71 106 144 187 249 305 370 437
#     4  11  21  44  70 103 138 188 247 299 366 436
#
# _framework density 25.352404
#
# number of rings (size 3 to 8) (size 9 to 14) (size 15 to 20)
#    0.000    1.000    3.333    3.500    2.333    3.333 
#    0.000    0.000    3.667    0.000    0.000    0.000 
#    0.000    0.000    0.000    0.000    0.000    0.000 
#
# Total GULP energy -133872.770096 kJ/mol
# GULP energy per Si atom -5578.032087 kJ/mol
# Density = 2.529470 g / cm^3
# Si number density = 25.352404 Si / 1000 Ang^3
#
#
#
# Elastic Constant Matrix: (Units=GPa)
#
#
# Indices 1 2 3 4 5 6 
#
# 1 128.7276 44.7794 -2.7264 0.0000 0.0000 0.0000
# 2 44.7794 140.9484 22.9736 0.0000 0.0000 0.0000
# 3 -2.7264 22.9736 57.8778 0.0000 0.0000 0.0000
# 4 0.0000 0.0000 0.0000 18.1979 0.0000 0.0000
# 5 0.0000 0.0000 0.0000 0.0000 7.1466 0.0000
# 6 0.0000 0.0000 0.0000 0.0000 0.0000 50.4255
#
#
#
# Elastic Compliance Matrix: (Units=1/GPa)
#
#
# Indices 1 2 3 4 5 6 
#
# 1 0.008877 -0.003088 0.001644 0.000000 0.000000 0.000000
# 2 -0.003088 0.008660 -0.003583 0.000000 0.000000 0.000000
# 3 0.001644 -0.003583 0.018777 0.000000 0.000000 0.000000
# 4 0.000000 0.000000 0.000000 0.054951 0.000000 0.000000
# 5 0.000000 0.000000 0.000000 0.000000 0.139927 0.000000
# 6 0.000000 0.000000 0.000000 0.000000 0.000000 0.019831
#
#
# Mechanical properties :
#
#
# Convention : Reuss Voigt Hill
#
# Bulk Modulus (GPa) = 38.08008 50.84519 44.46263
# Shear Modulus (GPa) = 18.53000 32.65581 25.59290
#
# Velocity S-wave (km/s) = 2.70644 3.59287 3.18069
# Velocity P-wave (km/s) = 4.98190 6.10823 5.57359
#
# Compressibility (1/GPa) = 0.02626045
#
# Stress axis : x y z
#
# Youngs Moduli (GPa) = 112.64453 115.47405 53.25551
#
# Poissons Ratio (x) = 0.35662 -0.08756
# Poissons Ratio (y) = 0.34789 0.19081
# Poissons Ratio (z) = -0.18519 0.41373
#
# Static dielectric constant tensor:
#      x y z
#    x 2.101870 0.000000 0.000000 
#    y 0.000000 2.148980 0.000000 
#    z 0.000000 0.000000 1.979330 
# 
# From -- ./inp_files/12606.got.cif
#   From: 2010.05.17/outbox.cif.g08.bks.cpg/sg37_7_cif.got.tgz:12606.got - 2010.06.03 17:53:42.
