data_PCOD9354251
_publ_section_title
;
Structure prediction by ZEFSAII (Michael W. Deem and Ramdas Pophale) SiO2 
 PCOD9354251
Probable space group: C C C 2
;
_chemical_formula_sum "Si O2"
_cell_formula_units_Z 48
_cell_length_a 13.244236
_cell_length_b 6.280736
_cell_length_c 26.191260
_cell_angle_alpha 90.000000
_cell_angle_beta 90.000000
_cell_angle_gamma 90.000000
_cell_volume 2178.681982
_symmetry_space_group_name_H-M "C C C 2"
_symmetry_group_IT_number 37
_symmetry_cell_setting 'orthorhombic'
loop_
_space_group_symop_operation_xyz
x,y,z
-x,-y,z
-x,y,1/2+z
x,-y,1/2+z
1/2+x,1/2+y,z
1/2-x,1/2-y,z
1/2-x,1/2+y,1/2+z
1/2+x,1/2-y,1/2+z
loop_
_atom_site_type_symbol
_atom_site_label
_atom_site_fract_x
_atom_site_fract_y
_atom_site_fract_z
Si Si1 0.895618 0.870795 0.022400
Si Si2 0.851812 0.610792 0.386958
Si Si3 0.854125 0.337630 0.709116
Si Si4 0.000000 0.000000 0.758117
Si Si5 0.750000 0.250000 0.444009
Si Si6 0.250000 0.250000 0.110022
Si Si7 0.000000 0.500000 0.466154
Si Si8 0.638669 0.846965 0.792797
O O1 0.828135 0.873052 0.073411
O O2 0.812976 0.917305 0.978293
O O3 0.928102 0.633276 0.004022
O O4 0.000000 0.000000 0.025246
O O5 0.750000 0.750000 0.387190
O O6 0.823830 0.377862 0.408255
O O7 0.882191 0.548266 0.329655
O O8 0.940123 0.662034 0.427740
O O9 0.750000 0.250000 0.733662
O O10 0.933592 0.154078 0.721976
O O11 0.823199 0.371037 0.650133
O O12 0.876914 0.557509 0.736341
O O13 0.065766 0.147190 0.795292
O O14 0.750000 0.750000 0.798932
#
# Coordination Sequence:
#
# PCOD9354251 Si02
#       8
#     8   8   8   4   4   4   4   8
#     4  10  20  41  66  91 129 166 213 278 333 394
#     4  11  23  38  64  92 132 179 220 269 329 390
#     4  10  23  45  65  97 134 172 227 278 337 411
#     4  12  26  44  70  92 142 182 222 286 334 394
#     4   9  20  40  58  92 126 170 218 267 326 390
#     4   9  22  42  70  96 126 166 222 273 344 404
#     4  10  24  40  60 100 130 170 228 270 328 412
#     4  12  24  43  66  97 136 183 228 279 334 403
#
# _framework density 22.031668
#
# number of rings (size 3 to 8) (size 9 to 14) (size 15 to 20)
#    0.500    1.000    2.500    2.000    3.500    0.000 
#    9.000    1.667    0.000    0.000    0.000    0.000 
#    0.000    0.000    0.000    0.000    0.000    0.000 
#
# Total GULP energy -133694.254506 kJ/mol
# GULP energy per Si atom -5570.593938 kJ/mol
# Density = 2.198152 g / cm^3
# Si number density = 22.031668 Si / 1000 Ang^3
#
#
#
# Elastic Constant Matrix: (Units=GPa)
#
#
# Indices 1 2 3 4 5 6 
#
# 1 143.7082 41.0279 27.6345 0.0000 0.0000 0.0000
# 2 41.0279 53.1101 15.8059 0.0000 0.0000 0.0000
# 3 27.6345 15.8059 103.5331 0.0000 0.0000 0.0000
# 4 0.0000 0.0000 0.0000 15.1910 0.0000 0.0000
# 5 0.0000 0.0000 0.0000 0.0000 21.7822 0.0000
# 6 0.0000 0.0000 0.0000 0.0000 0.0000 55.8406
#
#
#
# Elastic Compliance Matrix: (Units=1/GPa)
#
#
# Indices 1 2 3 4 5 6 
#
# 1 0.009124 -0.006624 -0.001424 0.000000 0.000000 0.000000
# 2 -0.006624 0.024535 -0.001977 0.000000 0.000000 0.000000
# 3 -0.001424 -0.001977 0.010341 0.000000 0.000000 0.000000
# 4 0.000000 0.000000 0.000000 0.065829 0.000000 0.000000
# 5 0.000000 0.000000 0.000000 0.000000 0.045909 0.000000
# 6 0.000000 0.000000 0.000000 0.000000 0.000000 0.017908
#
#
# Mechanical properties :
#
#
# Convention : Reuss Voigt Hill
#
# Bulk Modulus (GPa) = 41.75786 52.14312 46.95049
# Shear Modulus (GPa) = 24.79197 32.95497 28.87347
#
# Velocity S-wave (km/s) = 3.35817 3.87175 3.62407
# Velocity P-wave (km/s) = 5.83362 6.61105 6.23447
#
# Compressibility (1/GPa) = 0.02394759
#
# Stress axis : x y z
#
# Youngs Moduli (GPa) = 109.60659 40.75883 96.70525
#
# Poissons Ratio (x) = 0.27000 0.13770
# Poissons Ratio (y) = 0.72606 0.19123
# Poissons Ratio (z) = 0.15607 0.08060
#
# Static dielectric constant tensor:
#      x y z
#    x 1.928530 0.000000 0.000000 
#    y 0.000000 1.834380 0.000000 
#    z 0.000000 0.000000 1.828470 
# 
# From -- ./inp_files/20529.got.cif
#   From: 2010.05.17/outbox.cif.g08.bks.cpg/sg37_11_cif.got.tgz:20529.got - 2010.06.03 17:53:42.
