data_PCOD9354671
_publ_section_title
;
Structure prediction by ZEFSAII (Michael W. Deem and Ramdas Pophale) SiO2 
 PCOD9354671
Probable space group: C C C 2
;
_chemical_formula_sum "Si O2"
_cell_formula_units_Z 64
_cell_length_a 13.441601
_cell_length_b 17.003060
_cell_length_c 12.660490
_cell_angle_alpha 90.000000
_cell_angle_beta 90.000000
_cell_angle_gamma 90.000000
_cell_volume 2893.534078
_symmetry_space_group_name_H-M "C C C 2"
_symmetry_group_IT_number 37
_symmetry_cell_setting 'orthorhombic'
loop_
_space_group_symop_operation_xyz
x,y,z
-x,-y,z
-x,y,1/2+z
x,-y,1/2+z
1/2+x,1/2+y,z
1/2-x,1/2-y,z
1/2-x,1/2+y,1/2+z
1/2+x,1/2-y,1/2+z
loop_
_atom_site_type_symbol
_atom_site_label
_atom_site_fract_x
_atom_site_fract_y
_atom_site_fract_z
Si Si1 0.843137 0.948353 0.271390
Si Si2 0.452815 0.199259 0.103585
Si Si3 0.942659 0.117419 0.241352
Si Si4 0.718602 0.097227 0.969075
Si Si5 0.336046 0.310544 0.940467
Si Si6 0.863355 0.722023 0.328718
Si Si7 0.204159 0.431970 0.071888
Si Si8 0.373028 0.713460 0.045779
O O1 0.803382 0.935925 0.389418
O O2 0.757637 0.929903 0.186095
O O3 0.940332 0.896218 0.252068
O O4 0.883199 0.035739 0.251673
O O5 0.425687 0.217301 0.224097
O O6 0.397849 0.117896 0.075091
O O7 0.570994 0.207925 0.089927
O O8 0.400459 0.264736 0.028807
O O9 0.898114 0.168004 0.337054
O O10 0.922178 0.151645 0.125795
O O11 0.642342 0.137658 0.887578
O O12 0.763597 0.172083 0.034348
O O13 0.687973 0.021992 0.036611
O O14 0.250000 0.250000 0.907867
O O15 0.280533 0.385366 0.993939
O O16 0.750000 0.750000 0.302620
O O17 0.898871 0.778815 0.422167
#
# Coordination Sequence:
#
# PCOD9354671 Si02
#       8
#     8   8   8   8   8   8   8   8
#     4  11  22  38  62  94 132 174 216 274 344 417
#     4  11  23  41  67  94 134 180 230 275 337 423
#     4  11  23  39  58  99 141 170 213 285 358 402
#     4  11  22  42  68  97 132 177 233 281 344 417
#     4  10  22  36  59  92 130 174 217 272 334 407
#     4  10  23  42  68  94 129 183 233 279 345 420
#     4  11  21  41  65  94 128 179 227 267 340 413
#     4  11  25  39  63  98 132 171 225 290 339 401
#
# _framework density 22.118281
#
# number of rings (size 3 to 8) (size 9 to 14) (size 15 to 20)
#    0.000    1.250    3.750    2.625    7.000    1.500 
#    0.000    0.625    0.000    1.500    0.000    0.000 
#    0.000    0.000    0.000    0.000    0.000    0.000 
#
# Total GULP energy -178612.674075 kJ/mol
# GULP energy per Si atom -5581.646065 kJ/mol
# Density = 2.206794 g / cm^3
# Si number density = 22.118281 Si / 1000 Ang^3
#
#
#
# Elastic Constant Matrix: (Units=GPa)
#
#
# Indices 1 2 3 4 5 6 
#
# 1 117.0487 48.1052 64.1211 0.0000 0.0000 0.0000
# 2 48.1052 128.1543 54.9886 0.0000 0.0000 0.0000
# 3 64.1211 54.9886 137.0356 0.0000 0.0000 0.0000
# 4 0.0000 0.0000 0.0000 38.0606 0.0000 0.0000
# 5 0.0000 0.0000 0.0000 0.0000 37.4177 0.0000
# 6 0.0000 0.0000 0.0000 0.0000 0.0000 -3.4747
#
#
#
# Elastic Compliance Matrix: (Units=1/GPa)
#
#
# Indices 1 2 3 4 5 6 
#
# 1 0.012147 -0.002562 -0.004656 0.000000 0.000000 0.000000
# 2 -0.002562 0.009966 -0.002800 0.000000 0.000000 0.000000
# 3 -0.004656 -0.002800 0.010600 0.000000 0.000000 0.000000
# 4 0.000000 0.000000 0.000000 0.026274 0.000000 0.000000
# 5 0.000000 0.000000 0.000000 0.000000 0.026725 0.000000
# 6 0.000000 0.000000 0.000000 0.000000 0.000000 -0.287791
#
#
# Mechanical properties :
#
#
# Convention : Reuss Voigt Hill
#
# Bulk Modulus (GPa) = 78.88488 79.62983 79.25736
# Shear Modulus (GPa) = -28.11868 28.73562 0.30847
#
# Velocity S-wave (km/s) = -3.56938 3.60832 0.37385
# Velocity P-wave (km/s) = 4.33072 7.31027 6.00812
#
# Compressibility (1/GPa) = 0.01267670
#
# Stress axis : x y z
#
# Youngs Moduli (GPa) = 82.32625 100.33726 94.34322
#
# Poissons Ratio (x) = 0.25705 0.43923
# Poissons Ratio (y) = 0.21091 0.26421
# Poissons Ratio (z) = 0.38328 0.28099
#
# Static dielectric constant tensor:
#      x y z
#    x 1.893080 0.000000 0.000000 
#    y 0.000000 1.867050 0.000000 
#    z 0.000000 0.000000 1.759520 
# 
# From -- ./inp_files/7996.got.cif
#   From: 2010.05.17/outbox.cif.g08.bks.cpg/sg37_4_cif.got.tgz:7996.got - 2010.06.03 17:53:42.
