data_PCOD9354017
_publ_section_title
;
Structure prediction by ZEFSAII (Michael W. Deem and Ramdas Pophale) SiO2 
 PCOD9354017
Probable space group: C C C 2
;
_chemical_formula_sum "Si O2"
_cell_formula_units_Z 32
_cell_length_a 8.196506
_cell_length_b 12.266808
_cell_length_c 14.716488
_cell_angle_alpha 90.000000
_cell_angle_beta 90.000000
_cell_angle_gamma 90.000000
_cell_volume 1479.668776
_symmetry_space_group_name_H-M "C C C 2"
_symmetry_group_IT_number 37
_symmetry_cell_setting 'orthorhombic'
loop_
_space_group_symop_operation_xyz
x,y,z
-x,-y,z
-x,y,1/2+z
x,-y,1/2+z
1/2+x,1/2+y,z
1/2-x,1/2-y,z
1/2-x,1/2+y,1/2+z
1/2+x,1/2-y,1/2+z
loop_
_atom_site_type_symbol
_atom_site_label
_atom_site_fract_x
_atom_site_fract_y
_atom_site_fract_z
Si Si1 0.045420 0.118200 0.468000
Si Si2 0.250000 0.750000 0.113955
Si Si3 0.361944 0.407818 0.265389
Si Si4 0.250000 0.750000 0.506868
Si Si5 0.936878 0.329378 0.677034
O O1 0.138979 0.179960 0.546525
O O2 0.140513 0.105599 0.374074
O O3 0.877237 0.181662 0.449131
O O4 0.000000 0.000000 0.503436
O O5 0.368398 0.831442 0.168520
O O6 0.500000 0.500000 0.245046
O O7 0.174810 0.415558 0.230567
O O8 0.413322 0.291769 0.221159
O O9 0.144154 0.675396 0.576213
#
# Coordination Sequence:
#
# PCOD9354017 Si02
#       5
#     8   4   8   4   8
#     4  10  20  37  61  84 114 153 191 240 297 348
#     4  10  20  36  60  86 116 156 194 242 296 352
#     4   9  18  35  58  82 114 153 193 240 293 351
#     4   8  18  34  54  82 112 142 186 236 280 342
#     4   9  19  34  54  82 115 150 188 237 292 344
#
# _framework density 21.626462
#
# number of rings (size 3 to 8) (size 9 to 14) (size 15 to 20)
#    0.000    3.000    0.000    1.500    0.000   10.000 
#    0.000   11.250    0.000   24.000    0.000    0.000 
#    0.000    0.000    0.000    0.000    0.000    0.000 
#
# Total GULP energy -89170.497038 kJ/mol
# GULP energy per Si atom -5573.156065 kJ/mol
# Density = 2.157724 g / cm^3
# Si number density = 21.626462 Si / 1000 Ang^3
#
#
#
# Elastic Constant Matrix: (Units=GPa)
#
#
# Indices 1 2 3 4 5 6 
#
# 1 172.8187 46.8487 38.3075 0.0000 0.0000 0.0000
# 2 46.8487 97.7447 22.1874 0.0000 0.0000 0.0000
# 3 38.3075 22.1874 62.9193 0.0000 0.0000 0.0000
# 4 0.0000 0.0000 0.0000 -1.5726 0.0000 0.0000
# 5 0.0000 0.0000 0.0000 0.0000 23.0494 0.0000
# 6 0.0000 0.0000 0.0000 0.0000 0.0000 19.8178
#
#
#
# Elastic Compliance Matrix: (Units=1/GPa)
#
#
# Indices 1 2 3 4 5 6 
#
# 1 0.007292 -0.002704 -0.003486 0.000000 0.000000 0.000000
# 2 -0.002704 0.012123 -0.002629 0.000000 0.000000 0.000000
# 3 -0.003486 -0.002629 0.018943 0.000000 0.000000 0.000000
# 4 0.000000 0.000000 0.000000 -0.635882 0.000000 0.000000
# 5 0.000000 0.000000 0.000000 0.000000 0.043385 0.000000
# 6 0.000000 0.000000 0.000000 0.000000 0.000000 0.050460
#
#
# Mechanical properties :
#
#
# Convention : Reuss Voigt Hill
#
# Bulk Modulus (GPa) = 48.26126 60.90777 54.58451
# Shear Modulus (GPa) = -10.43550 23.33486 6.44968
#
# Velocity S-wave (km/s) = -2.19905 3.28837 1.72881
# Velocity P-wave (km/s) = 3.98955 6.53012 5.41106
#
# Compressibility (1/GPa) = 0.02072055
#
# Stress axis : x y z
#
# Youngs Moduli (GPa) = 137.13400 82.48523 52.78992
#
# Poissons Ratio (x) = 0.22302 0.18404
# Poissons Ratio (y) = 0.37077 0.13878
# Poissons Ratio (z) = 0.47809 0.21685
#
# Static dielectric constant tensor:
#      x y z
#    x 1.901060 0.000000 0.000000 
#    y 0.000000 1.838520 0.000000 
#    z 0.000000 0.000000 1.769830 
# 
# From -- ./inp_files/10115.got.cif
#   From: 2010.05.17/outbox.cif.g08.bks.cpg/sg37_6_cif.got.tgz:10115.got - 2010.06.03 17:53:42.
