data_PCOD9354023
_publ_section_title
;
Structure prediction by ZEFSAII (Michael W. Deem and Ramdas Pophale) SiO2 
 PCOD9354023
Probable space group: C C C 2
;
_chemical_formula_sum "Si O2"
_cell_formula_units_Z 60
_cell_length_a 15.845490
_cell_length_b 18.453460
_cell_length_c 8.891662
_cell_angle_alpha 90.000000
_cell_angle_beta 90.000000
_cell_angle_gamma 90.000000
_cell_volume 2599.958566
_symmetry_space_group_name_H-M "C C C 2"
_symmetry_group_IT_number 37
_symmetry_cell_setting 'orthorhombic'
loop_
_space_group_symop_operation_xyz
x,y,z
-x,-y,z
-x,y,1/2+z
x,-y,1/2+z
1/2+x,1/2+y,z
1/2-x,1/2-y,z
1/2-x,1/2+y,1/2+z
1/2+x,1/2-y,1/2+z
loop_
_atom_site_type_symbol
_atom_site_label
_atom_site_fract_x
_atom_site_fract_y
_atom_site_fract_z
Si Si1 0.919582 0.736508 0.013300
Si Si2 0.812077 0.404689 0.129026
Si Si3 0.112019 0.099973 0.660916
Si Si4 0.797615 0.479264 0.423022
Si Si5 0.911008 0.726638 0.668707
Si Si6 0.750000 0.750000 0.196200
Si Si7 0.551080 0.409315 0.497096
Si Si8 0.295935 0.411746 0.205068
O O1 0.831768 0.728852 0.098690
O O2 0.940351 0.821914 0.001090
O O3 0.999266 0.704840 0.099838
O O4 0.912343 0.710784 0.844630
O O5 0.710312 0.413803 0.130989
O O6 0.838442 0.431073 0.294665
O O7 0.838987 0.323154 0.097458
O O8 0.851190 0.461218 0.012137
O O9 0.104283 0.187709 0.653851
O O10 0.045411 0.071125 0.537020
O O11 0.083130 0.074473 0.828272
O O12 0.733477 0.531966 0.330747
O O13 0.757448 0.428339 0.551861
O O14 0.719589 0.671204 0.262061
O O15 0.610907 0.427666 0.639831
#
# Coordination Sequence:
#
# PCOD9354023 Si02
#       8
#     8   8   8   8   8   4   8   8
#     4   9  20  35  62  95 131 156 206 270 320 385
#     4  11  22  41  63  85 122 175 219 267 326 401
#     4  10  20  36  60  94 126 164 213 273 327 399
#     4  10  23  39  60  88 131 167 225 271 328 399
#     4  10  21  38  64  94 126 160 211 266 326 383
#     4  10  20  38  72  96 120 176 220 260 340 390
#     4   9  19  34  56  87 132 162 211 263 331 384
#     4  10  20  40  60  88 124 172 215 268 326 398
#
# _framework density 23.077292
#
# number of rings (size 3 to 8) (size 9 to 14) (size 15 to 20)
#    0.000    2.133    1.333    1.200    5.600    1.067 
#    4.800    4.000    0.000   13.600    0.000    0.000 
#    0.000    0.000    0.000    0.000    0.000    0.000 
#
# Total GULP energy -167431.328966 kJ/mol
# GULP energy per Si atom -5581.044299 kJ/mol
# Density = 2.302477 g / cm^3
# Si number density = 23.077292 Si / 1000 Ang^3
#
#
#
# Elastic Constant Matrix: (Units=GPa)
#
#
# Indices 1 2 3 4 5 6 
#
# 1 59.0219 15.9555 8.6184 0.0000 0.0000 0.0000
# 2 15.9555 116.5760 25.1463 0.0000 0.0000 0.0000
# 3 8.6184 25.1463 62.9174 0.0000 0.0000 0.0000
# 4 0.0000 0.0000 0.0000 19.2559 0.0000 0.0000
# 5 0.0000 0.0000 0.0000 0.0000 27.0140 0.0000
# 6 0.0000 0.0000 0.0000 0.0000 0.0000 345.8291
#
#
#
# Elastic Compliance Matrix: (Units=1/GPa)
#
#
# Indices 1 2 3 4 5 6 
#
# 1 0.017739 -0.002083 -0.001597 0.000000 0.000000 0.000000
# 2 -0.002083 0.009632 -0.003564 0.000000 0.000000 0.000000
# 3 -0.001597 -0.003564 0.017537 0.000000 0.000000 0.000000
# 4 0.000000 0.000000 0.000000 0.051932 0.000000 0.000000
# 5 0.000000 0.000000 0.000000 0.000000 0.037018 0.000000
# 6 0.000000 0.000000 0.000000 0.000000 0.000000 0.002892
#
#
# Mechanical properties :
#
#
# Convention : Reuss Voigt Hill
#
# Bulk Modulus (GPa) = 32.87449 37.55061 35.21255
# Shear Modulus (GPa) = 30.98286 91.00615 60.99451
#
# Velocity S-wave (km/s) = 3.66808 6.28657 5.14664
# Velocity P-wave (km/s) = 5.67592 8.30672 7.11399
#
# Compressibility (1/GPa) = 0.03041872
#
# Stress axis : x y z
#
# Youngs Moduli (GPa) = 56.37205 103.81964 57.02167
#
# Poissons Ratio (x) = 0.21630 0.09108
# Poissons Ratio (y) = 0.11745 0.20324
# Poissons Ratio (z) = 0.09004 0.37004
#
# Static dielectric constant tensor:
#      x y z
#    x 1.852080 0.000000 0.000000 
#    y 0.000000 1.896300 0.000000 
#    z 0.000000 0.000000 1.878220 
# 
# From -- ./inp_files/4085.got.cif
#   From: 2010.05.17/outbox.cif.g08.bks.cpg/sg37_3_cif.got.tgz:4085.got - 2010.06.03 17:53:42.
