data_PCOD9354463
_publ_section_title
;
Structure prediction by ZEFSAII (Michael W. Deem and Ramdas Pophale) SiO2 
 PCOD9354463
Probable space group: C C C 2
;
_chemical_formula_sum "Si O2"
_cell_formula_units_Z 40
_cell_length_a 13.567941
_cell_length_b 6.155121
_cell_length_c 21.165179
_cell_angle_alpha 90.000000
_cell_angle_beta 90.000000
_cell_angle_gamma 90.000000
_cell_volume 1767.553171
_symmetry_space_group_name_H-M "C C C 2"
_symmetry_group_IT_number 37
_symmetry_cell_setting 'orthorhombic'
loop_
_space_group_symop_operation_xyz
x,y,z
-x,-y,z
-x,y,1/2+z
x,-y,1/2+z
1/2+x,1/2+y,z
1/2-x,1/2-y,z
1/2-x,1/2+y,1/2+z
1/2+x,1/2-y,1/2+z
loop_
_atom_site_type_symbol
_atom_site_label
_atom_site_fract_x
_atom_site_fract_y
_atom_site_fract_z
Si Si1 0.606140 0.885193 0.519410
Si Si2 0.603557 0.868040 0.759913
Si Si3 0.605069 0.880725 0.900153
Si Si4 0.000000 0.000000 0.968682
Si Si5 0.500000 0.500000 0.686179
Si Si6 0.849187 0.631070 0.142741
O O1 0.577290 0.637279 0.509799
O O2 0.500000 0.000000 0.516649
O O3 0.658918 0.987840 0.457109
O O4 0.641459 0.952973 0.587611
O O5 0.648098 0.867397 0.830072
O O6 0.575956 0.633339 0.730873
O O7 0.500000 0.000000 0.761760
O O8 0.662971 0.004887 0.708579
O O9 0.569940 0.649017 0.925797
O O10 0.500000 0.000000 0.891025
O O11 0.561385 0.309848 0.648851
O O12 0.750000 0.750000 0.126872
#
# Coordination Sequence:
#
# PCOD9354463 Si02
#       6
#     8   8   8   4   4   8
#     4   9  18  33  57  88 118 157 200 251 303 369
#     4   9  18  34  58  91 120 156 205 248 301 371
#     4   8  15  28  53  89 116 147 200 249 297 367
#     4   8  15  29  54  88 119 155 200 256 313 365
#     4  10  21  39  62  84 121 167 198 260 319 357
#     4  11  24  39  59  89 128 162 209 255 306 381
#
# _framework density 22.630154999999998
#
# number of rings (size 3 to 8) (size 9 to 14) (size 15 to 20)
#    0.000    3.200    0.000    2.400    0.000    9.600 
#    0.000    0.000    4.400    0.000    0.000    0.000 
#    0.000    0.000    0.000    0.000    0.000    0.000 
#
# Total GULP energy -111457.138151 kJ/mol
# GULP energy per Si atom -5572.856908 kJ/mol
# Density = 2.257865 g / cm^3
# Si number density = 22.630155 Si / 1000 Ang^3
#
#
#
# Elastic Constant Matrix: (Units=GPa)
#
#
# Indices 1 2 3 4 5 6 
#
# 1 32.3621 7.9684 18.5679 0.0000 0.0000 0.0000
# 2 7.9684 129.4313 69.2608 0.0000 0.0000 0.0000
# 3 18.5679 69.2608 190.5722 0.0000 0.0000 0.0000
# 4 0.0000 0.0000 0.0000 -88.4036 0.0000 0.0000
# 5 0.0000 0.0000 0.0000 0.0000 -25.6128 0.0000
# 6 0.0000 0.0000 0.0000 0.0000 0.0000 11.8264
#
#
#
# Elastic Compliance Matrix: (Units=1/GPa)
#
#
# Indices 1 2 3 4 5 6 
#
# 1 0.032745 -0.000383 -0.003051 0.000000 0.000000 0.000000
# 2 -0.000383 0.009596 -0.003450 0.000000 0.000000 0.000000
# 3 -0.003051 -0.003450 0.006799 0.000000 0.000000 0.000000
# 4 0.000000 0.000000 0.000000 -0.011312 0.000000 0.000000
# 5 0.000000 0.000000 0.000000 0.000000 -0.039043 0.000000
# 6 0.000000 0.000000 0.000000 0.000000 0.000000 0.084557
#
#
# Mechanical properties :
#
#
# Convention : Reuss Voigt Hill
#
# Bulk Modulus (GPa) = 28.27199 60.43998 44.35598
# Shear Modulus (GPa) = 45.91324 -3.33343 21.28990
#
# Velocity S-wave (km/s) = 4.50916 -1.21499 3.07053
# Velocity P-wave (km/s) = 6.29526 4.97970 5.67572
#
# Compressibility (1/GPa) = 0.03537070
#
# Stress axis : x y z
#
# Youngs Moduli (GPa) = 30.53869 104.21073 147.08999
#
# Poissons Ratio (x) = 0.03993 0.44880
# Poissons Ratio (y) = 0.01170 0.50749
# Poissons Ratio (z) = 0.09318 0.35955
#
# Static dielectric constant tensor:
#      x y z
#    x 1.821830 0.000000 0.000000 
#    y 0.000000 1.990800 0.000000 
#    z 0.000000 0.000000 1.957440 
# 
# From -- ./inp_files/17278.got.cif
#   From: 2010.05.17/outbox.cif.g08.bks.cpg/sg37_9_cif.got.tgz:17278.got - 2010.06.03 17:53:42.
