data_PCOD9354475
_publ_section_title
;
Structure prediction by ZEFSAII (Michael W. Deem and Ramdas Pophale) SiO2 
 PCOD9354475
Probable space group: C C C 2
;
_chemical_formula_sum "Si O2"
_cell_formula_units_Z 48
_cell_length_a 27.150445
_cell_length_b 7.914266
_cell_length_c 9.632234
_cell_angle_alpha 90.000000
_cell_angle_beta 90.000000
_cell_angle_gamma 90.000000
_cell_volume 2069.734408
_symmetry_space_group_name_H-M "C C C 2"
_symmetry_group_IT_number 37
_symmetry_cell_setting 'orthorhombic'
loop_
_space_group_symop_operation_xyz
x,y,z
-x,-y,z
-x,y,1/2+z
x,-y,1/2+z
1/2+x,1/2+y,z
1/2-x,1/2-y,z
1/2-x,1/2+y,1/2+z
1/2+x,1/2-y,1/2+z
loop_
_atom_site_type_symbol
_atom_site_label
_atom_site_fract_x
_atom_site_fract_y
_atom_site_fract_z
Si Si1 0.610984 0.796955 0.566750
Si Si2 0.106877 0.164613 0.154876
Si Si3 0.743733 0.953719 0.268236
Si Si4 0.804940 0.973737 0.526464
Si Si5 0.629839 0.996432 0.818287
Si Si6 0.556640 0.489499 0.915773
O O1 0.660886 0.691926 0.530823
O O2 0.613327 0.966846 0.474504
O O3 0.567997 0.677248 0.509617
O O4 0.610104 0.841086 0.728393
O O5 0.110720 0.340117 0.233574
O O6 0.089439 0.037058 0.277853
O O7 0.160144 0.114615 0.094481
O O8 0.072065 0.138594 0.021343
O O9 0.750000 0.750000 0.264895
O O10 0.785516 0.015588 0.374847
O O11 0.689026 0.003031 0.312024
O O12 0.756791 0.034600 0.121105
O O13 0.500000 0.500000 0.875950
#
# Coordination Sequence:
#
# PCOD9354475 Si02
#       6
#     8   8   8   8   8   8
#     4  10  23  40  61  89 130 165 206 266 324 381
#     4  10  21  39  64  90 128 165 208 265 326 382
#     4  12  22  38  59  87 128 172 228 270 295 370
#     4  11  22  41  59  87 125 175 224 259 306 371
#     4  11  22  39  57  90 130 168 205 264 322 364
#     4  10  21  41  69  97 120 162 216 266 324 405
#
# _framework density 23.191381
#
# number of rings (size 3 to 8) (size 9 to 14) (size 15 to 20)
#    0.000    1.333    3.333    3.500    0.000    4.000 
#    3.000    0.833    0.000    4.000    0.000    0.000 
#    0.000    0.000    0.000    0.000    0.000    0.000 
#
# Total GULP energy -134223.485377 kJ/mol
# GULP energy per Si atom -5592.645224 kJ/mol
# Density = 2.313860 g / cm^3
# Si number density = 23.191381 Si / 1000 Ang^3
#
#
#
# Elastic Constant Matrix: (Units=GPa)
#
#
# Indices 1 2 3 4 5 6 
#
# 1 68.9561 8.2785 -4.0804 0.0000 0.0000 0.0000
# 2 8.2785 47.2929 2.5913 0.0000 0.0000 0.0000
# 3 -4.0804 2.5913 79.5698 0.0000 0.0000 0.0000
# 4 0.0000 0.0000 0.0000 43.7105 0.0000 0.0000
# 5 0.0000 0.0000 0.0000 0.0000 19.4869 0.0000
# 6 0.0000 0.0000 0.0000 0.0000 0.0000 16.8587
#
#
#
# Elastic Compliance Matrix: (Units=1/GPa)
#
#
# Indices 1 2 3 4 5 6 
#
# 1 0.014870 -0.002650 0.000849 0.000000 0.000000 0.000000
# 2 -0.002650 0.021655 -0.000841 0.000000 0.000000 0.000000
# 3 0.000849 -0.000841 0.012638 0.000000 0.000000 0.000000
# 4 0.000000 0.000000 0.000000 0.022878 0.000000 0.000000
# 5 0.000000 0.000000 0.000000 0.000000 0.051317 0.000000
# 6 0.000000 0.000000 0.000000 0.000000 0.000000 0.059317
#
#
# Mechanical properties :
#
#
# Convention : Reuss Voigt Hill
#
# Bulk Modulus (GPa) = 22.78942 23.26639 23.02791
# Shear Modulus (GPa) = 24.68104 28.61318 26.64711
#
# Velocity S-wave (km/s) = 3.26580 3.51634 3.39338
# Velocity P-wave (km/s) = 4.90598 5.15173 5.03035
#
# Compressibility (1/GPa) = 0.04388001
#
# Stress axis : x y z
#
# Youngs Moduli (GPa) = 67.24815 46.17935 79.12332
#
# Poissons Ratio (x) = 0.12235 -0.06716
# Poissons Ratio (y) = 0.17817 0.06655
# Poissons Ratio (z) = -0.05708 0.03884
#
# Static dielectric constant tensor:
#      x y z
#    x 1.827920 0.000000 0.000000 
#    y 0.000000 1.920590 0.000000 
#    z 0.000000 0.000000 1.868420 
# 
# From -- ./inp_files/2381.got.cif
#   From: 2010.05.17/outbox.cif.g08.bks.cpg/sg37_2_cif.got.tgz:2381.got - 2010.06.03 17:53:42.
