data_PCOD9354465
_publ_section_title
;
Structure prediction by ZEFSAII (Michael W. Deem and Ramdas Pophale) SiO2 
 PCOD9354465
Probable space group: C C C 2
;
_chemical_formula_sum "Si O2"
_cell_formula_units_Z 32
_cell_length_a 12.164083
_cell_length_b 7.530596
_cell_length_c 16.493170
_cell_angle_alpha 90.000000
_cell_angle_beta 90.000000
_cell_angle_gamma 90.000000
_cell_volume 1510.820467
_symmetry_space_group_name_H-M "C C C 2"
_symmetry_group_IT_number 37
_symmetry_cell_setting 'orthorhombic'
loop_
_space_group_symop_operation_xyz
x,y,z
-x,-y,z
-x,y,1/2+z
x,-y,1/2+z
1/2+x,1/2+y,z
1/2-x,1/2-y,z
1/2-x,1/2+y,1/2+z
1/2+x,1/2-y,1/2+z
loop_
_atom_site_type_symbol
_atom_site_label
_atom_site_fract_x
_atom_site_fract_y
_atom_site_fract_z
Si Si1 0.250000 0.750000 0.862921
Si Si2 0.378837 0.058734 0.502289
Si Si3 0.750000 0.250000 0.589882
Si Si4 0.332582 0.485904 0.224003
Si Si5 0.094660 0.350109 0.679942
O O1 0.323677 0.862115 0.923851
O O2 0.325393 0.627352 0.805519
O O3 0.388958 0.180996 0.583086
O O4 0.500000 0.000000 0.480925
O O5 0.309656 0.893426 0.535327
O O6 0.662325 0.349186 0.648507
O O7 0.208284 0.564932 0.212411
O O8 0.413043 0.655218 0.219999
O O9 0.000000 0.500000 0.690529
#
# Coordination Sequence:
#
# PCOD9354465 Si02
#       5
#     4   8   4   8   8
#     4  11  22  38  58  89 130 162 194 253 320 374
#     4  10  21  39  62  88 119 156 201 251 307 362
#     4   9  18  38  62  85 118 162 208 253 300 370
#     4   9  19  36  58  86 122 158 198 253 309 362
#     4   9  18  38  65  86 112 158 211 255 297 363
#
# _framework density 21.180544999999999
#
# number of rings (size 3 to 8) (size 9 to 14) (size 15 to 20)
#    0.000    2.500    0.000    3.000    0.000    3.000 
#    0.000   35.000    0.000    6.000    0.000    0.000 
#    0.000    0.000    0.000    0.000    0.000    0.000 
#
# Total GULP energy -89379.385183 kJ/mol
# GULP energy per Si atom -5586.211574 kJ/mol
# Density = 2.113234 g / cm^3
# Si number density = 21.180545 Si / 1000 Ang^3
#
#
#
# Elastic Constant Matrix: (Units=GPa)
#
#
# Indices 1 2 3 4 5 6 
#
# 1 75.5913 42.2797 57.7272 0.0000 0.0000 0.0000
# 2 42.2797 155.8105 99.6143 0.0000 0.0000 0.0000
# 3 57.7272 99.6143 155.5624 0.0000 0.0000 0.0000
# 4 0.0000 0.0000 0.0000 38.2533 0.0000 0.0000
# 5 0.0000 0.0000 0.0000 0.0000 26.2393 0.0000
# 6 0.0000 0.0000 0.0000 0.0000 0.0000 30.3962
#
#
#
# Elastic Compliance Matrix: (Units=1/GPa)
#
#
# Indices 1 2 3 4 5 6 
#
# 1 0.018566 -0.001072 -0.006203 0.000000 0.000000 0.000000
# 2 -0.001072 0.010929 -0.006600 0.000000 0.000000 0.000000
# 3 -0.006203 -0.006600 0.012957 0.000000 0.000000 0.000000
# 4 0.000000 0.000000 0.000000 0.026142 0.000000 0.000000
# 5 0.000000 0.000000 0.000000 0.000000 0.038111 0.000000
# 6 0.000000 0.000000 0.000000 0.000000 0.000000 0.032899
#
#
# Mechanical properties :
#
#
# Convention : Reuss Voigt Hill
#
# Bulk Modulus (GPa) = 68.02604 87.35628 77.69116
# Shear Modulus (GPa) = 29.02696 31.46728 30.24712
#
# Velocity S-wave (km/s) = 3.70598 3.85862 3.78307
# Velocity P-wave (km/s) = 7.10629 7.82209 7.47277
#
# Compressibility (1/GPa) = 0.01470025
#
# Stress axis : x y z
#
# Youngs Moduli (GPa) = 53.86257 91.50117 77.18008
#
# Poissons Ratio (x) = 0.09810 0.47875
# Poissons Ratio (y) = 0.05775 0.50942
# Poissons Ratio (z) = 0.33411 0.60395
#
# Static dielectric constant tensor:
#      x y z
#    x 1.836430 0.000000 0.000000 
#    y 0.000000 1.785230 0.000000 
#    z 0.000000 0.000000 1.728600 
# 
# From -- ./inp_files/10109.got.cif
#   From: 2010.05.17/outbox.cif.g08.bks.cpg/sg37_6_cif.got.tgz:10109.got - 2010.06.03 17:53:42.
