data_PCOD9354095
_publ_section_title
;
Structure prediction by ZEFSAII (Michael W. Deem and Ramdas Pophale) SiO2 
 PCOD9354095
Probable space group: C C C 2
;
_chemical_formula_sum "Si O2"
_cell_formula_units_Z 60
_cell_length_a 11.777407
_cell_length_b 20.160752
_cell_length_c 11.340321
_cell_angle_alpha 90.000000
_cell_angle_beta 90.000000
_cell_angle_gamma 90.000000
_cell_volume 2692.661488
_symmetry_space_group_name_H-M "C C C 2"
_symmetry_group_IT_number 37
_symmetry_cell_setting 'orthorhombic'
loop_
_space_group_symop_operation_xyz
x,y,z
-x,-y,z
-x,y,1/2+z
x,-y,1/2+z
1/2+x,1/2+y,z
1/2-x,1/2-y,z
1/2-x,1/2+y,1/2+z
1/2+x,1/2-y,1/2+z
loop_
_atom_site_type_symbol
_atom_site_label
_atom_site_fract_x
_atom_site_fract_y
_atom_site_fract_z
Si Si1 0.705967 0.027967 0.852590
Si Si2 0.388284 0.516374 0.024949
Si Si3 0.598844 0.601024 0.208381
Si Si4 0.368492 0.653136 0.160341
Si Si5 0.750000 0.750000 0.482978
Si Si6 0.408583 0.160330 0.309493
Si Si7 0.341438 0.880064 0.323045
Si Si8 0.778302 0.322667 0.566831
O O1 0.813078 0.072711 0.804245
O O2 0.611086 0.083951 0.851696
O O3 0.662004 0.959669 0.794157
O O4 0.765509 0.002973 0.970964
O O5 0.500000 0.500000 0.444241
O O6 0.409776 0.464073 0.128313
O O7 0.379503 0.590045 0.073469
O O8 0.482839 0.639714 0.238346
O O9 0.662893 0.651998 0.124492
O O10 0.262257 0.647800 0.246848
O O11 0.338178 0.711978 0.069907
O O12 0.668669 0.795142 0.398164
O O13 0.544431 0.162179 0.301397
O O14 0.363379 0.174765 0.177858
O O15 0.319007 0.867845 0.460784
O O16 0.750000 0.250000 0.520578
#
# Coordination Sequence:
#
# PCOD9354095 Si02
#       8
#     8   8   8   8   4   8   8   8
#     4  11  22  44  70 109 142 193 248 303 384 431
#     4  10  20  37  66 101 142 185 239 301 362 431
#     4  10  23  43  71 103 148 190 242 310 370 450
#     4  11  26  43  71 112 143 193 250 311 374 439
#     4  12  26  52  72 104 150 206 262 298 392 464
#     4  11  27  49  74 101 144 206 246 312 371 465
#     4  12  27  45  75 109 148 186 252 322 371 446
#     4  11  26  48  68 101 144 194 243 289 385 446
#
# _framework density 22.282786999999999
#
# number of rings (size 3 to 8) (size 9 to 14) (size 15 to 20)
#    0.000    1.067    4.667    0.400    6.533    0.000 
#    0.000    1.333    0.000    0.000    0.000    0.000 
#    0.000    0.000    0.000    0.000    0.000    0.000 
#
# Total GULP energy -167059.168467 kJ/mol
# GULP energy per Si atom -5568.638949 kJ/mol
# Density = 2.223207 g / cm^3
# Si number density = 22.282787 Si / 1000 Ang^3
#
#
#
# Elastic Constant Matrix: (Units=GPa)
#
#
# Indices 1 2 3 4 5 6 
#
# 1 97.7920 9.4923 8.0154 0.0000 0.0000 0.0000
# 2 9.4923 84.1553 19.5149 0.0000 0.0000 0.0000
# 3 8.0154 19.5149 47.5555 0.0000 0.0000 0.0000
# 4 0.0000 0.0000 0.0000 26.0779 0.0000 0.0000
# 5 0.0000 0.0000 0.0000 0.0000 51.4914 0.0000
# 6 0.0000 0.0000 0.0000 0.0000 0.0000 -65.7612
#
#
#
# Elastic Compliance Matrix: (Units=1/GPa)
#
#
# Indices 1 2 3 4 5 6 
#
# 1 0.010424 -0.000849 -0.001408 0.000000 0.000000 0.000000
# 2 -0.000849 0.013202 -0.005274 0.000000 0.000000 0.000000
# 3 -0.001408 -0.005274 0.023430 0.000000 0.000000 0.000000
# 4 0.000000 0.000000 0.000000 0.038347 0.000000 0.000000
# 5 0.000000 0.000000 0.000000 0.000000 0.019421 0.000000
# 6 0.000000 0.000000 0.000000 0.000000 0.000000 -0.015207
#
#
# Mechanical properties :
#
#
# Convention : Reuss Voigt Hill
#
# Bulk Modulus (GPa) = 31.25844 33.72754 32.49299
# Shear Modulus (GPa) = 43.34878 15.19364 29.27121
#
# Velocity S-wave (km/s) = 4.41545 2.61407 3.62833
# Velocity P-wave (km/s) = 6.32878 4.92749 5.67158
#
# Compressibility (1/GPa) = 0.03199136
#
# Stress axis : x y z
#
# Youngs Moduli (GPa) = 95.93567 75.74818 42.68063
#
# Poissons Ratio (x) = 0.06432 0.06011
# Poissons Ratio (y) = 0.08146 0.22511
# Poissons Ratio (z) = 0.13512 0.39952
#
# Static dielectric constant tensor:
#      x y z
#    x 1.958950 0.000000 0.000000 
#    y 0.000000 1.831430 0.000000 
#    z 0.000000 0.000000 1.904520 
# 
# From -- ./inp_files/7342.got.cif
#   From: 2010.05.17/outbox.cif.g08.bks.cpg/sg37_4_cif.got.tgz:7342.got - 2010.06.03 17:53:42.
