data_PCOD9354974
_publ_section_title
;
Structure prediction by ZEFSAII (Michael W. Deem and Ramdas Pophale) SiO2 
 PCOD9354974
Probable space group: C C C 2
;
_chemical_formula_sum "Si O2"
_cell_formula_units_Z 32
_cell_length_a 15.659668
_cell_length_b 5.617592
_cell_length_c 14.161989
_cell_angle_alpha 90.000000
_cell_angle_beta 90.000000
_cell_angle_gamma 90.000000
_cell_volume 1245.824871
_symmetry_space_group_name_H-M "C C C 2"
_symmetry_group_IT_number 37
_symmetry_cell_setting 'orthorhombic'
loop_
_space_group_symop_operation_xyz
x,y,z
-x,-y,z
-x,y,1/2+z
x,-y,1/2+z
1/2+x,1/2+y,z
1/2-x,1/2-y,z
1/2-x,1/2+y,1/2+z
1/2+x,1/2-y,1/2+z
loop_
_atom_site_type_symbol
_atom_site_label
_atom_site_fract_x
_atom_site_fract_y
_atom_site_fract_z
Si Si1 0.340781 0.716225 0.421700
Si Si2 0.000000 0.500000 0.583653
Si Si3 0.652542 0.716950 0.145782
Si Si4 0.931363 0.276074 0.907032
Si Si5 0.500000 0.500000 0.749931
O O1 0.250000 0.750000 0.374283
O O2 0.333477 0.676488 0.534822
O O3 0.375320 0.457525 0.394595
O O4 0.381757 0.977503 0.407472
O O5 0.914928 0.440080 0.642321
O O6 0.978975 0.713059 0.508680
O O7 0.750000 0.750000 0.185399
O O8 0.587959 0.520557 0.190480
O O9 0.995104 0.227465 0.819875
#
# Coordination Sequence:
#
# PCOD9354974 Si02
#       5
#     8   4   8   8   4
#     4  10  22  44  71 101 137 189 251 296 342 430
#     4  10  22  46  76 102 136 190 250 298 342 428
#     4  10  23  42  68 102 142 189 241 295 360 427
#     4  11  23  40  70 102 140 189 233 296 369 417
#     4  12  24  42  68 108 152 184 228 302 370 430
#
# _framework density 25.685794999999999
#
# number of rings (size 3 to 8) (size 9 to 14) (size 15 to 20)
#    0.000    1.500    0.000    5.250    0.000    5.000 
#    0.000    6.250    0.000    0.000    0.000    0.000 
#    0.000    0.000    0.000    0.000    0.000    0.000 
#
# Total GULP energy -89068.778209 kJ/mol
# GULP energy per Si atom -5566.798638 kJ/mol
# Density = 2.562733 g / cm^3
# Si number density = 25.685795 Si / 1000 Ang^3
#
#
#
# Elastic Constant Matrix: (Units=GPa)
#
#
# Indices 1 2 3 4 5 6 
#
# 1 236.6612 108.1354 39.3358 0.0000 0.0000 0.0000
# 2 108.1354 195.7540 55.2019 0.0000 0.0000 0.0000
# 3 39.3358 55.2019 83.6197 0.0000 0.0000 0.0000
# 4 0.0000 0.0000 0.0000 40.9407 0.0000 0.0000
# 5 0.0000 0.0000 0.0000 0.0000 18.2607 0.0000
# 6 0.0000 0.0000 0.0000 0.0000 0.0000 38.9945
#
#
#
# Elastic Compliance Matrix: (Units=1/GPa)
#
#
# Indices 1 2 3 4 5 6 
#
# 1 0.005689 -0.002934 -0.000739 0.000000 0.000000 0.000000
# 2 -0.002934 0.007790 -0.003763 0.000000 0.000000 0.000000
# 3 -0.000739 -0.003763 0.014790 0.000000 0.000000 0.000000
# 4 0.000000 0.000000 0.000000 0.024426 0.000000 0.000000
# 5 0.000000 0.000000 0.000000 0.000000 0.054762 0.000000
# 6 0.000000 0.000000 0.000000 0.000000 0.000000 0.025645
#
#
# Mechanical properties :
#
#
# Convention : Reuss Voigt Hill
#
# Bulk Modulus (GPa) = 74.63785 102.37567 88.50676
# Shear Modulus (GPa) = 32.79975 40.52997 36.66486
#
# Velocity S-wave (km/s) = 3.57734 3.97661 3.78224
# Velocity P-wave (km/s) = 6.79590 7.81204 7.32162
#
# Compressibility (1/GPa) = 0.01339803
#
# Stress axis : x y z
#
# Youngs Moduli (GPa) = 175.77785 128.36424 67.61107
#
# Poissons Ratio (x) = 0.37664 0.04998
# Poissons Ratio (y) = 0.51577 0.25439
# Poissons Ratio (z) = 0.12993 0.48298
#
# Static dielectric constant tensor:
#      x y z
#    x 2.258390 0.000000 0.000000 
#    y 0.000000 2.011700 0.000000 
#    z 0.000000 0.000000 2.145970 
# 
# From -- ./inp_files/15320.got.cif
#   From: 2010.05.17/outbox.cif.g08.bks.cpg/sg37_8_cif.got.tgz:15320.got - 2010.06.03 17:53:42.
