data_PCOD9354104
_publ_section_title
;
Structure prediction by ZEFSAII (Michael W. Deem and Ramdas Pophale) SiO2 
 PCOD9354104
Probable space group: C C C 2
;
_chemical_formula_sum "Si O2"
_cell_formula_units_Z 56
_cell_length_a 12.873215
_cell_length_b 9.461271
_cell_length_c 22.723270
_cell_angle_alpha 90.000000
_cell_angle_beta 90.000000
_cell_angle_gamma 90.000000
_cell_volume 2767.625565
_symmetry_space_group_name_H-M "C C C 2"
_symmetry_group_IT_number 37
_symmetry_cell_setting 'orthorhombic'
loop_
_space_group_symop_operation_xyz
x,y,z
-x,-y,z
-x,y,1/2+z
x,-y,1/2+z
1/2+x,1/2+y,z
1/2-x,1/2-y,z
1/2-x,1/2+y,1/2+z
1/2+x,1/2-y,1/2+z
loop_
_atom_site_type_symbol
_atom_site_label
_atom_site_fract_x
_atom_site_fract_y
_atom_site_fract_z
Si Si1 0.998384 0.239976 0.194510
Si Si2 0.070274 0.288651 0.818478
Si Si3 0.000000 0.500000 0.913665
Si Si4 0.500000 0.000000 0.607357
Si Si5 0.284100 0.463300 0.818907
Si Si6 0.665860 0.501188 0.689339
Si Si7 0.770444 0.416815 0.945450
Si Si8 0.223901 0.581665 0.072189
O O1 0.000836 0.297817 0.260953
O O2 0.015254 0.365571 0.149642
O O3 0.080263 0.118515 0.181132
O O4 0.887707 0.157273 0.191738
O O5 0.178559 0.372813 0.812615
O O6 0.110675 0.129132 0.824627
O O7 0.014920 0.361354 0.872937
O O8 0.890417 0.468561 0.944314
O O9 0.601719 0.954826 0.571435
O O10 0.289505 0.533101 0.754260
O O11 0.274130 0.538718 0.881826
O O12 0.737175 0.508168 0.632072
O O13 0.750000 0.250000 0.948118
O O14 0.728783 0.469590 0.009421
O O15 0.250000 0.750000 0.076890
#
# Coordination Sequence:
#
# PCOD9354104 Si02
#       8
#     8   8   4   4   8   8   8   8
#     4  10  21  36  60  95 126 161 208 259 320 380
#     4   9  18  34  60  88 121 158 197 255 313 367
#     4  10  20  38  58  90 123 158 211 262 305 378
#     4  12  22  38  66  92 119 172 219 250 325 386
#     4   9  19  37  61  87 120 165 202 246 317 374
#     4  10  21  39  63  90 128 161 207 267 313 377
#     4  10  23  41  62  89 125 167 211 258 317 378
#     4  11  23  43  65  89 127 170 213 266 324 379
#
# _framework density 20.233951000000001
#
# number of rings (size 3 to 8) (size 9 to 14) (size 15 to 20)
#    0.000    2.000    1.429    1.714    4.000    1.714 
#    0.000    7.143    0.000    0.000    0.000    0.000 
#    0.000    0.000    0.000    0.000    0.000    0.000 
#
# Total GULP energy -155921.342817 kJ/mol
# GULP energy per Si atom -5568.619386 kJ/mol
# Density = 2.018790 g / cm^3
# Si number density = 20.233951 Si / 1000 Ang^3
#
#
#
# Elastic Constant Matrix: (Units=GPa)
#
#
# Indices 1 2 3 4 5 6 
#
# 1 39.3693 6.4720 39.2063 0.0000 0.0000 0.0000
# 2 6.4720 52.1797 45.0423 0.0000 0.0000 0.0000
# 3 39.2063 45.0423 193.5454 0.0000 0.0000 0.0000
# 4 0.0000 0.0000 0.0000 35.7530 0.0000 0.0000
# 5 0.0000 0.0000 0.0000 0.0000 5.8465 0.0000
# 6 0.0000 0.0000 0.0000 0.0000 0.0000 16.4915
#
#
#
# Elastic Compliance Matrix: (Units=1/GPa)
#
#
# Indices 1 2 3 4 5 6 
#
# 1 0.031991 0.002035 -0.006954 0.000000 0.000000 0.000000
# 2 0.002035 0.024112 -0.006024 0.000000 0.000000 0.000000
# 3 -0.006954 -0.006024 0.007977 0.000000 0.000000 0.000000
# 4 0.000000 0.000000 0.000000 0.027970 0.000000 0.000000
# 5 0.000000 0.000000 0.000000 0.000000 0.171042 0.000000
# 6 0.000000 0.000000 0.000000 0.000000 0.000000 0.060637
#
#
# Mechanical properties :
#
#
# Convention : Reuss Voigt Hill
#
# Bulk Modulus (GPa) = 23.69960 51.83730 37.76845
# Shear Modulus (GPa) = 13.90126 24.57647 19.23887
#
# Velocity S-wave (km/s) = 2.62396 3.48891 3.08688
# Velocity P-wave (km/s) = 4.57367 6.47338 5.60460
#
# Compressibility (1/GPa) = 0.04219480
#
# Stress axis : x y z
#
# Youngs Moduli (GPa) = 31.25864 41.47354 125.35693
#
# Poissons Ratio (x) = -0.08439 0.87173
# Poissons Ratio (y) = -0.06361 0.75509
# Poissons Ratio (z) = 0.21737 0.24982
#
# Static dielectric constant tensor:
#      x y z
#    x 1.764900 0.000000 0.000000 
#    y 0.000000 1.718670 0.000000 
#    z 0.000000 0.000000 1.769070 
# 
# From -- ./inp_files/17202.got.cif
#   From: 2010.05.17/outbox.cif.g08.bks.cpg/sg37_9_cif.got.tgz:17202.got - 2010.06.03 17:53:42.
