data_PCOD9354180
_publ_section_title
;
Structure prediction by ZEFSAII (Michael W. Deem and Ramdas Pophale) SiO2 
 PCOD9354180
Probable space group: C C C 2
;
_chemical_formula_sum "Si O2"
_cell_formula_units_Z 48
_cell_length_a 24.710245
_cell_length_b 5.425572
_cell_length_c 15.508451
_cell_angle_alpha 90.000000
_cell_angle_beta 90.000000
_cell_angle_gamma 90.000000
_cell_volume 2079.174809
_symmetry_space_group_name_H-M "C C C 2"
_symmetry_group_IT_number 37
_symmetry_cell_setting 'orthorhombic'
loop_
_space_group_symop_operation_xyz
x,y,z
-x,-y,z
-x,y,1/2+z
x,-y,1/2+z
1/2+x,1/2+y,z
1/2-x,1/2-y,z
1/2-x,1/2+y,1/2+z
1/2+x,1/2-y,1/2+z
loop_
_atom_site_type_symbol
_atom_site_label
_atom_site_fract_x
_atom_site_fract_y
_atom_site_fract_z
Si Si1 0.695944 0.128799 0.176870
Si Si2 0.907863 0.069032 0.518899
Si Si3 0.647645 0.157539 0.818123
Si Si4 0.587815 0.548810 0.709773
Si Si5 0.339286 0.930786 0.996783
Si Si6 0.953256 0.306933 0.355907
O O1 0.750000 0.250000 0.211691
O O2 0.641236 0.289838 0.186833
O O3 0.682658 0.893207 0.233810
O O4 0.701577 0.082502 0.075998
O O5 0.865257 0.296669 0.509673
O O6 0.947247 0.130563 0.438908
O O7 0.928007 0.074954 0.618690
O O8 0.883282 0.794155 0.506184
O O9 0.610303 0.381089 0.788051
O O10 0.683848 0.140065 0.903338
O O11 0.603684 0.949279 0.843349
O O12 0.540909 0.696173 0.759496
O O13 0.000000 0.500000 0.373851
#
# Coordination Sequence:
#
# PCOD9354180 Si02
#       6
#     8   8   8   8   8   8
#     4  10  22  40  61  98 131 176 231 285 337 415
#     4  10  20  39  68  94 129 178 223 277 349 400
#     4  10  20  40  66  89 132 180 222 279 352 399
#     4  10  20  40  67  89 137 181 220 285 351 409
#     4  10  20  39  65  91 130 178 223 277 345 404
#     4  10  22  40  68  99 135 176 233 286 340 416
#
# _framework density 23.086081
#
# number of rings (size 3 to 8) (size 9 to 14) (size 15 to 20)
#    0.000    2.000    3.333    0.000    0.000    1.333 
#    3.000    0.833   14.667    0.000    0.000    0.000 
#    0.000    0.000    0.000    0.000    0.000    0.000 
#
# Total GULP energy -133638.691851 kJ/mol
# GULP energy per Si atom -5568.278827 kJ/mol
# Density = 2.303354 g / cm^3
# Si number density = 23.086081 Si / 1000 Ang^3
#
#
#
# Elastic Constant Matrix: (Units=GPa)
#
#
# Indices 1 2 3 4 5 6 
#
# 1 45.8156 -0.8864 -0.9354 0.0000 0.0000 0.0000
# 2 -0.8864 50.9680 7.7236 0.0000 0.0000 0.0000
# 3 -0.9354 7.7236 172.5294 0.0000 0.0000 0.0000
# 4 0.0000 0.0000 0.0000 30.2213 0.0000 0.0000
# 5 0.0000 0.0000 0.0000 0.0000 -11.2551 0.0000
# 6 0.0000 0.0000 0.0000 0.0000 0.0000 19.4236
#
#
#
# Elastic Compliance Matrix: (Units=1/GPa)
#
#
# Indices 1 2 3 4 5 6 
#
# 1 0.021836 0.000364 0.000102 0.000000 0.000000 0.000000
# 2 0.000364 0.019760 -0.000883 0.000000 0.000000 0.000000
# 3 0.000102 -0.000883 0.005836 0.000000 0.000000 0.000000
# 4 0.000000 0.000000 0.000000 0.033089 0.000000 0.000000
# 5 0.000000 0.000000 0.000000 0.000000 -0.088848 0.000000
# 6 0.000000 0.000000 0.000000 0.000000 0.000000 0.051484
#
#
# Mechanical properties :
#
#
# Convention : Reuss Voigt Hill
#
# Bulk Modulus (GPa) = 21.45939 31.23519 26.34729
# Shear Modulus (GPa) = 84.00143 25.23868 54.62005
#
# Velocity S-wave (km/s) = 6.03864 3.31001 4.86936
# Velocity P-wave (km/s) = 7.61156 5.30730 6.56137
#
# Compressibility (1/GPa) = 0.04659964
#
# Stress axis : x y z
#
# Youngs Moduli (GPa) = 45.79642 50.60665 171.34501
#
# Poissons Ratio (x) = -0.01843 -0.01749
# Poissons Ratio (y) = -0.01668 0.15123
# Poissons Ratio (z) = -0.00467 0.04467
#
# Static dielectric constant tensor:
#      x y z
#    x 1.902160 0.000000 0.000000 
#    y 0.000000 1.950650 0.000000 
#    z 0.000000 0.000000 2.012400 
# 
# From -- ./inp_files/9749.got.cif
#   From: 2010.05.17/outbox.cif.g08.bks.cpg/sg37_5_cif.got.tgz:9749.got - 2010.06.03 17:53:42.
