data_PCOD9354479
_publ_section_title
;
Structure prediction by ZEFSAII (Michael W. Deem and Ramdas Pophale) SiO2 
 PCOD9354479
Probable space group: C C C 2
;
_chemical_formula_sum "Si O2"
_cell_formula_units_Z 56
_cell_length_a 22.669418
_cell_length_b 7.627491
_cell_length_c 14.895884
_cell_angle_alpha 90.000000
_cell_angle_beta 90.000000
_cell_angle_gamma 90.000000
_cell_volume 2575.658948
_symmetry_space_group_name_H-M "C C C 2"
_symmetry_group_IT_number 37
_symmetry_cell_setting 'orthorhombic'
loop_
_space_group_symop_operation_xyz
x,y,z
-x,-y,z
-x,y,1/2+z
x,-y,1/2+z
1/2+x,1/2+y,z
1/2-x,1/2-y,z
1/2-x,1/2+y,1/2+z
1/2+x,1/2-y,1/2+z
loop_
_atom_site_type_symbol
_atom_site_label
_atom_site_fract_x
_atom_site_fract_y
_atom_site_fract_z
Si Si1 0.684779 0.334743 0.500000
Si Si2 0.055971 0.609712 0.955093
Si Si3 0.854338 0.943441 0.806207
Si Si4 0.430457 0.902631 0.270281
Si Si5 0.537314 0.330699 0.803308
Si Si6 0.135782 0.498500 0.100433
Si Si7 0.738487 0.539680 0.167761
O O1 0.750000 0.250000 0.479734
O O2 0.657933 0.419218 0.411656
O O3 0.696403 0.469052 0.580972
O O4 0.645201 0.180157 0.543340
O O5 0.077356 0.502950 0.865725
O O6 0.035136 0.789315 0.910015
O O7 0.000000 0.500000 0.990959
O O8 0.105446 0.627185 0.029379
O O9 0.889267 0.770364 0.775757
O O10 0.895400 0.113193 0.784753
O O11 0.793480 0.963324 0.753439
O O12 0.496959 0.825082 0.263142
O O13 0.406415 0.010797 0.186134
O O14 0.500000 0.500000 0.780542
O O15 0.199757 0.544165 0.139566
O O16 0.750000 0.750000 0.181750
#
# Coordination Sequence:
#
# PCOD9354479 Si02
#       7
#     8   8   8   8   8   8   8
#     4   9  21  41  63  93 131 178 225 278 336 398
#     4  10  21  39  64  96 123 175 225 276 336 401
#     4  11  21  41  69  90 136 186 209 284 348 393
#     4  10  22  39  67  97 127 172 227 280 329 405
#     4   9  22  41  60  95 133 167 220 269 340 416
#     4  10  21  40  64  96 131 170 232 275 333 409
#     4   9  23  40  59  99 136 172 228 277 335 411
#
# _framework density 21.742008999999999
#
# number of rings (size 3 to 8) (size 9 to 14) (size 15 to 20)
#    0.000    2.571    1.429    0.000    6.000    2.857 
#    0.000    3.571    0.000    0.000    0.000    0.000 
#    0.000    0.000    0.000    0.000    0.000    0.000 
#
# Total GULP energy -156159.529296 kJ/mol
# GULP energy per Si atom -5577.126046 kJ/mol
# Density = 2.169252 g / cm^3
# Si number density = 21.742009 Si / 1000 Ang^3
#
#
#
# Elastic Constant Matrix: (Units=GPa)
#
#
# Indices 1 2 3 4 5 6 
#
# 1 86.5140 16.7138 64.0185 0.0000 0.0000 0.0000
# 2 16.7138 51.9576 26.6026 0.0000 0.0000 0.0000
# 3 64.0185 26.6026 124.8587 0.0000 0.0000 0.0000
# 4 0.0000 0.0000 0.0000 21.0342 0.0000 0.0000
# 5 0.0000 0.0000 0.0000 0.0000 24.1376 0.0000
# 6 0.0000 0.0000 0.0000 0.0000 0.0000 21.7024
#
#
#
# Elastic Compliance Matrix: (Units=1/GPa)
#
#
# Indices 1 2 3 4 5 6 
#
# 1 0.018697 -0.001242 -0.009322 0.000000 0.000000 0.000000
# 2 -0.001242 0.021686 -0.003984 0.000000 0.000000 0.000000
# 3 -0.009322 -0.003984 0.013637 0.000000 0.000000 0.000000
# 4 0.000000 0.000000 0.000000 0.047542 0.000000 0.000000
# 5 0.000000 0.000000 0.000000 0.000000 0.041429 0.000000
# 6 0.000000 0.000000 0.000000 0.000000 0.000000 0.046078
#
#
# Mechanical properties :
#
#
# Convention : Reuss Voigt Hill
#
# Bulk Modulus (GPa) = 40.11978 53.11111 46.61544
# Shear Modulus (GPa) = 22.07791 23.77452 22.92622
#
# Velocity S-wave (km/s) = 3.19007 3.31037 3.25078
# Velocity P-wave (km/s) = 5.66228 6.25239 5.96464
#
# Compressibility (1/GPa) = 0.02492536
#
# Stress axis : x y z
#
# Youngs Moduli (GPa) = 53.48585 46.11362 73.32819
#
# Poissons Ratio (x) = 0.05725 0.68354
# Poissons Ratio (y) = 0.06641 0.29212
# Poissons Ratio (z) = 0.49858 0.18371
#
# Static dielectric constant tensor:
#      x y z
#    x 1.821740 0.000000 0.000000 
#    y 0.000000 1.929450 0.000000 
#    z 0.000000 0.000000 1.755460 
# 
# From -- ./inp_files/12941.got.cif
#   From: 2010.05.17/outbox.cif.g08.bks.cpg/sg37_7_cif.got.tgz:12941.got - 2010.06.03 17:53:42.
