data_PCOD9354999
_publ_section_title
;
Structure prediction by ZEFSAII (Michael W. Deem and Ramdas Pophale) SiO2 
 PCOD9354999
Probable space group: C C C 2
;
_chemical_formula_sum "Si O2"
_cell_formula_units_Z 36
_cell_length_a 26.428388
_cell_length_b 5.052672
_cell_length_c 10.550942
_cell_angle_alpha 90.000000
_cell_angle_beta 90.000000
_cell_angle_gamma 90.000000
_cell_volume 1408.909236
_symmetry_space_group_name_H-M "C C C 2"
_symmetry_group_IT_number 37
_symmetry_cell_setting 'orthorhombic'
loop_
_space_group_symop_operation_xyz
x,y,z
-x,-y,z
-x,y,1/2+z
x,-y,1/2+z
1/2+x,1/2+y,z
1/2-x,1/2-y,z
1/2-x,1/2+y,1/2+z
1/2+x,1/2-y,1/2+z
loop_
_atom_site_type_symbol
_atom_site_label
_atom_site_fract_x
_atom_site_fract_y
_atom_site_fract_z
Si Si1 0.443299 0.994009 0.683130
Si Si2 0.900198 0.993391 0.054226
Si Si3 0.750000 0.250000 0.337136
Si Si4 0.198836 0.163862 0.539799
Si Si5 0.644193 0.902086 0.871214
O O1 0.429126 0.240720 0.592440
O O2 0.400900 0.976485 0.790976
O O3 0.500000 0.000000 0.734572
O O4 0.436651 0.733508 0.601492
O O5 0.880589 0.875538 0.919516
O O6 0.843683 0.003245 0.117269
O O7 0.724628 0.478696 0.430733
O O8 0.696267 0.123283 0.294504
O O9 0.250000 0.250000 0.610796
O O10 0.164644 0.403619 0.483531
#
# Coordination Sequence:
#
# PCOD9354999 Si02
#       5
#     8   8   4   8   8
#     4  12  28  47  68 105 141 183 250 295 342 430
#     4  11  24  47  70 101 140 181 236 296 351 421
#     4   8  18  36  70 104 140 178 232 284 348 436
#     4   9  18  41  69 103 141 187 225 286 353 429
#     4  10  22  45  73  98 146 185 230 294 368 412
#
# _framework density 25.551683000000001
#
# number of rings (size 3 to 8) (size 9 to 14) (size 15 to 20)
#    0.000    1.778    2.222    0.667    6.222    0.889 
#    6.000    0.000    0.000    0.000    0.000    0.000 
#    0.000    0.000    0.000    0.000    0.000    0.000 
#
# Total GULP energy -100262.800892 kJ/mol
# GULP energy per Si atom -5570.155605 kJ/mol
# Density = 2.549353 g / cm^3
# Si number density = 25.551683 Si / 1000 Ang^3
#
#
#
# Elastic Constant Matrix: (Units=GPa)
#
#
# Indices 1 2 3 4 5 6 
#
# 1 241.8284 26.1891 43.3364 0.0000 0.0000 0.0000
# 2 26.1891 142.3812 5.8617 0.0000 0.0000 0.0000
# 3 43.3364 5.8617 24.9514 0.0000 0.0000 0.0000
# 4 0.0000 0.0000 0.0000 17.2862 0.0000 0.0000
# 5 0.0000 0.0000 0.0000 0.0000 42.3195 0.0000
# 6 0.0000 0.0000 0.0000 0.0000 0.0000 28.1218
#
#
#
# Elastic Compliance Matrix: (Units=1/GPa)
#
#
# Indices 1 2 3 4 5 6 
#
# 1 0.006070 -0.000689 -0.010381 0.000000 0.000000 0.000000
# 2 -0.000689 0.007170 -0.000488 0.000000 0.000000 0.000000
# 3 -0.010381 -0.000488 0.058222 0.000000 0.000000 0.000000
# 4 0.000000 0.000000 0.000000 0.057850 0.000000 0.000000
# 5 0.000000 0.000000 0.000000 0.000000 0.023630 0.000000
# 6 0.000000 0.000000 0.000000 0.000000 0.000000 0.035560
#
#
# Mechanical properties :
#
#
# Convention : Reuss Voigt Hill
#
# Bulk Modulus (GPa) = 20.68364 62.21505 41.44934
# Shear Modulus (GPa) = 21.95564 39.79709 30.87636
#
# Velocity S-wave (km/s) = 2.93450 3.95082 3.47996
# Velocity P-wave (km/s) = 4.42652 6.72410 5.69243
#
# Compressibility (1/GPa) = 0.04834740
#
# Stress axis : x y z
#
# Youngs Moduli (GPa) = 164.74306 139.46560 17.17564
#
# Poissons Ratio (x) = 0.09611 0.17830
# Poissons Ratio (y) = 0.11353 0.00837
# Poissons Ratio (z) = 1.71016 0.06800
#
# Static dielectric constant tensor:
#      x y z
#    x 2.036150 0.000000 0.000000 
#    y 0.000000 2.208600 0.000000 
#    z 0.000000 0.000000 2.330310 
# 
# From -- ./inp_files/5451.got.cif
#   From: 2010.05.17/outbox.cif.g08.bks.cpg/sg37_3_cif.got.tgz:5451.got - 2010.06.03 17:53:42.
