data_PCOD9354650
_publ_section_title
;
Structure prediction by ZEFSAII (Michael W. Deem and Ramdas Pophale) SiO2 
 PCOD9354650
Probable space group: C C C 2
;
_chemical_formula_sum "Si O2"
_cell_formula_units_Z 40
_cell_length_a 27.549130
_cell_length_b 6.909837
_cell_length_c 9.298366
_cell_angle_alpha 90.000000
_cell_angle_beta 90.000000
_cell_angle_gamma 90.000000
_cell_volume 1770.036931
_symmetry_space_group_name_H-M "C C C 2"
_symmetry_group_IT_number 37
_symmetry_cell_setting 'orthorhombic'
loop_
_space_group_symop_operation_xyz
x,y,z
-x,-y,z
-x,y,1/2+z
x,-y,1/2+z
1/2+x,1/2+y,z
1/2-x,1/2-y,z
1/2-x,1/2+y,1/2+z
1/2+x,1/2-y,1/2+z
loop_
_atom_site_type_symbol
_atom_site_label
_atom_site_fract_x
_atom_site_fract_y
_atom_site_fract_z
Si Si1 0.250000 0.250000 0.399820
Si Si2 0.000000 0.000000 0.285062
Si Si3 0.862557 0.188699 0.613374
Si Si4 0.184374 0.936852 0.333885
Si Si5 0.660183 0.863267 0.602462
Si Si6 0.934170 0.111095 0.036239
O O1 0.232247 0.064148 0.311000
O O2 0.295667 0.177526 0.493238
O O3 0.965634 0.878074 0.392232
O O4 0.032132 0.870795 0.177011
O O5 0.856000 0.077504 0.763411
O O6 0.853436 0.585833 0.123810
O O7 0.822754 0.104055 0.501434
O O8 0.912410 0.108752 0.546468
O O9 0.177675 0.738980 0.249234
O O10 0.611424 0.753632 0.550214
#
# Coordination Sequence:
#
# PCOD9354650 Si02
#       6
#     4   4   8   8   8   8
#     4  12  26  46  66 106 150 200 238 288 366 442
#     4  10  22  42  76  96 146 192 240 306 386 436
#     4  11  25  47  73 104 149 191 244 307 369 435
#     4  11  25  46  68 104 145 197 244 296 362 433
#     4  11  27  44  74 106 151 193 249 304 366 437
#     4  10  21  46  68 105 141 191 239 311 377 438
#
# _framework density 22.598399000000001
#
# number of rings (size 3 to 8) (size 9 to 14) (size 15 to 20)
#    0.000    1.200    4.000    2.400    5.600    0.800 
#    0.000    6.000    0.000    0.000    0.000    0.000 
#    0.000    0.000    0.000    0.000    0.000    0.000 
#
# Total GULP energy -111811.178628 kJ/mol
# GULP energy per Si atom -5590.558931 kJ/mol
# Density = 2.254696 g / cm^3
# Si number density = 22.598399 Si / 1000 Ang^3
#
#
#
# Elastic Constant Matrix: (Units=GPa)
#
#
# Indices 1 2 3 4 5 6 
#
# 1 121.1881 43.5653 36.3271 0.0000 0.0000 0.0000
# 2 43.5653 176.2532 37.4473 0.0000 0.0000 0.0000
# 3 36.3271 37.4473 114.6734 0.0000 0.0000 0.0000
# 4 0.0000 0.0000 0.0000 24.6285 0.0000 0.0000
# 5 0.0000 0.0000 0.0000 0.0000 44.6281 0.0000
# 6 0.0000 0.0000 0.0000 0.0000 0.0000 27.6092
#
#
#
# Elastic Compliance Matrix: (Units=1/GPa)
#
#
# Indices 1 2 3 4 5 6 
#
# 1 0.009657 -0.001866 -0.002450 0.000000 0.000000 0.000000
# 2 -0.001866 0.006457 -0.001517 0.000000 0.000000 0.000000
# 3 -0.002450 -0.001517 0.009992 0.000000 0.000000 0.000000
# 4 0.000000 0.000000 0.000000 0.040603 0.000000 0.000000
# 5 0.000000 0.000000 0.000000 0.000000 0.022407 0.000000
# 6 0.000000 0.000000 0.000000 0.000000 0.000000 0.036220
#
#
# Mechanical properties :
#
#
# Convention : Reuss Voigt Hill
#
# Bulk Modulus (GPa) = 69.25630 71.86600 70.56115
# Shear Modulus (GPa) = 35.25668 39.02482 37.14075
#
# Velocity S-wave (km/s) = 3.95415 4.16009 4.05842
# Velocity P-wave (km/s) = 7.18054 7.41252 7.29745
#
# Compressibility (1/GPa) = 0.01443912
#
# Stress axis : x y z
#
# Youngs Moduli (GPa) = 103.55276 154.86107 100.08037
#
# Poissons Ratio (x) = 0.28904 0.24516
# Poissons Ratio (y) = 0.19328 0.15186
# Poissons Ratio (z) = 0.25367 0.23499
#
# Static dielectric constant tensor:
#      x y z
#    x 1.909850 0.000000 0.000000 
#    y 0.000000 1.815390 0.000000 
#    z 0.000000 0.000000 1.865120 
# 
# From -- ./inp_files/4760.got.cif
#   From: 2010.05.17/outbox.cif.g08.bks.cpg/sg37_3_cif.got.tgz:4760.got - 2010.06.03 17:53:42.
