data_PCOD9354106
_publ_section_title
;
Structure prediction by ZEFSAII (Michael W. Deem and Ramdas Pophale) SiO2 
 PCOD9354106
Probable space group: C C C 2
;
_chemical_formula_sum "Si O2"
_cell_formula_units_Z 44
_cell_length_a 13.387414
_cell_length_b 6.619271
_cell_length_c 23.173463
_cell_angle_alpha 90.000000
_cell_angle_beta 90.000000
_cell_angle_gamma 90.000000
_cell_volume 2053.514599
_symmetry_space_group_name_H-M "C C C 2"
_symmetry_group_IT_number 37
_symmetry_cell_setting 'orthorhombic'
loop_
_space_group_symop_operation_xyz
x,y,z
-x,-y,z
-x,y,1/2+z
x,-y,1/2+z
1/2+x,1/2+y,z
1/2-x,1/2-y,z
1/2-x,1/2+y,1/2+z
1/2+x,1/2-y,1/2+z
loop_
_atom_site_type_symbol
_atom_site_label
_atom_site_fract_x
_atom_site_fract_y
_atom_site_fract_z
Si Si1 0.647131 0.623572 0.106590
Si Si2 0.750000 0.750000 0.655810
Si Si3 0.388692 0.916054 0.378687
Si Si4 0.352465 0.625312 0.480978
Si Si5 0.000000 0.000000 0.696923
Si Si6 0.399320 0.864644 0.247638
Si Si7 0.250000 0.750000 0.938040
O O1 0.750000 0.750000 0.112265
O O2 0.681274 0.391392 0.116536
O O3 0.564908 0.647836 0.156241
O O4 0.598748 0.657288 0.043525
O O5 0.683690 0.893085 0.697996
O O6 0.393140 0.724033 0.422134
O O7 0.359369 0.878232 0.312562
O O8 0.500000 0.000000 0.377719
O O9 0.313644 0.085801 0.402782
O O10 0.250000 0.750000 0.487939
O O11 0.326604 0.390404 0.473294
O O12 0.069637 0.133970 0.736472
O O13 0.500000 0.000000 0.242796
#
# Coordination Sequence:
#
# PCOD9354106 Si02
#       7
#     8   4   8   8   4   8   4
#     4  10  20  38  59  87 117 157 196 247 299 357
#     4  10  21  36  62  84 118 159 200 244 308 352
#     4  10  23  40  59  89 120 157 201 252 305 363
#     4   9  20  38  61  89 122 152 204 247 297 374
#     4  10  22  38  60  84 118 156 198 246 302 354
#     4  10  22  40  57  88 119 153 202 252 296 365
#     4  10  21  38  60  86 118 159 192 246 310 354
#
# _framework density 21.426680000000001
#
# number of rings (size 3 to 8) (size 9 to 14) (size 15 to 20)
#    0.000    2.182    0.000    1.636    3.818    5.091 
#    8.182    4.545    0.000    0.000    0.000    0.000 
#    0.000    0.000    0.000    0.000    0.000    0.000 
#
# Total GULP energy -122635.136645 kJ/mol
# GULP energy per Si atom -5574.324393 kJ/mol
# Density = 2.137791 g / cm^3
# Si number density = 21.426680 Si / 1000 Ang^3
#
#
#
# Elastic Constant Matrix: (Units=GPa)
#
#
# Indices 1 2 3 4 5 6 
#
# 1 51.0901 3.1778 7.3433 0.0000 0.0000 0.0000
# 2 3.1778 70.8747 48.8007 0.0000 0.0000 0.0000
# 3 7.3433 48.8007 107.8326 0.0000 0.0000 0.0000
# 4 0.0000 0.0000 0.0000 -1.2643 0.0000 0.0000
# 5 0.0000 0.0000 0.0000 0.0000 -32.2225 0.0000
# 6 0.0000 0.0000 0.0000 0.0000 0.0000 38.6127
#
#
#
# Elastic Compliance Matrix: (Units=1/GPa)
#
#
# Indices 1 2 3 4 5 6 
#
# 1 0.019767 0.000059 -0.001373 0.000000 0.000000 0.000000
# 2 0.000059 0.020496 -0.009280 0.000000 0.000000 0.000000
# 3 -0.001373 -0.009280 0.013567 0.000000 0.000000 0.000000
# 4 0.000000 0.000000 0.000000 -0.790935 0.000000 0.000000
# 5 0.000000 0.000000 0.000000 0.000000 -0.031034 0.000000
# 6 0.000000 0.000000 0.000000 0.000000 0.000000 0.025898
#
#
# Mechanical properties :
#
#
# Convention : Reuss Voigt Hill
#
# Bulk Modulus (GPa) = 30.63474 38.71569 34.67522
# Shear Modulus (GPa) = -7.04054 12.39020 2.67483
#
# Velocity S-wave (km/s) = -1.81466 2.40731 1.11851
# Velocity P-wave (km/s) = 3.15243 5.08282 4.22923
#
# Compressibility (1/GPa) = 0.03264268
#
# Stress axis : x y z
#
# Youngs Moduli (GPa) = 50.58964 48.78901 73.70923
#
# Poissons Ratio (x) = -0.00288 0.10119
# Poissons Ratio (y) = -0.00298 0.68401
# Poissons Ratio (z) = 0.06945 0.45276
#
# Static dielectric constant tensor:
#      x y z
#    x 1.954600 0.000000 0.000000 
#    y 0.000000 1.755870 0.000000 
#    z 0.000000 0.000000 1.800070 
# 
# From -- ./inp_files/19837.got.cif
#   From: 2010.05.17/outbox.cif.g08.bks.cpg/sg37_10_cif.got.tgz:19837.got - 2010.06.03 17:53:42.
