data_PCOD9354111
_publ_section_title
;
Structure prediction by ZEFSAII (Michael W. Deem and Ramdas Pophale) SiO2 
 PCOD9354111
Probable space group: C C C 2
;
_chemical_formula_sum "Si O2"
_cell_formula_units_Z 56
_cell_length_a 24.674295
_cell_length_b 5.406543
_cell_length_c 20.881918
_cell_angle_alpha 90.000000
_cell_angle_beta 90.000000
_cell_angle_gamma 90.000000
_cell_volume 2785.702925
_symmetry_space_group_name_H-M "C C C 2"
_symmetry_group_IT_number 37
_symmetry_cell_setting 'orthorhombic'
loop_
_space_group_symop_operation_xyz
x,y,z
-x,-y,z
-x,y,1/2+z
x,-y,1/2+z
1/2+x,1/2+y,z
1/2-x,1/2-y,z
1/2-x,1/2+y,1/2+z
1/2+x,1/2-y,1/2+z
loop_
_atom_site_type_symbol
_atom_site_label
_atom_site_fract_x
_atom_site_fract_y
_atom_site_fract_z
Si Si1 0.366869 0.872341 0.048270
Si Si2 0.933957 0.502252 0.298206
Si Si3 0.050944 0.325581 0.112377
Si Si4 0.250000 0.750000 0.018963
Si Si5 0.057351 0.973241 0.486301
Si Si6 0.562443 0.497635 0.732346
Si Si7 0.250000 0.750000 0.432937
Si Si8 0.633961 0.167499 0.414532
O O1 0.306348 0.770534 0.058097
O O2 0.413312 0.678794 0.028776
O O3 0.392965 0.024908 0.106156
O O4 0.361226 0.035800 0.983692
O O5 0.913970 0.759058 0.267932
O O6 0.904333 0.472276 0.365680
O O7 0.000000 0.500000 0.303988
O O8 0.917493 0.266513 0.253583
O O9 0.041769 0.233938 0.039683
O O10 0.059562 0.091585 0.158581
O O11 0.000000 0.500000 0.133107
O O12 0.256594 0.499531 0.976132
O O13 0.101587 0.912696 0.433148
O O14 0.000000 0.000000 0.451948
O O15 0.500000 0.500000 0.753220
O O16 0.305000 0.784146 0.393149
#
# Coordination Sequence:
#
# PCOD9354111 Si02
#       8
#     8   8   8   4   8   8   4   8
#     4  10  22  36  57  88 121 161 193 242 300 353
#     4  10  23  37  57  85 115 153 192 241 298 347
#     4  11  21  35  56  87 118 155 199 242 292 357
#     4  10  20  40  56  83 122 157 204 234 282 360
#     4  11  21  32  55  88 125 153 183 238 305 355
#     4  10  22  39  57  82 114 155 199 238 285 352
#     4  10  20  38  60  83 114 161 206 236 282 348
#     4  10  23  36  57  87 119 157 196 243 296 359
#
# _framework density 20.102646
#
# number of rings (size 3 to 8) (size 9 to 14) (size 15 to 20)
#    0.000    1.714    2.857    1.714    6.000    0.571 
#    0.000    0.000    0.000    0.857    3.714    0.000 
#    0.000    0.000    0.000    0.000    0.000    0.000 
#
# Total GULP energy -155986.590910 kJ/mol
# GULP energy per Si atom -5570.949675 kJ/mol
# Density = 2.005689 g / cm^3
# Si number density = 20.102646 Si / 1000 Ang^3
#
#
#
# Elastic Constant Matrix: (Units=GPa)
#
#
# Indices 1 2 3 4 5 6 
#
# 1 136.4585 28.2696 12.8248 0.0000 0.0000 0.0000
# 2 28.2696 91.2489 11.4161 0.0000 0.0000 0.0000
# 3 12.8248 11.4161 44.2324 0.0000 0.0000 0.0000
# 4 0.0000 0.0000 0.0000 3.9042 0.0000 0.0000
# 5 0.0000 0.0000 0.0000 0.0000 14.0770 0.0000
# 6 0.0000 0.0000 0.0000 0.0000 0.0000 22.8085
#
#
#
# Elastic Compliance Matrix: (Units=1/GPa)
#
#
# Indices 1 2 3 4 5 6 
#
# 1 0.007956 -0.002249 -0.001726 0.000000 0.000000 0.000000
# 2 -0.002249 0.011960 -0.002435 0.000000 0.000000 0.000000
# 3 -0.001726 -0.002435 0.023737 0.000000 0.000000 0.000000
# 4 0.000000 0.000000 0.000000 0.256134 0.000000 0.000000
# 5 0.000000 0.000000 0.000000 0.000000 0.071038 0.000000
# 6 0.000000 0.000000 0.000000 0.000000 0.000000 0.043843
#
#
# Mechanical properties :
#
#
# Convention : Reuss Voigt Hill
#
# Bulk Modulus (GPa) = 32.43260 41.88452 37.15856
# Shear Modulus (GPa) = 11.42160 22.78656 17.10408
#
# Velocity S-wave (km/s) = 2.38620 3.37042 2.92008
# Velocity P-wave (km/s) = 4.87447 6.00224 5.46751
#
# Compressibility (1/GPa) = 0.03083317
#
# Stress axis : x y z
#
# Youngs Moduli (GPa) = 125.68495 83.60924 42.12855
#
# Poissons Ratio (x) = 0.18803 0.07273
# Poissons Ratio (y) = 0.28266 0.10258
# Poissons Ratio (z) = 0.21699 0.20358
#
# Static dielectric constant tensor:
#      x y z
#    x 1.676500 0.000000 0.000000 
#    y 0.000000 1.856140 0.000000 
#    z 0.000000 0.000000 1.726310 
# 
# From -- ./inp_files/17631.got.cif
#   From: 2010.05.17/outbox.cif.g08.bks.cpg/sg37_9_cif.got.tgz:17631.got - 2010.06.03 17:53:42.
