data_PCOD9354019
_publ_section_title
;
Structure prediction by ZEFSAII (Michael W. Deem and Ramdas Pophale) SiO2 
 PCOD9354019
Probable space group: C C C 2
;
_chemical_formula_sum "Si O2"
_cell_formula_units_Z 56
_cell_length_a 15.507327
_cell_length_b 4.952089
_cell_length_c 32.199250
_cell_angle_alpha 90.000000
_cell_angle_beta 90.000000
_cell_angle_gamma 90.000000
_cell_volume 2472.698368
_symmetry_space_group_name_H-M "C C C 2"
_symmetry_group_IT_number 37
_symmetry_cell_setting 'orthorhombic'
loop_
_space_group_symop_operation_xyz
x,y,z
-x,-y,z
-x,y,1/2+z
x,-y,1/2+z
1/2+x,1/2+y,z
1/2-x,1/2-y,z
1/2-x,1/2+y,1/2+z
1/2+x,1/2-y,1/2+z
loop_
_atom_site_type_symbol
_atom_site_label
_atom_site_fract_x
_atom_site_fract_y
_atom_site_fract_z
Si Si1 0.346017 0.714412 0.931010
Si Si2 0.644463 0.748916 0.705109
Si Si3 0.146766 0.752038 0.655302
Si Si4 0.561374 0.252676 0.569245
Si Si5 0.408882 0.172405 0.976791
Si Si6 0.691105 0.494289 0.785072
Si Si7 0.940927 0.258761 0.848801
O O1 0.250000 0.750000 0.913344
O O2 0.384342 0.424310 0.946191
O O3 0.405786 0.829992 0.894311
O O4 0.344141 0.927635 0.968639
O O5 0.750000 0.750000 0.705107
O O6 0.614871 0.541363 0.670180
O O7 0.628190 0.627693 0.750593
O O8 0.614129 0.037314 0.689341
O O9 0.250000 0.750000 0.657720
O O10 0.122830 0.698304 0.607949
O O11 0.500000 0.500000 0.579636
O O12 0.598969 0.290608 0.523096
O O13 0.500000 0.000000 0.564840
O O14 0.500000 0.000000 0.972228
O O15 0.750000 0.250000 0.766332
O O16 0.637368 0.340922 0.820119
O O17 0.750000 0.750000 0.799630
O O18 0.000000 0.500000 0.831791
O O19 0.000000 0.000000 0.853852
#
# Coordination Sequence:
#
# PCOD9354019 Si02
#       7
#     8   8   8   8   8   8   8
#     4  12  25  42  67  98 129 168 222 272 320 384
#     4   9  18  35  60  88 117 157 203 255 315 370
#     4  10  20  36  60  88 119 156 204 255 307 369
#     4  11  23  40  61  89 125 167 209 254 318 385
#     4  11  23  43  66  91 129 176 217 264 328 392
#     4  11  22  41  68  94 124 165 217 268 317 381
#     4  12  26  43  65  96 136 175 213 264 333 397
#
# _framework density 22.647324999999999
#
# number of rings (size 3 to 8) (size 9 to 14) (size 15 to 20)
#    0.000    1.143    0.000    9.000    0.000    2.286 
#    0.000    4.286    0.000    0.000    0.000    0.000 
#    0.000    0.000    0.000    0.000    0.000    0.000 
#
# Total GULP energy -156249.412239 kJ/mol
# GULP energy per Si atom -5580.336151 kJ/mol
# Density = 2.259578 g / cm^3
# Si number density = 22.647325 Si / 1000 Ang^3
#
#
#
# Elastic Constant Matrix: (Units=GPa)
#
#
# Indices 1 2 3 4 5 6 
#
# 1 47.1129 24.8263 28.7114 0.0000 0.0000 0.0000
# 2 24.8263 120.2746 23.7666 0.0000 0.0000 0.0000
# 3 28.7114 23.7666 115.3359 0.0000 0.0000 0.0000
# 4 0.0000 0.0000 0.0000 36.7830 0.0000 0.0000
# 5 0.0000 0.0000 0.0000 0.0000 16.2885 0.0000
# 6 0.0000 0.0000 0.0000 0.0000 0.0000 24.4553
#
#
#
# Elastic Compliance Matrix: (Units=1/GPa)
#
#
# Indices 1 2 3 4 5 6 
#
# 1 0.027125 -0.004446 -0.005836 0.000000 0.000000 0.000000
# 2 -0.004446 0.009396 -0.000829 0.000000 0.000000 0.000000
# 3 -0.005836 -0.000829 0.010294 0.000000 0.000000 0.000000
# 4 0.000000 0.000000 0.000000 0.027186 0.000000 0.000000
# 5 0.000000 0.000000 0.000000 0.000000 0.061393 0.000000
# 6 0.000000 0.000000 0.000000 0.000000 0.000000 0.040891
#
#
# Mechanical properties :
#
#
# Convention : Reuss Voigt Hill
#
# Bulk Modulus (GPa) = 40.66351 48.59244 44.62797
# Shear Modulus (GPa) = 24.18895 29.19996 26.69445
#
# Velocity S-wave (km/s) = 3.27168 3.59462 3.43695
# Velocity P-wave (km/s) = 5.68031 6.22344 5.95807
#
# Compressibility (1/GPa) = 0.02459207
#
# Stress axis : x y z
#
# Youngs Moduli (GPa) = 36.86629 106.42985 97.14273
#
# Poissons Ratio (x) = 0.47315 0.56696
# Poissons Ratio (y) = 0.16390 0.08058
# Poissons Ratio (z) = 0.21516 0.08828
#
# Static dielectric constant tensor:
#      x y z
#    x 1.993950 0.000000 0.000000 
#    y 0.000000 1.830000 0.000000 
#    z 0.000000 0.000000 1.864430 
# 
# From -- ./inp_files/20532.got.cif
#   From: 2010.05.17/outbox.cif.g08.bks.cpg/sg37_11_cif.got.tgz:20532.got - 2010.06.03 17:53:42.
