data_PCOD9354170
_publ_section_title
;
Structure prediction by ZEFSAII (Michael W. Deem and Ramdas Pophale) SiO2 
 PCOD9354170
Probable space group: C C C 2
;
_chemical_formula_sum "Si O2"
_cell_formula_units_Z 52
_cell_length_a 8.117816
_cell_length_b 20.508711
_cell_length_c 12.898509
_cell_angle_alpha 90.000000
_cell_angle_beta 90.000000
_cell_angle_gamma 90.000000
_cell_volume 2147.420425
_symmetry_space_group_name_H-M "C C C 2"
_symmetry_group_IT_number 37
_symmetry_cell_setting 'orthorhombic'
loop_
_space_group_symop_operation_xyz
x,y,z
-x,-y,z
-x,y,1/2+z
x,-y,1/2+z
1/2+x,1/2+y,z
1/2-x,1/2-y,z
1/2-x,1/2+y,1/2+z
1/2+x,1/2-y,1/2+z
loop_
_atom_site_type_symbol
_atom_site_label
_atom_site_fract_x
_atom_site_fract_y
_atom_site_fract_z
Si Si1 0.048772 0.928325 0.584240
Si Si2 0.484146 0.367738 0.273656
Si Si3 0.234428 0.114553 0.445007
Si Si4 0.270985 0.536078 0.376375
Si Si5 0.750000 0.750000 0.006036
Si Si6 0.433336 0.846340 0.357833
Si Si7 0.430192 0.244762 0.657513
O O1 0.875485 0.896101 0.547145
O O2 0.128577 0.889692 0.677762
O O3 0.169426 0.938800 0.488972
O O4 0.000000 0.000000 0.617376
O O5 0.383275 0.344409 0.370785
O O6 0.590104 0.430925 0.304144
O O7 0.584014 0.307997 0.231014
O O8 0.409241 0.148181 0.434640
O O9 0.242327 0.041466 0.391721
O O10 0.114349 0.577659 0.342901
O O11 0.587477 0.746769 0.080817
O O12 0.705623 0.808905 0.926216
O O13 0.457555 0.812495 0.244747
O O14 0.250000 0.250000 0.602892
#
# Coordination Sequence:
#
# PCOD9354170 Si02
#       7
#     8   8   8   8   4   8   8
#     4   9  19  36  62  98 133 173 226 278 344 421
#     4  11  20  40  64  94 134 176 229 285 344 412
#     4  10  23  37  67 100 128 184 225 281 357 423
#     4  10  20  39  63  96 137 170 229 283 345 427
#     4  12  28  48  70 104 146 188 242 300 352 416
#     4  12  24  47  66  98 142 180 232 297 356 413
#     4  12  26  47  70 103 139 187 243 289 346 431
#
# _framework density 24.215101000000001
#
# number of rings (size 3 to 8) (size 9 to 14) (size 15 to 20)
#    0.000    1.231    2.308    4.615    2.154    1.231 
#    1.385    0.000    0.000    5.538    0.000    0.000 
#    0.000    0.000    0.000    0.000    0.000    0.000 
#
# Total GULP energy -144964.769073 kJ/mol
# GULP energy per Si atom -5575.568041 kJ/mol
# Density = 2.415999 g / cm^3
# Si number density = 24.215101 Si / 1000 Ang^3
#
#
#
# Elastic Constant Matrix: (Units=GPa)
#
#
# Indices 1 2 3 4 5 6 
#
# 1 122.1146 0.1374 21.8442 0.0000 0.0000 0.0000
# 2 0.1374 52.2673 -1.5486 0.0000 0.0000 0.0000
# 3 21.8442 -1.5486 73.7907 0.0000 0.0000 0.0000
# 4 0.0000 0.0000 0.0000 26.2529 0.0000 0.0000
# 5 0.0000 0.0000 0.0000 0.0000 -3.1644 0.0000
# 6 0.0000 0.0000 0.0000 0.0000 0.0000 30.4734
#
#
#
# Elastic Compliance Matrix: (Units=1/GPa)
#
#
# Indices 1 2 3 4 5 6 
#
# 1 0.008647 -0.000099 -0.002562 0.000000 0.000000 0.000000
# 2 -0.000099 0.019145 0.000431 0.000000 0.000000 0.000000
# 3 -0.002562 0.000431 0.014319 0.000000 0.000000 0.000000
# 4 0.000000 0.000000 0.000000 0.038091 0.000000 0.000000
# 5 0.000000 0.000000 0.000000 0.000000 -0.316013 0.000000
# 6 0.000000 0.000000 0.000000 0.000000 0.000000 0.032815
#
#
# Mechanical properties :
#
#
# Convention : Reuss Voigt Hill
#
# Bulk Modulus (GPa) = 26.55833 32.11540 29.33687
# Shear Modulus (GPa) = -26.88400 25.89504 -0.49448
#
# Velocity S-wave (km/s) = -3.33561 3.27368 -0.45238
# Velocity P-wave (km/s) = 1.96049 5.25173 3.44508
#
# Compressibility (1/GPa) = 0.03765296
#
# Stress axis : x y z
#
# Youngs Moduli (GPa) = 115.64135 52.23177 69.83583
#
# Poissons Ratio (x) = 0.00515 0.17892
# Poissons Ratio (y) = 0.01141 -0.03010
# Poissons Ratio (z) = 0.29627 -0.02251
#
# Static dielectric constant tensor:
#      x y z
#    x 2.053260 0.000000 0.000000 
#    y 0.000000 1.988970 0.000000 
#    z 0.000000 0.000000 1.930190 
# 
# From -- ./inp_files/10790.got.cif
#   From: 2010.05.17/outbox.cif.g08.bks.cpg/sg37_6_cif.got.tgz:10790.got - 2010.06.03 17:53:42.
