data_PCOD9354580
_publ_section_title
;
Structure prediction by ZEFSAII (Michael W. Deem and Ramdas Pophale) SiO2 
 PCOD9354580
Probable space group: C C C 2
;
_chemical_formula_sum "Si O2"
_cell_formula_units_Z 64
_cell_length_a 15.067465
_cell_length_b 8.903477
_cell_length_c 21.806435
_cell_angle_alpha 90.000000
_cell_angle_beta 90.000000
_cell_angle_gamma 90.000000
_cell_volume 2925.394926
_symmetry_space_group_name_H-M "C C C 2"
_symmetry_group_IT_number 37
_symmetry_cell_setting 'orthorhombic'
loop_
_space_group_symop_operation_xyz
x,y,z
-x,-y,z
-x,y,1/2+z
x,-y,1/2+z
1/2+x,1/2+y,z
1/2-x,1/2-y,z
1/2-x,1/2+y,1/2+z
1/2+x,1/2-y,1/2+z
loop_
_atom_site_type_symbol
_atom_site_label
_atom_site_fract_x
_atom_site_fract_y
_atom_site_fract_z
Si Si1 0.662302 0.849504 0.742920
Si Si2 0.987349 0.681780 0.833333
Si Si3 0.545094 0.645821 0.167041
Si Si4 0.663024 0.650028 0.055421
Si Si5 0.847256 0.313379 0.771262
Si Si6 0.919305 0.379171 0.111253
Si Si7 0.782016 0.410407 0.996814
Si Si8 0.422479 0.122231 0.961181
O O1 0.750000 0.750000 0.745050
O O2 0.579905 0.772855 0.778948
O O3 0.637595 0.893616 0.673415
O O4 0.669950 0.009573 0.775355
O O5 0.947626 0.709770 0.899782
O O6 0.000000 0.500000 0.828234
O O7 0.086835 0.741507 0.824833
O O8 0.500000 0.500000 0.196861
O O9 0.619369 0.599304 0.118229
O O10 0.593847 0.762508 0.212272
O O11 0.470599 0.725225 0.125187
O O12 0.750000 0.750000 0.069134
O O13 0.698009 0.505928 0.019300
O O14 0.600492 0.760314 0.014961
O O15 0.750000 0.250000 0.768328
O O16 0.851716 0.387250 0.054050
O O17 0.000000 0.500000 0.108235
O O18 0.750000 0.250000 0.973855
O O19 0.835887 0.518565 0.951330
O O20 0.500000 0.000000 0.973648
#
# Coordination Sequence:
#
# PCOD9354580 Si02
#       8
#     8   8   8   8   8   8   8   8
#     4  11  23  39  64  92 129 174 222 269 327 403
#     4   9  20  45  65  93 125 174 227 272 325 413
#     4  12  24  37  62  93 138 176 218 272 341 402
#     4  10  22  39  60  98 133 173 219 273 329 405
#     4  11  24  40  66  96 131 170 219 288 340 395
#     4  12  21  39  61  90 135 182 217 264 332 404
#     4  11  23  38  62  99 135 166 225 279 337 398
#     4  10  21  41  71  88 126 178 220 264 337 403
#
# _framework density 21.877386999999999
#
# number of rings (size 3 to 8) (size 9 to 14) (size 15 to 20)
#    0.000    1.250    2.500    4.500    3.500    1.500 
#    0.000    5.625    0.000   11.250    0.000    0.000 
#    0.000    0.000    0.000    0.000    0.000    0.000 
#
# Total GULP energy -178637.895483 kJ/mol
# GULP energy per Si atom -5582.434234 kJ/mol
# Density = 2.182759 g / cm^3
# Si number density = 21.877387 Si / 1000 Ang^3
#
#
#
# Elastic Constant Matrix: (Units=GPa)
#
#
# Indices 1 2 3 4 5 6 
#
# 1 102.5238 28.2210 39.6048 0.0000 0.0000 0.0000
# 2 28.2210 86.4076 -1.3378 0.0000 0.0000 0.0000
# 3 39.6048 -1.3378 70.8097 0.0000 0.0000 0.0000
# 4 0.0000 0.0000 0.0000 2.6134 0.0000 0.0000
# 5 0.0000 0.0000 0.0000 0.0000 21.4428 0.0000
# 6 0.0000 0.0000 0.0000 0.0000 0.0000 35.3724
#
#
#
# Elastic Compliance Matrix: (Units=1/GPa)
#
#
# Indices 1 2 3 4 5 6 
#
# 1 0.014153 -0.004746 -0.008006 0.000000 0.000000 0.000000
# 2 -0.004746 0.013168 0.002903 0.000000 0.000000 0.000000
# 3 -0.008006 0.002903 0.018655 0.000000 0.000000 0.000000
# 4 0.000000 0.000000 0.000000 0.382642 0.000000 0.000000
# 5 0.000000 0.000000 0.000000 0.000000 0.046636 0.000000
# 6 0.000000 0.000000 0.000000 0.000000 0.000000 0.028271
#
#
# Mechanical properties :
#
#
# Convention : Reuss Voigt Hill
#
# Bulk Modulus (GPa) = 38.05315 43.63523 40.84419
# Shear Modulus (GPa) = 9.39884 24.76926 17.08405
#
# Velocity S-wave (km/s) = 2.07496 3.36845 2.79749
# Velocity P-wave (km/s) = 4.81375 5.92598 5.39859
#
# Compressibility (1/GPa) = 0.02627903
#
# Stress axis : x y z
#
# Youngs Moduli (GPa) = 70.65722 75.94076 53.60552
#
# Poissons Ratio (x) = 0.36044 0.42914
# Poissons Ratio (y) = 0.33536 -0.15564
# Poissons Ratio (z) = 0.56565 -0.22049
#
# Static dielectric constant tensor:
#      x y z
#    x 1.825190 0.000000 0.000000 
#    y 0.000000 1.820290 0.000000 
#    z 0.000000 0.000000 1.840750 
# 
# From -- ./inp_files/18924.got.cif
#   From: 2010.05.17/outbox.cif.g08.bks.cpg/sg37_10_cif.got.tgz:18924.got - 2010.06.03 17:53:42.
