data_PCOD9354346
_publ_section_title
;
Structure prediction by ZEFSAII (Michael W. Deem and Ramdas Pophale) SiO2 
 PCOD9354346
Probable space group: C C C 2
;
_chemical_formula_sum "Si O2"
_cell_formula_units_Z 56
_cell_length_a 14.452637
_cell_length_b 5.067021
_cell_length_c 36.815374
_cell_angle_alpha 90.000000
_cell_angle_beta 90.000000
_cell_angle_gamma 90.000000
_cell_volume 2696.056665
_symmetry_space_group_name_H-M "C C C 2"
_symmetry_group_IT_number 37
_symmetry_cell_setting 'orthorhombic'
loop_
_space_group_symop_operation_xyz
x,y,z
-x,-y,z
-x,y,1/2+z
x,-y,1/2+z
1/2+x,1/2+y,z
1/2-x,1/2-y,z
1/2-x,1/2+y,1/2+z
1/2+x,1/2-y,1/2+z
loop_
_atom_site_type_symbol
_atom_site_label
_atom_site_fract_x
_atom_site_fract_y
_atom_site_fract_z
Si Si1 0.683860 0.494472 0.094250
Si Si2 0.358651 0.241226 0.396600
Si Si3 0.564854 0.253985 0.739222
Si Si4 0.566228 0.249916 0.818186
Si Si5 0.637656 0.252145 0.439648
Si Si6 0.500000 0.500000 0.047173
Si Si7 0.311395 0.499979 0.675609
Si Si8 0.000000 0.500000 0.997461
O O1 0.750000 0.750000 0.092065
O O2 0.591804 0.546254 0.071138
O O3 0.650152 0.425384 0.135808
O O4 0.750000 0.250000 0.082866
O O5 0.250000 0.250000 0.402550
O O6 0.374926 0.289442 0.354314
O O7 0.393660 0.460428 0.425311
O O8 0.387250 0.946831 0.406894
O O9 0.500000 0.500000 0.746584
O O10 0.613656 0.207680 0.778448
O O11 0.624731 0.370337 0.706360
O O12 0.500000 0.000000 0.730310
O O13 0.500000 0.500000 0.817491
O O14 0.500000 0.000000 0.822906
O O15 0.750000 0.250000 0.445807
O O16 0.582603 0.123086 0.473006
O O17 0.525648 0.247128 0.022694
O O18 0.250000 0.250000 0.688839
O O19 0.250000 0.750000 0.666240
#
# Coordination Sequence:
#
# PCOD9354346 Si02
#       8
#     8   8   8   8   8   4   8   4
#     4  10  23  44  67  98 135 168 213 271 318 380
#     4  10  21  38  59  86 116 158 205 249 310 366
#     4  10  21  37  56  88 127 166 211 262 319 373
#     4  10  21  35  55  86 120 159 206 256 311 364
#     4  10  23  41  61  90 123 156 202 259 310 372
#     4  12  26  44  68 102 124 170 218 248 332 404
#     4  10  21  39  62  91 123 166 215 258 319 379
#     4  12  26  42  66  98 124 162 214 250 322 406
#
# _framework density 20.771075
#
# number of rings (size 3 to 8) (size 9 to 14) (size 15 to 20)
#    0.000    1.714    0.000    3.429    4.000    2.286 
#    1.286    2.143    0.000    0.000    0.000    0.000 
#    0.000    0.000    0.000    0.000    0.000    0.000 
#
# Total GULP energy -155961.524055 kJ/mol
# GULP energy per Si atom -5570.054431 kJ/mol
# Density = 2.072380 g / cm^3
# Si number density = 20.771075 Si / 1000 Ang^3
#
#
#
# Elastic Constant Matrix: (Units=GPa)
#
#
# Indices 1 2 3 4 5 6 
#
# 1 89.8413 32.5784 61.1239 0.0000 0.0000 0.0000
# 2 32.5784 147.4411 29.7066 0.0000 0.0000 0.0000
# 3 61.1239 29.7066 125.2446 0.0000 0.0000 0.0000
# 4 0.0000 0.0000 0.0000 33.5260 0.0000 0.0000
# 5 0.0000 0.0000 0.0000 0.0000 -64.3915 0.0000
# 6 0.0000 0.0000 0.0000 0.0000 0.0000 24.0668
#
#
#
# Elastic Compliance Matrix: (Units=1/GPa)
#
#
# Indices 1 2 3 4 5 6 
#
# 1 0.017336 -0.002233 -0.007931 0.000000 0.000000 0.000000
# 2 -0.002233 0.007410 -0.000668 0.000000 0.000000 0.000000
# 3 -0.007931 -0.000668 0.012014 0.000000 0.000000 0.000000
# 4 0.000000 0.000000 0.000000 0.029828 0.000000 0.000000
# 5 0.000000 0.000000 0.000000 0.000000 -0.015530 0.000000
# 6 0.000000 0.000000 0.000000 0.000000 0.000000 0.041551
#
#
# Mechanical properties :
#
#
# Convention : Reuss Voigt Hill
#
# Bulk Modulus (GPa) = 66.24078 67.70497 66.97287
# Shear Modulus (GPa) = 41.90950 14.58148 28.24549
#
# Velocity S-wave (km/s) = 4.49674 2.65242 3.69161
# Velocity P-wave (km/s) = 7.67600 6.48437 7.10521
#
# Compressibility (1/GPa) = 0.01509644
#
# Stress axis : x y z
#
# Youngs Moduli (GPa) = 57.68217 134.94765 83.23931
#
# Poissons Ratio (x) = 0.30129 0.66019
# Poissons Ratio (y) = 0.12878 0.05561
# Poissons Ratio (z) = 0.45749 0.09015
#
# Static dielectric constant tensor:
#      x y z
#    x 1.753570 0.000000 0.000000 
#    y 0.000000 1.744350 0.000000 
#    z 0.000000 0.000000 1.911960 
# 
# From -- ./inp_files/20570.got.cif
#   From: 2010.05.17/outbox.cif.g08.bks.cpg/sg37_11_cif.got.tgz:20570.got - 2010.06.03 17:53:42.
