data_PCOD9354728
_publ_section_title
;
Structure prediction by ZEFSAII (Michael W. Deem and Ramdas Pophale) SiO2 
 PCOD9354728
Probable space group: C C C 2
;
_chemical_formula_sum "Si O2"
_cell_formula_units_Z 44
_cell_length_a 5.348182
_cell_length_b 21.147533
_cell_length_c 18.629561
_cell_angle_alpha 90.000000
_cell_angle_beta 90.000000
_cell_angle_gamma 90.000000
_cell_volume 2107.019284
_symmetry_space_group_name_H-M "C C C 2"
_symmetry_group_IT_number 37
_symmetry_cell_setting 'orthorhombic'
loop_
_space_group_symop_operation_xyz
x,y,z
-x,-y,z
-x,y,1/2+z
x,-y,1/2+z
1/2+x,1/2+y,z
1/2-x,1/2-y,z
1/2-x,1/2+y,1/2+z
1/2+x,1/2-y,1/2+z
loop_
_atom_site_type_symbol
_atom_site_label
_atom_site_fract_x
_atom_site_fract_y
_atom_site_fract_z
Si Si1 0.461267 0.641775 0.852480
Si Si2 0.750000 0.750000 0.911188
Si Si3 0.745414 0.959619 0.774794
Si Si4 0.318846 0.131149 0.643309
Si Si5 0.815045 0.179123 0.707807
Si Si6 0.846438 0.323481 0.986647
O O1 0.561606 0.713389 0.859915
O O2 0.689306 0.594783 0.833806
O O3 0.299899 0.638639 0.780323
O O4 0.295562 0.638778 0.923466
O O5 0.624807 0.804976 0.959514
O O6 0.708646 0.930014 0.694802
O O7 0.500000 0.000000 0.793083
O O8 0.000000 0.000000 0.773539
O O9 0.598009 0.155632 0.656406
O O10 0.302465 0.135710 0.557665
O O11 0.090270 0.173305 0.674178
O O12 0.750000 0.250000 0.725230
O O13 0.750000 0.250000 0.997485
#
# Coordination Sequence:
#
# PCOD9354728 Si02
#       6
#     8   4   8   8   8   8
#     4  10  24  39  68  96 139 172 228 277 352 403
#     4  10  22  38  66 100 146 168 214 284 352 428
#     4  11  25  47  71  94 131 182 242 292 327 384
#     4  11  25  40  66  92 135 177 226 275 338 402
#     4  11  22  36  61  99 131 172 216 271 336 417
#     4  10  22  40  62 103 139 179 209 278 356 429
#
# _framework density 20.882580000000001
#
# number of rings (size 3 to 8) (size 9 to 14) (size 15 to 20)
#    0.000    1.455    0.000    5.455   19.091    0.000 
#    0.000    0.909    0.000    0.000    0.000    0.000 
#    0.000    0.000    0.000    0.000    0.000    0.000 
#
# Total GULP energy -122607.082810 kJ/mol
# GULP energy per Si atom -5573.049219 kJ/mol
# Density = 2.083505 g / cm^3
# Si number density = 20.882580 Si / 1000 Ang^3
#
#
#
# Elastic Constant Matrix: (Units=GPa)
#
#
# Indices 1 2 3 4 5 6 
#
# 1 59.0758 10.3835 25.8282 0.0000 0.0000 0.0000
# 2 10.3835 48.3391 23.7525 0.0000 0.0000 0.0000
# 3 25.8282 23.7525 160.5855 0.0000 0.0000 0.0000
# 4 0.0000 0.0000 0.0000 10.8488 0.0000 0.0000
# 5 0.0000 0.0000 0.0000 0.0000 25.5591 0.0000
# 6 0.0000 0.0000 0.0000 0.0000 0.0000 34.6909
#
#
#
# Elastic Compliance Matrix: (Units=1/GPa)
#
#
# Indices 1 2 3 4 5 6 
#
# 1 0.018532 -0.002713 -0.002579 0.000000 0.000000 0.000000
# 2 -0.002713 0.022706 -0.002922 0.000000 0.000000 0.000000
# 3 -0.002579 -0.002922 0.007074 0.000000 0.000000 0.000000
# 4 0.000000 0.000000 0.000000 0.092176 0.000000 0.000000
# 5 0.000000 0.000000 0.000000 0.000000 0.039125 0.000000
# 6 0.000000 0.000000 0.000000 0.000000 0.000000 0.028826
#
#
# Mechanical properties :
#
#
# Convention : Reuss Voigt Hill
#
# Bulk Modulus (GPa) = 31.36501 43.10320 37.23411
# Shear Modulus (GPa) = 21.23173 28.08883 24.66028
#
# Velocity S-wave (km/s) = 3.19206 3.67152 3.44015
# Velocity P-wave (km/s) = 5.35145 6.21763 5.80073
#
# Compressibility (1/GPa) = 0.03188266
#
# Stress axis : x y z
#
# Youngs Moduli (GPa) = 53.96068 44.04150 141.35741
#
# Poissons Ratio (x) = 0.11950 0.36460
# Poissons Ratio (y) = 0.14642 0.41305
# Poissons Ratio (z) = 0.13918 0.12869
#
# Static dielectric constant tensor:
#      x y z
#    x 1.922740 0.000000 0.000000 
#    y 0.000000 1.828550 0.000000 
#    z 0.000000 0.000000 1.734010 
# 
# From -- ./inp_files/13877.got.cif
#   From: 2010.05.17/outbox.cif.g08.bks.cpg/sg37_7_cif.got.tgz:13877.got - 2010.06.03 17:53:42.
