data_PCOD9354944
_publ_section_title
;
Structure prediction by ZEFSAII (Michael W. Deem and Ramdas Pophale) SiO2 
 PCOD9354944
Probable space group: C C C 2
;
_chemical_formula_sum "Si O2"
_cell_formula_units_Z 32
_cell_length_a 9.941500
_cell_length_b 13.136624
_cell_length_c 9.734709
_cell_angle_alpha 90.000000
_cell_angle_beta 90.000000
_cell_angle_gamma 90.000000
_cell_volume 1271.331068
_symmetry_space_group_name_H-M "C C C 2"
_symmetry_group_IT_number 37
_symmetry_cell_setting 'orthorhombic'
loop_
_space_group_symop_operation_xyz
x,y,z
-x,-y,z
-x,y,1/2+z
x,-y,1/2+z
1/2+x,1/2+y,z
1/2-x,1/2-y,z
1/2-x,1/2+y,1/2+z
1/2+x,1/2-y,1/2+z
loop_
_atom_site_type_symbol
_atom_site_label
_atom_site_fract_x
_atom_site_fract_y
_atom_site_fract_z
Si Si1 0.037047 0.747456 0.542300
Si Si2 0.012181 0.121778 0.773851
Si Si3 0.291362 0.898338 0.132496
Si Si4 0.357569 0.952251 0.427931
O O1 0.083436 0.811508 0.674856
O O2 0.902279 0.681387 0.578829
O O3 0.008040 0.828169 0.422584
O O4 0.138919 0.663007 0.481292
O O5 0.156676 0.142402 0.702764
O O6 0.000000 0.000000 0.774409
O O7 0.350168 0.957777 0.264514
O O8 0.255281 0.975877 0.009335
O O9 0.500000 0.000000 0.469151
#
# Coordination Sequence:
#
# PCOD9354944 Si02
#       4
#     8   8   8   8
#     4  11  24  47  74 102 148 197 253 312 373 464
#     4  12  28  48  69 108 157 198 247 318 383 458
#     4  11  25  46  76 107 146 192 252 313 384 447
#     4  10  22  43  75 107 139 190 249 314 367 452
#
# _framework density 25.170470000000002
#
# number of rings (size 3 to 8) (size 9 to 14) (size 15 to 20)
#    0.000    1.000    2.500    3.750   10.500    0.000 
#    0.000    0.000    0.000    0.000    0.000    0.000 
#    0.000    0.000    0.000    0.000    0.000    0.000 
#
# Total GULP energy -89476.994887 kJ/mol
# GULP energy per Si atom -5592.312180 kJ/mol
# Density = 2.511318 g / cm^3
# Si number density = 25.170470 Si / 1000 Ang^3
#
#
#
# Elastic Constant Matrix: (Units=GPa)
#
#
# Indices 1 2 3 4 5 6 
#
# 1 56.3809 7.3401 8.8040 0.0000 0.0000 0.0000
# 2 7.3401 167.1570 71.2633 0.0000 0.0000 0.0000
# 3 8.8040 71.2633 150.9026 0.0000 0.0000 0.0000
# 4 0.0000 0.0000 0.0000 69.3430 0.0000 0.0000
# 5 0.0000 0.0000 0.0000 0.0000 30.9002 0.0000
# 6 0.0000 0.0000 0.0000 0.0000 0.0000 31.6044
#
#
#
# Elastic Compliance Matrix: (Units=1/GPa)
#
#
# Indices 1 2 3 4 5 6 
#
# 1 0.017924 -0.000427 -0.000844 0.000000 0.000000 0.000000
# 2 -0.000427 0.007501 -0.003517 0.000000 0.000000 0.000000
# 3 -0.000844 -0.003517 0.008337 0.000000 0.000000 0.000000
# 4 0.000000 0.000000 0.000000 0.014421 0.000000 0.000000
# 5 0.000000 0.000000 0.000000 0.000000 0.032362 0.000000
# 6 0.000000 0.000000 0.000000 0.000000 0.000000 0.031641
#
#
# Mechanical properties :
#
#
# Convention : Reuss Voigt Hill
#
# Bulk Modulus (GPa) = 41.34844 61.02835 51.18840
# Shear Modulus (GPa) = 38.51352 45.50506 42.00929
#
# Velocity S-wave (km/s) = 3.91590 4.25652 4.08976
# Velocity P-wave (km/s) = 6.07526 6.96103 6.53317
#
# Compressibility (1/GPa) = 0.02418471
#
# Stress axis : x y z
#
# Youngs Moduli (GPa) = 55.79140 133.32176 119.94677
#
# Poissons Ratio (x) = 0.05696 0.10123
# Poissons Ratio (y) = 0.02384 0.42188
# Poissons Ratio (z) = 0.04708 0.46892
#
# Static dielectric constant tensor:
#      x y z
#    x 2.301620 0.000000 0.000000 
#    y 0.000000 2.086240 0.000000 
#    z 0.000000 0.000000 1.964130 
# 
# From -- ./inp_files/2578.got.cif
#   From: 2010.05.17/outbox.cif.g08.bks.cpg/sg37_2_cif.got.tgz:2578.got - 2010.06.03 17:53:42.
