data_PCOD9354374
_publ_section_title
;
Structure prediction by ZEFSAII (Michael W. Deem and Ramdas Pophale) SiO2 
 PCOD9354374
Probable space group: C C C 2
;
_chemical_formula_sum "Si O2"
_cell_formula_units_Z 56
_cell_length_a 29.922514
_cell_length_b 6.025493
_cell_length_c 14.733581
_cell_angle_alpha 90.000000
_cell_angle_beta 90.000000
_cell_angle_gamma 90.000000
_cell_volume 2656.433694
_symmetry_space_group_name_H-M "C C C 2"
_symmetry_group_IT_number 37
_symmetry_cell_setting 'orthorhombic'
loop_
_space_group_symop_operation_xyz
x,y,z
-x,-y,z
-x,y,1/2+z
x,-y,1/2+z
1/2+x,1/2+y,z
1/2-x,1/2-y,z
1/2-x,1/2+y,1/2+z
1/2+x,1/2-y,1/2+z
loop_
_atom_site_type_symbol
_atom_site_label
_atom_site_fract_x
_atom_site_fract_y
_atom_site_fract_z
Si Si1 0.429733 0.653610 0.022780
Si Si2 0.073234 0.756793 0.386263
Si Si3 0.677128 0.012966 0.640455
Si Si4 0.106231 0.173147 0.707429
Si Si5 0.000000 0.500000 0.492333
Si Si6 0.250000 0.250000 0.747495
Si Si7 0.349446 0.051583 0.442843
Si Si8 0.815406 0.123564 0.785931
O O1 0.411771 0.554756 0.117333
O O2 0.436349 0.475065 0.944485
O O3 0.388257 0.795257 0.984706
O O4 0.473705 0.801940 0.043051
O O5 0.067775 0.780760 0.279444
O O6 0.123224 0.656744 0.402327
O O7 0.038584 0.587835 0.427872
O O8 0.630258 0.902795 0.675200
O O9 0.712363 0.842079 0.681171
O O10 0.678032 0.023811 0.531675
O O11 0.689263 0.238454 0.692383
O O12 0.140653 0.020732 0.763679
O O13 0.274222 0.452397 0.801078
O O14 0.324099 0.197829 0.366475
#
# Coordination Sequence:
#
# PCOD9354374 Si02
#       8
#     8   8   8   8   4   4   8   8
#     4  10  21  40  59  90 125 163 207 267 317 391
#     4  11  20  40  61  94 120 164 208 271 313 386
#     4  10  21  41  60  90 127 165 209 268 313 392
#     4  10  21  36  67  89 118 163 215 258 323 375
#     4  10  24  38  58  86 134 164 208 260 324 382
#     4  10  24  40  60  90 138 168 206 266 332 380
#     4  10  21  37  68  92 119 164 220 261 324 383
#     4  11  20  41  66  96 127 168 215 272 320 398
#
# _framework density 21.080897
#
# number of rings (size 3 to 8) (size 9 to 14) (size 15 to 20)
#    0.000    1.714    2.857    1.714    0.000    0.571 
#    2.571    2.857    0.000    0.000    0.000    0.000 
#    0.000    0.000    0.000    0.000    0.000    0.000 
#
# Total GULP energy -156088.524819 kJ/mol
# GULP energy per Si atom -5574.590172 kJ/mol
# Density = 2.103292 g / cm^3
# Si number density = 21.080897 Si / 1000 Ang^3
#
#
#
# Elastic Constant Matrix: (Units=GPa)
#
#
# Indices 1 2 3 4 5 6 
#
# 1 64.5282 18.3781 29.9657 0.0000 0.0000 0.0000
# 2 18.3781 75.3441 33.3431 0.0000 0.0000 0.0000
# 3 29.9657 33.3431 121.9336 0.0000 0.0000 0.0000
# 4 0.0000 0.0000 0.0000 18.0184 0.0000 0.0000
# 5 0.0000 0.0000 0.0000 0.0000 -185.8201 0.0000
# 6 0.0000 0.0000 0.0000 0.0000 0.0000 36.1975
#
#
#
# Elastic Compliance Matrix: (Units=1/GPa)
#
#
# Indices 1 2 3 4 5 6 
#
# 1 0.017986 -0.002766 -0.003664 0.000000 0.000000 0.000000
# 2 -0.002766 0.015525 -0.003566 0.000000 0.000000 0.000000
# 3 -0.003664 -0.003566 0.010077 0.000000 0.000000 0.000000
# 4 0.000000 0.000000 0.000000 0.055499 0.000000 0.000000
# 5 0.000000 0.000000 0.000000 0.000000 -0.005382 0.000000
# 6 0.000000 0.000000 0.000000 0.000000 0.000000 0.027626
#
#
# Mechanical properties :
#
#
# Convention : Reuss Voigt Hill
#
# Bulk Modulus (GPa) = 42.37782 47.24216 44.80999
# Shear Modulus (GPa) = 33.51479 -14.31290 9.60094
#
# Velocity S-wave (km/s) = 3.99158 -2.60850 2.13640
# Velocity P-wave (km/s) = 6.43348 3.65872 5.23335
#
# Compressibility (1/GPa) = 0.02359725
#
# Stress axis : x y z
#
# Youngs Moduli (GPa) = 55.59799 64.41204 99.23947
#
# Poissons Ratio (x) = 0.17815 0.36360
# Poissons Ratio (y) = 0.15377 0.35385
# Poissons Ratio (z) = 0.20370 0.22967
#
# Static dielectric constant tensor:
#      x y z
#    x 2.489400 0.000000 0.000000 
#    y 0.000000 1.850210 0.000000 
#    z 0.000000 0.000000 1.739220 
# 
# From -- ./inp_files/9925.got.cif
#   From: 2010.05.17/outbox.cif.g08.bks.cpg/sg37_5_cif.got.tgz:9925.got - 2010.06.03 17:53:42.
