data_PCOD9354845
_publ_section_title
;
Structure prediction by ZEFSAII (Michael W. Deem and Ramdas Pophale) SiO2 
 PCOD9354845
Probable space group: C C C 2
;
_chemical_formula_sum "Si O2"
_cell_formula_units_Z 48
_cell_length_a 11.396852
_cell_length_b 13.235426
_cell_length_c 13.979774
_cell_angle_alpha 90.000000
_cell_angle_beta 90.000000
_cell_angle_gamma 90.000000
_cell_volume 2108.739744
_symmetry_space_group_name_H-M "C C C 2"
_symmetry_group_IT_number 37
_symmetry_cell_setting 'orthorhombic'
loop_
_space_group_symop_operation_xyz
x,y,z
-x,-y,z
-x,y,1/2+z
x,-y,1/2+z
1/2+x,1/2+y,z
1/2-x,1/2-y,z
1/2-x,1/2+y,1/2+z
1/2+x,1/2-y,1/2+z
loop_
_atom_site_type_symbol
_atom_site_label
_atom_site_fract_x
_atom_site_fract_y
_atom_site_fract_z
Si Si1 0.279022 0.583391 0.273290
Si Si2 0.873551 0.282549 0.686514
Si Si3 0.925726 0.274787 0.328336
Si Si4 0.973094 0.838689 0.015547
Si Si5 0.860029 0.491439 0.595943
Si Si6 0.681101 0.530600 0.451130
O O1 0.173828 0.641188 0.326585
O O2 0.378104 0.671033 0.276720
O O3 0.221061 0.550288 0.173659
O O4 0.318821 0.487575 0.337029
O O5 0.750000 0.250000 0.729797
O O6 0.839622 0.374078 0.616773
O O7 0.962891 0.312449 0.769388
O O8 0.939549 0.201544 0.619362
O O9 0.951569 0.246344 0.436561
O O10 0.886600 0.931379 0.990763
O O11 0.103918 0.878576 0.993253
O O12 0.810601 0.528915 0.494907
O O13 0.000000 0.500000 0.606685
#
# Coordination Sequence:
#
# PCOD9354845 Si02
#       6
#     8   8   8   8   8   8
#     4  10  22  42  66  89 129 168 211 266 321 380
#     4  12  24  42  66  94 133 172 215 261 322 386
#     4  10  22  42  66  93 126 170 215 262 324 382
#     4  10  22  41  68  96 124 168 217 267 314 377
#     4  12  24  42  62  93 130 170 210 259 326 381
#     4  10  22  41  66  95 125 165 217 264 319 378
#
# _framework density 22.762409000000002
#
# number of rings (size 3 to 8) (size 9 to 14) (size 15 to 20)
#    0.000    1.333    3.333    2.000    4.667    0.667 
#    3.000    0.000    0.000    0.000    0.000    0.000 
#    0.000    0.000    0.000    0.000    0.000    0.000 
#
# Total GULP energy -134083.921898 kJ/mol
# GULP energy per Si atom -5586.830079 kJ/mol
# Density = 2.271060 g / cm^3
# Si number density = 22.762409 Si / 1000 Ang^3
#
#
#
# Elastic Constant Matrix: (Units=GPa)
#
#
# Indices 1 2 3 4 5 6 
#
# 1 105.1847 0.7427 21.4556 0.0000 0.0000 0.0000
# 2 0.7427 30.7870 -4.0053 0.0000 0.0000 0.0000
# 3 21.4556 -4.0053 58.7983 0.0000 0.0000 0.0000
# 4 0.0000 0.0000 0.0000 20.1676 0.0000 0.0000
# 5 0.0000 0.0000 0.0000 0.0000 29.2834 0.0000
# 6 0.0000 0.0000 0.0000 0.0000 0.0000 26.4948
#
#
#
# Elastic Compliance Matrix: (Units=1/GPa)
#
#
# Indices 1 2 3 4 5 6 
#
# 1 0.010288 -0.000743 -0.003805 0.000000 0.000000 0.000000
# 2 -0.000743 0.032825 0.002507 0.000000 0.000000 0.000000
# 3 -0.003805 0.002507 0.018566 0.000000 0.000000 0.000000
# 4 0.000000 0.000000 0.000000 0.049584 0.000000 0.000000
# 5 0.000000 0.000000 0.000000 0.000000 0.034149 0.000000
# 6 0.000000 0.000000 0.000000 0.000000 0.000000 0.037743
#
#
# Mechanical properties :
#
#
# Convention : Reuss Voigt Hill
#
# Bulk Modulus (GPa) = 17.36154 25.68399 21.52276
# Shear Modulus (GPa) = 24.22032 26.96096 25.59064
#
# Velocity S-wave (km/s) = 3.26552 3.44532 3.35662
# Velocity P-wave (km/s) = 4.67568 5.20912 4.94959
#
# Compressibility (1/GPa) = 0.05759858
#
# Stress axis : x y z
#
# Youngs Moduli (GPa) = 97.19626 30.46427 53.86047
#
# Poissons Ratio (x) = 0.02264 0.20493
# Poissons Ratio (y) = 0.07224 -0.13504
# Poissons Ratio (z) = 0.36982 -0.07638
#
# Static dielectric constant tensor:
#      x y z
#    x 1.890420 0.000000 0.000000 
#    y 0.000000 1.879120 0.000000 
#    z 0.000000 0.000000 1.833760 
# 
# From -- ./inp_files/11514.got.cif
#   From: 2010.05.17/outbox.cif.g08.bks.cpg/sg37_6_cif.got.tgz:11514.got - 2010.06.03 17:53:42.
