data_PCOD9354010
_publ_section_title
;
Structure prediction by ZEFSAII (Michael W. Deem and Ramdas Pophale) SiO2 
 PCOD9354010
Probable space group: C C C 2
;
_chemical_formula_sum "Si O2"
_cell_formula_units_Z 52
_cell_length_a 8.596862
_cell_length_b 17.192090
_cell_length_c 15.259593
_cell_angle_alpha 90.000000
_cell_angle_beta 90.000000
_cell_angle_gamma 90.000000
_cell_volume 2255.337711
_symmetry_space_group_name_H-M "C C C 2"
_symmetry_group_IT_number 37
_symmetry_cell_setting 'orthorhombic'
loop_
_space_group_symop_operation_xyz
x,y,z
-x,-y,z
-x,y,1/2+z
x,-y,1/2+z
1/2+x,1/2+y,z
1/2-x,1/2-y,z
1/2-x,1/2+y,1/2+z
1/2+x,1/2-y,1/2+z
loop_
_atom_site_type_symbol
_atom_site_label
_atom_site_fract_x
_atom_site_fract_y
_atom_site_fract_z
Si Si1 0.250000 0.250000 0.301420
Si Si2 0.504273 0.656673 0.904713
Si Si3 0.569161 0.899432 0.061710
Si Si4 0.250000 0.750000 0.517866
Si Si5 0.922966 0.400689 0.749990
Si Si6 0.282371 0.342828 0.554537
Si Si7 0.000000 0.500000 0.906357
Si Si8 0.221193 0.842663 0.252998
O O1 0.390711 0.282562 0.358043
O O2 0.179691 0.323558 0.252629
O O3 0.604238 0.620807 0.824646
O O4 0.630118 0.703133 0.959628
O O5 0.393821 0.620697 0.980310
O O6 0.651781 0.816192 0.065088
O O7 0.608589 0.938391 0.155008
O O8 0.385387 0.883016 0.054011
O O9 0.601148 0.946981 0.972940
O O10 0.897176 0.449503 0.838438
O O11 0.106355 0.379129 0.754755
O O12 0.250000 0.250000 0.539519
O O13 0.344927 0.349193 0.654091
O O14 0.250000 0.750000 0.269728
#
# Coordination Sequence:
#
# PCOD9354010 Si02
#       8
#     4   8   8   4   8   8   4   8
#     4  12  21  36  63 102 130 174 221 280 323 390
#     4  12  19  32  54  92 133 164 202 272 327 384
#     4  11  24  42  66  96 132 173 223 274 331 399
#     4  12  21  36  63 102 130 174 221 280 323 390
#     4  11  24  42  66  96 132 173 223 274 331 399
#     4  10  20  36  58  91 130 167 209 272 331 377
#     4  12  24  44  64 100 134 182 210 270 342 406
#     4  10  20  36  58  91 130 167 209 272 331 377
#
# _framework density 23.056415999999999
#
# number of rings (size 3 to 8) (size 9 to 14) (size 15 to 20)
#    0.000    0.923    4.615    3.692    0.000    1.231 
#    0.000    0.000    0.000   14.769    0.000   25.846 
#    0.000    0.000    0.000    0.000    0.000    0.000 
#
# Total GULP energy -145147.462917 kJ/mol
# GULP energy per Si atom -5582.594728 kJ/mol
# Density = 2.300394 g / cm^3
# Si number density = 23.056416 Si / 1000 Ang^3
#
#
#
# Elastic Constant Matrix: (Units=GPa)
#
#
# Indices 1 2 3 4 5 6 
#
# 1 72.3698 -7.2630 27.2155 0.0000 0.0000 0.0000
# 2 -7.2630 61.9229 36.5409 0.0000 0.0000 0.0000
# 3 27.2155 36.5409 201.0673 0.0000 0.0000 0.0000
# 4 0.0000 0.0000 0.0000 46.1051 0.0000 0.0000
# 5 0.0000 0.0000 0.0000 0.0000 18.7881 0.0000
# 6 0.0000 0.0000 0.0000 0.0000 0.0000 21.0832
#
#
#
# Elastic Compliance Matrix: (Units=1/GPa)
#
#
# Indices 1 2 3 4 5 6 
#
# 1 0.015154 0.003347 -0.002659 0.000000 0.000000 0.000000
# 2 0.003347 0.018828 -0.003875 0.000000 0.000000 0.000000
# 3 -0.002659 -0.003875 0.006038 0.000000 0.000000 0.000000
# 4 0.000000 0.000000 0.000000 0.021690 0.000000 0.000000
# 5 0.000000 0.000000 0.000000 0.000000 0.053225 0.000000
# 6 0.000000 0.000000 0.000000 0.000000 0.000000 0.047431
#
#
# Mechanical properties :
#
#
# Convention : Reuss Voigt Hill
#
# Bulk Modulus (GPa) = 29.72220 49.81629 39.76925
# Shear Modulus (GPa) = 27.78466 35.78637 31.78552
#
# Velocity S-wave (km/s) = 3.47518 3.94397 3.71698
# Velocity P-wave (km/s) = 5.38717 6.51099 5.97556
#
# Compressibility (1/GPa) = 0.03364488
#
# Stress axis : x y z
#
# Youngs Moduli (GPa) = 65.98969 53.11200 165.62900
#
# Poissons Ratio (x) = -0.17775 0.44047
# Poissons Ratio (y) = -0.22085 0.64177
# Poissons Ratio (z) = 0.17549 0.20579
#
# Static dielectric constant tensor:
#      x y z
#    x 1.866560 0.000000 0.000000 
#    y 0.000000 1.880300 0.000000 
#    z 0.000000 0.000000 1.928880 
# 
# From -- ./inp_files/10811.got.cif
#   From: 2010.05.17/outbox.cif.g08.bks.cpg/sg37_6_cif.got.tgz:10811.got - 2010.06.03 17:53:42.
