data_PCOD9354738
_publ_section_title
;
Structure prediction by ZEFSAII (Michael W. Deem and Ramdas Pophale) SiO2 
 PCOD9354738
Probable space group: C C C 2
;
_chemical_formula_sum "Si O2"
_cell_formula_units_Z 60
_cell_length_a 20.040368
_cell_length_b 9.237761
_cell_length_c 15.730328
_cell_angle_alpha 90.000000
_cell_angle_beta 90.000000
_cell_angle_gamma 90.000000
_cell_volume 2912.126206
_symmetry_space_group_name_H-M "C C C 2"
_symmetry_group_IT_number 37
_symmetry_cell_setting 'orthorhombic'
loop_
_space_group_symop_operation_xyz
x,y,z
-x,-y,z
-x,y,1/2+z
x,-y,1/2+z
1/2+x,1/2+y,z
1/2-x,1/2-y,z
1/2-x,1/2+y,1/2+z
1/2+x,1/2-y,1/2+z
loop_
_atom_site_type_symbol
_atom_site_label
_atom_site_fract_x
_atom_site_fract_y
_atom_site_fract_z
Si Si1 0.138271 0.793441 0.131050
Si Si2 0.598667 0.682963 0.927425
Si Si3 0.025825 0.334553 0.509994
Si Si4 0.799232 0.058632 0.974396
Si Si5 0.750000 0.750000 0.752506
Si Si6 0.073635 0.005951 0.258291
Si Si7 0.690830 0.948812 0.871462
Si Si8 0.624772 0.231043 0.853012
O O1 0.186212 0.709436 0.196197
O O2 0.118416 0.930134 0.188492
O O3 0.073976 0.717188 0.087700
O O4 0.185839 0.850269 0.057132
O O5 0.538079 0.733268 0.988089
O O6 0.650956 0.578361 0.974447
O O7 0.574324 0.589586 0.845673
O O8 0.637768 0.824198 0.892696
O O9 0.071897 0.315382 0.425828
O O10 0.000000 0.500000 0.519655
O O11 0.821606 0.163605 0.897653
O O12 0.724179 0.008022 0.957910
O O13 0.752671 0.883978 0.817821
O O14 0.092074 0.169125 0.282070
O O15 0.000000 0.000000 0.222712
O O16 0.657919 0.082893 0.824039
#
# Coordination Sequence:
#
# PCOD9354738 Si02
#       8
#     8   8   8   8   4   8   8   8
#     4  11  27  41  63  95 140 180 213 283 358 406
#     4  11  21  41  70  93 127 171 228 277 328 405
#     4  11  23  42  65 102 135 171 228 283 346 411
#     4  10  23  39  65  96 125 177 224 272 334 406
#     4  12  24  46  66  94 144 180 222 282 356 408
#     4  11  22  43  64  97 132 176 219 275 347 408
#     4  12  21  43  70  97 128 175 234 280 331 413
#     4  10  22  38  69  97 124 171 231 278 320 410
#
# _framework density 20.603503
#
# number of rings (size 3 to 8) (size 9 to 14) (size 15 to 20)
#    0.000    1.067    5.333    1.200    5.600    0.000 
#    2.400    3.333    0.000    0.000    0.000    0.000 
#    0.000    0.000    0.000    0.000    0.000    0.000 
#
# Total GULP energy -167450.501497 kJ/mol
# GULP energy per Si atom -5581.683383 kJ/mol
# Density = 2.055661 g / cm^3
# Si number density = 20.603503 Si / 1000 Ang^3
#
#
#
# Elastic Constant Matrix: (Units=GPa)
#
#
# Indices 1 2 3 4 5 6 
#
# 1 86.5932 41.5708 17.9787 0.0000 0.0000 0.0000
# 2 41.5708 134.8059 20.3586 0.0000 0.0000 0.0000
# 3 17.9787 20.3586 52.8104 0.0000 0.0000 0.0000
# 4 0.0000 0.0000 0.0000 6.2242 0.0000 0.0000
# 5 0.0000 0.0000 0.0000 0.0000 25.9281 0.0000
# 6 0.0000 0.0000 0.0000 0.0000 0.0000 44.0673
#
#
#
# Elastic Compliance Matrix: (Units=1/GPa)
#
#
# Indices 1 2 3 4 5 6 
#
# 1 0.014080 -0.003842 -0.003312 0.000000 0.000000 0.000000
# 2 -0.003842 0.008925 -0.002133 0.000000 0.000000 0.000000
# 3 -0.003312 -0.002133 0.020886 0.000000 0.000000 0.000000
# 4 0.000000 0.000000 0.000000 0.160662 0.000000 0.000000
# 5 0.000000 0.000000 0.000000 0.000000 0.038568 0.000000
# 6 0.000000 0.000000 0.000000 0.000000 0.000000 0.022693
#
#
# Mechanical properties :
#
#
# Convention : Reuss Voigt Hill
#
# Bulk Modulus (GPa) = 39.49937 48.22507 43.86222
# Shear Modulus (GPa) = 17.07495 28.19734 22.63614
#
# Velocity S-wave (km/s) = 2.88191 3.70343 3.31819
# Velocity P-wave (km/s) = 5.50333 6.46098 6.00129
#
# Compressibility (1/GPa) = 0.02531686
#
# Stress axis : x y z
#
# Youngs Moduli (GPa) = 71.02112 112.04659 47.88005
#
# Poissons Ratio (x) = 0.43046 0.15860
# Poissons Ratio (y) = 0.27285 0.10211
# Poissons Ratio (z) = 0.23526 0.23896
#
# Static dielectric constant tensor:
#      x y z
#    x 1.784450 0.000000 0.000000 
#    y 0.000000 1.738520 0.000000 
#    z 0.000000 0.000000 1.729680 
# 
# From -- ./inp_files/13144.got.cif
#   From: 2010.05.17/outbox.cif.g08.bks.cpg/sg37_7_cif.got.tgz:13144.got - 2010.06.03 17:53:42.
