data_PCOD9354150
_publ_section_title
;
Structure prediction by ZEFSAII (Michael W. Deem and Ramdas Pophale) SiO2 
 PCOD9354150
Probable space group: C C C 2
;
_chemical_formula_sum "Si O2"
_cell_formula_units_Z 40
_cell_length_a 11.274909
_cell_length_b 12.351544
_cell_length_c 14.354421
_cell_angle_alpha 90.000000
_cell_angle_beta 90.000000
_cell_angle_gamma 90.000000
_cell_volume 1999.033051
_symmetry_space_group_name_H-M "C C C 2"
_symmetry_group_IT_number 37
_symmetry_cell_setting 'orthorhombic'
loop_
_space_group_symop_operation_xyz
x,y,z
-x,-y,z
-x,y,1/2+z
x,-y,1/2+z
1/2+x,1/2+y,z
1/2-x,1/2-y,z
1/2-x,1/2+y,1/2+z
1/2+x,1/2-y,1/2+z
loop_
_atom_site_type_symbol
_atom_site_label
_atom_site_fract_x
_atom_site_fract_y
_atom_site_fract_z
Si Si1 0.998924 0.308087 0.442730
Si Si2 0.500000 0.000000 0.296917
Si Si3 0.250000 0.750000 0.885845
Si Si4 0.740554 0.454516 0.744786
Si Si5 0.110011 0.077469 0.890997
Si Si6 0.285230 0.875306 0.545110
O O1 0.932606 0.199838 0.407211
O O2 0.927037 0.364696 0.527510
O O3 0.994620 0.394704 0.360864
O O4 0.136390 0.275551 0.449845
O O5 0.623542 0.993359 0.244423
O O6 0.272418 0.648073 0.815844
O O7 0.654262 0.544778 0.788155
O O8 0.725881 0.420619 0.638388
O O9 0.224110 0.063870 0.958206
O O10 0.000000 0.000000 0.915934
O O11 0.250000 0.750000 0.543345
#
# Coordination Sequence:
#
# PCOD9354150 Si02
#       6
#     8   4   4   8   8   8
#     4  10  21  40  66  91 130 172 217 267 336 397
#     4  10  22  38  64  90 124 172 218 262 338 390
#     4  10  20  38  66  90 124 174 212 262 332 398
#     4  11  21  40  63  93 126 172 217 270 329 391
#     4  11  22  40  63  93 128 174 217 268 332 396
#     4  10  22  40  65  95 131 173 218 272 332 398
#
# _framework density 20.009672999999999
#
# number of rings (size 3 to 8) (size 9 to 14) (size 15 to 20)
#    0.000    1.600    5.000    0.000    0.000    1.600 
#    0.000    0.000    0.000    2.400    0.000    0.000 
#    0.000    0.000    0.000    0.000    0.000    0.000 
#
# Total GULP energy -111447.056633 kJ/mol
# GULP energy per Si atom -5572.352832 kJ/mol
# Density = 1.996413 g / cm^3
# Si number density = 20.009673 Si / 1000 Ang^3
#
#
#
# Elastic Constant Matrix: (Units=GPa)
#
#
# Indices 1 2 3 4 5 6 
#
# 1 105.2621 16.2528 35.6453 0.0000 0.0000 0.0000
# 2 16.2528 80.6894 18.0727 0.0000 0.0000 0.0000
# 3 35.6453 18.0727 79.2782 0.0000 0.0000 0.0000
# 4 0.0000 0.0000 0.0000 18.6867 0.0000 0.0000
# 5 0.0000 0.0000 0.0000 0.0000 82.2358 0.0000
# 6 0.0000 0.0000 0.0000 0.0000 0.0000 27.9917
#
#
#
# Elastic Compliance Matrix: (Units=1/GPa)
#
#
# Indices 1 2 3 4 5 6 
#
# 1 0.011316 -0.001201 -0.004814 0.000000 0.000000 0.000000
# 2 -0.001201 0.013188 -0.002466 0.000000 0.000000 0.000000
# 3 -0.004814 -0.002466 0.015341 0.000000 0.000000 0.000000
# 4 0.000000 0.000000 0.000000 0.053514 0.000000 0.000000
# 5 0.000000 0.000000 0.000000 0.000000 0.012160 0.000000
# 6 0.000000 0.000000 0.000000 0.000000 0.000000 0.035725
#
#
# Mechanical properties :
#
#
# Convention : Reuss Voigt Hill
#
# Bulk Modulus (GPa) = 43.70420 45.01905 44.36162
# Shear Modulus (GPa) = 30.15092 38.80011 34.47552
#
# Velocity S-wave (km/s) = 3.88599 4.40826 4.15534
# Velocity P-wave (km/s) = 6.48255 6.96117 6.72612
#
# Compressibility (1/GPa) = 0.02288110
#
# Stress axis : x y z
#
# Youngs Moduli (GPa) = 88.37260 75.82925 65.18680
#
# Poissons Ratio (x) = 0.09107 0.31381
# Poissons Ratio (y) = 0.10614 0.16077
# Poissons Ratio (z) = 0.42543 0.18702
#
# Static dielectric constant tensor:
#      x y z
#    x 1.724600 0.000000 0.000000 
#    y 0.000000 1.712630 0.000000 
#    z 0.000000 0.000000 1.678370 
# 
# From -- ./inp_files/7075.got.cif
#   From: 2010.05.17/outbox.cif.g08.bks.cpg/sg37_4_cif.got.tgz:7075.got - 2010.06.03 17:53:42.
