data_PCOD9354294
_publ_section_title
;
Structure prediction by ZEFSAII (Michael W. Deem and Ramdas Pophale) SiO2 
 PCOD9354294
Probable space group: C C C 2
;
_chemical_formula_sum "Si O2"
_cell_formula_units_Z 48
_cell_length_a 10.316131
_cell_length_b 11.955580
_cell_length_c 19.539045
_cell_angle_alpha 90.000000
_cell_angle_beta 90.000000
_cell_angle_gamma 90.000000
_cell_volume 2409.854552
_symmetry_space_group_name_H-M "C C C 2"
_symmetry_group_IT_number 37
_symmetry_cell_setting 'orthorhombic'
loop_
_space_group_symop_operation_xyz
x,y,z
-x,-y,z
-x,y,1/2+z
x,-y,1/2+z
1/2+x,1/2+y,z
1/2-x,1/2-y,z
1/2-x,1/2+y,1/2+z
1/2+x,1/2-y,1/2+z
loop_
_atom_site_type_symbol
_atom_site_label
_atom_site_fract_x
_atom_site_fract_y
_atom_site_fract_z
Si Si1 0.750000 0.250000 0.591060
Si Si2 0.781125 0.620968 0.575938
Si Si3 0.538558 0.160981 0.492344
Si Si4 0.752465 0.379859 0.812583
Si Si5 0.645864 0.455931 0.672913
Si Si6 0.589851 0.606007 0.451003
Si Si7 0.500000 0.000000 0.371597
O O1 0.659604 0.177338 0.541484
O O2 0.666257 0.335597 0.636622
O O3 0.750000 0.750000 0.594648
O O4 0.920942 0.615516 0.539757
O O5 0.749251 0.540032 0.638371
O O6 0.680251 0.589411 0.516532
O O7 0.490551 0.281387 0.464907
O O8 0.564630 0.086560 0.425475
O O9 0.750000 0.250000 0.791209
O O10 0.678704 0.445366 0.752846
O O11 0.678385 0.381514 0.884611
O O12 0.893403 0.433773 0.827285
O O13 0.500000 0.500000 0.661817
O O14 0.500000 0.500000 0.442415
#
# Coordination Sequence:
#
# PCOD9354294 Si02
#       7
#     4   8   8   8   8   8   4
#     4  12  26  42  72 104 140 180 230 296 354 422
#     4  10  20  42  71 101 138 179 228 297 350 413
#     4  11  23  40  70 107 137 174 234 297 356 413
#     4  12  25  49  68  99 145 192 230 297 357 419
#     4  12  26  48  70 100 143 189 235 281 360 433
#     4  11  21  41  71 101 137 182 231 291 353 412
#     4  12  24  44  72 100 138 176 244 288 354 422
#
# _framework density 19.918215
#
# number of rings (size 3 to 8) (size 9 to 14) (size 15 to 20)
#    0.000    0.667    4.167    5.500    2.333    1.333 
#    3.000    0.000    0.000    0.000    0.000    0.000 
#    0.000    0.000    0.000    0.000    0.000    0.000 
#
# Total GULP energy -134250.943401 kJ/mol
# GULP energy per Si atom -5593.789308 kJ/mol
# Density = 1.987288 g / cm^3
# Si number density = 19.918215 Si / 1000 Ang^3
#
#
#
# Elastic Constant Matrix: (Units=GPa)
#
#
# Indices 1 2 3 4 5 6 
#
# 1 81.3818 37.5938 13.8197 0.0000 0.0000 0.0000
# 2 37.5938 86.1694 19.9333 0.0000 0.0000 0.0000
# 3 13.8197 19.9333 76.3645 0.0000 0.0000 0.0000
# 4 0.0000 0.0000 0.0000 55.4832 0.0000 0.0000
# 5 0.0000 0.0000 0.0000 0.0000 21.0650 0.0000
# 6 0.0000 0.0000 0.0000 0.0000 0.0000 30.7746
#
#
#
# Elastic Compliance Matrix: (Units=1/GPa)
#
#
# Indices 1 2 3 4 5 6 
#
# 1 0.015476 -0.006496 -0.001105 0.000000 0.000000 0.000000
# 2 -0.006496 0.015078 -0.002760 0.000000 0.000000 0.000000
# 3 -0.001105 -0.002760 0.014016 0.000000 0.000000 0.000000
# 4 0.000000 0.000000 0.000000 0.018023 0.000000 0.000000
# 5 0.000000 0.000000 0.000000 0.000000 0.047472 0.000000
# 6 0.000000 0.000000 0.000000 0.000000 0.000000 0.032494
#
#
# Mechanical properties :
#
#
# Convention : Reuss Voigt Hill
#
# Bulk Modulus (GPa) = 41.93451 42.95658 42.44555
# Shear Modulus (GPa) = 29.20025 32.96914 31.08470
#
# Velocity S-wave (km/s) = 3.83300 4.07286 3.95475
# Velocity P-wave (km/s) = 6.37873 6.61293 6.49689
#
# Compressibility (1/GPa) = 0.02384671
#
# Stress axis : x y z
#
# Youngs Moduli (GPa) = 64.61466 66.32293 71.34951
#
# Poissons Ratio (x) = 0.43086 0.07884
# Poissons Ratio (y) = 0.41976 0.19693
# Poissons Ratio (z) = 0.07140 0.18306
#
# Static dielectric constant tensor:
#      x y z
#    x 1.687360 0.000000 0.000000 
#    y 0.000000 1.705790 0.000000 
#    z 0.000000 0.000000 1.653820 
# 
# From -- ./inp_files/15013.got.cif
#   From: 2010.05.17/outbox.cif.g08.bks.cpg/sg37_8_cif.got.tgz:15013.got - 2010.06.03 17:53:42.
