data_PCOD9354123
_publ_section_title
;
Structure prediction by ZEFSAII (Michael W. Deem and Ramdas Pophale) SiO2 
 PCOD9354123
Probable space group: C C C 2
;
_chemical_formula_sum "Si O2"
_cell_formula_units_Z 48
_cell_length_a 8.290838
_cell_length_b 25.973670
_cell_length_c 9.208928
_cell_angle_alpha 90.000000
_cell_angle_beta 90.000000
_cell_angle_gamma 90.000000
_cell_volume 1983.082697
_symmetry_space_group_name_H-M "C C C 2"
_symmetry_group_IT_number 37
_symmetry_cell_setting 'orthorhombic'
loop_
_space_group_symop_operation_xyz
x,y,z
-x,-y,z
-x,y,1/2+z
x,-y,1/2+z
1/2+x,1/2+y,z
1/2-x,1/2-y,z
1/2-x,1/2+y,1/2+z
1/2+x,1/2-y,1/2+z
loop_
_atom_site_type_symbol
_atom_site_label
_atom_site_fract_x
_atom_site_fract_y
_atom_site_fract_z
Si Si1 0.367639 0.118922 0.824650
Si Si2 0.673120 0.471649 0.203828
Si Si3 0.094116 0.781320 0.155277
Si Si4 0.584920 0.822900 0.113376
Si Si5 0.831991 0.193118 0.860337
Si Si6 0.633076 0.961488 0.420818
O O1 0.218398 0.080241 0.795346
O O2 0.430291 0.146891 0.678742
O O3 0.523322 0.086016 0.876270
O O4 0.349966 0.157549 0.959907
O O5 0.500000 0.500000 0.207165
O O6 0.791840 0.513368 0.277341
O O7 0.727990 0.457504 0.040781
O O8 0.250000 0.750000 0.203014
O O9 0.968466 0.736879 0.100654
O O10 0.005735 0.806781 0.288055
O O11 0.138776 0.820361 0.026864
O O12 0.716025 0.831095 0.240593
O O13 0.750000 0.250000 0.877254
O O14 0.500000 0.000000 0.486465
#
# Coordination Sequence:
#
# PCOD9354123 Si02
#       6
#     8   8   8   8   8   8
#     4  11  22  40  66  98 127 176 218 285 336 402
#     4  11  23  41  66  97 130 171 221 276 338 413
#     4  10  20  38  62  90 125 175 221 260 321 398
#     4  11  22  40  66  98 135 165 228 278 332 386
#     4   9  20  37  60  89 125 176 221 261 310 401
#     4  10  21  40  67  90 122 177 225 255 328 424
#
# _framework density 24.204737999999999
#
# number of rings (size 3 to 8) (size 9 to 14) (size 15 to 20)
#    0.000    1.667    1.667    5.000    2.333    3.333 
#    0.000    5.000    0.000    0.000    0.000    0.000 
#    0.000    0.000    0.000    0.000    0.000    0.000 
#
# Total GULP energy -134038.999615 kJ/mol
# GULP energy per Si atom -5584.958317 kJ/mol
# Density = 2.414965 g / cm^3
# Si number density = 24.204738 Si / 1000 Ang^3
#
#
#
# Elastic Constant Matrix: (Units=GPa)
#
#
# Indices 1 2 3 4 5 6 
#
# 1 138.5832 17.6007 60.1570 0.0000 0.0000 0.0000
# 2 17.6007 55.2845 29.5613 0.0000 0.0000 0.0000
# 3 60.1570 29.5613 120.7959 0.0000 0.0000 0.0000
# 4 0.0000 0.0000 0.0000 13.0054 0.0000 0.0000
# 5 0.0000 0.0000 0.0000 0.0000 47.0092 0.0000
# 6 0.0000 0.0000 0.0000 0.0000 0.0000 38.7971
#
#
#
# Elastic Compliance Matrix: (Units=1/GPa)
#
#
# Indices 1 2 3 4 5 6 
#
# 1 0.009221 -0.000552 -0.004457 0.000000 0.000000 0.000000
# 2 -0.000552 0.020845 -0.004826 0.000000 0.000000 0.000000
# 3 -0.004457 -0.004826 0.011679 0.000000 0.000000 0.000000
# 4 0.000000 0.000000 0.000000 0.076891 0.000000 0.000000
# 5 0.000000 0.000000 0.000000 0.000000 0.021272 0.000000
# 6 0.000000 0.000000 0.000000 0.000000 0.000000 0.025775
#
#
# Mechanical properties :
#
#
# Convention : Reuss Voigt Hill
#
# Bulk Modulus (GPa) = 45.30248 58.81129 52.05688
# Shear Modulus (GPa) = 25.94556 33.58530 29.76543
#
# Velocity S-wave (km/s) = 3.27757 3.72903 3.51056
# Velocity P-wave (km/s) = 5.75155 6.54912 6.16325
#
# Compressibility (1/GPa) = 0.02207385
#
# Stress axis : x y z
#
# Youngs Moduli (GPa) = 108.45216 47.97390 85.62431
#
# Poissons Ratio (x) = 0.02650 0.38160
# Poissons Ratio (y) = 0.05992 0.41322
# Poissons Ratio (z) = 0.48334 0.23152
#
# Static dielectric constant tensor:
#      x y z
#    x 1.954220 0.000000 0.000000 
#    y 0.000000 2.034480 0.000000 
#    z 0.000000 0.000000 1.900750 
# 
# From -- ./inp_files/2421.got.cif
#   From: 2010.05.17/outbox.cif.g08.bks.cpg/sg37_2_cif.got.tgz:2421.got - 2010.06.03 17:53:42.
