data_PCOD9354865
_publ_section_title
;
Structure prediction by ZEFSAII (Michael W. Deem and Ramdas Pophale) SiO2 
 PCOD9354865
Probable space group: C C C 2
;
_chemical_formula_sum "Si O2"
_cell_formula_units_Z 40
_cell_length_a 5.280942
_cell_length_b 12.864077
_cell_length_c 26.426583
_cell_angle_alpha 90.000000
_cell_angle_beta 90.000000
_cell_angle_gamma 90.000000
_cell_volume 1795.275237
_symmetry_space_group_name_H-M "C C C 2"
_symmetry_group_IT_number 37
_symmetry_cell_setting 'orthorhombic'
loop_
_space_group_symop_operation_xyz
x,y,z
-x,-y,z
-x,y,1/2+z
x,-y,1/2+z
1/2+x,1/2+y,z
1/2-x,1/2-y,z
1/2-x,1/2+y,1/2+z
1/2+x,1/2-y,1/2+z
loop_
_atom_site_type_symbol
_atom_site_label
_atom_site_fract_x
_atom_site_fract_y
_atom_site_fract_z
Si Si1 0.254356 0.427550 0.556190
Si Si2 0.750000 0.750000 0.474883
Si Si3 0.593880 0.846851 0.897450
Si Si4 0.250000 0.750000 0.704880
Si Si5 0.144620 0.392092 0.297656
Si Si6 0.750000 0.750000 0.638171
Si Si7 0.000000 0.000000 0.369355
O O1 0.500000 0.500000 0.564060
O O2 0.339000 0.339648 0.514708
O O3 0.201262 0.353252 0.604496
O O4 0.000000 0.500000 0.545473
O O5 0.639183 0.834071 0.434393
O O6 0.750000 0.750000 0.917274
O O7 0.520567 0.830379 0.838967
O O8 0.768508 0.948681 0.899227
O O9 0.197402 0.657323 0.744322
O O10 0.499297 0.732389 0.671691
O O11 0.392946 0.414177 0.330926
O O12 0.000000 0.500000 0.290773
#
# Coordination Sequence:
#
# PCOD9354865 Si02
#       7
#     8   4   8   4   8   4   4
#     4  11  27  53  78 104 145 184 234 312 380 441
#     4  11  27  44  72 110 138 188 251 295 366 434
#     4  11  23  42  65  98 147 188 237 290 344 425
#     4  12  25  44  75 106 139 184 241 300 350 434
#     4  10  24  41  64 100 144 195 231 286 345 420
#     4  11  28  48  77 108 139 182 242 303 378 438
#     4  10  22  42  64  92 150 194 238 282 352 412
#
# _framework density 22.280705999999999
#
# number of rings (size 3 to 8) (size 9 to 14) (size 15 to 20)
#    0.000    1.200    0.000    4.200    9.800    8.000 
#    1.800    0.000    0.000    0.000    0.000    0.000 
#    0.000    0.000    0.000    0.000    0.000    0.000 
#
# Total GULP energy -111410.024716 kJ/mol
# GULP energy per Si atom -5570.501236 kJ/mol
# Density = 2.222999 g / cm^3
# Si number density = 22.280706 Si / 1000 Ang^3
#
#
#
# Elastic Constant Matrix: (Units=GPa)
#
#
# Indices 1 2 3 4 5 6 
#
# 1 108.9800 40.6093 36.5040 0.0000 0.0000 0.0000
# 2 40.6093 132.2134 51.2967 0.0000 0.0000 0.0000
# 3 36.5040 51.2967 121.1678 0.0000 0.0000 0.0000
# 4 0.0000 0.0000 0.0000 30.7068 0.0000 0.0000
# 5 0.0000 0.0000 0.0000 0.0000 -55.2927 0.0000
# 6 0.0000 0.0000 0.0000 0.0000 0.0000 26.0328
#
#
#
# Elastic Compliance Matrix: (Units=1/GPa)
#
#
# Indices 1 2 3 4 5 6 
#
# 1 0.010839 -0.002468 -0.002221 0.000000 0.000000 0.000000
# 2 -0.002468 0.009612 -0.003326 0.000000 0.000000 0.000000
# 3 -0.002221 -0.003326 0.010330 0.000000 0.000000 0.000000
# 4 0.000000 0.000000 0.000000 0.032566 0.000000 0.000000
# 5 0.000000 0.000000 0.000000 0.000000 -0.018086 0.000000
# 6 0.000000 0.000000 0.000000 0.000000 0.000000 0.038413
#
#
# Mechanical properties :
#
#
# Convention : Reuss Voigt Hill
#
# Bulk Modulus (GPa) = 67.78420 68.79793 68.29107
# Shear Modulus (GPa) = 47.79155 15.88613 31.83884
#
# Velocity S-wave (km/s) = 4.63641 2.67310 3.78430
# Velocity P-wave (km/s) = 7.69094 6.36177 7.05772
#
# Compressibility (1/GPa) = 0.01475270
#
# Stress axis : x y z
#
# Youngs Moduli (GPa) = 92.25580 104.03859 96.80473
#
# Poissons Ratio (x) = 0.25673 0.21499
# Poissons Ratio (y) = 0.22766 0.32195
# Poissons Ratio (z) = 0.20489 0.34601
#
# Static dielectric constant tensor:
#      x y z
#    x 2.003350 0.000000 0.000000 
#    y 0.000000 1.862870 0.000000 
#    z 0.000000 0.000000 1.774780 
# 
# From -- ./inp_files/17917.got.cif
#   From: 2010.05.17/outbox.cif.g08.bks.cpg/sg37_9_cif.got.tgz:17917.got - 2010.06.03 17:53:42.
