data_PCOD9354226
_publ_section_title
;
Structure prediction by ZEFSAII (Michael W. Deem and Ramdas Pophale) SiO2 
 PCOD9354226
Probable space group: C C C 2
;
_chemical_formula_sum "Si O2"
_cell_formula_units_Z 56
_cell_length_a 21.215192
_cell_length_b 12.883529
_cell_length_c 10.143064
_cell_angle_alpha 90.000000
_cell_angle_beta 90.000000
_cell_angle_gamma 90.000000
_cell_volume 2772.368602
_symmetry_space_group_name_H-M "C C C 2"
_symmetry_group_IT_number 37
_symmetry_cell_setting 'orthorhombic'
loop_
_space_group_symop_operation_xyz
x,y,z
-x,-y,z
-x,y,1/2+z
x,-y,1/2+z
1/2+x,1/2+y,z
1/2-x,1/2-y,z
1/2-x,1/2+y,1/2+z
1/2+x,1/2-y,1/2+z
loop_
_atom_site_type_symbol
_atom_site_label
_atom_site_fract_x
_atom_site_fract_y
_atom_site_fract_z
Si Si1 0.632814 0.983541 0.221690
Si Si2 0.761897 0.638271 0.678347
Si Si3 0.560027 0.307203 0.432366
Si Si4 0.156368 0.022828 0.813650
Si Si5 0.233259 0.636554 0.874346
Si Si6 0.537166 0.603203 0.217229
Si Si7 0.062308 0.441374 0.957848
O O1 0.675366 0.894522 0.283495
O O2 0.679180 0.081280 0.241357
O O3 0.575987 0.001509 0.320328
O O4 0.613907 0.963367 0.071782
O O5 0.750000 0.750000 0.739252
O O6 0.696542 0.576186 0.696090
O O7 0.782495 0.649533 0.527507
O O8 0.619666 0.382908 0.390585
O O9 0.504014 0.343111 0.332519
O O10 0.545509 0.330645 0.585507
O O11 0.563369 0.181935 0.427757
O O12 0.211526 0.950650 0.875615
O O13 0.103047 0.941347 0.770658
O O14 0.250000 0.750000 0.824358
O O15 0.500000 0.500000 0.174306
O O16 0.000000 0.500000 0.009895
#
# Coordination Sequence:
#
# PCOD9354226 Si02
#       7
#     8   8   8   8   8   8   8
#     4  11  24  47  64  99 133 172 221 287 323 415
#     4  10  20  40  66  96 132 171 216 264 336 397
#     4  11  25  42  66 100 130 184 223 284 340 395
#     4  10  21  39  67  96 135 172 221 277 327 402
#     4  10  22  39  66 100 132 175 211 269 337 400
#     4  10  22  42  65  97 135 169 227 277 333 404
#     4  12  28  45  69  92 135 177 235 278 344 401
#
# _framework density 20.199332999999999
#
# number of rings (size 3 to 8) (size 9 to 14) (size 15 to 20)
#    0.000    1.429    1.429    3.429    6.000    1.143 
#    0.000    0.714    0.000    0.000    0.000    0.000 
#    0.000    0.000    0.000    0.000    0.000    0.000 
#
# Total GULP energy -155962.846894 kJ/mol
# GULP energy per Si atom -5570.101675 kJ/mol
# Density = 2.015336 g / cm^3
# Si number density = 20.199333 Si / 1000 Ang^3
#
#
#
# Elastic Constant Matrix: (Units=GPa)
#
#
# Indices 1 2 3 4 5 6 
#
# 1 78.7043 30.6432 9.8939 0.0000 0.0000 0.0000
# 2 30.6432 120.2104 20.0927 0.0000 0.0000 0.0000
# 3 9.8939 20.0927 61.1936 0.0000 0.0000 0.0000
# 4 0.0000 0.0000 0.0000-1072.1518 0.0000 0.0000
# 5 0.0000 0.0000 0.0000 0.0000 2.6303 0.0000
# 6 0.0000 0.0000 0.0000 0.0000 0.0000 13.4489
#
#
#
# Elastic Compliance Matrix: (Units=1/GPa)
#
#
# Indices 1 2 3 4 5 6 
#
# 1 0.014185 -0.003420 -0.001170 0.000000 0.000000 0.000000
# 2 -0.003420 0.009626 -0.002608 0.000000 0.000000 0.000000
# 3 -0.001170 -0.002608 0.017387 0.000000 0.000000 0.000000
# 4 0.000000 0.000000 0.000000 -0.000933 0.000000 0.000000
# 5 0.000000 0.000000 0.000000 0.000000 0.380189 0.000000
# 6 0.000000 0.000000 0.000000 0.000000 0.000000 0.074356
#
#
# Mechanical properties :
#
#
# Convention : Reuss Voigt Hill
#
# Bulk Modulus (GPa) = 37.31165 42.37422 39.84293
# Shear Modulus (GPa) = 9.64989 -197.91597 -94.13304
#
# Velocity S-wave (km/s) = 2.18808 -9.90930 -6.83398
# Velocity P-wave (km/s) = 4.98953 10.48341 6.51945
#
# Compressibility (1/GPa) = 0.02680128
#
# Stress axis : x y z
#
# Youngs Moduli (GPa) = 70.49920 103.87997 57.51401
#
# Poissons Ratio (x) = 0.35529 0.06731
# Poissons Ratio (y) = 0.24112 0.14999
# Poissons Ratio (z) = 0.08251 0.27090
#
# Static dielectric constant tensor:
#      x y z
#    x 1.743980 0.000000 0.000000 
#    y 0.000000 5.944210 0.000000 
#    z 0.000000 0.000000 1.683700 
# 
# From -- ./inp_files/8594.got.cif
#   From: 2010.05.17/outbox.cif.g08.bks.cpg/sg37_5_cif.got.tgz:8594.got - 2010.06.03 17:53:42.
