data_PCOD9354718
_publ_section_title
;
Structure prediction by ZEFSAII (Michael W. Deem and Ramdas Pophale) SiO2 
 PCOD9354718
Probable space group: C C C 2
;
_chemical_formula_sum "Si O2"
_cell_formula_units_Z 48
_cell_length_a 18.732195
_cell_length_b 7.562841
_cell_length_c 14.949103
_cell_angle_alpha 90.000000
_cell_angle_beta 90.000000
_cell_angle_gamma 90.000000
_cell_volume 2117.818678
_symmetry_space_group_name_H-M "C C C 2"
_symmetry_group_IT_number 37
_symmetry_cell_setting 'orthorhombic'
loop_
_space_group_symop_operation_xyz
x,y,z
-x,-y,z
-x,y,1/2+z
x,-y,1/2+z
1/2+x,1/2+y,z
1/2-x,1/2-y,z
1/2-x,1/2+y,1/2+z
1/2+x,1/2-y,1/2+z
loop_
_atom_site_type_symbol
_atom_site_label
_atom_site_fract_x
_atom_site_fract_y
_atom_site_fract_z
Si Si1 0.468553 0.814529 0.024120
Si Si2 0.005850 0.214223 0.824066
Si Si3 0.250000 0.750000 0.099291
Si Si4 0.750000 0.250000 0.381044
Si Si5 0.918921 0.777927 0.159397
Si Si6 0.852360 0.866125 0.740349
Si Si7 0.669708 0.967442 0.025486
O O1 0.510150 0.692621 0.096301
O O2 0.500000 0.000000 0.055826
O O3 0.385792 0.869004 0.010398
O O4 0.496643 0.772144 0.925407
O O5 0.083805 0.241731 0.784745
O O6 0.949532 0.294532 0.753862
O O7 0.000000 0.000000 0.823340
O O8 0.182649 0.749276 0.164110
O O9 0.243605 0.567401 0.047567
O O10 0.791848 0.112344 0.316444
O O11 0.690506 0.155168 0.442155
O O12 0.864068 0.656698 0.102979
O O13 0.879981 0.957237 0.191782
#
# Coordination Sequence:
#
# PCOD9354718 Si02
#       7
#     8   8   4   4   8   8   8
#     4  10  22  39  64  94 126 165 216 282 341 401
#     4  10  22  38  63  94 123 162 217 282 343 401
#     4  11  24  38  60  89 126 174 220 269 330 427
#     4  11  24  44  66  95 142 184 230 291 350 443
#     4  10  22  42  67  93 128 176 230 291 350 406
#     4  10  22  41  62  92 130 173 225 278 348 421
#     4  11  24  42  65  97 136 183 232 282 350 416
#
# _framework density 22.664829999999998
#
# number of rings (size 3 to 8) (size 9 to 14) (size 15 to 20)
#    0.000    1.667    0.000    4.000    0.000   12.000 
#    0.000    1.667    0.000    0.000    0.000    0.000 
#    0.000    0.000    0.000    0.000    0.000    0.000 
#
# Total GULP energy -133742.025907 kJ/mol
# GULP energy per Si atom -5572.584413 kJ/mol
# Density = 2.261324 g / cm^3
# Si number density = 22.664830 Si / 1000 Ang^3
#
#
#
# Elastic Constant Matrix: (Units=GPa)
#
#
# Indices 1 2 3 4 5 6 
#
# 1 83.0682 33.3014 45.8356 0.0000 0.0000 0.0000
# 2 33.3014 85.5589 57.4566 0.0000 0.0000 0.0000
# 3 45.8356 57.4566 128.1429 0.0000 0.0000 0.0000
# 4 0.0000 0.0000 0.0000 9.1300 0.0000 0.0000
# 5 0.0000 0.0000 0.0000 0.0000 53.9076 0.0000
# 6 0.0000 0.0000 0.0000 0.0000 0.0000 38.8964
#
#
#
# Elastic Compliance Matrix: (Units=1/GPa)
#
#
# Indices 1 2 3 4 5 6 
#
# 1 0.015636 -0.003334 -0.004098 0.000000 0.000000 0.000000
# 2 -0.003334 0.017434 -0.006625 0.000000 0.000000 0.000000
# 3 -0.004098 -0.006625 0.012240 0.000000 0.000000 0.000000
# 4 0.000000 0.000000 0.000000 0.109529 0.000000 0.000000
# 5 0.000000 0.000000 0.000000 0.000000 0.018550 0.000000
# 6 0.000000 0.000000 0.000000 0.000000 0.000000 0.025709
#
#
# Mechanical properties :
#
#
# Convention : Reuss Voigt Hill
#
# Bulk Modulus (GPa) = 58.14924 63.32856 60.73890
# Shear Modulus (GPa) = 21.46433 31.06522 26.26478
#
# Velocity S-wave (km/s) = 3.08073 3.70623 3.40786
# Velocity P-wave (km/s) = 6.19406 6.80565 6.50704
#
# Compressibility (1/GPa) = 0.01719713
#
# Stress axis : x y z
#
# Youngs Moduli (GPa) = 63.95478 57.35854 81.69957
#
# Poissons Ratio (x) = 0.19123 0.33481
# Poissons Ratio (y) = 0.21322 0.54123
# Poissons Ratio (z) = 0.26209 0.37998
#
# Static dielectric constant tensor:
#      x y z
#    x 2.007590 0.000000 0.000000 
#    y 0.000000 1.895950 0.000000 
#    z 0.000000 0.000000 1.850680 
# 
# From -- ./inp_files/12578.got.cif
#   From: 2010.05.17/outbox.cif.g08.bks.cpg/sg37_7_cif.got.tgz:12578.got - 2010.06.03 17:53:42.
