data_PCOD9354923
_publ_section_title
;
Structure prediction by ZEFSAII (Michael W. Deem and Ramdas Pophale) SiO2 
 PCOD9354923
Probable space group: C C C 2
;
_chemical_formula_sum "Si O2"
_cell_formula_units_Z 56
_cell_length_a 15.057091
_cell_length_b 10.212898
_cell_length_c 16.223672
_cell_angle_alpha 90.000000
_cell_angle_beta 90.000000
_cell_angle_gamma 90.000000
_cell_volume 2494.820058
_symmetry_space_group_name_H-M "C C C 2"
_symmetry_group_IT_number 37
_symmetry_cell_setting 'orthorhombic'
loop_
_space_group_symop_operation_xyz
x,y,z
-x,-y,z
-x,y,1/2+z
x,-y,1/2+z
1/2+x,1/2+y,z
1/2-x,1/2-y,z
1/2-x,1/2+y,1/2+z
1/2+x,1/2-y,1/2+z
loop_
_atom_site_type_symbol
_atom_site_label
_atom_site_fract_x
_atom_site_fract_y
_atom_site_fract_z
Si Si1 0.348657 0.214442 0.570580
Si Si2 0.098910 0.889794 0.451253
Si Si3 0.500000 0.000000 0.690430
Si Si4 0.250000 0.750000 0.364108
Si Si5 0.479929 0.710379 0.622707
Si Si6 0.182312 0.560212 0.235730
Si Si7 0.419317 0.693136 0.911848
Si Si8 0.326352 0.344823 0.244485
O O1 0.250000 0.250000 0.543600
O O2 0.414258 0.319373 0.616797
O O3 0.327156 0.107217 0.640807
O O4 0.400018 0.200869 0.483339
O O5 0.194186 0.844158 0.422188
O O6 0.068573 0.835497 0.539741
O O7 0.023608 0.824465 0.391928
O O8 0.098090 0.046743 0.448408
O O9 0.488300 0.868191 0.635919
O O10 0.587516 0.007807 0.746756
O O11 0.186076 0.675451 0.301087
O O12 0.417454 0.653463 0.693512
O O13 0.272255 0.479664 0.248817
O O14 0.356022 0.706469 0.833915
O O15 0.250000 0.250000 0.207278
#
# Coordination Sequence:
#
# PCOD9354923 Si02
#       8
#     8   8   4   4   8   8   8   8
#     4  10  22  43  66  97 134 174 227 283 341 410
#     4  10  24  43  64  98 139 173 229 282 352 411
#     4  10  22  46  66  96 136 170 234 280 326 424
#     4  12  24  42  66 102 136 178 220 288 346 406
#     4  10  24  43  69  94 134 179 225 282 342 410
#     4  11  24  41  67 101 135 180 228 282 344 415
#     4  10  23  45  65  99 138 179 228 292 339 419
#     4  12  24  43  70 100 135 185 233 283 349 412
#
# _framework density 22.446508000000001
#
# number of rings (size 3 to 8) (size 9 to 14) (size 15 to 20)
#    0.000    1.429    3.571    0.429    7.000    0.000 
#    2.571    2.143    0.000    0.000    0.000    0.000 
#    0.000    0.000    0.000    0.000    0.000    0.000 
#
# Total GULP energy -155967.609807 kJ/mol
# GULP energy per Si atom -5570.271779 kJ/mol
# Density = 2.239542 g / cm^3
# Si number density = 22.446508 Si / 1000 Ang^3
#
#
#
# Elastic Constant Matrix: (Units=GPa)
#
#
# Indices 1 2 3 4 5 6 
#
# 1 103.3522 4.8797 40.4572 0.0000 0.0000 0.0000
# 2 4.8797 40.7987 7.1563 0.0000 0.0000 0.0000
# 3 40.4572 7.1563 69.7011 0.0000 0.0000 0.0000
# 4 0.0000 0.0000 0.0000 -18.3618 0.0000 0.0000
# 5 0.0000 0.0000 0.0000 0.0000 12.2335 0.0000
# 6 0.0000 0.0000 0.0000 0.0000 0.0000 30.0761
#
#
#
# Elastic Compliance Matrix: (Units=1/GPa)
#
#
# Indices 1 2 3 4 5 6 
#
# 1 0.012523 -0.000227 -0.007245 0.000000 0.000000 0.000000
# 2 -0.000227 0.024964 -0.002431 0.000000 0.000000 0.000000
# 3 -0.007245 -0.002431 0.018802 0.000000 0.000000 0.000000
# 4 0.000000 0.000000 0.000000 -0.054461 0.000000 0.000000
# 5 0.000000 0.000000 0.000000 0.000000 0.081743 0.000000
# 6 0.000000 0.000000 0.000000 0.000000 0.000000 0.033249
#
#
# Mechanical properties :
#
#
# Convention : Reuss Voigt Hill
#
# Bulk Modulus (GPa) = 27.41103 35.42649 31.41876
# Shear Modulus (GPa) = 33.60507 15.54681 24.57594
#
# Velocity S-wave (km/s) = 3.87346 2.63462 3.31247
# Velocity P-wave (km/s) = 5.67830 5.00718 5.35327
#
# Compressibility (1/GPa) = 0.03648167
#
# Stress axis : x y z
#
# Youngs Moduli (GPa) = 79.85608 40.05734 53.18574
#
# Poissons Ratio (x) = 0.00909 0.38534
# Poissons Ratio (y) = 0.01812 0.12932
# Poissons Ratio (z) = 0.57858 0.09739
#
# Static dielectric constant tensor:
#      x y z
#    x 1.949800 0.000000 0.000000 
#    y 0.000000 1.927090 0.000000 
#    z 0.000000 0.000000 1.836180 
# 
# From -- ./inp_files/12173.got.cif
#   From: 2010.05.17/outbox.cif.g08.bks.cpg/sg37_7_cif.got.tgz:12173.got - 2010.06.03 17:53:42.
