data_PCOD9354910
_publ_section_title
;
Structure prediction by ZEFSAII (Michael W. Deem and Ramdas Pophale) SiO2 
 PCOD9354910
Probable space group: C C C 2
;
_chemical_formula_sum "Si O2"
_cell_formula_units_Z 32
_cell_length_a 13.634983
_cell_length_b 5.027427
_cell_length_c 18.015699
_cell_angle_alpha 90.000000
_cell_angle_beta 90.000000
_cell_angle_gamma 90.000000
_cell_volume 1234.956019
_symmetry_space_group_name_H-M "C C C 2"
_symmetry_group_IT_number 37
_symmetry_cell_setting 'orthorhombic'
loop_
_space_group_symop_operation_xyz
x,y,z
-x,-y,z
-x,y,1/2+z
x,-y,1/2+z
1/2+x,1/2+y,z
1/2-x,1/2-y,z
1/2-x,1/2+y,1/2+z
1/2+x,1/2-y,1/2+z
loop_
_atom_site_type_symbol
_atom_site_label
_atom_site_fract_x
_atom_site_fract_y
_atom_site_fract_z
Si Si1 0.750000 0.750000 0.109630
Si Si2 0.114809 0.073139 0.900723
Si Si3 0.091391 0.633351 0.706614
Si Si4 0.250000 0.750000 0.012681
Si Si5 0.000000 0.500000 0.348859
Si Si6 0.250000 0.750000 0.276329
O O1 0.844945 0.834604 0.158773
O O2 0.786683 0.495799 0.063330
O O3 0.187494 0.058051 0.830354
O O4 0.091249 0.393891 0.896259
O O5 0.170511 0.912762 0.964035
O O6 0.000000 0.000000 0.905480
O O7 0.172277 0.416573 0.729861
O O8 0.000000 0.500000 0.664485
O O9 0.041193 0.705948 0.785812
#
# Coordination Sequence:
#
# PCOD9354910 Si02
#       6
#     4   8   8   4   4   4
#     4  12  27  51  72 109 155 220 266 306 390 500
#     4  11  26  44  76 111 154 200 258 334 410 475
#     4   9  22  43  76 109 149 194 255 336 398 467
#     4  12  31  47  76 107 165 218 268 312 390 504
#     4   8  22  48  72 118 142 190 262 352 418 452
#     4  10  22  42  78 116 152 178 262 328 420 458
#
# _framework density 25.911852
#
# number of rings (size 3 to 8) (size 9 to 14) (size 15 to 20)
#    0.750    1.000    0.000    1.500   14.000    2.000 
#    0.000    2.500    0.000    0.000    0.000    0.000 
#    0.000    0.000    0.000    0.000    0.000    0.000 
#
# Total GULP energy -89087.940019 kJ/mol
# GULP energy per Si atom -5567.996251 kJ/mol
# Density = 2.585288 g / cm^3
# Si number density = 25.911852 Si / 1000 Ang^3
#
#
#
# Elastic Constant Matrix: (Units=GPa)
#
#
# Indices 1 2 3 4 5 6 
#
# 1 198.9615 29.5805 56.4112 0.0000 0.0000 0.0000
# 2 29.5805 83.9728 47.4013 0.0000 0.0000 0.0000
# 3 56.4112 47.4013 100.6381 0.0000 0.0000 0.0000
# 4 0.0000 0.0000 0.0000 -0.9923 0.0000 0.0000
# 5 0.0000 0.0000 0.0000 0.0000 5.4983 0.0000
# 6 0.0000 0.0000 0.0000 0.0000 0.0000 70.7849
#
#
#
# Elastic Compliance Matrix: (Units=1/GPa)
#
#
# Indices 1 2 3 4 5 6 
#
# 1 0.005981 -0.000292 -0.003215 0.000000 0.000000 0.000000
# 2 -0.000292 0.016236 -0.007483 0.000000 0.000000 0.000000
# 3 -0.003215 -0.007483 0.015263 0.000000 0.000000 0.000000
# 4 0.000000 0.000000 0.000000 -1.007744 0.000000 0.000000
# 5 0.000000 0.000000 0.000000 0.000000 0.181873 0.000000
# 6 0.000000 0.000000 0.000000 0.000000 0.000000 0.014127
#
#
# Mechanical properties :
#
#
# Convention : Reuss Voigt Hill
#
# Bulk Modulus (GPa) = 64.51932 72.26203 68.39067
# Shear Modulus (GPa) = -6.69240 31.73683 12.52222
#
# Velocity S-wave (km/s) = -1.60884 3.50351 2.20071
# Velocity P-wave (km/s) = 4.63707 6.65690 5.73658
#
# Compressibility (1/GPa) = 0.01549923
#
# Stress axis : x y z
#
# Youngs Moduli (GPa) = 167.19412 61.59229 65.51581
#
# Poissons Ratio (x) = 0.01799 0.21064
# Poissons Ratio (y) = 0.04883 0.49028
# Poissons Ratio (z) = 0.53753 0.46092
#
# Static dielectric constant tensor:
#      x y z
#    x 2.132680 0.000000 0.000000 
#    y 0.000000 2.800880 0.000000 
#    z 0.000000 0.000000 2.132250 
# 
# From -- ./inp_files/17009.got.cif
#   From: 2010.05.17/outbox.cif.g08.bks.cpg/sg37_9_cif.got.tgz:17009.got - 2010.06.03 17:53:42.
