data_PCOD9354393
_publ_section_title
;
Structure prediction by ZEFSAII (Michael W. Deem and Ramdas Pophale) SiO2 
 PCOD9354393
Probable space group: C C C 2
;
_chemical_formula_sum "Si O2"
_cell_formula_units_Z 32
_cell_length_a 7.530453
_cell_length_b 32.474024
_cell_length_c 5.455388
_cell_angle_alpha 90.000000
_cell_angle_beta 90.000000
_cell_angle_gamma 90.000000
_cell_volume 1334.083011
_symmetry_space_group_name_H-M "C C C 2"
_symmetry_group_IT_number 37
_symmetry_cell_setting 'orthorhombic'
loop_
_space_group_symop_operation_xyz
x,y,z
-x,-y,z
-x,y,1/2+z
x,-y,1/2+z
1/2+x,1/2+y,z
1/2-x,1/2-y,z
1/2-x,1/2+y,1/2+z
1/2+x,1/2-y,1/2+z
loop_
_atom_site_type_symbol
_atom_site_label
_atom_site_fract_x
_atom_site_fract_y
_atom_site_fract_z
Si Si1 0.091558 0.587063 0.389200
Si Si2 0.549549 0.178110 0.866217
Si Si3 0.700704 0.516714 0.030571
Si Si4 0.890080 0.788137 0.270813
O O1 0.273993 0.564741 0.463607
O O2 0.963385 0.574467 0.614981
O O3 0.066202 0.636425 0.386918
O O4 0.469405 0.199777 0.627782
O O5 0.757228 0.173051 0.813391
O O6 0.500000 0.500000 0.049880
O O7 0.781061 0.493545 0.795098
O O8 0.750000 0.750000 0.289564
O O9 0.024440 0.788629 0.500496
#
# Coordination Sequence:
#
# PCOD9354393 Si02
#       4
#     8   8   8   8
#     4  10  21  37  64  88 118 172 212 259 331 393
#     4  10  21  41  67  92 133 177 221 268 333 397
#     4  10  21  37  60  90 124 156 213 274 326 385
#     4  12  24  41  69 104 139 176 224 272 326 389
#
# _framework density 23.986512999999999
#
# number of rings (size 3 to 8) (size 9 to 14) (size 15 to 20)
#    0.000    1.500    0.000    5.250    0.000    3.000 
#    0.000    0.000  132.000    0.000    0.000    0.000 
#    0.000    0.000    0.000    0.000    0.000    0.000 
#
# Total GULP energy -89145.699515 kJ/mol
# GULP energy per Si atom -5571.606220 kJ/mol
# Density = 2.393192 g / cm^3
# Si number density = 23.986513 Si / 1000 Ang^3
#
#
#
# Elastic Constant Matrix: (Units=GPa)
#
#
# Indices 1 2 3 4 5 6 
#
# 1 84.8101 26.6921 31.8631 0.0000 0.0000 0.0000
# 2 26.6921 75.4326 -1.3419 0.0000 0.0000 0.0000
# 3 31.8631 -1.3419 246.1487 0.0000 0.0000 0.0000
# 4 0.0000 0.0000 0.0000 21.1416 0.0000 0.0000
# 5 0.0000 0.0000 0.0000 0.0000 66.0376 0.0000
# 6 0.0000 0.0000 0.0000 0.0000 0.0000 42.8848
#
#
#
# Elastic Compliance Matrix: (Units=1/GPa)
#
#
# Indices 1 2 3 4 5 6 
#
# 1 0.014061 -0.005009 -0.001848 0.000000 0.000000 0.000000
# 2 -0.005009 0.015042 0.000730 0.000000 0.000000 0.000000
# 3 -0.001848 0.000730 0.004306 0.000000 0.000000 0.000000
# 4 0.000000 0.000000 0.000000 0.047300 0.000000 0.000000
# 5 0.000000 0.000000 0.000000 0.000000 0.015143 0.000000
# 6 0.000000 0.000000 0.000000 0.000000 0.000000 0.023318
#
#
# Mechanical properties :
#
#
# Convention : Reuss Voigt Hill
#
# Bulk Modulus (GPa) = 47.26373 57.86869 52.56621
# Shear Modulus (GPa) = 36.10767 49.29135 42.69951
#
# Velocity S-wave (km/s) = 3.88407 4.53809 4.22376
# Velocity P-wave (km/s) = 6.31362 7.18588 6.76382
#
# Compressibility (1/GPa) = 0.02115787
#
# Stress axis : x y z
#
# Youngs Moduli (GPa) = 71.11618 66.47979 232.24909
#
# Poissons Ratio (x) = 0.33297 0.42908
# Poissons Ratio (y) = 0.35619 -0.16962
# Poissons Ratio (z) = 0.13139 -0.04855
#
# Static dielectric constant tensor:
#      x y z
#    x 1.812640 0.000000 0.000000 
#    y 0.000000 2.088020 0.000000 
#    z 0.000000 0.000000 2.001820 
# 
# From -- ./inp_files/158.got.cif
#   From: 2010.05.17/outbox.cif.g08.bks.cpg/sg37_1_cif.got.tgz:158.got - 2010.06.03 17:53:42.
