data_PCOD9354008
_publ_section_title
;
Structure prediction by ZEFSAII (Michael W. Deem and Ramdas Pophale) SiO2 
 PCOD9354008
Probable space group: C C C 2
;
_chemical_formula_sum "Si O2"
_cell_formula_units_Z 56
_cell_length_a 10.122043
_cell_length_b 19.765908
_cell_length_c 11.914222
_cell_angle_alpha 90.000000
_cell_angle_beta 90.000000
_cell_angle_gamma 90.000000
_cell_volume 2383.694726
_symmetry_space_group_name_H-M "C C C 2"
_symmetry_group_IT_number 37
_symmetry_cell_setting 'orthorhombic'
loop_
_space_group_symop_operation_xyz
x,y,z
-x,-y,z
-x,y,1/2+z
x,-y,1/2+z
1/2+x,1/2+y,z
1/2-x,1/2-y,z
1/2-x,1/2+y,1/2+z
1/2+x,1/2-y,1/2+z
loop_
_atom_site_type_symbol
_atom_site_label
_atom_site_fract_x
_atom_site_fract_y
_atom_site_fract_z
Si Si1 0.582161 0.376077 0.950220
Si Si2 0.658286 0.798849 0.673215
Si Si3 0.198171 0.676677 0.782296
Si Si4 0.500000 0.000000 0.566978
Si Si5 0.268386 0.562128 0.166777
Si Si6 0.095621 0.638829 0.554938
Si Si7 0.554891 0.759004 0.894346
Si Si8 0.500000 0.500000 0.307091
O O1 0.698066 0.355749 0.865119
O O2 0.492810 0.308428 0.957097
O O3 0.505339 0.435154 0.887026
O O4 0.649256 0.407749 0.060502
O O5 0.750000 0.750000 0.598715
O O6 0.720591 0.867465 0.722594
O O7 0.536561 0.824238 0.600412
O O8 0.613864 0.747600 0.771027
O O9 0.250000 0.750000 0.743273
O O10 0.176437 0.632916 0.670346
O O11 0.068324 0.693126 0.855262
O O12 0.629904 0.973902 0.633794
O O13 0.444399 0.933598 0.504987
O O14 0.368927 0.513556 0.232589
O O15 0.148927 0.692369 0.466580
#
# Coordination Sequence:
#
# PCOD9354008 Si02
#       8
#     8   8   8   4   8   8   8   4
#     4  11  23  42  66  94 133 181 228 282 349 422
#     4  10  20  37  60  89 122 165 222 280 341 411
#     4   9  19  36  58  86 119 162 214 269 328 399
#     4  10  22  40  64  94 126 174 226 276 340 414
#     4  11  24  43  68  96 137 185 232 290 356 424
#     4  10  20  36  58  87 123 162 215 279 338 393
#     4  10  21  37  61  91 124 167 222 282 345 410
#     4  12  26  44  66  98 138 182 234 290 356 432
#
# _framework density 23.492940999999998
#
# number of rings (size 3 to 8) (size 9 to 14) (size 15 to 20)
#    0.000    1.714    0.000    4.714    0.000    5.143 
#    0.000   15.000    0.000    0.000    0.000    0.000 
#    0.000    0.000    0.000    0.000    0.000    0.000 
#
# Total GULP energy -156296.802775 kJ/mol
# GULP energy per Si atom -5582.028671 kJ/mol
# Density = 2.343947 g / cm^3
# Si number density = 23.492941 Si / 1000 Ang^3
#
#
#
# Elastic Constant Matrix: (Units=GPa)
#
#
# Indices 1 2 3 4 5 6 
#
# 1 59.4740 10.8288 2.4990 0.0000 0.0000 0.0000
# 2 10.8288 131.0887 28.9620 0.0000 0.0000 0.0000
# 3 2.4990 28.9620 78.3421 0.0000 0.0000 0.0000
# 4 0.0000 0.0000 0.0000 27.8913 0.0000 0.0000
# 5 0.0000 0.0000 0.0000 0.0000 -7.2145 0.0000
# 6 0.0000 0.0000 0.0000 0.0000 0.0000 44.2330
#
#
#
# Elastic Compliance Matrix: (Units=1/GPa)
#
#
# Indices 1 2 3 4 5 6 
#
# 1 0.017071 -0.001405 -0.000025 0.000000 0.000000 0.000000
# 2 -0.001405 0.008422 -0.003069 0.000000 0.000000 0.000000
# 3 -0.000025 -0.003069 0.013900 0.000000 0.000000 0.000000
# 4 0.000000 0.000000 0.000000 0.035854 0.000000 0.000000
# 5 0.000000 0.000000 0.000000 0.000000 -0.138611 0.000000
# 6 0.000000 0.000000 0.000000 0.000000 0.000000 0.022608
#
#
# Mechanical properties :
#
#
# Convention : Reuss Voigt Hill
#
# Bulk Modulus (GPa) = 32.89935 39.27604 36.08769
# Shear Modulus (GPa) = -231.19408 28.08962 -101.55223
#
# Velocity S-wave (km/s) = -9.93094 3.46159 -6.58183
# Velocity P-wave (km/s) = 10.83808 5.72113 6.50894
#
# Compressibility (1/GPa) = 0.03039574
#
# Stress axis : x y z
#
# Youngs Moduli (GPa) = 58.57931 118.73007 71.94316
#
# Poissons Ratio (x) = 0.16677 0.00182
# Poissons Ratio (y) = 0.08228 0.22078
# Poissons Ratio (z) = 0.00148 0.36437
#
# Static dielectric constant tensor:
#      x y z
#    x 2.037690 0.000000 0.000000 
#    y 0.000000 2.143330 0.000000 
#    z 0.000000 0.000000 1.885790 
# 
# From -- ./inp_files/7319.got.cif
#   From: 2010.05.17/outbox.cif.g08.bks.cpg/sg37_4_cif.got.tgz:7319.got - 2010.06.03 17:53:42.
