data_PCOD9354290
_publ_section_title
;
Structure prediction by ZEFSAII (Michael W. Deem and Ramdas Pophale) SiO2 
 PCOD9354290
Probable space group: C C C 2
;
_chemical_formula_sum "Si O2"
_cell_formula_units_Z 24
_cell_length_a 4.919514
_cell_length_b 13.956890
_cell_length_c 16.797355
_cell_angle_alpha 90.000000
_cell_angle_beta 90.000000
_cell_angle_gamma 90.000000
_cell_volume 1153.325136
_symmetry_space_group_name_H-M "C C C 2"
_symmetry_group_IT_number 37
_symmetry_cell_setting 'orthorhombic'
loop_
_space_group_symop_operation_xyz
x,y,z
-x,-y,z
-x,y,1/2+z
x,-y,1/2+z
1/2+x,1/2+y,z
1/2-x,1/2-y,z
1/2-x,1/2+y,1/2+z
1/2+x,1/2-y,1/2+z
loop_
_atom_site_type_symbol
_atom_site_label
_atom_site_fract_x
_atom_site_fract_y
_atom_site_fract_z
Si Si1 0.500000 0.000000 0.579010
Si Si2 0.016649 0.812970 0.863038
Si Si3 0.000000 0.000000 0.466619
Si Si4 0.234615 0.435556 0.228084
O O1 0.402365 0.918172 0.641963
O O2 0.748340 0.974839 0.522984
O O3 0.750000 0.750000 0.848052
O O4 0.250000 0.750000 0.905450
O O5 0.163487 0.850878 0.782942
O O6 0.941002 0.907860 0.912198
O O7 0.500000 0.500000 0.213249
O O8 0.000000 0.500000 0.270569
#
# Coordination Sequence:
#
# PCOD9354290 Si02
#       4
#     4   8   4   8
#     4  10  22  40  74  94 130 194 212 278 358 396
#     4  12  26  42  71 103 134 179 233 280 339 411
#     4  12  24  44  70  94 146 176 218 286 348 406
#     4  10  20  42  69  98 126 178 232 272 341 398
#
# _framework density 20.809398000000002
#
# number of rings (size 3 to 8) (size 9 to 14) (size 15 to 20)
#    1.000    0.000    3.333    4.000    2.333    0.000 
#    0.000    6.667    0.000    0.000    0.000    0.000 
#    0.000    0.000    0.000    0.000    0.000    0.000 
#
# Total GULP energy -66927.703206 kJ/mol
# GULP energy per Si atom -5577.308601 kJ/mol
# Density = 2.076204 g / cm^3
# Si number density = 20.809398 Si / 1000 Ang^3
#
#
#
# Elastic Constant Matrix: (Units=GPa)
#
#
# Indices 1 2 3 4 5 6 
#
# 1 173.1868 60.3778 51.2766 0.0000 0.0000 0.0000
# 2 60.3778 119.3834 61.5043 0.0000 0.0000 0.0000
# 3 51.2766 61.5043 115.4245 0.0000 0.0000 0.0000
# 4 0.0000 0.0000 0.0000 -1.3723 0.0000 0.0000
# 5 0.0000 0.0000 0.0000 0.0000 37.7784 0.0000
# 6 0.0000 0.0000 0.0000 0.0000 0.0000 36.9243
#
#
#
# Elastic Compliance Matrix: (Units=1/GPa)
#
#
# Indices 1 2 3 4 5 6 
#
# 1 0.007257 -0.002770 -0.001748 0.000000 0.000000 0.000000
# 2 -0.002770 0.012603 -0.005485 0.000000 0.000000 0.000000
# 3 -0.001748 -0.005485 0.012363 0.000000 0.000000 0.000000
# 4 0.000000 0.000000 0.000000 -0.728678 0.000000 0.000000
# 5 0.000000 0.000000 0.000000 0.000000 0.026470 0.000000
# 6 0.000000 0.000000 0.000000 0.000000 0.000000 0.027082
#
#
# Mechanical properties :
#
#
# Convention : Reuss Voigt Hill
#
# Bulk Modulus (GPa) = 81.85084 83.81244 82.83164
# Shear Modulus (GPa) = -8.07984 30.32182 11.12099
#
# Velocity S-wave (km/s) = -1.97262 3.82137 2.31426
# Velocity P-wave (km/s) = 5.85070 7.73525 6.85802
#
# Compressibility (1/GPa) = 0.01221735
#
# Stress axis : x y z
#
# Youngs Moduli (GPa) = 137.79210 79.34625 80.88636
#
# Poissons Ratio (x) = 0.21977 0.14140
# Poissons Ratio (y) = 0.38165 0.44367
# Poissons Ratio (z) = 0.24088 0.43522
#
# Static dielectric constant tensor:
#      x y z
#    x 1.748220 0.000000 0.000000 
#    y 0.000000 1.774390 0.000000 
#    z 0.000000 0.000000 1.774020 
# 
# From -- ./inp_files/9365.got.cif
#   From: 2010.05.17/outbox.cif.g08.bks.cpg/sg37_5_cif.got.tgz:9365.got - 2010.06.03 17:53:42.
