data_PCOD9354110
_publ_section_title
;
Structure prediction by ZEFSAII (Michael W. Deem and Ramdas Pophale) SiO2 
 PCOD9354110
Probable space group: C C C 2
;
_chemical_formula_sum "Si O2"
_cell_formula_units_Z 48
_cell_length_a 16.578065
_cell_length_b 8.265262
_cell_length_c 16.438255
_cell_angle_alpha 90.000000
_cell_angle_beta 90.000000
_cell_angle_gamma 90.000000
_cell_volume 2252.403410
_symmetry_space_group_name_H-M "C C C 2"
_symmetry_group_IT_number 37
_symmetry_cell_setting 'orthorhombic'
loop_
_space_group_symop_operation_xyz
x,y,z
-x,-y,z
-x,y,1/2+z
x,-y,1/2+z
1/2+x,1/2+y,z
1/2-x,1/2-y,z
1/2-x,1/2+y,1/2+z
1/2+x,1/2-y,1/2+z
loop_
_atom_site_type_symbol
_atom_site_label
_atom_site_fract_x
_atom_site_fract_y
_atom_site_fract_z
Si Si1 0.114631 0.741757 0.861230
Si Si2 0.850211 0.832176 0.749998
Si Si3 0.801474 0.533104 0.217325
Si Si4 0.500000 0.500000 0.277639
Si Si5 0.250000 0.250000 0.488104
Si Si6 0.500000 0.000000 0.462077
Si Si7 0.162880 0.444705 0.043080
Si Si8 0.250000 0.750000 0.404247
O O1 0.163925 0.638430 0.792646
O O2 0.179374 0.806495 0.926653
O O3 0.050535 0.623146 0.905681
O O4 0.061920 0.888072 0.827052
O O5 0.839780 0.647649 0.720492
O O6 0.792059 0.977577 0.719943
O O7 0.819489 0.815080 0.843883
O O8 0.940793 0.880758 0.731384
O O9 0.821634 0.620664 0.132972
O O10 0.202603 0.376927 0.543626
O O11 0.430413 0.929761 0.519941
O O12 0.209331 0.373818 0.965499
#
# Coordination Sequence:
#
# PCOD9354110 Si02
#       8
#     8   8   8   4   4   4   8   4
#     4  11  21  37  59  87 119 157 201 248 296 361
#     4  10  21  40  62  87 116 158 203 246 294 366
#     4  10  22  41  61  83 121 164 200 240 302 368
#     4  12  22  32  60  92 112 140 202 260 290 328
#     4  10  20  38  62  84 116 160 202 240 294 364
#     4  10  22  38  60  84 116 158 202 242 300 356
#     4  11  22  38  61  89 117 154 198 250 300 349
#     4  10  20  38  60  82 118 160 198 234 292 364
#
# _framework density 21.310569999999998
#
# number of rings (size 3 to 8) (size 9 to 14) (size 15 to 20)
#    0.000    1.667    0.000    9.000    0.000    4.000 
#    0.000    0.000    0.000   12.000    0.000    0.000 
#    0.000    0.000    0.000    0.000    0.000    0.000 
#
# Total GULP energy -133799.478188 kJ/mol
# GULP energy per Si atom -5574.978258 kJ/mol
# Density = 2.126207 g / cm^3
# Si number density = 21.310570 Si / 1000 Ang^3
#
#
#
# Elastic Constant Matrix: (Units=GPa)
#
#
# Indices 1 2 3 4 5 6 
#
# 1 117.5245 29.2398 15.8952 0.0000 0.0000 0.0000
# 2 29.2398 49.6268 13.5181 0.0000 0.0000 0.0000
# 3 15.8952 13.5181 112.9886 0.0000 0.0000 0.0000
# 4 0.0000 0.0000 0.0000 -41.5982 0.0000 0.0000
# 5 0.0000 0.0000 0.0000 0.0000 -8.1167 0.0000
# 6 0.0000 0.0000 0.0000 0.0000 0.0000 33.7560
#
#
#
# Elastic Compliance Matrix: (Units=1/GPa)
#
#
# Indices 1 2 3 4 5 6 
#
# 1 0.010028 -0.005710 -0.000728 0.000000 0.000000 0.000000
# 2 -0.005710 0.024081 -0.002078 0.000000 0.000000 0.000000
# 3 -0.000728 -0.002078 0.009201 0.000000 0.000000 0.000000
# 4 0.000000 0.000000 0.000000 -0.024040 0.000000 0.000000
# 5 0.000000 0.000000 0.000000 0.000000 -0.123202 0.000000
# 6 0.000000 0.000000 0.000000 0.000000 0.000000 0.029624
#
#
# Mechanical properties :
#
#
# Convention : Reuss Voigt Hill
#
# Bulk Modulus (GPa) = 38.05306 44.16069 41.10687
# Shear Modulus (GPa) = -103.05747 11.57401 -45.74173
#
# Velocity S-wave (km/s) = -6.96166 2.33300 -4.63799
# Velocity P-wave (km/s) = 6.83553 5.29383 3.05777
#
# Compressibility (1/GPa) = 0.02627910
#
# Stress axis : x y z
#
# Youngs Moduli (GPa) = 99.72121 41.52679 108.67932
#
# Poissons Ratio (x) = 0.23713 0.07907
# Poissons Ratio (y) = 0.56943 0.22581
# Poissons Ratio (z) = 0.07255 0.08628
#
# Static dielectric constant tensor:
#      x y z
#    x 1.765300 0.000000 0.000000 
#    y 0.000000 1.772630 0.000000 
#    z 0.000000 0.000000 1.785920 
# 
# From -- ./inp_files/12593.got.cif
#   From: 2010.05.17/outbox.cif.g08.bks.cpg/sg37_7_cif.got.tgz:12593.got - 2010.06.03 17:53:42.
