data_PCOD9354036
_publ_section_title
;
Structure prediction by ZEFSAII (Michael W. Deem and Ramdas Pophale) SiO2 
 PCOD9354036
Probable space group: C C C 2
;
_chemical_formula_sum "Si O2"
_cell_formula_units_Z 28
_cell_length_a 12.066868
_cell_length_b 7.586299
_cell_length_c 13.273700
_cell_angle_alpha 90.000000
_cell_angle_beta 90.000000
_cell_angle_gamma 90.000000
_cell_volume 1215.112575
_symmetry_space_group_name_H-M "C C C 2"
_symmetry_group_IT_number 37
_symmetry_cell_setting 'orthorhombic'
loop_
_space_group_symop_operation_xyz
x,y,z
-x,-y,z
-x,y,1/2+z
x,-y,1/2+z
1/2+x,1/2+y,z
1/2-x,1/2-y,z
1/2-x,1/2+y,1/2+z
1/2+x,1/2-y,1/2+z
loop_
_atom_site_type_symbol
_atom_site_label
_atom_site_fract_x
_atom_site_fract_y
_atom_site_fract_z
Si Si1 0.411358 0.249772 0.961230
Si Si2 0.500000 0.000000 0.318981
Si Si3 0.341350 0.385379 0.395620
Si Si4 0.926401 0.824367 0.186777
O O1 0.538966 0.315003 0.937274
O O2 0.336610 0.411853 0.926085
O O3 0.406041 0.071151 0.896310
O O4 0.392849 0.242803 0.080285
O O5 0.514754 0.834489 0.245935
O O6 0.250000 0.250000 0.433976
O O7 0.340503 0.383194 0.273308
O O8 0.000000 0.000000 0.167947
#
# Coordination Sequence:
#
# PCOD9354036 Si02
#       4
#     8   4   8   8
#     4  10  20  39  65  92 138 184 221 294 367 410
#     4  10  20  36  64 100 128 174 236 276 346 440
#     4  10  20  38  65  96 131 172 238 288 341 424
#     4  11  19  39  66  88 131 189 224 283 366 421
#
# _framework density 23.043132
#
# number of rings (size 3 to 8) (size 9 to 14) (size 15 to 20)
#    0.000    1.714    8.571    0.857    0.000    0.000 
#    0.000   17.143    0.000    0.000    0.000    0.000 
#    0.000    0.000    0.000    0.000    0.000    0.000 
#
# Total GULP energy -78034.660126 kJ/mol
# GULP energy per Si atom -5573.904295 kJ/mol
# Density = 2.299069 g / cm^3
# Si number density = 23.043132 Si / 1000 Ang^3
#
#
#
# Elastic Constant Matrix: (Units=GPa)
#
#
# Indices 1 2 3 4 5 6 
#
# 1 86.8837 24.0700 5.4328 0.0000 0.0000 0.0000
# 2 24.0700 152.3759 29.5731 0.0000 0.0000 0.0000
# 3 5.4328 29.5731 188.1171 0.0000 0.0000 0.0000
# 4 0.0000 0.0000 0.0000 -89.1342 0.0000 0.0000
# 5 0.0000 0.0000 0.0000 0.0000 -13.2502 0.0000
# 6 0.0000 0.0000 0.0000 0.0000 0.0000 39.4962
#
#
#
# Elastic Compliance Matrix: (Units=1/GPa)
#
#
# Indices 1 2 3 4 5 6 
#
# 1 0.012037 -0.001892 -0.000050 0.000000 0.000000 0.000000
# 2 -0.001892 0.007067 -0.001056 0.000000 0.000000 0.000000
# 3 -0.000050 -0.001056 0.005483 0.000000 0.000000 0.000000
# 4 0.000000 0.000000 0.000000 -0.011219 0.000000 0.000000
# 5 0.000000 0.000000 0.000000 0.000000 -0.075471 0.000000
# 6 0.000000 0.000000 0.000000 0.000000 0.000000 0.025319
#
#
# Mechanical properties :
#
#
# Convention : Reuss Voigt Hill
#
# Bulk Modulus (GPa) = 53.79120 60.61427 57.20273
# Shear Modulus (GPa) = -203.32665 11.97576 -95.67544
#
# Velocity S-wave (km/s) = -9.40367 2.28219 -6.45060
# Velocity P-wave (km/s) = 9.72167 5.77116 5.53193
#
# Compressibility (1/GPa) = 0.01859040
#
# Stress axis : x y z
#
# Youngs Moduli (GPa) = 83.07829 141.51220 182.37063
#
# Poissons Ratio (x) = 0.26769 0.00916
# Poissons Ratio (y) = 0.15715 0.19263
# Poissons Ratio (z) = 0.00417 0.14947
#
# Static dielectric constant tensor:
#      x y z
#    x 1.985040 0.000000 0.000000 
#    y 0.000000 1.955460 0.000000 
#    z 0.000000 0.000000 1.830750 
# 
# From -- ./inp_files/10021.got.cif
#   From: 2010.05.17/outbox.cif.g08.bks.cpg/sg37_6_cif.got.tgz:10021.got - 2010.06.03 17:53:42.
