data_PCOD9354784
_publ_section_title
;
Structure prediction by ZEFSAII (Michael W. Deem and Ramdas Pophale) SiO2 
 PCOD9354784
Probable space group: C C C 2
;
_chemical_formula_sum "Si O2"
_cell_formula_units_Z 60
_cell_length_a 5.923586
_cell_length_b 19.798865
_cell_length_c 23.099514
_cell_angle_alpha 90.000000
_cell_angle_beta 90.000000
_cell_angle_gamma 90.000000
_cell_volume 2709.117459
_symmetry_space_group_name_H-M "C C C 2"
_symmetry_group_IT_number 37
_symmetry_cell_setting 'orthorhombic'
loop_
_space_group_symop_operation_xyz
x,y,z
-x,-y,z
-x,y,1/2+z
x,-y,1/2+z
1/2+x,1/2+y,z
1/2-x,1/2-y,z
1/2-x,1/2+y,1/2+z
1/2+x,1/2-y,1/2+z
loop_
_atom_site_type_symbol
_atom_site_label
_atom_site_fract_x
_atom_site_fract_y
_atom_site_fract_z
Si Si1 0.581418 0.576161 0.035910
Si Si2 0.589241 0.854743 0.122499
Si Si3 0.018839 0.626069 0.814781
Si Si4 0.750000 0.750000 0.777898
Si Si5 0.690433 0.058101 0.204483
Si Si6 0.575766 0.076207 0.442713
Si Si7 0.313873 0.179392 0.523634
Si Si8 0.915306 0.858093 0.226836
O O1 0.500000 0.500000 0.045887
O O2 0.779951 0.592520 0.081186
O O3 0.395993 0.634131 0.044210
O O4 0.673611 0.581409 0.969798
O O5 0.382431 0.889644 0.155062
O O6 0.480275 0.802987 0.077315
O O7 0.753554 0.835002 0.174667
O O8 0.265833 0.629763 0.784805
O O9 0.912363 0.701054 0.814381
O O10 0.878221 0.582933 0.768341
O O11 0.978703 0.592357 0.876420
O O12 0.594167 0.700526 0.739990
O O13 0.961532 0.071909 0.207606
O O14 0.500000 0.000000 0.193988
O O15 0.438315 0.130955 0.479051
O O16 0.500000 0.000000 0.456133
O O17 0.250000 0.250000 0.495722
#
# Coordination Sequence:
#
# PCOD9354784 Si02
#       8
#     8   8   8   4   8   8   8   8
#     4  11  24  45  72 103 141 192 245 301 367 430
#     4  10  24  40  67  97 139 189 240 297 361 441
#     4  10  23  41  66 101 139 184 240 302 362 443
#     4  10  22  44  66  98 146 184 252 294 370 444
#     4  10  22  40  63  99 138 175 237 296 363 438
#     4  11  24  46  75 105 141 189 248 301 368 442
#     4  11  26  47  67 108 145 188 247 303 365 437
#     4  10  22  44  63 101 138 196 236 303 368 446
#
# _framework density 22.147434000000001
#
# number of rings (size 3 to 8) (size 9 to 14) (size 15 to 20)
#    0.000    1.600    1.333    1.600    3.733    8.000 
#   28.800    0.000    0.000    0.000    0.000    0.000 
#    0.000    0.000    0.000    0.000    0.000    0.000 
#
# Total GULP energy -167345.769268 kJ/mol
# GULP energy per Si atom -5578.192309 kJ/mol
# Density = 2.209703 g / cm^3
# Si number density = 22.147434 Si / 1000 Ang^3
#
#
#
# Elastic Constant Matrix: (Units=GPa)
#
#
# Indices 1 2 3 4 5 6 
#
# 1 81.1576 16.0485 11.3229 0.0000 0.0000 0.0000
# 2 16.0485 98.9133 -12.3410 0.0000 0.0000 0.0000
# 3 11.3229 -12.3410 79.0946 0.0000 0.0000 0.0000
# 4 0.0000 0.0000 0.0000 17.2090 0.0000 0.0000
# 5 0.0000 0.0000 0.0000 0.0000 50.6024 0.0000
# 6 0.0000 0.0000 0.0000 0.0000 0.0000 25.8179
#
#
#
# Elastic Compliance Matrix: (Units=1/GPa)
#
#
# Indices 1 2 3 4 5 6 
#
# 1 0.013112 -0.002409 -0.002253 0.000000 0.000000 0.000000
# 2 -0.002409 0.010753 0.002023 0.000000 0.000000 0.000000
# 3 -0.002253 0.002023 0.013281 0.000000 0.000000 0.000000
# 4 0.000000 0.000000 0.000000 0.058109 0.000000 0.000000
# 5 0.000000 0.000000 0.000000 0.000000 0.019762 0.000000
# 6 0.000000 0.000000 0.000000 0.000000 0.000000 0.038733
#
#
# Mechanical properties :
#
#
# Convention : Reuss Voigt Hill
#
# Bulk Modulus (GPa) = 31.37871 32.13624 31.75748
# Shear Modulus (GPa) = 29.47227 35.00152 32.23690
#
# Velocity S-wave (km/s) = 3.65188 3.97972 3.81932
# Velocity P-wave (km/s) = 5.65513 5.97153 5.81548
#
# Compressibility (1/GPa) = 0.03186874
#
# Stress axis : x y z
#
# Youngs Moduli (GPa) = 76.26425 92.99737 75.29448
#
# Poissons Ratio (x) = 0.22399 0.16963
# Poissons Ratio (y) = 0.18368 -0.15229
# Poissons Ratio (z) = 0.17182 -0.18809
#
# Static dielectric constant tensor:
#      x y z
#    x 1.932350 0.000000 0.000000 
#    y 0.000000 1.816300 0.000000 
#    z 0.000000 0.000000 1.792130 
# 
# From -- ./inp_files/18112.got.cif
#   From: 2010.05.17/outbox.cif.g08.bks.cpg/sg37_10_cif.got.tgz:18112.got - 2010.06.03 17:53:42.
