data_PCOD9354517
_publ_section_title
;
Structure prediction by ZEFSAII (Michael W. Deem and Ramdas Pophale) SiO2 
 PCOD9354517
Probable space group: C C C 2
;
_chemical_formula_sum "Si O2"
_cell_formula_units_Z 56
_cell_length_a 4.772234
_cell_length_b 31.581401
_cell_length_c 14.701374
_cell_angle_alpha 90.000000
_cell_angle_beta 90.000000
_cell_angle_gamma 90.000000
_cell_volume 2215.700464
_symmetry_space_group_name_H-M "C C C 2"
_symmetry_group_IT_number 37
_symmetry_cell_setting 'orthorhombic'
loop_
_space_group_symop_operation_xyz
x,y,z
-x,-y,z
-x,y,1/2+z
x,-y,1/2+z
1/2+x,1/2+y,z
1/2-x,1/2-y,z
1/2-x,1/2+y,1/2+z
1/2+x,1/2-y,1/2+z
loop_
_atom_site_type_symbol
_atom_site_label
_atom_site_fract_x
_atom_site_fract_y
_atom_site_fract_z
Si Si1 0.210269 0.883413 0.642550
Si Si2 0.972142 0.569209 0.888463
Si Si3 0.481346 0.621973 0.842963
Si Si4 0.710142 0.797075 0.432548
Si Si5 0.790218 0.796581 0.058817
Si Si6 0.613259 0.455182 0.546057
Si Si7 0.153466 0.542800 0.192712
O O1 0.030373 0.880360 0.733866
O O2 0.298120 0.836135 0.619116
O O3 0.062026 0.903360 0.552998
O O4 0.464020 0.917027 0.661062
O O5 0.794380 0.612434 0.874795
O O6 0.862908 0.542788 0.801524
O O7 0.293551 0.581907 0.877387
O O8 0.895786 0.548750 0.984302
O O9 0.333231 0.664917 0.873547
O O10 0.750000 0.750000 0.392334
O O11 0.392131 0.799122 0.466338
O O12 0.890005 0.799378 0.526186
O O13 0.750000 0.750000 0.099878
O O14 0.500000 0.500000 0.507342
O O15 0.456744 0.458103 0.646805
O O16 0.000000 0.500000 0.157907
#
# Coordination Sequence:
#
# PCOD9354517 Si02
#       7
#     8   8   8   8   8   8   8
#     4  11  24  41  67  94 140 178 226 286 347 410
#     4  11  27  43  69  99 137 182 236 285 353 410
#     4  11  23  43  65  98 134 181 229 285 347 418
#     4  10  21  40  64  94 132 172 225 287 346 411
#     4  10  23  41  66  99 132 174 227 286 346 415
#     4  12  25  42  70 100 134 187 236 286 348 420
#     4  11  25  48  68 100 147 186 236 301 349 420
#
# _framework density 25.274172
#
# number of rings (size 3 to 8) (size 9 to 14) (size 15 to 20)
#    0.000    1.143    2.857    2.571    6.000    3.429 
#    0.000    0.000    0.000    5.143    0.000    0.000 
#    0.000    0.000    0.000    0.000    0.000    0.000 
#
# Total GULP energy -156003.419279 kJ/mol
# GULP energy per Si atom -5571.550689 kJ/mol
# Density = 2.521665 g / cm^3
# Si number density = 25.274172 Si / 1000 Ang^3
#
#
#
# Elastic Constant Matrix: (Units=GPa)
#
#
# Indices 1 2 3 4 5 6 
#
# 1 99.6255 15.8393 13.3996 0.0000 0.0000 0.0000
# 2 15.8393 195.2013 29.6939 0.0000 0.0000 0.0000
# 3 13.3996 29.6939 110.4313 0.0000 0.0000 0.0000
# 4 0.0000 0.0000 0.0000 33.4186 0.0000 0.0000
# 5 0.0000 0.0000 0.0000 0.0000 34.1186 0.0000
# 6 0.0000 0.0000 0.0000 0.0000 0.0000 33.7052
#
#
#
# Elastic Compliance Matrix: (Units=1/GPa)
#
#
# Indices 1 2 3 4 5 6 
#
# 1 0.010288 -0.000672 -0.001068 0.000000 0.000000 0.000000
# 2 -0.000672 0.005385 -0.001366 0.000000 0.000000 0.000000
# 3 -0.001068 -0.001366 0.009552 0.000000 0.000000 0.000000
# 4 0.000000 0.000000 0.000000 0.029923 0.000000 0.000000
# 5 0.000000 0.000000 0.000000 0.000000 0.029310 0.000000
# 6 0.000000 0.000000 0.000000 0.000000 0.000000 0.029669
#
#
# Mechanical properties :
#
#
# Convention : Reuss Voigt Hill
#
# Bulk Modulus (GPa) = 52.59577 58.12485 55.36031
# Shear Modulus (GPa) = 39.47007 43.33684 41.40345
#
# Velocity S-wave (km/s) = 3.95609 4.14535 4.05183
# Velocity P-wave (km/s) = 6.45932 6.77935 6.62127
#
# Compressibility (1/GPa) = 0.01901294
#
# Stress axis : x y z
#
# Youngs Moduli (GPa) = 97.19984 185.68914 104.68610
#
# Poissons Ratio (x) = 0.12486 0.11176
# Poissons Ratio (y) = 0.06536 0.14305
# Poissons Ratio (z) = 0.10376 0.25374
#
# Static dielectric constant tensor:
#      x y z
#    x 2.213690 0.000000 0.000000 
#    y 0.000000 2.083650 0.000000 
#    z 0.000000 0.000000 2.157410 
# 
# From -- ./inp_files/9885.got.cif
#   From: 2010.05.17/outbox.cif.g08.bks.cpg/sg37_5_cif.got.tgz:9885.got - 2010.06.03 17:53:42.
