data_PCOD9354890
_publ_section_title
;
Structure prediction by ZEFSAII (Michael W. Deem and Ramdas Pophale) SiO2 
 PCOD9354890
Probable space group: C C C 2
;
_chemical_formula_sum "Si O2"
_cell_formula_units_Z 60
_cell_length_a 8.401807
_cell_length_b 12.291621
_cell_length_c 26.413711
_cell_angle_alpha 90.000000
_cell_angle_beta 90.000000
_cell_angle_gamma 90.000000
_cell_volume 2727.792202
_symmetry_space_group_name_H-M "C C C 2"
_symmetry_group_IT_number 37
_symmetry_cell_setting 'orthorhombic'
loop_
_space_group_symop_operation_xyz
x,y,z
-x,-y,z
-x,y,1/2+z
x,-y,1/2+z
1/2+x,1/2+y,z
1/2-x,1/2-y,z
1/2-x,1/2+y,1/2+z
1/2+x,1/2-y,1/2+z
loop_
_atom_site_type_symbol
_atom_site_label
_atom_site_fract_x
_atom_site_fract_y
_atom_site_fract_z
Si Si1 0.900803 0.175475 0.897690
Si Si2 0.317073 0.369271 0.736542
Si Si3 0.500000 0.500000 0.817281
Si Si4 0.406847 0.693075 0.660008
Si Si5 0.324475 0.515764 0.575165
Si Si6 0.703253 0.048431 0.972645
Si Si7 0.384190 0.172185 0.952112
Si Si8 0.112047 0.601070 0.141719
O O1 0.750000 0.250000 0.885233
O O2 0.851104 0.115012 0.950337
O O3 0.930309 0.091919 0.853447
O O4 0.052725 0.250342 0.907721
O O5 0.250000 0.250000 0.751412
O O6 0.364485 0.446381 0.782086
O O7 0.478637 0.358363 0.702393
O O8 0.182302 0.412105 0.697957
O O9 0.250000 0.750000 0.682864
O O10 0.342017 0.610538 0.617026
O O11 0.514746 0.788961 0.636677
O O12 0.500000 0.500000 0.554889
O O13 0.219249 0.517379 0.525161
O O14 0.262256 0.410243 0.605112
O O15 0.553080 0.130704 0.976815
O O16 0.681601 0.945392 0.935126
O O17 0.250000 0.250000 0.978431
O O18 0.000000 0.500000 0.128863
#
# Coordination Sequence:
#
# PCOD9354890 Si02
#       8
#     8   8   4   8   8   8   8   8
#     4  10  24  48  67 100 133 176 230 288 347 411
#     4  10  24  45  65 101 133 174 224 283 347 417
#     4  12  24  42  78  94 132 174 232 284 358 414
#     4  11  23  42  68  96 137 182 221 274 344 406
#     4  12  25  41  64  97 139 182 228 273 329 403
#     4  10  25  43  63 101 139 177 230 281 334 409
#     4  10  22  42  69  91 132 176 222 280 342 399
#     4  11  23  43  67  97 138 175 225 277 338 413
#
# _framework density 21.995811
#
# number of rings (size 3 to 8) (size 9 to 14) (size 15 to 20)
#    0.000    1.333    2.667    1.600    4.667    3.733 
#    7.200    0.000    0.000    0.000    0.000    0.000 
#    0.000    0.000    0.000    0.000    0.000    0.000 
#
# Total GULP energy -167355.816000 kJ/mol
# GULP energy per Si atom -5578.527200 kJ/mol
# Density = 2.194575 g / cm^3
# Si number density = 21.995811 Si / 1000 Ang^3
#
#
#
# Elastic Constant Matrix: (Units=GPa)
#
#
# Indices 1 2 3 4 5 6 
#
# 1 91.4722 45.9887 28.4124 0.0000 0.0000 0.0000
# 2 45.9887 123.3212 52.0013 0.0000 0.0000 0.0000
# 3 28.4124 52.0013 73.3905 0.0000 0.0000 0.0000
# 4 0.0000 0.0000 0.0000 372.3482 0.0000 0.0000
# 5 0.0000 0.0000 0.0000 0.0000 13.7738 0.0000
# 6 0.0000 0.0000 0.0000 0.0000 0.0000 41.0364
#
#
#
# Elastic Compliance Matrix: (Units=1/GPa)
#
#
# Indices 1 2 3 4 5 6 
#
# 1 0.013747 -0.004111 -0.002410 0.000000 0.000000 0.000000
# 2 -0.004111 0.012793 -0.007473 0.000000 0.000000 0.000000
# 3 -0.002410 -0.007473 0.019854 0.000000 0.000000 0.000000
# 4 0.000000 0.000000 0.000000 0.002686 0.000000 0.000000
# 5 0.000000 0.000000 0.000000 0.000000 0.072602 0.000000
# 6 0.000000 0.000000 0.000000 0.000000 0.000000 0.024369
#
#
# Mechanical properties :
#
#
# Convention : Reuss Voigt Hill
#
# Bulk Modulus (GPa) = 54.32586 60.10984 57.21785
# Shear Modulus (GPa) = 27.75111 96.21711 61.98411
#
# Velocity S-wave (km/s) = 3.55583 6.62105 5.31424
# Velocity P-wave (km/s) = 6.45062 9.26490 7.98276
#
# Compressibility (1/GPa) = 0.01840744
#
# Stress axis : x y z
#
# Youngs Moduli (GPa) = 72.74121 78.16727 50.36819
#
# Poissons Ratio (x) = 0.32131 0.12137
# Poissons Ratio (y) = 0.29901 0.37641
# Poissons Ratio (z) = 0.17528 0.58416
#
# Static dielectric constant tensor:
#      x y z
#    x 1.861700 0.000000 0.000000 
#    y 0.000000 1.709980 0.000000 
#    z 0.000000 0.000000 1.804940 
# 
# From -- ./inp_files/19674.got.cif
#   From: 2010.05.17/outbox.cif.g08.bks.cpg/sg37_10_cif.got.tgz:19674.got - 2010.06.03 17:53:42.
