data_PCOD9354980
_publ_section_title
;
Structure prediction by ZEFSAII (Michael W. Deem and Ramdas Pophale) SiO2 
 PCOD9354980
Probable space group: C C C 2
;
_chemical_formula_sum "Si O2"
_cell_formula_units_Z 56
_cell_length_a 14.291663
_cell_length_b 5.674038
_cell_length_c 29.451820
_cell_angle_alpha 90.000000
_cell_angle_beta 90.000000
_cell_angle_gamma 90.000000
_cell_volume 2388.290463
_symmetry_space_group_name_H-M "C C C 2"
_symmetry_group_IT_number 37
_symmetry_cell_setting 'orthorhombic'
loop_
_space_group_symop_operation_xyz
x,y,z
-x,-y,z
-x,y,1/2+z
x,-y,1/2+z
1/2+x,1/2+y,z
1/2-x,1/2-y,z
1/2-x,1/2+y,1/2+z
1/2+x,1/2-y,1/2+z
loop_
_atom_site_type_symbol
_atom_site_label
_atom_site_fract_x
_atom_site_fract_y
_atom_site_fract_z
Si Si1 0.396747 0.391113 0.082030
Si Si2 0.849170 0.382805 0.671094
Si Si3 0.846959 0.875591 0.398794
Si Si4 0.888941 0.041516 0.307163
Si Si5 0.403928 0.349323 0.981506
Si Si6 0.000000 0.500000 0.918183
Si Si7 0.750000 0.750000 0.617591
Si Si8 0.395227 0.040594 0.272312
O O1 0.500000 0.500000 0.079817
O O2 0.397038 0.241016 0.128156
O O3 0.309490 0.568134 0.088272
O O4 0.378411 0.278055 0.032614
O O5 0.750000 0.250000 0.678621
O O6 0.824881 0.636035 0.651190
O O7 0.899380 0.403206 0.718743
O O8 0.750000 0.750000 0.389177
O O9 0.866024 0.070888 0.360295
O O10 0.936404 0.698447 0.394228
O O11 0.841142 0.986056 0.449260
O O12 0.852246 0.780524 0.292955
O O13 0.854761 0.277929 0.281523
O O14 0.000000 0.000000 0.299209
O O15 0.500000 0.500000 0.984483
O O16 0.426172 0.125212 0.951244
O O17 0.500000 0.000000 0.290825
#
# Coordination Sequence:
#
# PCOD9354980 Si02
#       8
#     8   8   8   8   8   4   4   8
#     4  10  23  41  70 100 136 184 238 290 360 432
#     4  10  24  43  63  99 134 183 229 293 359 425
#     4  11  25  43  69 105 136 185 239 288 362 434
#     4  10  23  44  70 101 138 183 234 296 360 428
#     4   9  21  42  66 101 135 182 232 283 357 418
#     4  10  22  44  72  90 150 186 226 304 346 424
#     4  10  24  42  62  92 140 178 226 296 356 418
#     4  10  24  42  73  99 133 182 234 293 363 429
#
# _framework density 23.447735999999999
#
# number of rings (size 3 to 8) (size 9 to 14) (size 15 to 20)
#    0.000    2.000    0.000    1.286   12.000    5.143 
#    5.143    0.000    0.000    0.000    0.000    0.000 
#    0.000    0.000    0.000    0.000    0.000    0.000 
#
# Total GULP energy -156252.891247 kJ/mol
# GULP energy per Si atom -5580.460402 kJ/mol
# Density = 2.339437 g / cm^3
# Si number density = 23.447736 Si / 1000 Ang^3
#
#
#
# Elastic Constant Matrix: (Units=GPa)
#
#
# Indices 1 2 3 4 5 6 
#
# 1 64.1651 4.1543 15.6191 0.0000 0.0000 0.0000
# 2 4.1543 101.7376 45.6114 0.0000 0.0000 0.0000
# 3 15.6191 45.6114 150.0434 0.0000 0.0000 0.0000
# 4 0.0000 0.0000 0.0000 -0.1971 0.0000 0.0000
# 5 0.0000 0.0000 0.0000 0.0000 22.2582 0.0000
# 6 0.0000 0.0000 0.0000 0.0000 0.0000 6.9947
#
#
#
# Elastic Compliance Matrix: (Units=1/GPa)
#
#
# Indices 1 2 3 4 5 6 
#
# 1 0.015991 0.000108 -0.001697 0.000000 0.000000 0.000000
# 2 0.000108 0.011381 -0.003471 0.000000 0.000000 0.000000
# 3 -0.001697 -0.003471 0.007897 0.000000 0.000000 0.000000
# 4 0.000000 0.000000 0.000000 -5.074842 0.000000 0.000000
# 5 0.000000 0.000000 0.000000 0.000000 0.044927 0.000000
# 6 0.000000 0.000000 0.000000 0.000000 0.000000 0.142965
#
#
# Mechanical properties :
#
#
# Convention : Reuss Voigt Hill
#
# Bulk Modulus (GPa) = 39.76495 49.63510 44.70003
# Shear Modulus (GPa) = -1.03452 22.51528 10.74038
#
# Velocity S-wave (km/s) = -0.66495 3.10212 2.14255
# Velocity P-wave (km/s) = 4.05046 5.83483 5.02252
#
# Compressibility (1/GPa) = 0.02514778
#
# Stress axis : x y z
#
# Youngs Moduli (GPa) = 62.53522 87.86670 126.63760
#
# Poissons Ratio (x) = -0.00949 0.21496
# Poissons Ratio (y) = -0.00676 0.43955
# Poissons Ratio (z) = 0.10615 0.30498
#
# Static dielectric constant tensor:
#      x y z
#    x 1.858010 0.000000 0.000000 
#    y 0.000000 1.987330 0.000000 
#    z 0.000000 0.000000 1.902370 
# 
# From -- ./inp_files/20557.got.cif
#   From: 2010.05.17/outbox.cif.g08.bks.cpg/sg37_11_cif.got.tgz:20557.got - 2010.06.03 17:53:42.
