data_PCOD9354139
_publ_section_title
;
Structure prediction by ZEFSAII (Michael W. Deem and Ramdas Pophale) SiO2 
 PCOD9354139
Probable space group: C C C 2
;
_chemical_formula_sum "Si O2"
_cell_formula_units_Z 40
_cell_length_a 18.650768
_cell_length_b 7.580140
_cell_length_c 14.392357
_cell_angle_alpha 90.000000
_cell_angle_beta 90.000000
_cell_angle_gamma 90.000000
_cell_volume 2034.725696
_symmetry_space_group_name_H-M "C C C 2"
_symmetry_group_IT_number 37
_symmetry_cell_setting 'orthorhombic'
loop_
_space_group_symop_operation_xyz
x,y,z
-x,-y,z
-x,y,1/2+z
x,-y,1/2+z
1/2+x,1/2+y,z
1/2-x,1/2-y,z
1/2-x,1/2+y,1/2+z
1/2+x,1/2-y,1/2+z
loop_
_atom_site_type_symbol
_atom_site_label
_atom_site_fract_x
_atom_site_fract_y
_atom_site_fract_z
Si Si1 0.646313 0.049337 0.588400
Si Si2 0.750000 0.250000 0.713188
Si Si3 0.578628 0.945184 0.272917
Si Si4 0.846325 0.897845 0.356536
Si Si5 0.750000 0.250000 0.021348
Si Si6 0.336433 0.785368 0.390458
O O1 0.687747 0.197231 0.645536
O O2 0.581856 0.025331 0.660897
O O3 0.635778 0.124181 0.485520
O O4 0.702142 0.887055 0.579053
O O5 0.782022 0.102727 0.781036
O O6 0.600593 0.753320 0.316247
O O7 0.500000 0.000000 0.306054
O O8 0.638753 0.078581 0.312120
O O9 0.807878 0.841114 0.452516
O O10 0.872563 0.095973 0.370639
O O11 0.250000 0.750000 0.397444
#
# Coordination Sequence:
#
# PCOD9354139 Si02
#       6
#     8   4   8   8   4   8
#     4  11  21  36  66  99 132 166 215 282 334 398
#     4   9  18  34  55 100 136 152 211 278 335 382
#     4  11  27  45  62  94 142 184 222 267 344 422
#     4  10  20  38  64  92 131 171 215 275 329 394
#     4  11  18  36  61 104 124 158 221 282 341 364
#     4  12  21  41  71  99 128 171 224 287 341 387
#
# _framework density 19.658669
#
# number of rings (size 3 to 8) (size 9 to 14) (size 15 to 20)
#    0.000    1.200    5.000    2.400    4.200    1.600 
#    0.000    0.000    0.000    0.000    0.000    0.000 
#    0.000    0.000    0.000    0.000    0.000    0.000 
#
# Total GULP energy -111352.648120 kJ/mol
# GULP energy per Si atom -5567.632406 kJ/mol
# Density = 1.961393 g / cm^3
# Si number density = 19.658669 Si / 1000 Ang^3
#
#
#
# Elastic Constant Matrix: (Units=GPa)
#
#
# Indices 1 2 3 4 5 6 
#
# 1 83.5877 30.7414 24.7407 0.0000 0.0000 0.0000
# 2 30.7414 123.9221 27.8767 0.0000 0.0000 0.0000
# 3 24.7407 27.8767 84.6867 0.0000 0.0000 0.0000
# 4 0.0000 0.0000 0.0000 13.2681 0.0000 0.0000
# 5 0.0000 0.0000 0.0000 0.0000 28.8974 0.0000
# 6 0.0000 0.0000 0.0000 0.0000 0.0000 10.3859
#
#
#
# Elastic Compliance Matrix: (Units=1/GPa)
#
#
# Indices 1 2 3 4 5 6 
#
# 1 0.013906 -0.002739 -0.003161 0.000000 0.000000 0.000000
# 2 -0.002739 0.009254 -0.002246 0.000000 0.000000 0.000000
# 3 -0.003161 -0.002246 0.013471 0.000000 0.000000 0.000000
# 4 0.000000 0.000000 0.000000 0.075369 0.000000 0.000000
# 5 0.000000 0.000000 0.000000 0.000000 0.034605 0.000000
# 6 0.000000 0.000000 0.000000 0.000000 0.000000 0.096285
#
#
# Mechanical properties :
#
#
# Convention : Reuss Voigt Hill
#
# Bulk Modulus (GPa) = 49.16481 50.99044 50.07762
# Shear Modulus (GPa) = 18.79967 24.43279 21.61623
#
# Velocity S-wave (km/s) = 3.09577 3.52923 3.31959
# Velocity P-wave (km/s) = 6.15158 6.52698 6.34206
#
# Compressibility (1/GPa) = 0.02033975
#
# Stress axis : x y z
#
# Youngs Moduli (GPa) = 71.90970 108.05850 74.23286
#
# Poissons Ratio (x) = 0.29593 0.23466
# Poissons Ratio (y) = 0.19693 0.16674
# Poissons Ratio (z) = 0.22732 0.24272
#
# Static dielectric constant tensor:
#      x y z
#    x 1.751820 0.000000 0.000000 
#    y 0.000000 1.776930 0.000000 
#    z 0.000000 0.000000 1.751190 
# 
# From -- ./inp_files/6297.got.cif
#   From: 2010.05.17/outbox.cif.g08.bks.cpg/sg37_4_cif.got.tgz:6297.got - 2010.06.03 17:53:42.
