data_PCOD9354799
_publ_section_title
;
Structure prediction by ZEFSAII (Michael W. Deem and Ramdas Pophale) SiO2 
 PCOD9354799
Probable space group: C C C 2
;
_chemical_formula_sum "Si O2"
_cell_formula_units_Z 52
_cell_length_a 8.224158
_cell_length_b 12.910289
_cell_length_c 21.884673
_cell_angle_alpha 90.000000
_cell_angle_beta 90.000000
_cell_angle_gamma 90.000000
_cell_volume 2323.632655
_symmetry_space_group_name_H-M "C C C 2"
_symmetry_group_IT_number 37
_symmetry_cell_setting 'orthorhombic'
loop_
_space_group_symop_operation_xyz
x,y,z
-x,-y,z
-x,y,1/2+z
x,-y,1/2+z
1/2+x,1/2+y,z
1/2-x,1/2-y,z
1/2-x,1/2+y,1/2+z
1/2+x,1/2-y,1/2+z
loop_
_atom_site_type_symbol
_atom_site_label
_atom_site_fract_x
_atom_site_fract_y
_atom_site_fract_z
Si Si1 0.651149 0.448423 0.987970
Si Si2 0.110276 0.665646 0.137361
Si Si3 0.392552 0.163371 0.401464
Si Si4 0.000000 0.500000 0.305350
Si Si5 0.314751 0.468029 0.115566
Si Si6 0.444352 0.752436 0.518465
Si Si7 0.822696 0.353060 0.722412
O O1 0.500000 0.500000 0.953452
O O2 0.791093 0.418856 0.942147
O O3 0.705651 0.525517 0.042093
O O4 0.567415 0.348297 0.020768
O O5 0.250000 0.750000 0.138267
O O6 0.189570 0.553848 0.137455
O O7 0.012012 0.678694 0.074079
O O8 0.998574 0.675506 0.196267
O O9 0.250000 0.250000 0.386619
O O10 0.493309 0.101389 0.349826
O O11 0.517397 0.210609 0.450129
O O12 0.851247 0.542087 0.262087
O O13 0.500000 0.500000 0.126200
O O14 0.281533 0.373450 0.160678
O O15 0.250000 0.750000 0.526057
O O16 0.750000 0.250000 0.753224
#
# Coordination Sequence:
#
# PCOD9354799 Si02
#       7
#     8   8   8   4   8   8   8
#     4  10  22  40  66 103 139 167 213 273 350 431
#     4  12  21  41  67 103 140 176 217 279 355 428
#     4  10  23  46  70  92 134 179 225 295 346 411
#     4  12  26  46  72  94 126 186 256 286 348 388
#     4  11  22  41  68 104 141 176 220 277 356 429
#     4  11  23  39  66 103 140 175 215 273 361 431
#     4  12  27  46  68  97 138 186 241 294 342 414
#
# _framework density 22.378751999999999
#
# number of rings (size 3 to 8) (size 9 to 14) (size 15 to 20)
#    0.000    0.923    4.615    2.308    8.615    0.000 
#    0.000    1.538    0.000    0.000    0.000    0.000 
#    0.000    0.000    0.000    0.000    0.000    0.000 
#
# Total GULP energy -144908.814337 kJ/mol
# GULP energy per Si atom -5573.415936 kJ/mol
# Density = 2.232782 g / cm^3
# Si number density = 22.378752 Si / 1000 Ang^3
#
#
#
# Elastic Constant Matrix: (Units=GPa)
#
#
# Indices 1 2 3 4 5 6 
#
# 1 101.8291 23.9658 27.6727 0.0000 0.0000 0.0000
# 2 23.9658 86.8635 35.2981 0.0000 0.0000 0.0000
# 3 27.6727 35.2981 106.2967 0.0000 0.0000 0.0000
# 4 0.0000 0.0000 0.0000 28.2537 0.0000 0.0000
# 5 0.0000 0.0000 0.0000 0.0000 10.2026 0.0000
# 6 0.0000 0.0000 0.0000 0.0000 0.0000 42.9145
#
#
#
# Elastic Compliance Matrix: (Units=1/GPa)
#
#
# Indices 1 2 3 4 5 6 
#
# 1 0.010903 -0.002144 -0.002126 0.000000 0.000000 0.000000
# 2 -0.002144 0.013730 -0.004001 0.000000 0.000000 0.000000
# 3 -0.002126 -0.004001 0.011290 0.000000 0.000000 0.000000
# 4 0.000000 0.000000 0.000000 0.035394 0.000000 0.000000
# 5 0.000000 0.000000 0.000000 0.000000 0.098014 0.000000
# 6 0.000000 0.000000 0.000000 0.000000 0.000000 0.023302
#
#
# Mechanical properties :
#
#
# Convention : Reuss Voigt Hill
#
# Bulk Modulus (GPa) = 51.60121 52.09583 51.84852
# Shear Modulus (GPa) = 23.18731 30.14433 26.66582
#
# Velocity S-wave (km/s) = 3.22239 3.67414 3.45566
# Velocity P-wave (km/s) = 6.07892 6.42875 6.25628
#
# Compressibility (1/GPa) = 0.01937939
#
# Stress axis : x y z
#
# Youngs Moduli (GPa) = 91.71914 72.83458 88.57505
#
# Poissons Ratio (x) = 0.15616 0.18835
# Poissons Ratio (y) = 0.19665 0.35440
# Poissons Ratio (z) = 0.19503 0.29142
#
# Static dielectric constant tensor:
#      x y z
#    x 1.814740 0.000000 0.000000 
#    y 0.000000 1.942240 0.000000 
#    z 0.000000 0.000000 1.855160 
# 
# From -- ./inp_files/16356.got.cif
#   From: 2010.05.17/outbox.cif.g08.bks.cpg/sg37_9_cif.got.tgz:16356.got - 2010.06.03 17:53:42.
