data_PCOD9354144
_publ_section_title
;
Structure prediction by ZEFSAII (Michael W. Deem and Ramdas Pophale) SiO2 
 PCOD9354144
Probable space group: C C C 2
;
_chemical_formula_sum "Si O2"
_cell_formula_units_Z 44
_cell_length_a 16.279881
_cell_length_b 11.958297
_cell_length_c 9.754677
_cell_angle_alpha 90.000000
_cell_angle_beta 90.000000
_cell_angle_gamma 90.000000
_cell_volume 1899.037125
_symmetry_space_group_name_H-M "C C C 2"
_symmetry_group_IT_number 37
_symmetry_cell_setting 'orthorhombic'
loop_
_space_group_symop_operation_xyz
x,y,z
-x,-y,z
-x,y,1/2+z
x,-y,1/2+z
1/2+x,1/2+y,z
1/2-x,1/2-y,z
1/2-x,1/2+y,1/2+z
1/2+x,1/2-y,1/2+z
loop_
_atom_site_type_symbol
_atom_site_label
_atom_site_fract_x
_atom_site_fract_y
_atom_site_fract_z
Si Si1 0.250000 0.750000 0.186010
Si Si2 0.876894 0.371068 0.997779
Si Si3 0.852920 0.933627 0.841718
Si Si4 0.045974 0.744928 0.433513
Si Si5 0.595152 0.031412 0.284085
Si Si6 0.916329 0.926292 0.117551
O O1 0.181075 0.710218 0.080706
O O2 0.216316 0.854254 0.276479
O O3 0.896619 0.458867 0.121045
O O4 0.850180 0.441175 0.864485
O O5 0.955484 0.300436 0.950378
O O6 0.935669 0.854118 0.840949
O O7 0.874738 0.042702 0.758461
O O8 0.849117 0.961053 0.001563
O O9 0.101363 0.649626 0.364034
O O10 0.069431 0.796082 0.582171
O O11 0.500000 0.000000 0.808528
O O12 0.000000 0.000000 0.097720
#
# Coordination Sequence:
#
# PCOD9354144 Si02
#       6
#     4   8   8   8   8   8
#     4  12  24  44  66 100 142 184 210 294 348 414
#     4  11  22  41  69  97 134 176 227 273 346 399
#     4  10  23  39  66  93 136 173 225 267 348 394
#     4   9  21  39  67  93 129 175 227 272 328 399
#     4  10  20  39  67 100 127 176 229 282 321 406
#     4  10  20  38  64  99 125 176 223 279 321 408
#
# _framework density 23.169637000000002
#
# number of rings (size 3 to 8) (size 9 to 14) (size 15 to 20)
#    1.091    0.727    1.818    3.273    0.000    1.455 
#    0.000    0.000    0.000    2.182    0.000    0.000 
#    0.000    0.000    0.000    0.000    0.000    0.000 
#
# Total GULP energy -122597.018904 kJ/mol
# GULP energy per Si atom -5572.591768 kJ/mol
# Density = 2.311690 g / cm^3
# Si number density = 23.169637 Si / 1000 Ang^3
#
#
#
# Elastic Constant Matrix: (Units=GPa)
#
#
# Indices 1 2 3 4 5 6 
#
# 1 51.5651 -8.0297 11.7098 0.0000 0.0000 0.0000
# 2 -8.0297 33.7534 9.9793 0.0000 0.0000 0.0000
# 3 11.7098 9.9793 54.5358 0.0000 0.0000 0.0000
# 4 0.0000 0.0000 0.0000 47.7506 0.0000 0.0000
# 5 0.0000 0.0000 0.0000 0.0000 27.4631 0.0000
# 6 0.0000 0.0000 0.0000 0.0000 0.0000 17.6166
#
#
#
# Elastic Compliance Matrix: (Units=1/GPa)
#
#
# Indices 1 2 3 4 5 6 
#
# 1 0.021829 0.006955 -0.005960 0.000000 0.000000 0.000000
# 2 0.006955 0.033537 -0.007630 0.000000 0.000000 0.000000
# 3 -0.005960 -0.007630 0.021012 0.000000 0.000000 0.000000
# 4 0.000000 0.000000 0.000000 0.020942 0.000000 0.000000
# 5 0.000000 0.000000 0.000000 0.000000 0.036412 0.000000
# 6 0.000000 0.000000 0.000000 0.000000 0.000000 0.056765
#
#
# Mechanical properties :
#
#
# Convention : Reuss Voigt Hill
#
# Bulk Modulus (GPa) = 15.84556 18.57479 17.21018
# Shear Modulus (GPa) = 22.24153 26.97905 24.61029
#
# Velocity S-wave (km/s) = 3.10166 3.41605 3.26264
# Velocity P-wave (km/s) = 4.43631 4.85731 4.65158
#
# Compressibility (1/GPa) = 0.06310915
#
# Stress axis : x y z
#
# Youngs Moduli (GPa) = 45.80974 29.81765 47.59076
#
# Poissons Ratio (x) = -0.20739 0.28363
# Poissons Ratio (y) = -0.31861 0.36313
# Poissons Ratio (z) = 0.27302 0.22752
#
# Static dielectric constant tensor:
#      x y z
#    x 1.918780 0.000000 0.000000 
#    y 0.000000 1.927890 0.000000 
#    z 0.000000 0.000000 1.878520 
# 
# From -- ./inp_files/3949.got.cif
#   From: 2010.05.17/outbox.cif.g08.bks.cpg/sg37_2_cif.got.tgz:3949.got - 2010.06.03 17:53:42.
