data_PCOD9354204
_publ_section_title
;
Structure prediction by ZEFSAII (Michael W. Deem and Ramdas Pophale) SiO2 
 PCOD9354204
Probable space group: C C C 2
;
_chemical_formula_sum "Si O2"
_cell_formula_units_Z 44
_cell_length_a 11.046765
_cell_length_b 8.673681
_cell_length_c 23.712726
_cell_angle_alpha 90.000000
_cell_angle_beta 90.000000
_cell_angle_gamma 90.000000
_cell_volume 2272.061298
_symmetry_space_group_name_H-M "C C C 2"
_symmetry_group_IT_number 37
_symmetry_cell_setting 'orthorhombic'
loop_
_space_group_symop_operation_xyz
x,y,z
-x,-y,z
-x,y,1/2+z
x,-y,1/2+z
1/2+x,1/2+y,z
1/2-x,1/2-y,z
1/2-x,1/2+y,1/2+z
1/2+x,1/2-y,1/2+z
loop_
_atom_site_type_symbol
_atom_site_label
_atom_site_fract_x
_atom_site_fract_y
_atom_site_fract_z
Si Si1 0.000000 0.500000 0.993011
Si Si2 0.000000 0.500000 0.176000
Si Si3 0.893053 0.896716 0.361541
Si Si4 0.612358 0.208534 0.085467
Si Si5 0.626451 0.950421 0.387391
Si Si6 0.500000 0.500000 0.147229
Si Si7 0.888172 0.207171 0.736891
O O1 0.109294 0.471681 0.948649
O O2 0.039084 0.639845 0.032790
O O3 0.099758 0.576472 0.134107
O O4 0.046061 0.359308 0.213817
O O5 0.759524 0.975564 0.361729
O O6 0.883151 0.734246 0.393513
O O7 0.930181 0.850733 0.297802
O O8 0.000000 0.000000 0.385725
O O9 0.750000 0.250000 0.071663
O O10 0.551867 0.362148 0.110129
O O11 0.500000 0.000000 0.356542
O O12 0.596821 0.575991 0.189753
O O13 0.750000 0.250000 0.745128
#
# Coordination Sequence:
#
# PCOD9354204 Si02
#       7
#     4   4   8   8   8   4   8
#     4   9  22  41  66  84 120 163 206 251 320 352
#     4   9  22  35  56  90 120 157 198 237 308 366
#     4  11  22  38  62  91 120 161 210 250 304 361
#     4  10  20  40  62  89 119 157 199 254 301 367
#     4   9  22  43  59  85 122 159 203 261 301 365
#     4  10  22  38  60  96 124 150 206 244 302 370
#     4  11  20  36  60  86 125 163 192 243 302 368
#
# _framework density 19.365675
#
# number of rings (size 3 to 8) (size 9 to 14) (size 15 to 20)
#    0.545    1.455    2.727    1.091    3.818    0.727 
#    1.636    1.818    0.000    0.000    0.000    0.000 
#    0.000    0.000    0.000    0.000    0.000    0.000 
#
# Total GULP energy -122501.844232 kJ/mol
# GULP energy per Si atom -5568.265647 kJ/mol
# Density = 1.932160 g / cm^3
# Si number density = 19.365675 Si / 1000 Ang^3
#
#
#
# Elastic Constant Matrix: (Units=GPa)
#
#
# Indices 1 2 3 4 5 6 
#
# 1 86.5764 40.2167 10.0012 0.0000 0.0000 0.0000
# 2 40.2167 77.8958 33.6148 0.0000 0.0000 0.0000
# 3 10.0012 33.6148 89.6007 0.0000 0.0000 0.0000
# 4 0.0000 0.0000 0.0000 23.8218 0.0000 0.0000
# 5 0.0000 0.0000 0.0000 0.0000 87.6661 0.0000
# 6 0.0000 0.0000 0.0000 0.0000 0.0000 29.9871
#
#
#
# Elastic Compliance Matrix: (Units=1/GPa)
#
#
# Indices 1 2 3 4 5 6 
#
# 1 0.015363 -0.008581 0.001504 0.000000 0.000000 0.000000
# 2 -0.008581 0.020110 -0.006587 0.000000 0.000000 0.000000
# 3 0.001504 -0.006587 0.013464 0.000000 0.000000 0.000000
# 4 0.000000 0.000000 0.000000 0.041978 0.000000 0.000000
# 5 0.000000 0.000000 0.000000 0.000000 0.011407 0.000000
# 6 0.000000 0.000000 0.000000 0.000000 0.000000 0.033348
#
#
# Mechanical properties :
#
#
# Convention : Reuss Voigt Hill
#
# Bulk Modulus (GPa) = 46.27405 46.85980 46.56692
# Shear Modulus (GPa) = 29.37731 39.64437 34.51084
#
# Velocity S-wave (km/s) = 3.89907 4.52945 4.22603
# Velocity P-wave (km/s) = 6.64959 7.18362 6.92176
#
# Compressibility (1/GPa) = 0.02161039
#
# Stress axis : x y z
#
# Youngs Moduli (GPa) = 65.09289 49.72588 74.27304
#
# Poissons Ratio (x) = 0.42669 -0.11174
# Poissons Ratio (y) = 0.55855 0.48922
# Poissons Ratio (z) = -0.09793 0.32754
#
# Static dielectric constant tensor:
#      x y z
#    x 1.685460 0.000000 0.000000 
#    y 0.000000 1.685190 0.000000 
#    z 0.000000 0.000000 1.701410 
# 
# From -- ./inp_files/18318.got.cif
#   From: 2010.05.17/outbox.cif.g08.bks.cpg/sg37_10_cif.got.tgz:18318.got - 2010.06.03 17:53:42.
