data_PCOD9354911
_publ_section_title
;
Structure prediction by ZEFSAII (Michael W. Deem and Ramdas Pophale) SiO2 
 PCOD9354911
Probable space group: C C C 2
;
_chemical_formula_sum "Si O2"
_cell_formula_units_Z 44
_cell_length_a 26.652825
_cell_length_b 8.100020
_cell_length_c 8.675909
_cell_angle_alpha 90.000000
_cell_angle_beta 90.000000
_cell_angle_gamma 90.000000
_cell_volume 1873.028248
_symmetry_space_group_name_H-M "C C C 2"
_symmetry_group_IT_number 37
_symmetry_cell_setting 'orthorhombic'
loop_
_space_group_symop_operation_xyz
x,y,z
-x,-y,z
-x,y,1/2+z
x,-y,1/2+z
1/2+x,1/2+y,z
1/2-x,1/2-y,z
1/2-x,1/2+y,1/2+z
1/2+x,1/2-y,1/2+z
loop_
_atom_site_type_symbol
_atom_site_label
_atom_site_fract_x
_atom_site_fract_y
_atom_site_fract_z
Si Si1 0.104759 0.957150 0.983980
Si Si2 0.832664 0.834065 0.771211
Si Si3 0.228334 0.475161 0.694409
Si Si4 0.000000 0.500000 0.582962
Si Si5 0.750000 0.250000 0.887699
Si Si6 0.043984 0.284220 0.317826
Si Si7 0.500000 0.500000 0.148089
O O1 0.092850 0.824004 0.849858
O O2 0.132914 0.112282 0.912440
O O3 0.137152 0.871590 0.115398
O O4 0.050590 0.003354 0.050778
O O5 0.811693 0.650262 0.767792
O O6 0.783659 0.950726 0.769943
O O7 0.214985 0.659408 0.752603
O O8 0.238679 0.395458 0.522667
O O9 0.975371 0.635981 0.474369
O O10 0.956457 0.426084 0.690736
O O11 0.001691 0.159464 0.255703
#
# Coordination Sequence:
#
# PCOD9354911 Si02
#       7
#     8   8   8   4   4   8   4
#     4  12  23  40  72 111 147 196 265 304 381 459
#     4  10  23  41  69 105 144 194 253 316 375 459
#     4  10  23  48  75 107 153 192 252 324 395 449
#     4  10  24  42  66  92 146 206 248 304 380 424
#     4  10  22  42  84 112 150 202 236 314 402 470
#     4  11  23  42  66  98 143 200 252 307 370 438
#     4  12  24  40  76 102 148 204 248 314 362 456
#
# _framework density 23.491368999999999
#
# number of rings (size 3 to 8) (size 9 to 14) (size 15 to 20)
#    0.000    1.455    3.636    2.727    0.000    3.636 
#    0.000    5.455    0.000    0.000    0.000    0.000 
#    0.000    0.000    0.000    0.000    0.000    0.000 
#
# Total GULP energy -122510.015397 kJ/mol
# GULP energy per Si atom -5568.637063 kJ/mol
# Density = 2.343790 g / cm^3
# Si number density = 23.491369 Si / 1000 Ang^3
#
#
#
# Elastic Constant Matrix: (Units=GPa)
#
#
# Indices 1 2 3 4 5 6 
#
# 1 116.3508 37.4214 45.2874 0.0000 0.0000 0.0000
# 2 37.4214 104.6988 63.1379 0.0000 0.0000 0.0000
# 3 45.2874 63.1379 122.2211 0.0000 0.0000 0.0000
# 4 0.0000 0.0000 0.0000 47.6582 0.0000 0.0000
# 5 0.0000 0.0000 0.0000 0.0000 76.4248 0.0000
# 6 0.0000 0.0000 0.0000 0.0000 0.0000 28.8231
#
#
#
# Elastic Compliance Matrix: (Units=1/GPa)
#
#
# Indices 1 2 3 4 5 6 
#
# 1 0.010326 -0.002009 -0.002788 0.000000 0.000000 0.000000
# 2 -0.002009 0.014264 -0.006624 0.000000 0.000000 0.000000
# 3 -0.002788 -0.006624 0.012637 0.000000 0.000000 0.000000
# 4 0.000000 0.000000 0.000000 0.020983 0.000000 0.000000
# 5 0.000000 0.000000 0.000000 0.000000 0.013085 0.000000
# 6 0.000000 0.000000 0.000000 0.000000 0.000000 0.034694
#
#
# Mechanical properties :
#
#
# Convention : Reuss Voigt Hill
#
# Bulk Modulus (GPa) = 69.52244 70.55157 70.03701
# Shear Modulus (GPa) = 37.41759 43.74282 40.58021
#
# Velocity S-wave (km/s) = 3.99535 4.31986 4.16077
# Velocity P-wave (km/s) = 7.13743 7.41484 7.27745
#
# Compressibility (1/GPa) = 0.01438385
#
# Stress axis : x y z
#
# Youngs Moduli (GPa) = 96.84079 70.10662 79.13308
#
# Poissons Ratio (x) = 0.14087 0.22064
# Poissons Ratio (y) = 0.19459 0.52418
# Poissons Ratio (z) = 0.27001 0.46439
#
# Static dielectric constant tensor:
#      x y z
#    x 1.879380 0.000000 0.000000 
#    y 0.000000 2.075370 0.000000 
#    z 0.000000 0.000000 1.958170 
# 
# From -- ./inp_files/4937.got.cif
#   From: 2010.05.17/outbox.cif.g08.bks.cpg/sg37_3_cif.got.tgz:4937.got - 2010.06.03 17:53:42.
