data_PCOD9354328
_publ_section_title
;
Structure prediction by ZEFSAII (Michael W. Deem and Ramdas Pophale) SiO2 
 PCOD9354328
Probable space group: C C C 2
;
_chemical_formula_sum "Si O2"
_cell_formula_units_Z 32
_cell_length_a 5.537054
_cell_length_b 24.948371
_cell_length_c 8.749103
_cell_angle_alpha 90.000000
_cell_angle_beta 90.000000
_cell_angle_gamma 90.000000
_cell_volume 1208.605266
_symmetry_space_group_name_H-M "C C C 2"
_symmetry_group_IT_number 37
_symmetry_cell_setting 'orthorhombic'
loop_
_space_group_symop_operation_xyz
x,y,z
-x,-y,z
-x,y,1/2+z
x,-y,1/2+z
1/2+x,1/2+y,z
1/2-x,1/2-y,z
1/2-x,1/2+y,1/2+z
1/2+x,1/2-y,1/2+z
loop_
_atom_site_type_symbol
_atom_site_label
_atom_site_fract_x
_atom_site_fract_y
_atom_site_fract_z
Si Si1 0.750000 0.250000 0.185130
Si Si2 0.035971 0.840264 0.984277
Si Si3 0.718731 0.930120 0.085614
Si Si4 0.500000 0.000000 0.823337
Si Si5 0.350019 0.177224 0.191870
O O1 0.792870 0.197456 0.082939
O O2 0.503499 0.226802 0.255455
O O3 0.968407 0.900276 0.039587
O O4 0.779210 0.812000 0.027479
O O5 0.140588 0.837589 0.815559
O O6 0.549877 0.882283 0.154874
O O7 0.706471 0.975579 0.213606
O O8 0.606634 0.954758 0.933715
#
# Coordination Sequence:
#
# PCOD9354328 Si02
#       5
#     4   8   8   4   8
#     4  12  26  46  84 114 166 216 274 338 432 490
#     4  10  26  49  73 119 160 217 265 348 411 513
#     4   9  24  46  82 115 162 209 273 348 413 497
#     4  10  20  52  84 118 158 220 278 356 418 492
#     4  10  26  51  78 116 165 212 276 346 412 515
#
# _framework density 26.476803
#
# number of rings (size 3 to 8) (size 9 to 14) (size 15 to 20)
#    1.500    0.500    0.000    0.750    7.000    4.000 
#    4.500    3.750    0.000    1.500    0.000    0.000 
#    0.000    0.000    0.000    0.000    0.000    0.000 
#
# Total GULP energy -89107.122813 kJ/mol
# GULP energy per Si atom -5569.195176 kJ/mol
# Density = 2.641654 g / cm^3
# Si number density = 26.476803 Si / 1000 Ang^3
#
#
#
# Elastic Constant Matrix: (Units=GPa)
#
#
# Indices 1 2 3 4 5 6 
#
# 1 85.5195 56.4596 62.6841 0.0000 0.0000 0.0000
# 2 56.4596 160.7514 82.3193 0.0000 0.0000 0.0000
# 3 62.6841 82.3193 141.9073 0.0000 0.0000 0.0000
# 4 0.0000 0.0000 0.0000 30.6257 0.0000 0.0000
# 5 0.0000 0.0000 0.0000 0.0000 22.4277 0.0000
# 6 0.0000 0.0000 0.0000 0.0000 0.0000 59.1112
#
#
#
# Elastic Compliance Matrix: (Units=1/GPa)
#
#
# Indices 1 2 3 4 5 6 
#
# 1 0.018431 -0.003278 -0.006240 0.000000 0.000000 0.000000
# 2 -0.003278 0.009433 -0.004024 0.000000 0.000000 0.000000
# 3 -0.006240 -0.004024 0.012137 0.000000 0.000000 0.000000
# 4 0.000000 0.000000 0.000000 0.032652 0.000000 0.000000
# 5 0.000000 0.000000 0.000000 0.000000 0.044588 0.000000
# 6 0.000000 0.000000 0.000000 0.000000 0.000000 0.016917
#
#
# Mechanical properties :
#
#
# Convention : Reuss Voigt Hill
#
# Bulk Modulus (GPa) = 77.41377 87.90045 82.65711
# Shear Modulus (GPa) = 30.20274 34.88060 32.54167
#
# Velocity S-wave (km/s) = 3.38113 3.63354 3.50960
# Velocity P-wave (km/s) = 6.67417 7.13264 6.90721
#
# Compressibility (1/GPa) = 0.01291760
#
# Stress axis : x y z
#
# Youngs Moduli (GPa) = 54.25602 106.01452 82.39003
#
# Poissons Ratio (x) = 0.34752 0.51411
# Poissons Ratio (y) = 0.17785 0.33152
# Poissons Ratio (z) = 0.33855 0.42658
#
# Static dielectric constant tensor:
#      x y z
#    x 2.392100 0.000000 0.000000 
#    y 0.000000 2.118640 0.000000 
#    z 0.000000 0.000000 2.027600 
# 
# From -- ./inp_files/1757.got.cif
#   From: 2010.05.17/outbox.cif.g08.bks.cpg/sg37_1_cif.got.tgz:1757.got - 2010.06.03 17:53:42.
