data_PCOD9354376
_publ_section_title
;
Structure prediction by ZEFSAII (Michael W. Deem and Ramdas Pophale) SiO2 
 PCOD9354376
Probable space group: C C C 2
;
_chemical_formula_sum "Si O2"
_cell_formula_units_Z 56
_cell_length_a 15.264831
_cell_length_b 9.951746
_cell_length_c 13.375626
_cell_angle_alpha 90.000000
_cell_angle_beta 90.000000
_cell_angle_gamma 90.000000
_cell_volume 2031.914363
_symmetry_space_group_name_H-M "C C C 2"
_symmetry_group_IT_number 37
_symmetry_cell_setting 'orthorhombic'
loop_
_space_group_symop_operation_xyz
x,y,z
-x,-y,z
-x,y,1/2+z
x,-y,1/2+z
1/2+x,1/2+y,z
1/2-x,1/2-y,z
1/2-x,1/2+y,1/2+z
1/2+x,1/2-y,1/2+z
loop_
_atom_site_type_symbol
_atom_site_label
_atom_site_fract_x
_atom_site_fract_y
_atom_site_fract_z
Si Si1 0.850611 0.281049 0.773360
Si Si2 0.904849 0.282693 0.171741
Si Si3 0.906450 0.030945 0.508403
Si Si4 0.138061 0.977632 0.293001
Si Si5 0.344821 0.228733 0.480026
Si Si6 0.904719 0.684205 0.071837
Si Si7 0.182313 0.622227 0.365399
O O1 0.750000 0.250000 0.751640
O O2 0.876558 0.370005 0.678925
O O3 0.891955 0.129042 0.770091
O O4 0.887836 0.333147 0.880676
O O5 0.881589 0.129499 0.206290
O O6 0.836960 0.336029 0.088236
O O7 0.888272 0.355463 0.277095
O O8 0.990733 0.300189 0.098413
O O9 0.912502 0.074132 0.391750
O O10 0.867829 0.162679 0.559325
O O11 0.868053 0.883673 0.499073
O O12 0.000000 0.000000 0.553203
O O13 0.241558 0.980504 0.326952
O O14 0.250000 0.250000 0.436474
O O15 0.867420 0.611734 0.972584
O O16 0.250000 0.750000 0.371963
#
# Coordination Sequence:
#
# PCOD9354376 Si02
#       7
#     8   8   8   8   8   8   8
#     4  10  24  38  60  93 126 167 206 274 330 393
#     4  11  22  35  62  90 127 167 208 269 325 401
#     4  11  21  35  59  93 126 161 205 269 328 389
#     4  10  22  39  65  90 127 175 217 258 333 407
#     4  10  21  37  53  85 125 159 210 249 329 393
#     4  12  23  36  61  95 136 159 214 278 334 391
#     4  10  21  41  62  91 125 178 217 256 330 413
#
# _framework density 27.560217000000002
#
# number of rings (size 3 to 8) (size 9 to 14) (size 15 to 20)
#    0.000    1.429    4.286    2.571    6.000    0.000 
#    0.000    0.000    0.000    0.857    0.000    0.000 
#    0.000    0.000    0.000    0.000    0.000    0.000 
#
# Total GULP energy -155902.500625 kJ/mol
# GULP energy per Si atom -5567.946451 kJ/mol
# Density = 2.749749 g / cm^3
# Si number density = 27.560217 Si / 1000 Ang^3
#
#
#
# Elastic Constant Matrix: (Units=GPa)
#
#
# Indices 1 2 3 4 5 6 
#
# 1 68.7788 7.0040 13.0159 0.0000 0.0000 0.0000
# 2 7.0040 106.6487 38.9316 0.0000 0.0000 0.0000
# 3 13.0159 38.9316 274.7309 0.0000 0.0000 0.0000
# 4 0.0000 0.0000 0.0000 37.6624 0.0000 0.0000
# 5 0.0000 0.0000 0.0000 0.0000 3.5990 0.0000
# 6 0.0000 0.0000 0.0000 0.0000 0.0000 27.1188
#
#
#
# Elastic Compliance Matrix: (Units=1/GPa)
#
#
# Indices 1 2 3 4 5 6 
#
# 1 0.014728 -0.000751 -0.000591 0.000000 0.000000 0.000000
# 2 -0.000751 0.009926 -0.001371 0.000000 0.000000 0.000000
# 3 -0.000591 -0.001371 0.003862 0.000000 0.000000 0.000000
# 4 0.000000 0.000000 0.000000 0.026552 0.000000 0.000000
# 5 0.000000 0.000000 0.000000 0.000000 0.277852 0.000000
# 6 0.000000 0.000000 0.000000 0.000000 0.000000 0.036875
#
#
# Mechanical properties :
#
#
# Convention : Reuss Voigt Hill
#
# Bulk Modulus (GPa) = 43.31068 63.11791 53.21429
# Shear Modulus (GPa) = 13.05760 39.75651 26.40706
#
# Velocity S-wave (km/s) = 2.17902 3.80219 3.09877
# Velocity P-wave (km/s) = 4.69892 6.49823 5.67040
#
# Compressibility (1/GPa) = 0.02308899
#
# Stress axis : x y z
#
# Youngs Moduli (GPa) = 67.89892 100.74123 258.91790
#
# Poissons Ratio (x) = 0.07570 0.15309
# Poissons Ratio (y) = 0.05102 0.35499
# Poissons Ratio (z) = 0.04015 0.13812
#
# Static dielectric constant tensor:
#      x y z
#    x 2.576080 0.000000 0.000000 
#    y 0.000000 2.311200 0.000000 
#    z 0.000000 0.000000 2.221820 
# 
# From -- ./inp_files/7841.got.cif
#   From: 2010.05.17/outbox.cif.g08.bks.cpg/sg37_4_cif.got.tgz:7841.got - 2010.06.03 17:53:42.
