data_PCOD9354701
_publ_section_title
;
Structure prediction by ZEFSAII (Michael W. Deem and Ramdas Pophale) SiO2 
 PCOD9354701
Probable space group: C C C 2
;
_chemical_formula_sum "Si O2"
_cell_formula_units_Z 40
_cell_length_a 10.599274
_cell_length_b 10.758563
_cell_length_c 17.542751
_cell_angle_alpha 90.000000
_cell_angle_beta 90.000000
_cell_angle_gamma 90.000000
_cell_volume 2000.451772
_symmetry_space_group_name_H-M "C C C 2"
_symmetry_group_IT_number 37
_symmetry_cell_setting 'orthorhombic'
loop_
_space_group_symop_operation_xyz
x,y,z
-x,-y,z
-x,y,1/2+z
x,-y,1/2+z
1/2+x,1/2+y,z
1/2-x,1/2-y,z
1/2-x,1/2+y,1/2+z
1/2+x,1/2-y,1/2+z
loop_
_atom_site_type_symbol
_atom_site_label
_atom_site_fract_x
_atom_site_fract_y
_atom_site_fract_z
Si Si1 0.172059 0.625071 0.536610
Si Si2 0.000000 0.500000 0.649317
Si Si3 0.250000 0.750000 0.971340
Si Si4 0.855825 0.490010 0.882875
Si Si5 0.874244 0.923357 0.585742
Si Si6 0.758513 0.392590 0.239865
O O1 0.250000 0.750000 0.546147
O O2 0.055462 0.606950 0.593617
O O3 0.142609 0.594065 0.449384
O O4 0.262168 0.513582 0.561400
O O5 0.112091 0.436372 0.697661
O O6 0.186558 0.641158 0.920381
O O7 0.145375 0.807645 0.029009
O O8 0.758789 0.523359 0.815400
O O9 0.000000 0.500000 0.853460
O O10 0.849521 0.899934 0.675042
O O11 0.000000 0.000000 0.572953
O O12 0.750000 0.250000 0.265354
#
# Coordination Sequence:
#
# PCOD9354701 Si02
#       6
#     8   4   4   8   8   8
#     4  10  22  37  68  96 122 167 229 261 319 393
#     4  10  22  42  60  98 128 174 214 274 326 376
#     4  10  24  48  66  94 134 172 226 272 322 398
#     4  11  23  44  67  92 133 176 210 274 336 381
#     4  10  23  41  67  97 127 175 220 270 328 384
#     4  11  23  43  66  94 138 172 215 273 337 388
#
# _framework density 19.995483
#
# number of rings (size 3 to 8) (size 9 to 14) (size 15 to 20)
#    0.000    1.600    3.000    0.600    5.600    0.000 
#   10.800    1.000    0.000    0.000    0.000    0.000 
#    0.000    0.000    0.000    0.000    0.000    0.000 
#
# Total GULP energy -111498.103907 kJ/mol
# GULP energy per Si atom -5574.905195 kJ/mol
# Density = 1.994997 g / cm^3
# Si number density = 19.995483 Si / 1000 Ang^3
#
#
#
# Elastic Constant Matrix: (Units=GPa)
#
#
# Indices 1 2 3 4 5 6 
#
# 1 59.6920 27.0478 28.9617 0.0000 0.0000 0.0000
# 2 27.0478 122.0721 57.8817 0.0000 0.0000 0.0000
# 3 28.9617 57.8817 129.8000 0.0000 0.0000 0.0000
# 4 0.0000 0.0000 0.0000 113.2797 0.0000 0.0000
# 5 0.0000 0.0000 0.0000 0.0000 27.1823 0.0000
# 6 0.0000 0.0000 0.0000 0.0000 0.0000 33.8287
#
#
#
# Elastic Compliance Matrix: (Units=1/GPa)
#
#
# Indices 1 2 3 4 5 6 
#
# 1 0.019548 -0.002870 -0.003082 0.000000 0.000000 0.000000
# 2 -0.002870 0.010810 -0.004180 0.000000 0.000000 0.000000
# 3 -0.003082 -0.004180 0.010256 0.000000 0.000000 0.000000
# 4 0.000000 0.000000 0.000000 0.008828 0.000000 0.000000
# 5 0.000000 0.000000 0.000000 0.000000 0.036789 0.000000
# 6 0.000000 0.000000 0.000000 0.000000 0.000000 0.029561
#
#
# Mechanical properties :
#
#
# Convention : Reuss Voigt Hill
#
# Bulk Modulus (GPa) = 49.13992 59.92739 54.53366
# Shear Modulus (GPa) = 35.00458 48.03635 41.52047
#
# Velocity S-wave (km/s) = 4.18859 4.90671 4.56180
# Velocity P-wave (km/s) = 6.92973 7.88267 7.42151
#
# Compressibility (1/GPa) = 0.02035005
#
# Stress axis : x y z
#
# Youngs Moduli (GPa) = 51.15494 92.50859 97.50567
#
# Poissons Ratio (x) = 0.26551 0.30050
# Poissons Ratio (y) = 0.14682 0.40758
# Poissons Ratio (z) = 0.15765 0.38669
#
# Static dielectric constant tensor:
#      x y z
#    x 1.499330 0.000000 0.000000 
#    y 0.000000 1.415750 0.000000 
#    z 0.000000 0.000000 1.762720 
# 
# From -- ./inp_files/11357.got.cif
#   From: 2010.05.17/outbox.cif.g08.bks.cpg/sg37_6_cif.got.tgz:11357.got - 2010.06.03 17:53:42.
