data_PCOD9354012
_publ_section_title
;
Structure prediction by ZEFSAII (Michael W. Deem and Ramdas Pophale) SiO2 
 PCOD9354012
Probable space group: C C C 2
;
_chemical_formula_sum "Si O2"
_cell_formula_units_Z 64
_cell_length_a 17.944149
_cell_length_b 8.315644
_cell_length_c 19.298368
_cell_angle_alpha 90.000000
_cell_angle_beta 90.000000
_cell_angle_gamma 90.000000
_cell_volume 2879.647568
_symmetry_space_group_name_H-M "C C C 2"
_symmetry_group_IT_number 37
_symmetry_cell_setting 'orthorhombic'
loop_
_space_group_symop_operation_xyz
x,y,z
-x,-y,z
-x,y,1/2+z
x,-y,1/2+z
1/2+x,1/2+y,z
1/2-x,1/2-y,z
1/2-x,1/2+y,1/2+z
1/2+x,1/2-y,1/2+z
loop_
_atom_site_type_symbol
_atom_site_label
_atom_site_fract_x
_atom_site_fract_y
_atom_site_fract_z
Si Si1 0.678135 0.144459 0.925230
Si Si2 0.820838 0.147254 0.644647
Si Si3 0.156551 0.083045 0.768073
Si Si4 0.039346 0.655065 0.765544
Si Si5 0.067121 0.411500 0.116463
Si Si6 0.290230 0.091133 0.585579
Si Si7 0.170006 0.556054 0.295326
Si Si8 0.436074 0.398597 0.376332
O O1 0.750000 0.250000 0.901448
O O2 0.606361 0.259036 0.916715
O O3 0.670331 0.986309 0.877404
O O4 0.688993 0.108155 0.005472
O O5 0.750000 0.250000 0.675441
O O6 0.880386 0.256397 0.603114
O O7 0.860770 0.033060 0.702210
O O8 0.774815 0.038330 0.591974
O O9 0.136237 0.272910 0.770750
O O10 0.245590 0.066790 0.771288
O O11 0.124223 0.010194 0.838927
O O12 0.023197 0.653822 0.684595
O O13 0.126031 0.599929 0.767050
O O14 0.025641 0.809455 0.810585
O O15 0.000000 0.500000 0.798557
O O16 0.133849 0.542295 0.124364
O O17 0.000000 0.500000 0.074911
O O18 0.250000 0.250000 0.613511
O O19 0.500000 0.500000 0.413665
#
# Coordination Sequence:
#
# PCOD9354012 Si02
#       8
#     8   8   8   8   8   8   8   8
#     4  10  21  43  64  86 129 172 218 280 326 382
#     4  10  21  38  63  93 127 173 214 276 330 395
#     4  11  21  34  58  93 127 155 211 260 330 399
#     4  10  20  36  59  86 132 166 202 258 337 396
#     4  10  21  41  63  90 129 177 213 267 340 394
#     4  10  23  42  65  93 124 173 234 278 325 390
#     4  10  21  34  59  92 120 162 204 268 321 396
#     4  11  22  38  62  94 134 168 211 263 341 402
#
# _framework density 22.224943
#
# number of rings (size 3 to 8) (size 9 to 14) (size 15 to 20)
#    0.000    1.750    2.500    2.250    5.250    0.000 
#    6.750    6.875    0.000    0.000    0.000    0.000 
#    0.000    0.000    0.000    0.000    0.000    0.000 
#
# Total GULP energy -178256.767621 kJ/mol
# GULP energy per Si atom -5570.523988 kJ/mol
# Density = 2.217436 g / cm^3
# Si number density = 22.224943 Si / 1000 Ang^3
#
#
#
# Elastic Constant Matrix: (Units=GPa)
#
#
# Indices 1 2 3 4 5 6 
#
# 1 108.4256 41.8387 6.3938 0.0000 0.0000 0.0000
# 2 41.8387 117.4760 21.0947 0.0000 0.0000 0.0000
# 3 6.3938 21.0947 60.6105 0.0000 0.0000 0.0000
# 4 0.0000 0.0000 0.0000 18.8467 0.0000 0.0000
# 5 0.0000 0.0000 0.0000 0.0000 12.4075 0.0000
# 6 0.0000 0.0000 0.0000 0.0000 0.0000 47.0289
#
#
#
# Elastic Compliance Matrix: (Units=1/GPa)
#
#
# Indices 1 2 3 4 5 6 
#
# 1 0.010695 -0.003847 0.000211 0.000000 0.000000 0.000000
# 2 -0.003847 0.010463 -0.003236 0.000000 0.000000 0.000000
# 3 0.000211 -0.003236 0.017603 0.000000 0.000000 0.000000
# 4 0.000000 0.000000 0.000000 0.053060 0.000000 0.000000
# 5 0.000000 0.000000 0.000000 0.000000 0.080596 0.000000
# 6 0.000000 0.000000 0.000000 0.000000 0.000000 0.021264
#
#
# Mechanical properties :
#
#
# Convention : Reuss Voigt Hill
#
# Bulk Modulus (GPa) = 39.97272 47.24072 43.60672
# Shear Modulus (GPa) = 23.17351 30.13561 26.65456
#
# Velocity S-wave (km/s) = 3.23256 3.68630 3.46686
# Velocity P-wave (km/s) = 5.65307 6.27856 5.97400
#
# Compressibility (1/GPa) = 0.02501706
#
# Stress axis : x y z
#
# Youngs Moduli (GPa) = 93.50288 95.57084 56.80916
#
# Poissons Ratio (x) = 0.36764 -0.01197
# Poissons Ratio (y) = 0.35968 0.18383
# Poissons Ratio (z) = -0.01969 0.30926
#
# Static dielectric constant tensor:
#      x y z
#    x 1.888440 0.000000 0.000000 
#    y 0.000000 1.898970 0.000000 
#    z 0.000000 0.000000 1.849290 
# 
# From -- ./inp_files/17334.got.cif
#   From: 2010.05.17/outbox.cif.g08.bks.cpg/sg37_9_cif.got.tgz:17334.got - 2010.06.03 17:53:42.
