data_PCOD9354716
_publ_section_title
;
Structure prediction by ZEFSAII (Michael W. Deem and Ramdas Pophale) SiO2 
 PCOD9354716
Probable space group: C C C 2
;
_chemical_formula_sum "Si O2"
_cell_formula_units_Z 20
_cell_length_a 13.078127
_cell_length_b 11.393939
_cell_length_c 5.390795
_cell_angle_alpha 90.000000
_cell_angle_beta 90.000000
_cell_angle_gamma 90.000000
_cell_volume 803.289809
_symmetry_space_group_name_H-M "C C C 2"
_symmetry_group_IT_number 37
_symmetry_cell_setting 'orthorhombic'
loop_
_space_group_symop_operation_xyz
x,y,z
-x,-y,z
-x,y,1/2+z
x,-y,1/2+z
1/2+x,1/2+y,z
1/2-x,1/2-y,z
1/2-x,1/2+y,1/2+z
1/2+x,1/2-y,1/2+z
loop_
_atom_site_type_symbol
_atom_site_label
_atom_site_fract_x
_atom_site_fract_y
_atom_site_fract_z
Si Si1 0.619017 0.424305 0.687810
Si Si2 0.533307 0.799792 0.718971
Si Si3 0.750000 0.750000 0.950268
O O1 0.611830 0.508317 0.447210
O O2 0.534261 0.320748 0.690345
O O3 0.650924 0.772926 0.781202
O O4 0.516603 0.860418 0.456941
O O5 0.224714 0.857667 0.632058
#
# Coordination Sequence:
#
# PCOD9354716 Si02
#       3
#     8   8   4
#     4  11  24  42  68 102 136 178 235 292 346 415
#     4  10  22  38  62  94 134 174 223 283 344 406
#     4  10  24  42  68 102 144 184 232 296 364 420
#
# _framework density 24.897617
#
# number of rings (size 3 to 8) (size 9 to 14) (size 15 to 20)
#    0.000    1.600    0.000    4.800    0.000   33.600 
#    0.000    0.000    0.000   28.800    0.000    0.000 
#    0.000    0.000    0.000    0.000    0.000    0.000 
#
# Total GULP energy -55916.388243 kJ/mol
# GULP energy per Si atom -5591.638824 kJ/mol
# Density = 2.484095 g / cm^3
# Si number density = 24.897617 Si / 1000 Ang^3
#
#
#
# Elastic Constant Matrix: (Units=GPa)
#
#
# Indices 1 2 3 4 5 6 
#
# 1 148.9330 18.4797 51.5084 0.0000 0.0000 0.0000
# 2 18.4797 95.1104 36.0673 0.0000 0.0000 0.0000
# 3 51.5084 36.0673 233.5081 0.0000 0.0000 0.0000
# 4 0.0000 0.0000 0.0000 1.3458 0.0000 0.0000
# 5 0.0000 0.0000 0.0000 0.0000 51.7118 0.0000
# 6 0.0000 0.0000 0.0000 0.0000 0.0000 51.8711
#
#
#
# Elastic Compliance Matrix: (Units=1/GPa)
#
#
# Indices 1 2 3 4 5 6 
#
# 1 0.007335 -0.000862 -0.001485 0.000000 0.000000 0.000000
# 2 -0.000862 0.011270 -0.001551 0.000000 0.000000 0.000000
# 3 -0.001485 -0.001551 0.004850 0.000000 0.000000 0.000000
# 4 0.000000 0.000000 0.000000 0.743045 0.000000 0.000000
# 5 0.000000 0.000000 0.000000 0.000000 0.019338 0.000000
# 6 0.000000 0.000000 0.000000 0.000000 0.000000 0.019279
#
#
# Mechanical properties :
#
#
# Convention : Reuss Voigt Hill
#
# Bulk Modulus (GPa) = 63.86030 76.62915 70.24472
# Shear Modulus (GPa) = 6.11150 45.75215 25.93182
#
# Velocity S-wave (km/s) = 1.56843 4.29139 3.23079
# Velocity P-wave (km/s) = 5.38376 7.44306 6.49554
#
# Compressibility (1/GPa) = 0.01565918
#
# Stress axis : x y z
#
# Youngs Moduli (GPa) = 136.33410 88.73443 206.20568
#
# Poissons Ratio (x) = 0.07650 0.30618
# Poissons Ratio (y) = 0.11753 0.31973
# Poissons Ratio (z) = 0.20243 0.13758
#
# Static dielectric constant tensor:
#      x y z
#    x 1.984590 0.000000 0.000000 
#    y 0.000000 2.014860 0.000000 
#    z 0.000000 0.000000 2.072530 
# 
# From -- ./inp_files/186.got.cif
#   From: 2010.05.17/outbox.cif.g08.bks.cpg/sg37_1_cif.got.tgz:186.got - 2010.06.03 17:53:42.
