data_PCOD9354064
_publ_section_title
;
Structure prediction by ZEFSAII (Michael W. Deem and Ramdas Pophale) SiO2 
 PCOD9354064
Probable space group: C C C 2
;
_chemical_formula_sum "Si O2"
_cell_formula_units_Z 64
_cell_length_a 8.877444
_cell_length_b 32.798897
_cell_length_c 10.325786
_cell_angle_alpha 90.000000
_cell_angle_beta 90.000000
_cell_angle_gamma 90.000000
_cell_volume 3006.562944
_symmetry_space_group_name_H-M "C C C 2"
_symmetry_group_IT_number 37
_symmetry_cell_setting 'orthorhombic'
loop_
_space_group_symop_operation_xyz
x,y,z
-x,-y,z
-x,y,1/2+z
x,-y,1/2+z
1/2+x,1/2+y,z
1/2-x,1/2-y,z
1/2-x,1/2+y,1/2+z
1/2+x,1/2-y,1/2+z
loop_
_atom_site_type_symbol
_atom_site_label
_atom_site_fract_x
_atom_site_fract_y
_atom_site_fract_z
Si Si1 0.715546 0.296571 0.792910
Si Si2 0.261917 0.507632 0.803106
Si Si3 0.421002 0.652957 0.326808
Si Si4 0.770211 0.538088 0.558293
Si Si5 0.285017 0.795773 0.497627
Si Si6 0.869663 0.379228 0.190511
Si Si7 0.543585 0.846488 0.422103
Si Si8 0.494154 0.559667 0.389277
O O1 0.750000 0.250000 0.839637
O O2 0.545911 0.314298 0.780854
O O3 0.793471 0.297871 0.652160
O O4 0.794576 0.330468 0.881766
O O5 0.204170 0.496957 0.662786
O O6 0.392728 0.541103 0.782530
O O7 0.343618 0.467413 0.867844
O O8 0.162190 0.526878 0.917795
O O9 0.342675 0.673311 0.450920
O O10 0.285651 0.644333 0.224962
O O11 0.475719 0.607615 0.368103
O O12 0.828337 0.577158 0.633290
O O13 0.594435 0.547564 0.516430
O O14 0.250000 0.750000 0.461415
O O15 0.433476 0.808041 0.420794
O O16 0.972581 0.377836 0.319075
O O17 0.956487 0.359930 0.069900
#
# Coordination Sequence:
#
# PCOD9354064 Si02
#       8
#     8   8   8   8   8   8   8   8
#     4  11  24  41  66  97 138 176 224 278 343 400
#     4   9  20  32  57  93 140 164 203 276 345 384
#     4  11  23  39  68 104 128 174 231 288 323 408
#     4  10  20  37  58  96 128 175 210 270 336 401
#     4  10  23  43  64  94 137 174 225 275 341 407
#     4  11  24  43  70  95 134 173 242 269 345 401
#     4  11  23  47  64  98 129 189 215 284 339 412
#     4   9  20  31  59  95 133 162 207 272 343 380
#
# _framework density 21.286764000000002
#
# number of rings (size 3 to 8) (size 9 to 14) (size 15 to 20)
#    0.750    1.000    2.500    1.500    7.000    0.000 
#    0.000    1.875    0.000    2.250    0.000    0.000 
#    0.000    0.000    0.000    0.000    0.000    0.000 
#
# Total GULP energy -178165.610224 kJ/mol
# GULP energy per Si atom -5567.675319 kJ/mol
# Density = 2.123831 g / cm^3
# Si number density = 21.286764 Si / 1000 Ang^3
#
#
#
# Elastic Constant Matrix: (Units=GPa)
#
#
# Indices 1 2 3 4 5 6 
#
# 1 41.5100 10.8362 11.5287 0.0000 0.0000 0.0000
# 2 10.8362 82.8214 5.7200 0.0000 0.0000 0.0000
# 3 11.5287 5.7200 83.7304 0.0000 0.0000 0.0000
# 4 0.0000 0.0000 0.0000 -13.0154 0.0000 0.0000
# 5 0.0000 0.0000 0.0000 0.0000 -402.4858 0.0000
# 6 0.0000 0.0000 0.0000 0.0000 0.0000 17.5383
#
#
#
# Elastic Compliance Matrix: (Units=1/GPa)
#
#
# Indices 1 2 3 4 5 6 
#
# 1 0.025841 -0.003150 -0.003343 0.000000 0.000000 0.000000
# 2 -0.003150 0.012515 -0.000421 0.000000 0.000000 0.000000
# 3 -0.003343 -0.000421 0.012432 0.000000 0.000000 0.000000
# 4 0.000000 0.000000 0.000000 -0.076832 0.000000 0.000000
# 5 0.000000 0.000000 0.000000 0.000000 -0.002485 0.000000
# 6 0.000000 0.000000 0.000000 0.000000 0.000000 0.057018
#
#
# Mechanical properties :
#
#
# Convention : Reuss Voigt Hill
#
# Bulk Modulus (GPa) = 27.05599 29.35908 28.20753
# Shear Modulus (GPa) = 91.50945 -67.59411 11.95767
#
# Velocity S-wave (km/s) = 6.56370 -5.64119 2.37268
# Velocity P-wave (km/s) = 8.37740 5.34870 4.55918
#
# Compressibility (1/GPa) = 0.03696040
#
# Stress axis : x y z
#
# Youngs Moduli (GPa) = 38.69766 79.90142 80.43671
#
# Poissons Ratio (x) = 0.25170 0.26889
# Poissons Ratio (y) = 0.12190 0.03388
# Poissons Ratio (z) = 0.12936 0.03366
#
# Static dielectric constant tensor:
#      x y z
#    x 3.271410 0.000000 0.000000 
#    y 0.000000 1.849890 0.000000 
#    z 0.000000 0.000000 1.781500 
# 
# From -- ./inp_files/6648.got.cif
#   From: 2010.05.17/outbox.cif.g08.bks.cpg/sg37_4_cif.got.tgz:6648.got - 2010.06.03 17:53:42.
