data_PCOD9354775
_publ_section_title
;
Structure prediction by ZEFSAII (Michael W. Deem and Ramdas Pophale) SiO2 
 PCOD9354775
Probable space group: C C C 2
;
_chemical_formula_sum "Si O2"
_cell_formula_units_Z 40
_cell_length_a 20.645144
_cell_length_b 8.361939
_cell_length_c 10.851865
_cell_angle_alpha 90.000000
_cell_angle_beta 90.000000
_cell_angle_gamma 90.000000
_cell_volume 1873.394729
_symmetry_space_group_name_H-M "C C C 2"
_symmetry_group_IT_number 37
_symmetry_cell_setting 'orthorhombic'
loop_
_space_group_symop_operation_xyz
x,y,z
-x,-y,z
-x,y,1/2+z
x,-y,1/2+z
1/2+x,1/2+y,z
1/2-x,1/2-y,z
1/2-x,1/2+y,1/2+z
1/2+x,1/2-y,1/2+z
loop_
_atom_site_type_symbol
_atom_site_label
_atom_site_fract_x
_atom_site_fract_y
_atom_site_fract_z
Si Si1 0.064511 0.422852 0.025950
Si Si2 0.873945 0.669146 0.692209
Si Si3 0.938395 0.111867 0.398541
Si Si4 0.173051 0.865567 0.954209
Si Si5 0.188974 0.535692 0.874467
O O1 0.078744 0.524319 0.148870
O O2 0.000000 0.500000 0.968460
O O3 0.052528 0.234447 0.013400
O O4 0.130663 0.461602 0.953646
O O5 0.915779 0.781109 0.782570
O O6 0.846005 0.774669 0.580190
O O7 0.813482 0.579064 0.757121
O O8 0.879680 0.996286 0.428321
O O9 0.000000 0.000000 0.376319
O O10 0.171955 0.722253 0.852944
O O11 0.243108 0.949027 0.945181
#
# Coordination Sequence:
#
# PCOD9354775 Si02
#       5
#     8   8   8   8   8
#     4  10  22  40  62  90 130 171 210 260 320 384
#     4  10  23  41  66  92 131 176 208 257 334 384
#     4  11  24  41  65  97 130 165 220 272 308 377
#     4  10  22  41  65  96 129 166 218 269 312 377
#     4   9  21  41  63  92 131 168 209 261 318 383
#
# _framework density 21.351614999999999
#
# number of rings (size 3 to 8) (size 9 to 14) (size 15 to 20)
#    0.000    2.000    0.000    2.400    0.000   18.400 
#    0.000    6.000    0.000    0.000    0.000    0.000 
#    0.000    0.000    0.000    0.000    0.000    0.000 
#
# Total GULP energy -111493.229355 kJ/mol
# GULP energy per Si atom -5574.661468 kJ/mol
# Density = 2.130302 g / cm^3
# Si number density = 21.351615 Si / 1000 Ang^3
#
#
#
# Elastic Constant Matrix: (Units=GPa)
#
#
# Indices 1 2 3 4 5 6 
#
# 1 138.2307 85.5740 37.0778 0.0000 0.0000 0.0000
# 2 85.5740 157.7133 65.7428 0.0000 0.0000 0.0000
# 3 37.0778 65.7428 80.6748 0.0000 0.0000 0.0000
# 4 0.0000 0.0000 0.0000 55.2773 0.0000 0.0000
# 5 0.0000 0.0000 0.0000 0.0000 9.6566 0.0000
# 6 0.0000 0.0000 0.0000 0.0000 0.0000 45.9666
#
#
#
# Elastic Compliance Matrix: (Units=1/GPa)
#
#
# Indices 1 2 3 4 5 6 
#
# 1 0.010898 -0.005793 -0.000288 0.000000 0.000000 0.000000
# 2 -0.005793 0.012682 -0.007672 0.000000 0.000000 0.000000
# 3 -0.000288 -0.007672 0.018780 0.000000 0.000000 0.000000
# 4 0.000000 0.000000 0.000000 0.018091 0.000000 0.000000
# 5 0.000000 0.000000 0.000000 0.000000 0.103556 0.000000
# 6 0.000000 0.000000 0.000000 0.000000 0.000000 0.021755
#
#
# Mechanical properties :
#
#
# Convention : Reuss Voigt Hill
#
# Bulk Modulus (GPa) = 67.32388 83.71199 75.51794
# Shear Modulus (GPa) = 22.91278 34.72839 28.82058
#
# Velocity S-wave (km/s) = 3.27940 4.03736 3.67796
# Velocity P-wave (km/s) = 6.77782 7.81187 7.31314
#
# Compressibility (1/GPa) = 0.01485357
#
# Stress axis : x y z
#
# Youngs Moduli (GPa) = 91.76179 78.85106 53.24838
#
# Poissons Ratio (x) = 0.45679 0.01532
# Poissons Ratio (y) = 0.53159 0.40854
# Poissons Ratio (z) = 0.02640 0.60497
#
# Static dielectric constant tensor:
#      x y z
#    x 2.230910 0.000000 0.000000 
#    y 0.000000 1.783690 0.000000 
#    z 0.000000 0.000000 1.882660 
# 
# From -- ./inp_files/6121.got.cif
#   From: 2010.05.17/outbox.cif.g08.bks.cpg/sg37_4_cif.got.tgz:6121.got - 2010.06.03 17:53:42.
