data_PCOD9354040
_publ_section_title
;
Structure prediction by ZEFSAII (Michael W. Deem and Ramdas Pophale) SiO2 
 PCOD9354040
Probable space group: C C C 2
;
_chemical_formula_sum "Si O2"
_cell_formula_units_Z 64
_cell_length_a 15.198262
_cell_length_b 9.330892
_cell_length_c 21.365286
_cell_angle_alpha 90.000000
_cell_angle_beta 90.000000
_cell_angle_gamma 90.000000
_cell_volume 3029.882596
_symmetry_space_group_name_H-M "C C C 2"
_symmetry_group_IT_number 37
_symmetry_cell_setting 'orthorhombic'
loop_
_space_group_symop_operation_xyz
x,y,z
-x,-y,z
-x,y,1/2+z
x,-y,1/2+z
1/2+x,1/2+y,z
1/2-x,1/2-y,z
1/2-x,1/2+y,1/2+z
1/2+x,1/2-y,1/2+z
loop_
_atom_site_type_symbol
_atom_site_label
_atom_site_fract_x
_atom_site_fract_y
_atom_site_fract_z
Si Si1 0.116356 0.725420 0.529290
Si Si2 0.578604 0.260548 0.064108
Si Si3 0.666121 0.351939 0.935370
Si Si4 0.335301 0.685322 0.394756
Si Si5 0.127512 0.974318 0.624321
Si Si6 0.517569 0.332874 0.833164
Si Si7 0.145301 0.268432 0.227477
Si Si8 0.325402 0.996806 0.128005
O O1 0.148200 0.729034 0.458962
O O2 0.130661 0.878777 0.561711
O O3 0.166245 0.610662 0.571311
O O4 0.011888 0.703893 0.534945
O O5 0.563533 0.393838 0.110752
O O6 0.620040 0.137390 0.105712
O O7 0.640158 0.316996 0.007374
O O8 0.750000 0.250000 0.919913
O O9 0.680067 0.519382 0.916189
O O10 0.578322 0.321501 0.895014
O O11 0.250000 0.750000 0.362753
O O12 0.419807 0.711713 0.351886
O O13 0.120041 0.860457 0.680031
O O14 0.223812 0.042221 0.635433
O O15 0.500000 0.500000 0.815012
O O16 0.574898 0.248043 0.782410
O O17 0.250000 0.250000 0.245073
O O18 0.141180 0.416113 0.188500
#
# Coordination Sequence:
#
# PCOD9354040 Si02
#       8
#     8   8   8   8   8   8   8   8
#     4  11  21  36  56  90 135 172 209 256 328 395
#     4  12  22  35  58 100 139 167 210 270 323 391
#     4  11  23  39  63  97 136 173 214 271 332 394
#     4  11  23  41  65  95 136 174 219 277 333 399
#     4  10  20  36  64  92 127 171 218 258 323 393
#     4  10  22  42  70  97 127 170 238 274 317 396
#     4   9  20  41  69  95 129 179 223 270 327 391
#     4  10  22  38  59  98 133 170 212 266 329 389
#
# _framework density 21.122931999999999
#
# number of rings (size 3 to 8) (size 9 to 14) (size 15 to 20)
#    0.000    1.500    2.500    4.125    1.750    2.000 
#    0.000    0.625    0.000   48.000    0.000    0.000 
#    0.000    0.000    0.000    0.000    0.000    0.000 
#
# Total GULP energy -178646.895278 kJ/mol
# GULP energy per Si atom -5582.715477 kJ/mol
# Density = 2.107485 g / cm^3
# Si number density = 21.122932 Si / 1000 Ang^3
#
#
#
# Elastic Constant Matrix: (Units=GPa)
#
#
# Indices 1 2 3 4 5 6 
#
# 1 128.7636 43.3846 44.5826 0.0000 0.0000 0.0000
# 2 43.3846 76.5228 31.7610 0.0000 0.0000 0.0000
# 3 44.5826 31.7610 83.5439 0.0000 0.0000 0.0000
# 4 0.0000 0.0000 0.0000 -2.4580 0.0000 0.0000
# 5 0.0000 0.0000 0.0000 0.0000 38.2686 0.0000
# 6 0.0000 0.0000 0.0000 0.0000 0.0000 36.3753
#
#
#
# Elastic Compliance Matrix: (Units=1/GPa)
#
#
# Indices 1 2 3 4 5 6 
#
# 1 0.010624 -0.004358 -0.004013 0.000000 0.000000 0.000000
# 2 -0.004358 0.017304 -0.004253 0.000000 0.000000 0.000000
# 3 -0.004013 -0.004253 0.015728 0.000000 0.000000 0.000000
# 4 0.000000 0.000000 0.000000 -0.406830 0.000000 0.000000
# 5 0.000000 0.000000 0.000000 0.000000 0.026131 0.000000
# 6 0.000000 0.000000 0.000000 0.000000 0.000000 0.027491
#
#
# Mechanical properties :
#
#
# Convention : Reuss Voigt Hill
#
# Bulk Modulus (GPa) = 54.32148 58.69852 56.51000
# Shear Modulus (GPa) = -17.97462 25.71065 3.86802
#
# Velocity S-wave (km/s) = -2.92027 3.49261 1.35468
# Velocity P-wave (km/s) = 3.79499 6.64182 5.40906
#
# Compressibility (1/GPa) = 0.01840892
#
# Stress axis : x y z
#
# Youngs Moduli (GPa) = 94.12902 57.79078 63.58118
#
# Poissons Ratio (x) = 0.25183 0.25513
# Poissons Ratio (y) = 0.41018 0.27041
# Poissons Ratio (z) = 0.37770 0.24578
#
# Static dielectric constant tensor:
#      x y z
#    x 1.784860 0.000000 0.000000 
#    y 0.000000 1.771520 0.000000 
#    z 0.000000 0.000000 1.756910 
# 
# From -- ./inp_files/18929.got.cif
#   From: 2010.05.17/outbox.cif.g08.bks.cpg/sg37_10_cif.got.tgz:18929.got - 2010.06.03 17:53:42.
