data_PCOD9354302
_publ_section_title
;
Structure prediction by ZEFSAII (Michael W. Deem and Ramdas Pophale) SiO2 
 PCOD9354302
Probable space group: C C C 2
;
_chemical_formula_sum "Si O2"
_cell_formula_units_Z 60
_cell_length_a 26.125252
_cell_length_b 8.919533
_cell_length_c 12.600457
_cell_angle_alpha 90.000000
_cell_angle_beta 90.000000
_cell_angle_gamma 90.000000
_cell_volume 2936.222089
_symmetry_space_group_name_H-M "C C C 2"
_symmetry_group_IT_number 37
_symmetry_cell_setting 'orthorhombic'
loop_
_space_group_symop_operation_xyz
x,y,z
-x,-y,z
-x,y,1/2+z
x,-y,1/2+z
1/2+x,1/2+y,z
1/2-x,1/2-y,z
1/2-x,1/2+y,1/2+z
1/2+x,1/2-y,1/2+z
loop_
_atom_site_type_symbol
_atom_site_label
_atom_site_fract_x
_atom_site_fract_y
_atom_site_fract_z
Si Si1 0.750000 0.250000 0.128070
Si Si2 0.335561 0.438416 0.730009
Si Si3 0.899052 0.836991 0.370008
Si Si4 0.024124 0.256203 0.191033
Si Si5 0.075383 0.576415 0.200029
Si Si6 0.631081 0.181784 0.394214
Si Si7 0.157307 0.596178 0.013164
Si Si8 0.909537 0.064216 0.547902
O O1 0.720994 0.384159 0.192997
O O2 0.791874 0.326617 0.054118
O O3 0.353573 0.579514 0.803067
O O4 0.350214 0.295474 0.802859
O O5 0.369286 0.477801 0.625163
O O6 0.946871 0.788610 0.298688
O O7 0.873167 0.702671 0.432987
O O8 0.921458 0.952831 0.453926
O O9 0.047968 0.420723 0.170694
O O10 0.042934 0.129013 0.111800
O O11 0.963790 0.284704 0.187556
O O12 0.090548 0.585599 0.324383
O O13 0.122421 0.580581 0.118726
O O14 0.613151 0.288339 0.489716
O O15 0.666629 0.059287 0.451075
#
# Coordination Sequence:
#
# PCOD9354302 Si02
#       8
#     4   8   8   8   8   8   8   8
#     4  12  24  44  72  96 130 184 224 290 352 390
#     4  10  23  43  67  93 137 173 222 283 336 411
#     4  10  21  42  68  96 141 176 219 283 340 408
#     4  10  22  39  68  98 139 179 222 275 347 400
#     4  11  22  42  64 103 136 174 229 284 322 414
#     4  11  22  42  71  92 134 181 220 276 344 399
#     4  12  24  43  68 100 136 174 232 285 335 407
#     4  10  20  43  67  99 136 178 218 281 343 400
#
# _framework density 20.434421
#
# number of rings (size 3 to 8) (size 9 to 14) (size 15 to 20)
#    0.000    1.333    5.333    0.000    0.000    2.133 
#    0.000   14.667    0.000    0.000    0.000    0.000 
#    0.000    0.000    0.000    0.000    0.000    0.000 
#
# Total GULP energy -167176.979826 kJ/mol
# GULP energy per Si atom -5572.565994 kJ/mol
# Density = 2.038791 g / cm^3
# Si number density = 20.434421 Si / 1000 Ang^3
#
#
#
# Elastic Constant Matrix: (Units=GPa)
#
#
# Indices 1 2 3 4 5 6 
#
# 1 83.4006 28.3127 39.2779 0.0000 0.0000 0.0000
# 2 28.3127 89.4033 37.3992 0.0000 0.0000 0.0000
# 3 39.2779 37.3992 96.3557 0.0000 0.0000 0.0000
# 4 0.0000 0.0000 0.0000 19.0623 0.0000 0.0000
# 5 0.0000 0.0000 0.0000 0.0000 16.8623 0.0000
# 6 0.0000 0.0000 0.0000 0.0000 0.0000 13.0833
#
#
#
# Elastic Compliance Matrix: (Units=1/GPa)
#
#
# Indices 1 2 3 4 5 6 
#
# 1 0.015359 -0.002680 -0.005221 0.000000 0.000000 0.000000
# 2 -0.002680 0.013821 -0.004272 0.000000 0.000000 0.000000
# 3 -0.005221 -0.004272 0.014164 0.000000 0.000000 0.000000
# 4 0.000000 0.000000 0.000000 0.052460 0.000000 0.000000
# 5 0.000000 0.000000 0.000000 0.000000 0.059304 0.000000
# 6 0.000000 0.000000 0.000000 0.000000 0.000000 0.076433
#
#
# Mechanical properties :
#
#
# Convention : Reuss Voigt Hill
#
# Bulk Modulus (GPa) = 52.63410 53.23771 52.93591
# Shear Modulus (GPa) = 19.06801 20.74623 19.90712
#
# Velocity S-wave (km/s) = 3.05804 3.18977 3.12460
# Velocity P-wave (km/s) = 6.18727 6.29886 6.24331
#
# Compressibility (1/GPa) = 0.01899909
#
# Stress axis : x y z
#
# Youngs Moduli (GPa) = 65.10936 72.35339 70.59948
#
# Poissons Ratio (x) = 0.19391 0.36857
# Poissons Ratio (y) = 0.17450 0.30160
# Poissons Ratio (z) = 0.33991 0.30909
#
# Static dielectric constant tensor:
#      x y z
#    x 1.711090 0.000000 0.000000 
#    y 0.000000 1.767180 0.000000 
#    z 0.000000 0.000000 1.742020 
# 
# From -- ./inp_files/9077.got.cif
#   From: 2010.05.17/outbox.cif.g08.bks.cpg/sg37_5_cif.got.tgz:9077.got - 2010.06.03 17:53:42.
