data_PCOD9354668
_publ_section_title
;
Structure prediction by ZEFSAII (Michael W. Deem and Ramdas Pophale) SiO2 
 PCOD9354668
Probable space group: C C C 2
;
_chemical_formula_sum "Si O2"
_cell_formula_units_Z 32
_cell_length_a 17.379000
_cell_length_b 10.018423
_cell_length_c 9.001840
_cell_angle_alpha 90.000000
_cell_angle_beta 90.000000
_cell_angle_gamma 90.000000
_cell_volume 1567.311923
_symmetry_space_group_name_H-M "C C C 2"
_symmetry_group_IT_number 37
_symmetry_cell_setting 'orthorhombic'
loop_
_space_group_symop_operation_xyz
x,y,z
-x,-y,z
-x,y,1/2+z
x,-y,1/2+z
1/2+x,1/2+y,z
1/2-x,1/2-y,z
1/2-x,1/2+y,1/2+z
1/2+x,1/2-y,1/2+z
loop_
_atom_site_type_symbol
_atom_site_label
_atom_site_fract_x
_atom_site_fract_y
_atom_site_fract_z
Si Si1 0.644463 0.083592 0.462870
Si Si2 0.000000 0.000000 0.086048
Si Si3 0.395950 0.167116 0.270745
Si Si4 0.250000 0.750000 0.634486
Si Si5 0.946161 0.813593 0.834475
O O1 0.590682 0.097237 0.609780
O O2 0.726969 0.124655 0.531220
O O3 0.618551 0.202013 0.352537
O O4 0.634425 0.944117 0.383624
O O5 0.052848 0.908587 0.191607
O O6 0.949602 0.906044 0.979904
O O7 0.325893 0.267668 0.233752
O O8 0.472192 0.236832 0.326383
#
# Coordination Sequence:
#
# PCOD9354668 Si02
#       5
#     8   4   8   4   8
#     4  10  22  42  66  90 124 163 214 259 315 371
#     4  10  22  36  58  94 132 160 200 242 340 348
#     4  10  22  42  66  90 124 163 214 259 315 371
#     4   8  22  46  52 100 120 162 194 264 316 390
#     4  11  21  40  60 100 121 167 206 264 298 393
#
# _framework density 20.417121999999999
#
# number of rings (size 3 to 8) (size 9 to 14) (size 15 to 20)
#    1.500    0.500    2.500    0.750    3.500    2.000 
#   18.000    1.250    0.000    0.000    0.000    0.000 
#    0.000    0.000    0.000    0.000    0.000    0.000 
#
# Total GULP energy -89151.565987 kJ/mol
# GULP energy per Si atom -5571.972874 kJ/mol
# Density = 2.037065 g / cm^3
# Si number density = 20.417122 Si / 1000 Ang^3
#
#
#
# Elastic Constant Matrix: (Units=GPa)
#
#
# Indices 1 2 3 4 5 6 
#
# 1 62.5200 37.4695 15.4976 0.0000 0.0000 0.0000
# 2 37.4695 97.8528 41.7418 0.0000 0.0000 0.0000
# 3 15.4976 41.7418 82.2951 0.0000 0.0000 0.0000
# 4 0.0000 0.0000 0.0000 32.9701 0.0000 0.0000
# 5 0.0000 0.0000 0.0000 0.0000 21.5480 0.0000
# 6 0.0000 0.0000 0.0000 0.0000 0.0000 25.5015
#
#
#
# Elastic Compliance Matrix: (Units=1/GPa)
#
#
# Indices 1 2 3 4 5 6 
#
# 1 0.020760 -0.008016 0.000156 0.000000 0.000000 0.000000
# 2 -0.008016 0.016136 -0.006675 0.000000 0.000000 0.000000
# 3 0.000156 -0.006675 0.015508 0.000000 0.000000 0.000000
# 4 0.000000 0.000000 0.000000 0.030331 0.000000 0.000000
# 5 0.000000 0.000000 0.000000 0.000000 0.046408 0.000000
# 6 0.000000 0.000000 0.000000 0.000000 0.000000 0.039213
#
#
# Mechanical properties :
#
#
# Convention : Reuss Voigt Hill
#
# Bulk Modulus (GPa) = 42.85464 48.00952 45.43208
# Shear Modulus (GPa) = 24.36593 25.86785 25.11689
#
# Velocity S-wave (km/s) = 3.45832 3.56331 3.51121
# Velocity P-wave (km/s) = 6.08126 6.36357 6.22402
#
# Compressibility (1/GPa) = 0.02333469
#
# Stress axis : x y z
#
# Youngs Moduli (GPa) = 48.16863 61.97150 64.48408
#
# Poissons Ratio (x) = 0.49678 -0.01009
# Poissons Ratio (y) = 0.38613 0.43044
# Poissons Ratio (z) = -0.00754 0.41367
#
# Static dielectric constant tensor:
#      x y z
#    x 1.728870 0.000000 0.000000 
#    y 0.000000 1.730460 0.000000 
#    z 0.000000 0.000000 1.759860 
# 
# From -- ./inp_files/2177.got.cif
#   From: 2010.05.17/outbox.cif.g08.bks.cpg/sg37_2_cif.got.tgz:2177.got - 2010.06.03 17:53:42.
