data_PCOD9354939
_publ_section_title
;
Structure prediction by ZEFSAII (Michael W. Deem and Ramdas Pophale) SiO2 
 PCOD9354939
Probable space group: C C C 2
;
_chemical_formula_sum "Si O2"
_cell_formula_units_Z 44
_cell_length_a 12.582544
_cell_length_b 20.660306
_cell_length_c 7.662887
_cell_angle_alpha 90.000000
_cell_angle_beta 90.000000
_cell_angle_gamma 90.000000
_cell_volume 1992.038045
_symmetry_space_group_name_H-M "C C C 2"
_symmetry_group_IT_number 37
_symmetry_cell_setting 'orthorhombic'
loop_
_space_group_symop_operation_xyz
x,y,z
-x,-y,z
-x,y,1/2+z
x,-y,1/2+z
1/2+x,1/2+y,z
1/2-x,1/2-y,z
1/2-x,1/2+y,1/2+z
1/2+x,1/2-y,1/2+z
loop_
_atom_site_type_symbol
_atom_site_label
_atom_site_fract_x
_atom_site_fract_y
_atom_site_fract_z
Si Si1 0.750000 0.250000 0.440980
Si Si2 0.369385 0.126785 0.954767
Si Si3 0.205337 0.076651 0.422715
Si Si4 0.938737 0.431170 0.803596
Si Si5 0.657212 0.634374 0.771157
Si Si6 0.598538 0.547105 0.065293
O O1 0.678888 0.194328 0.531145
O O2 0.667908 0.291011 0.323412
O O3 0.476781 0.125562 0.843903
O O4 0.273757 0.107076 0.827009
O O5 0.395955 0.077750 0.108323
O O6 0.332501 0.080406 0.414983
O O7 0.150533 0.122486 0.566835
O O8 0.150484 0.081758 0.232221
O O9 0.180178 0.005241 0.491494
O O10 0.000000 0.500000 0.820473
O O11 0.580131 0.596723 0.905005
O O12 0.500000 0.500000 0.111976
#
# Coordination Sequence:
#
# PCOD9354939 Si02
#       6
#     4   8   8   8   8   8
#     4   8  22  48  68  92 142 194 240 286 332 418
#     4  10  22  43  70 102 148 182 231 295 347 435
#     4  12  24  41  67 105 143 180 228 297 362 432
#     4  12  24  37  73 118 141 178 229 295 390 430
#     4  10  22  46  71  95 144 190 230 297 343 417
#     4  12  25  41  68 103 143 185 235 292 363 431
#
# _framework density 22.087931000000001
#
# number of rings (size 3 to 8) (size 9 to 14) (size 15 to 20)
#    1.091    0.000    3.636    3.273    2.545    0.727 
#    0.000    5.455    4.000    0.000    0.000    0.000 
#    0.000    0.000    0.000    0.000    0.000    0.000 
#
# Total GULP energy -122578.540795 kJ/mol
# GULP energy per Si atom -5571.751854 kJ/mol
# Density = 2.203766 g / cm^3
# Si number density = 22.087931 Si / 1000 Ang^3
#
#
#
# Elastic Constant Matrix: (Units=GPa)
#
#
# Indices 1 2 3 4 5 6 
#
# 1 125.4832 20.5816 17.2908 0.0000 0.0000 0.0000
# 2 20.5816 78.4137 13.0219 0.0000 0.0000 0.0000
# 3 17.2908 13.0219 95.9176 0.0000 0.0000 0.0000
# 4 0.0000 0.0000 0.0000 12.6316 0.0000 0.0000
# 5 0.0000 0.0000 0.0000 0.0000 28.3776 0.0000
# 6 0.0000 0.0000 0.0000 0.0000 0.0000 26.4356
#
#
#
# Elastic Compliance Matrix: (Units=1/GPa)
#
#
# Indices 1 2 3 4 5 6 
#
# 1 0.008473 -0.002016 -0.001254 0.000000 0.000000 0.000000
# 2 -0.002016 0.013527 -0.001473 0.000000 0.000000 0.000000
# 3 -0.001254 -0.001473 0.010852 0.000000 0.000000 0.000000
# 4 0.000000 0.000000 0.000000 0.079167 0.000000 0.000000
# 5 0.000000 0.000000 0.000000 0.000000 0.035239 0.000000
# 6 0.000000 0.000000 0.000000 0.000000 0.000000 0.037828
#
#
# Mechanical properties :
#
#
# Convention : Reuss Voigt Hill
#
# Bulk Modulus (GPa) = 42.79725 44.62259 43.70992
# Shear Modulus (GPa) = 24.70874 30.08363 27.39619
#
# Velocity S-wave (km/s) = 3.34826 3.69452 3.52564
# Velocity P-wave (km/s) = 5.86222 6.20044 6.03370
#
# Compressibility (1/GPa) = 0.02336599
#
# Stress axis : x y z
#
# Youngs Moduli (GPa) = 118.02824 73.92871 92.15238
#
# Poissons Ratio (x) = 0.14901 0.11553
# Poissons Ratio (y) = 0.23790 0.13574
# Poissons Ratio (z) = 0.14797 0.10890
#
# Static dielectric constant tensor:
#      x y z
#    x 1.906670 0.000000 0.000000 
#    y 0.000000 1.819640 0.000000 
#    z 0.000000 0.000000 1.860530 
# 
# From -- ./inp_files/2903.got.cif
#   From: 2010.05.17/outbox.cif.g08.bks.cpg/sg37_2_cif.got.tgz:2903.got - 2010.06.03 17:53:42.
