data_PCOD9354976
_publ_section_title
;
Structure prediction by ZEFSAII (Michael W. Deem and Ramdas Pophale) SiO2 
 PCOD9354976
Probable space group: C C C 2
;
_chemical_formula_sum "Si O2"
_cell_formula_units_Z 48
_cell_length_a 5.603826
_cell_length_b 14.190552
_cell_length_c 26.546847
_cell_angle_alpha 90.000000
_cell_angle_beta 90.000000
_cell_angle_gamma 90.000000
_cell_volume 2111.042021
_symmetry_space_group_name_H-M "C C C 2"
_symmetry_group_IT_number 37
_symmetry_cell_setting 'orthorhombic'
loop_
_space_group_symop_operation_xyz
x,y,z
-x,-y,z
-x,y,1/2+z
x,-y,1/2+z
1/2+x,1/2+y,z
1/2-x,1/2-y,z
1/2-x,1/2+y,1/2+z
1/2+x,1/2-y,1/2+z
loop_
_atom_site_type_symbol
_atom_site_label
_atom_site_fract_x
_atom_site_fract_y
_atom_site_fract_z
Si Si1 0.000000 0.000000 0.555501
Si Si2 0.416800 0.396804 0.268703
Si Si3 0.127319 0.651359 0.078662
Si Si4 0.750000 0.250000 0.840381
Si Si5 0.598397 0.105983 0.675218
Si Si6 0.367296 0.095632 0.981889
Si Si7 0.750000 0.750000 0.900646
Si Si8 0.250000 0.250000 0.731336
O O1 0.849003 0.065639 0.518030
O O2 0.182402 0.066368 0.585964
O O3 0.500000 0.500000 0.283594
O O4 0.232390 0.343502 0.304977
O O5 0.328584 0.394698 0.210620
O O6 0.635449 0.326655 0.267377
O O7 0.250000 0.750000 0.089877
O O8 0.906338 0.630592 0.116180
O O9 0.044704 0.648226 0.020810
O O10 0.503730 0.258323 0.871587
O O11 0.431408 0.188400 0.698050
O O12 0.500000 0.000000 0.681569
O O13 0.500000 0.000000 0.965125
O O14 0.282445 0.159572 0.936697
#
# Coordination Sequence:
#
# PCOD9354976 Si02
#       8
#     4   8   8   4   8   8   4   4
#     4  10  22  44  72 100 154 194 254 302 376 458
#     4  12  27  50  76 104 152 198 251 322 390 457
#     4  11  24  43  68 109 151 200 251 303 371 456
#     4  12  30  50  82 112 149 191 264 334 390 474
#     4  12  24  43  74 108 152 201 250 305 376 453
#     4  10  24  45  75 106 151 191 247 312 384 459
#     4  12  29  50  81 112 147 194 260 321 404 462
#     4  12  23  46  71 104 144 199 246 309 372 456
#
# _framework density 22.737587000000001
#
# number of rings (size 3 to 8) (size 9 to 14) (size 15 to 20)
#    0.000    0.667    4.167    3.000    5.833    4.000 
#   10.500    0.000    0.000    0.000    0.000    0.000 
#    0.000    0.000    0.000    0.000    0.000    0.000 
#
# Total GULP energy -134208.336875 kJ/mol
# GULP energy per Si atom -5592.014036 kJ/mol
# Density = 2.268584 g / cm^3
# Si number density = 22.737587 Si / 1000 Ang^3
#
#
#
# Elastic Constant Matrix: (Units=GPa)
#
#
# Indices 1 2 3 4 5 6 
#
# 1 91.4359 41.7302 51.7421 0.0000 0.0000 0.0000
# 2 41.7302 165.9768 64.2500 0.0000 0.0000 0.0000
# 3 51.7421 64.2500 112.6048 0.0000 0.0000 0.0000
# 4 0.0000 0.0000 0.0000 24.2380 0.0000 0.0000
# 5 0.0000 0.0000 0.0000 0.0000 26.2099 0.0000
# 6 0.0000 0.0000 0.0000 0.0000 0.0000 35.7959
#
#
#
# Elastic Compliance Matrix: (Units=1/GPa)
#
#
# Indices 1 2 3 4 5 6 
#
# 1 0.015036 -0.001419 -0.006099 0.000000 0.000000 0.000000
# 2 -0.001419 0.007867 -0.003837 0.000000 0.000000 0.000000
# 3 -0.006099 -0.003837 0.013872 0.000000 0.000000 0.000000
# 4 0.000000 0.000000 0.000000 0.041258 0.000000 0.000000
# 5 0.000000 0.000000 0.000000 0.000000 0.038153 0.000000
# 6 0.000000 0.000000 0.000000 0.000000 0.000000 0.027936
#
#
# Mechanical properties :
#
#
# Convention : Reuss Voigt Hill
#
# Bulk Modulus (GPa) = 71.09865 76.16244 73.63055
# Shear Modulus (GPa) = 29.15107 31.40179 30.27643
#
# Velocity S-wave (km/s) = 3.58448 3.72028 3.65301
# Velocity P-wave (km/s) = 6.96193 7.21270 7.08842
#
# Compressibility (1/GPa) = 0.01406496
#
# Stress axis : x y z
#
# Youngs Moduli (GPa) = 66.50798 127.11471 72.08666
#
# Poissons Ratio (x) = 0.18042 0.43966
# Poissons Ratio (y) = 0.09440 0.27656
# Poissons Ratio (z) = 0.40564 0.48768
#
# Static dielectric constant tensor:
#      x y z
#    x 1.627430 0.000000 0.000000 
#    y 0.000000 1.710130 0.000000 
#    z 0.000000 0.000000 1.871430 
# 
# From -- ./inp_files/19421.got.cif
#   From: 2010.05.17/outbox.cif.g08.bks.cpg/sg37_10_cif.got.tgz:19421.got - 2010.06.03 17:53:42.
