data_PCOD9354591
_publ_section_title
;
Structure prediction by ZEFSAII (Michael W. Deem and Ramdas Pophale) SiO2 
 PCOD9354591
Probable space group: C C C 2
;
_chemical_formula_sum "Si O2"
_cell_formula_units_Z 60
_cell_length_a 13.118195
_cell_length_b 7.800396
_cell_length_c 27.453919
_cell_angle_alpha 90.000000
_cell_angle_beta 90.000000
_cell_angle_gamma 90.000000
_cell_volume 2809.280349
_symmetry_space_group_name_H-M "C C C 2"
_symmetry_group_IT_number 37
_symmetry_cell_setting 'orthorhombic'
loop_
_space_group_symop_operation_xyz
x,y,z
-x,-y,z
-x,y,1/2+z
x,-y,1/2+z
1/2+x,1/2+y,z
1/2-x,1/2-y,z
1/2-x,1/2+y,1/2+z
1/2+x,1/2-y,1/2+z
loop_
_atom_site_type_symbol
_atom_site_label
_atom_site_fract_x
_atom_site_fract_y
_atom_site_fract_z
Si Si1 0.369386 0.299472 0.707890
Si Si2 0.500000 0.500000 0.040054
Si Si3 0.388140 0.537210 0.363817
Si Si4 0.823919 0.032490 0.967883
Si Si5 0.885987 0.584736 0.502587
Si Si6 0.298624 0.579895 0.771912
Si Si7 0.558417 0.822643 0.603902
Si Si8 0.093386 0.381396 0.802333
O O1 0.250000 0.250000 0.710581
O O2 0.364597 0.489503 0.730187
O O3 0.403137 0.258589 0.653862
O O4 0.431119 0.193318 0.748490
O O5 0.493551 0.665753 0.074866
O O6 0.407206 0.452729 0.003900
O O7 0.500000 0.500000 0.383010
O O8 0.321626 0.513839 0.411233
O O9 0.366172 0.402670 0.320336
O O10 0.386650 0.722586 0.338268
O O11 0.862314 0.233426 0.974982
O O12 0.711528 0.980539 0.985559
O O13 0.867136 0.617730 0.560244
O O14 0.000000 0.500000 0.496488
O O15 0.250000 0.750000 0.751762
O O16 0.201213 0.475308 0.793277
O O17 0.500000 0.000000 0.615753
O O18 0.000000 0.500000 0.818598
#
# Coordination Sequence:
#
# PCOD9354591 Si02
#       8
#     8   4   8   8   8   8   8   8
#     4   9  20  38  66  91 128 172 219 274 340 400
#     4  10  22  42  66  98 142 172 228 284 348 402
#     4  11  22  40  63  94 130 177 220 272 349 401
#     4  10  21  42  66  94 143 175 221 295 338 408
#     4   9  21  42  69  97 131 181 231 279 345 406
#     4  10  22  42  63  95 133 168 221 282 337 409
#     4  10  21  42  65  98 129 176 226 275 341 410
#     4  10  21  43  63  92 126 174 223 278 333 407
#
# _framework density 21.357783000000001
#
# number of rings (size 3 to 8) (size 9 to 14) (size 15 to 20)
#    0.000    2.133    0.667    2.400    5.600    0.000 
#   16.800    6.667    0.000    0.000    0.000    0.000 
#    0.000    0.000    0.000    0.000    0.000    0.000 
#
# Total GULP energy -167051.559380 kJ/mol
# GULP energy per Si atom -5568.385313 kJ/mol
# Density = 2.130917 g / cm^3
# Si number density = 21.357783 Si / 1000 Ang^3
#
#
#
# Elastic Constant Matrix: (Units=GPa)
#
#
# Indices 1 2 3 4 5 6 
#
# 1 80.1830 6.5073 35.8597 0.0000 0.0000 0.0000
# 2 6.5073 55.7337 35.9741 0.0000 0.0000 0.0000
# 3 35.8597 35.9741 167.5437 0.0000 0.0000 0.0000
# 4 0.0000 0.0000 0.0000 13.4958 0.0000 0.0000
# 5 0.0000 0.0000 0.0000 0.0000 -51.8195 0.0000
# 6 0.0000 0.0000 0.0000 0.0000 0.0000 28.8294
#
#
#
# Elastic Compliance Matrix: (Units=1/GPa)
#
#
# Indices 1 2 3 4 5 6 
#
# 1 0.013797 0.000343 -0.003027 0.000000 0.000000 0.000000
# 2 0.000343 0.020838 -0.004548 0.000000 0.000000 0.000000
# 3 -0.003027 -0.004548 0.007593 0.000000 0.000000 0.000000
# 4 0.000000 0.000000 0.000000 0.074097 0.000000 0.000000
# 5 0.000000 0.000000 0.000000 0.000000 -0.019298 0.000000
# 6 0.000000 0.000000 0.000000 0.000000 0.000000 0.034687
#
#
# Mechanical properties :
#
#
# Convention : Reuss Voigt Hill
#
# Bulk Modulus (GPa) = 36.01681 51.12697 43.57189
# Shear Modulus (GPa) = 32.16847 13.10909 22.63878
#
# Velocity S-wave (km/s) = 3.88515 2.48016 3.25926
# Velocity P-wave (km/s) = 6.08490 5.67379 5.88294
#
# Compressibility (1/GPa) = 0.02776481
#
# Stress axis : x y z
#
# Youngs Moduli (GPa) = 72.47825 47.98988 131.70360
#
# Poissons Ratio (x) = -0.01644 0.39862
# Poissons Ratio (y) = -0.02484 0.59892
# Poissons Ratio (z) = 0.21936 0.21823
#
# Static dielectric constant tensor:
#      x y z
#    x 1.897080 0.000000 0.000000 
#    y 0.000000 1.900780 0.000000 
#    z 0.000000 0.000000 1.744020 
# 
# From -- ./inp_files/19775.got.cif
#   From: 2010.05.17/outbox.cif.g08.bks.cpg/sg37_10_cif.got.tgz:19775.got - 2010.06.03 17:53:42.
