data_PCOD9354126
_publ_section_title
;
Structure prediction by ZEFSAII (Michael W. Deem and Ramdas Pophale) SiO2 
 PCOD9354126
Probable space group: C C C 2
;
_chemical_formula_sum "Si O2"
_cell_formula_units_Z 48
_cell_length_a 27.259646
_cell_length_b 8.192301
_cell_length_c 9.224976
_cell_angle_alpha 90.000000
_cell_angle_beta 90.000000
_cell_angle_gamma 90.000000
_cell_volume 2060.114493
_symmetry_space_group_name_H-M "C C C 2"
_symmetry_group_IT_number 37
_symmetry_cell_setting 'orthorhombic'
loop_
_space_group_symop_operation_xyz
x,y,z
-x,-y,z
-x,y,1/2+z
x,-y,1/2+z
1/2+x,1/2+y,z
1/2-x,1/2-y,z
1/2-x,1/2+y,1/2+z
1/2+x,1/2-y,1/2+z
loop_
_atom_site_type_symbol
_atom_site_label
_atom_site_fract_x
_atom_site_fract_y
_atom_site_fract_z
Si Si1 0.114069 0.636828 0.544450
Si Si2 0.305358 0.679998 0.042773
Si Si3 0.673454 0.042948 0.258667
Si Si4 0.469705 0.330396 0.919608
Si Si5 0.721272 0.404063 0.739972
Si Si6 0.536169 0.868077 0.634567
O O1 0.146296 0.600841 0.402416
O O2 0.148842 0.616487 0.684577
O O3 0.079885 0.796293 0.516157
O O4 0.078080 0.482694 0.570078
O O5 0.250000 0.750000 0.040977
O O6 0.331974 0.816533 0.136549
O O7 0.307255 0.510223 0.125478
O O8 0.312547 0.642930 0.875104
O O9 0.731073 0.011954 0.292020
O O10 0.500000 0.500000 0.909314
O O11 0.454668 0.264089 0.760367
O O12 0.508809 0.216178 0.001530
O O13 0.750000 0.250000 0.675041
O O14 0.500000 0.000000 0.707255
#
# Coordination Sequence:
#
# PCOD9354126 Si02
#       6
#     8   8   8   8   8   8
#     4  11  22  40  66  96 129 178 223 283 341 408
#     4   9  20  37  60  90 130 174 226 270 320 407
#     4  11  22  40  66  99 135 168 231 286 333 395
#     4  11  23  41  66  99 131 171 222 279 342 417
#     4  10  20  38  62  92 124 178 224 266 330 408
#     4  10  21  40  67  92 125 177 226 257 327 430
#
# _framework density 23.299675000000001
#
# number of rings (size 3 to 8) (size 9 to 14) (size 15 to 20)
#    0.000    1.667    1.667    5.000    2.333    3.333 
#    0.000    5.000    3.667    0.000    0.000    0.000 
#    0.000    0.000    0.000    0.000    0.000    0.000 
#
# Total GULP energy -133889.046538 kJ/mol
# GULP energy per Si atom -5578.710272 kJ/mol
# Density = 2.324664 g / cm^3
# Si number density = 23.299675 Si / 1000 Ang^3
#
#
#
# Elastic Constant Matrix: (Units=GPa)
#
#
# Indices 1 2 3 4 5 6 
#
# 1 49.1015 14.2256 29.7675 0.0000 0.0000 0.0000
# 2 14.2256 120.2470 53.1319 0.0000 0.0000 0.0000
# 3 29.7675 53.1319 98.9290 0.0000 0.0000 0.0000
# 4 0.0000 0.0000 0.0000 43.8880 0.0000 0.0000
# 5 0.0000 0.0000 0.0000 0.0000 8.5316 0.0000
# 6 0.0000 0.0000 0.0000 0.0000 0.0000 36.4861
#
#
#
# Elastic Compliance Matrix: (Units=1/GPa)
#
#
# Indices 1 2 3 4 5 6 
#
# 1 0.024931 0.000479 -0.007759 0.000000 0.000000 0.000000
# 2 0.000479 0.010913 -0.006005 0.000000 0.000000 0.000000
# 3 -0.007759 -0.006005 0.015668 0.000000 0.000000 0.000000
# 4 0.000000 0.000000 0.000000 0.022785 0.000000 0.000000
# 5 0.000000 0.000000 0.000000 0.000000 0.117212 0.000000
# 6 0.000000 0.000000 0.000000 0.000000 0.000000 0.027408
#
#
# Mechanical properties :
#
#
# Convention : Reuss Voigt Hill
#
# Bulk Modulus (GPa) = 40.09332 51.39194 45.74263
# Shear Modulus (GPa) = 19.70047 29.19130 24.44588
#
# Velocity S-wave (km/s) = 2.91095 3.54342 3.24264
# Velocity P-wave (km/s) = 5.34258 6.23265 5.80470
#
# Compressibility (1/GPa) = 0.02494181
#
# Stress axis : x y z
#
# Youngs Moduli (GPa) = 40.11066 91.63408 63.82397
#
# Poissons Ratio (x) = -0.04388 0.49520
# Poissons Ratio (y) = -0.01921 0.38327
# Poissons Ratio (z) = 0.31121 0.55028
#
# Static dielectric constant tensor:
#      x y z
#    x 2.006260 0.000000 0.000000 
#    y 0.000000 1.935720 0.000000 
#    z 0.000000 0.000000 1.900460 
# 
# From -- ./inp_files/2422.got.cif
#   From: 2010.05.17/outbox.cif.g08.bks.cpg/sg37_2_cif.got.tgz:2422.got - 2010.06.03 17:53:42.
