data_PCOD9354522
_publ_section_title
;
Structure prediction by ZEFSAII (Michael W. Deem and Ramdas Pophale) SiO2 
 PCOD9354522
Probable space group: C C C 2
;
_chemical_formula_sum "Si O2"
_cell_formula_units_Z 56
_cell_length_a 5.882339
_cell_length_b 14.180716
_cell_length_c 28.863589
_cell_angle_alpha 90.000000
_cell_angle_beta 90.000000
_cell_angle_gamma 90.000000
_cell_volume 2407.678755
_symmetry_space_group_name_H-M "C C C 2"
_symmetry_group_IT_number 37
_symmetry_cell_setting 'orthorhombic'
loop_
_space_group_symop_operation_xyz
x,y,z
-x,-y,z
-x,y,1/2+z
x,-y,1/2+z
1/2+x,1/2+y,z
1/2-x,1/2-y,z
1/2-x,1/2+y,1/2+z
1/2+x,1/2-y,1/2+z
loop_
_atom_site_type_symbol
_atom_site_label
_atom_site_fract_x
_atom_site_fract_y
_atom_site_fract_z
Si Si1 0.604609 0.602955 0.576480
Si Si2 0.750000 0.250000 0.595751
Si Si3 0.524583 0.604710 0.295023
Si Si4 0.370524 0.348285 0.396531
Si Si5 0.250000 0.250000 0.955172
Si Si6 0.140632 0.644989 0.986878
Si Si7 0.024856 0.613412 0.262710
Si Si8 0.446005 0.111048 0.654823
O O1 0.500000 0.500000 0.580049
O O2 0.433662 0.689319 0.567543
O O3 0.780793 0.597799 0.533828
O O4 0.718558 0.627128 0.625503
O O5 0.631134 0.172747 0.628233
O O6 0.500000 0.500000 0.273703
O O7 0.574577 0.598590 0.349786
O O8 0.265002 0.643805 0.287379
O O9 0.765991 0.646297 0.275837
O O10 0.250000 0.250000 0.382382
O O11 0.593056 0.311657 0.421990
O O12 0.223992 0.397608 0.437625
O O13 0.379040 0.170353 0.984185
O O14 0.250000 0.750000 0.986219
O O15 0.064326 0.634908 0.208668
O O16 0.000000 0.500000 0.270012
O O17 0.500000 0.000000 0.651035
#
# Coordination Sequence:
#
# PCOD9354522 Si02
#       8
#     8   4   8   8   4   8   8   8
#     4  12  26  45  72 105 143 188 238 300 370 440
#     4  12  26  47  72 102 144 184 240 304 357 450
#     4  10  21  40  65  96 133 179 231 290 357 425
#     4   9  20  36  61  92 131 174 225 282 352 418
#     4   8  18  39  64  90 128 186 218 292 349 432
#     4   9  20  39  65  93 131 181 235 285 363 419
#     4   9  22  40  68  96 132 183 235 290 362 433
#     4  11  24  46  72 101 140 192 237 301 370 437
#
# _framework density 23.258915999999999
#
# number of rings (size 3 to 8) (size 9 to 14) (size 15 to 20)
#    0.000    2.286    1.429    1.286    6.000    6.286 
#    1.286    0.000    0.000    0.000    0.000    0.000 
#    0.000    0.000    0.000    0.000    0.000    0.000 
#
# Total GULP energy -156184.916564 kJ/mol
# GULP energy per Si atom -5578.032734 kJ/mol
# Density = 2.320598 g / cm^3
# Si number density = 23.258916 Si / 1000 Ang^3
#
#
#
# Elastic Constant Matrix: (Units=GPa)
#
#
# Indices 1 2 3 4 5 6 
#
# 1 165.8008 27.6705 78.9966 0.0000 0.0000 0.0000
# 2 27.6705 71.2873 21.0257 0.0000 0.0000 0.0000
# 3 78.9966 21.0257 152.4850 0.0000 0.0000 0.0000
# 4 0.0000 0.0000 0.0000 61.2778 0.0000 0.0000
# 5 0.0000 0.0000 0.0000 0.0000 20.0208 0.0000
# 6 0.0000 0.0000 0.0000 0.0000 0.0000 13.3326
#
#
#
# Elastic Compliance Matrix: (Units=1/GPa)
#
#
# Indices 1 2 3 4 5 6 
#
# 1 0.008281 -0.002032 -0.004010 0.000000 0.000000 0.000000
# 2 -0.002032 0.015121 -0.001032 0.000000 0.000000 0.000000
# 3 -0.004010 -0.001032 0.008778 0.000000 0.000000 0.000000
# 4 0.000000 0.000000 0.000000 0.016319 0.000000 0.000000
# 5 0.000000 0.000000 0.000000 0.000000 0.049948 0.000000
# 6 0.000000 0.000000 0.000000 0.000000 0.000000 0.075004
#
#
# Mechanical properties :
#
#
# Convention : Reuss Voigt Hill
#
# Bulk Modulus (GPa) = 55.45825 71.66209 63.56017
# Shear Modulus (GPa) = 25.82518 36.38491 31.10505
#
# Velocity S-wave (km/s) = 3.33578 3.95947 3.66093
# Velocity P-wave (km/s) = 6.22352 7.19588 6.72729
#
# Compressibility (1/GPa) = 0.01803158
#
# Stress axis : x y z
#
# Youngs Moduli (GPa) = 120.75952 66.13394 113.92422
#
# Poissons Ratio (x) = 0.13436 0.45682
# Poissons Ratio (y) = 0.24533 0.11763
# Poissons Ratio (z) = 0.48423 0.06828
#
# Static dielectric constant tensor:
#      x y z
#    x 1.994250 0.000000 0.000000 
#    y 0.000000 1.741050 0.000000 
#    z 0.000000 0.000000 1.840260 
# 
# From -- ./inp_files/20174.got.cif
#   From: 2010.05.17/outbox.cif.g08.bks.cpg/sg37_11_cif.got.tgz:20174.got - 2010.06.03 17:53:42.
