data_PCOD9354743
_publ_section_title
;
Structure prediction by ZEFSAII (Michael W. Deem and Ramdas Pophale) SiO2 
 PCOD9354743
Probable space group: C C C 2
;
_chemical_formula_sum "Si O2"
_cell_formula_units_Z 56
_cell_length_a 20.244640
_cell_length_b 9.865881
_cell_length_c 13.871472
_cell_angle_alpha 90.000000
_cell_angle_beta 90.000000
_cell_angle_gamma 90.000000
_cell_volume 2770.565875
_symmetry_space_group_name_H-M "C C C 2"
_symmetry_group_IT_number 37
_symmetry_cell_setting 'orthorhombic'
loop_
_space_group_symop_operation_xyz
x,y,z
-x,-y,z
-x,y,1/2+z
x,-y,1/2+z
1/2+x,1/2+y,z
1/2-x,1/2-y,z
1/2-x,1/2+y,1/2+z
1/2+x,1/2-y,1/2+z
loop_
_atom_site_type_symbol
_atom_site_label
_atom_site_fract_x
_atom_site_fract_y
_atom_site_fract_z
Si Si1 0.032085 0.184462 0.355450
Si Si2 0.315452 0.568944 0.444305
Si Si3 0.926444 0.519682 0.333590
Si Si4 0.402770 0.656797 0.046499
Si Si5 0.904677 0.081315 0.270129
Si Si6 0.836872 0.370422 0.485888
Si Si7 0.075798 0.460033 0.612354
O O1 0.075535 0.317307 0.334624
O O2 0.037063 0.148575 0.469152
O O3 0.956757 0.186954 0.318700
O O4 0.064823 0.063836 0.295725
O O5 0.347053 0.433198 0.491079
O O6 0.336228 0.581563 0.330877
O O7 0.238594 0.584195 0.469367
O O8 0.344697 0.708822 0.486484
O O9 0.875533 0.443896 0.400045
O O10 0.923096 0.459133 0.227306
O O11 0.000000 0.500000 0.373451
O O12 0.405147 0.600992 0.155583
O O13 0.399974 0.818912 0.065398
O O14 0.872045 0.428146 0.579800
O O15 0.000000 0.500000 0.586588
#
# Coordination Sequence:
#
# PCOD9354743 Si02
#       7
#     8   8   8   8   8   8   8
#     4  10  22  39  61 103 127 169 210 272 338 378
#     4  10  25  42  63  93 132 178 225 264 327 388
#     4  11  22  41  67  95 132 162 219 277 333 396
#     4  11  23  43  66  98 130 175 218 272 326 397
#     4  10  22  40  64  94 134 168 219 264 328 395
#     4  11  23  43  65  92 131 177 216 277 326 389
#     4  11  24  39  67 102 125 170 220 269 340 391
#
# _framework density 20.212478000000001
#
# number of rings (size 3 to 8) (size 9 to 14) (size 15 to 20)
#    0.000    1.429    1.429    3.857    4.000    6.286 
#    0.000    0.000    0.000    0.000    0.000    0.000 
#    0.000    0.000    0.000    0.000    0.000    0.000 
#
# Total GULP energy -156078.781521 kJ/mol
# GULP energy per Si atom -5574.242197 kJ/mol
# Density = 2.016647 g / cm^3
# Si number density = 20.212478 Si / 1000 Ang^3
#
#
#
# Elastic Constant Matrix: (Units=GPa)
#
#
# Indices 1 2 3 4 5 6 
#
# 1 72.7999 26.8207 18.7199 0.0000 0.0000 0.0000
# 2 26.8207 138.0625 15.0938 0.0000 0.0000 0.0000
# 3 18.7199 15.0938 118.0010 0.0000 0.0000 0.0000
# 4 0.0000 0.0000 0.0000 29.2168 0.0000 0.0000
# 5 0.0000 0.0000 0.0000 0.0000 22.8143 0.0000
# 6 0.0000 0.0000 0.0000 0.0000 0.0000 27.7340
#
#
#
# Elastic Compliance Matrix: (Units=1/GPa)
#
#
# Indices 1 2 3 4 5 6 
#
# 1 0.015279 -0.002742 -0.002073 0.000000 0.000000 0.000000
# 2 -0.002742 0.007838 -0.000568 0.000000 0.000000 0.000000
# 3 -0.002073 -0.000568 0.008876 0.000000 0.000000 0.000000
# 4 0.000000 0.000000 0.000000 0.034227 0.000000 0.000000
# 5 0.000000 0.000000 0.000000 0.000000 0.043832 0.000000
# 6 0.000000 0.000000 0.000000 0.000000 0.000000 0.036057
#
#
# Mechanical properties :
#
#
# Convention : Reuss Voigt Hill
#
# Bulk Modulus (GPa) = 47.10705 50.01469 48.56087
# Shear Modulus (GPa) = 30.49709 33.83496 32.16602
#
# Velocity S-wave (km/s) = 3.88857 4.09585 3.99356
# Velocity P-wave (km/s) = 6.59681 6.86776 6.73365
#
# Compressibility (1/GPa) = 0.02122825
#
# Stress axis : x y z
#
# Youngs Moduli (GPa) = 65.44729 127.58761 112.66311
#
# Poissons Ratio (x) = 0.34979 0.23358
# Poissons Ratio (y) = 0.17943 0.06395
# Poissons Ratio (z) = 0.13569 0.07242
#
# Static dielectric constant tensor:
#      x y z
#    x 1.714790 0.000000 0.000000 
#    y 0.000000 1.844880 0.000000 
#    z 0.000000 0.000000 1.728210 
# 
# From -- ./inp_files/12940.got.cif
#   From: 2010.05.17/outbox.cif.g08.bks.cpg/sg37_7_cif.got.tgz:12940.got - 2010.06.03 17:53:42.
