data_PCOD9354005
_publ_section_title
;
Structure prediction by ZEFSAII (Michael W. Deem and Ramdas Pophale) SiO2 
 PCOD9354005
Probable space group: C C C 2
;
_chemical_formula_sum "Si O2"
_cell_formula_units_Z 64
_cell_length_a 8.531809
_cell_length_b 23.427539
_cell_length_c 17.409394
_cell_angle_alpha 90.000000
_cell_angle_beta 90.000000
_cell_angle_gamma 90.000000
_cell_volume 3479.777279
_symmetry_space_group_name_H-M "C C C 2"
_symmetry_group_IT_number 37
_symmetry_cell_setting 'orthorhombic'
loop_
_space_group_symop_operation_xyz
x,y,z
-x,-y,z
-x,y,1/2+z
x,-y,1/2+z
1/2+x,1/2+y,z
1/2-x,1/2-y,z
1/2-x,1/2+y,1/2+z
1/2+x,1/2-y,1/2+z
loop_
_atom_site_type_symbol
_atom_site_label
_atom_site_fract_x
_atom_site_fract_y
_atom_site_fract_z
Si Si1 0.318499 0.813371 0.254300
Si Si2 0.182614 0.497888 0.421625
Si Si3 0.683646 0.811812 0.288139
Si Si4 0.112148 0.908559 0.338477
Si Si5 0.314611 0.501592 0.583571
Si Si6 0.823786 0.128805 0.931718
Si Si7 0.113620 0.097750 0.198779
Si Si8 0.685216 0.629473 0.609228
O O1 0.250000 0.750000 0.262992
O O2 0.498327 0.813389 0.278826
O O3 0.222615 0.858855 0.305297
O O4 0.291901 0.834295 0.166569
O O5 0.287209 0.538361 0.368026
O O6 0.213704 0.517749 0.509496
O O7 0.241247 0.432757 0.420308
O O8 0.000000 0.500000 0.401922
O O9 0.750000 0.750000 0.267392
O O10 0.742402 0.827596 0.373589
O O11 0.762315 0.859224 0.234084
O O12 0.002358 0.882714 0.405373
O O13 0.994118 0.924456 0.269060
O O14 0.500000 0.500000 0.559662
O O15 0.308367 0.546691 0.651876
O O16 0.271259 0.437997 0.610656
O O17 0.811383 0.146288 0.020274
O O18 0.991553 0.130239 0.142820
#
# Coordination Sequence:
#
# PCOD9354005 Si02
#       8
#     8   8   8   8   8   8   8   8
#     4  11  23  40  59  81 112 148 188 235 282 331
#     4  11  21  33  54  86 120 148 180 227 279 333
#     4  11  23  40  59  82 111 146 190 236 281 331
#     4  10  20  36  57  81 113 149 189 229 277 333
#     4   9  18  35  56  82 115 149 183 221 276 336
#     4  10  21  38  60  84 113 150 188 229 278 332
#     4   9  19  34  58  83 110 148 189 228 274 332
#     4   9  19  36  58  85 113 148 186 223 276 334
#
# _framework density 18.391981999999999
#
# number of rings (size 3 to 8) (size 9 to 14) (size 15 to 20)
#    0.000    2.000    0.000    5.625    0.000   11.500 
#    0.000    2.500    0.000    6.000    0.000    0.000 
#    0.000    0.000    0.000    0.000    0.000    0.000 
#
# Total GULP energy -178728.722553 kJ/mol
# GULP energy per Si atom -5585.272580 kJ/mol
# Density = 1.835012 g / cm^3
# Si number density = 18.391982 Si / 1000 Ang^3
#
#
#
# Elastic Constant Matrix: (Units=GPa)
#
#
# Indices 1 2 3 4 5 6 
#
# 1 107.0197 32.9688 32.0166 0.0000 0.0000 0.0000
# 2 32.9688 51.5454 15.1097 0.0000 0.0000 0.0000
# 3 32.0166 15.1097 57.5045 0.0000 0.0000 0.0000
# 4 0.0000 0.0000 0.0000 10.3852 0.0000 0.0000
# 5 0.0000 0.0000 0.0000 0.0000 20.5939 0.0000
# 6 0.0000 0.0000 0.0000 0.0000 0.0000 25.1684
#
#
#
# Elastic Compliance Matrix: (Units=1/GPa)
#
#
# Indices 1 2 3 4 5 6 
#
# 1 0.013069 -0.006745 -0.005504 0.000000 0.000000 0.000000
# 2 -0.006745 0.024501 -0.002682 0.000000 0.000000 0.000000
# 3 -0.005504 -0.002682 0.021159 0.000000 0.000000 0.000000
# 4 0.000000 0.000000 0.000000 0.096291 0.000000 0.000000
# 5 0.000000 0.000000 0.000000 0.000000 0.048558 0.000000
# 6 0.000000 0.000000 0.000000 0.000000 0.000000 0.039732
#
#
# Mechanical properties :
#
#
# Convention : Reuss Voigt Hill
#
# Bulk Modulus (GPa) = 34.64292 41.80663 38.22478
# Shear Modulus (GPa) = 17.68067 20.29447 18.98757
#
# Velocity S-wave (km/s) = 3.10389 3.32541 3.21656
# Velocity P-wave (km/s) = 5.63225 6.12574 5.88417
#
# Compressibility (1/GPa) = 0.02886593
#
# Stress axis : x y z
#
# Youngs Moduli (GPa) = 76.51915 40.81455 47.26123
#
# Poissons Ratio (x) = 0.27531 0.26011
# Poissons Ratio (y) = 0.51616 0.12676
# Poissons Ratio (z) = 0.42114 0.10947
#
# Static dielectric constant tensor:
#      x y z
#    x 1.620870 0.000000 0.000000 
#    y 0.000000 1.612060 0.000000 
#    z 0.000000 0.000000 1.653300 
# 
# From -- ./inp_files/14752.got.cif
#   From: 2010.05.17/outbox.cif.g08.bks.cpg/sg37_8_cif.got.tgz:14752.got - 2010.06.03 17:53:42.
