data_PCOD9354034
_publ_section_title
;
Structure prediction by ZEFSAII (Michael W. Deem and Ramdas Pophale) SiO2 
 PCOD9354034
Probable space group: C C C 2
;
_chemical_formula_sum "Si O2"
_cell_formula_units_Z 48
_cell_length_a 22.106027
_cell_length_b 13.362308
_cell_length_c 7.970059
_cell_angle_alpha 90.000000
_cell_angle_beta 90.000000
_cell_angle_gamma 90.000000
_cell_volume 2354.256133
_symmetry_space_group_name_H-M "C C C 2"
_symmetry_group_IT_number 37
_symmetry_cell_setting 'orthorhombic'
loop_
_space_group_symop_operation_xyz
x,y,z
-x,-y,z
-x,y,1/2+z
x,-y,1/2+z
1/2+x,1/2+y,z
1/2-x,1/2-y,z
1/2-x,1/2+y,1/2+z
1/2+x,1/2-y,1/2+z
loop_
_atom_site_type_symbol
_atom_site_label
_atom_site_fract_x
_atom_site_fract_y
_atom_site_fract_z
Si Si1 0.553750 0.738871 0.968400
Si Si2 0.420049 0.652896 0.979496
Si Si3 0.312643 0.808016 0.990279
Si Si4 0.875328 0.597361 0.793531
Si Si5 0.431378 0.535946 0.324723
Si Si6 0.625571 0.111178 0.670713
O O1 0.575479 0.813978 0.819991
O O2 0.584217 0.629751 0.944239
O O3 0.483063 0.712823 0.958270
O O4 0.578157 0.798577 0.131758
O O5 0.428582 0.583936 0.142979
O O6 0.366367 0.728530 0.002060
O O7 0.399453 0.570249 0.842767
O O8 0.250000 0.750000 0.996626
O O9 0.325525 0.861154 0.811643
O O10 0.325764 0.876610 0.153158
O O11 0.903841 0.491633 0.738138
O O12 0.849323 0.590800 0.983018
O O13 0.500000 0.500000 0.358725
#
# Coordination Sequence:
#
# PCOD9354034 Si02
#       6
#     8   8   8   8   8   8
#     4   9  21  38  67  95 133 168 198 281 332 389
#     4  11  23  41  63  97 135 166 221 263 335 393
#     4  12  26  45  66  96 131 181 222 270 324 383
#     4  10  21  45  70  99 130 171 221 272 325 390
#     4  10  20  36  62  99 129 167 203 266 336 394
#     4  10  22  43  72  99 129 172 220 269 334 383
#
# _framework density 20.388605999999999
#
# number of rings (size 3 to 8) (size 9 to 14) (size 15 to 20)
#    1.000    0.667    3.333    1.500    7.000    0.667 
#    3.000    5.000    0.000    0.000    0.000    0.000 
#    0.000    0.000    0.000    0.000    0.000    0.000 
#
# Total GULP energy -133601.984972 kJ/mol
# GULP energy per Si atom -5566.749374 kJ/mol
# Density = 2.034220 g / cm^3
# Si number density = 20.388606 Si / 1000 Ang^3
#
#
#
# Elastic Constant Matrix: (Units=GPa)
#
#
# Indices 1 2 3 4 5 6 
#
# 1 61.1638 19.7100 33.1875 0.0000 0.0000 0.0000
# 2 19.7100 97.0869 52.0661 0.0000 0.0000 0.0000
# 3 33.1875 52.0661 155.8995 0.0000 0.0000 0.0000
# 4 0.0000 0.0000 0.0000 54.3474 0.0000 0.0000
# 5 0.0000 0.0000 0.0000 0.0000 9.9766 0.0000
# 6 0.0000 0.0000 0.0000 0.0000 0.0000 21.7793
#
#
#
# Elastic Compliance Matrix: (Units=1/GPa)
#
#
# Indices 1 2 3 4 5 6 
#
# 1 0.018809 -0.002036 -0.003324 0.000000 0.000000 0.000000
# 2 -0.002036 0.012768 -0.003831 0.000000 0.000000 0.000000
# 3 -0.003324 -0.003831 0.008401 0.000000 0.000000 0.000000
# 4 0.000000 0.000000 0.000000 0.018400 0.000000 0.000000
# 5 0.000000 0.000000 0.000000 0.000000 0.100234 0.000000
# 6 0.000000 0.000000 0.000000 0.000000 0.000000 0.045915
#
#
# Mechanical properties :
#
#
# Convention : Reuss Voigt Hill
#
# Bulk Modulus (GPa) = 46.30276 58.23081 52.26679
# Shear Modulus (GPa) = 21.72889 31.16644 26.44766
#
# Velocity S-wave (km/s) = 3.26810 3.91400 3.60554
# Velocity P-wave (km/s) = 6.08277 7.00345 6.55928
#
# Compressibility (1/GPa) = 0.02159699
#
# Stress axis : x y z
#
# Youngs Moduli (GPa) = 53.16522 78.32278 119.02825
#
# Poissons Ratio (x) = 0.15945 0.39567
# Poissons Ratio (y) = 0.10824 0.45596
# Poissons Ratio (z) = 0.17673 0.30003
#
# Static dielectric constant tensor:
#      x y z
#    x 1.675570 0.000000 0.000000 
#    y 0.000000 1.826940 0.000000 
#    z 0.000000 0.000000 1.845680 
# 
# From -- ./inp_files/4766.got.cif
#   From: 2010.05.17/outbox.cif.g08.bks.cpg/sg37_3_cif.got.tgz:4766.got - 2010.06.03 17:53:42.
