data_PCOD9354624
_publ_section_title
;
Structure prediction by ZEFSAII (Michael W. Deem and Ramdas Pophale) SiO2 
 PCOD9354624
Probable space group: C C C 2
;
_chemical_formula_sum "Si O2"
_cell_formula_units_Z 48
_cell_length_a 6.071966
_cell_length_b 13.906941
_cell_length_c 25.489159
_cell_angle_alpha 90.000000
_cell_angle_beta 90.000000
_cell_angle_gamma 90.000000
_cell_volume 2152.367619
_symmetry_space_group_name_H-M "C C C 2"
_symmetry_group_IT_number 37
_symmetry_cell_setting 'orthorhombic'
loop_
_space_group_symop_operation_xyz
x,y,z
-x,-y,z
-x,y,1/2+z
x,-y,1/2+z
1/2+x,1/2+y,z
1/2-x,1/2-y,z
1/2-x,1/2+y,1/2+z
1/2+x,1/2-y,1/2+z
loop_
_atom_site_type_symbol
_atom_site_label
_atom_site_fract_x
_atom_site_fract_y
_atom_site_fract_z
Si Si1 0.500000 0.500000 0.304870
Si Si2 0.883108 0.397303 0.547072
Si Si3 0.442158 0.614147 0.633611
Si Si4 0.000000 0.000000 0.982913
Si Si5 0.250000 0.750000 0.837382
Si Si6 0.309113 0.925255 0.896597
Si Si7 0.561716 0.325142 0.245473
Si Si8 0.750000 0.750000 0.563266
O O1 0.321926 0.458457 0.344919
O O2 0.634040 0.428742 0.267113
O O3 0.787229 0.370721 0.603798
O O4 0.663881 0.427390 0.513801
O O5 0.000000 0.500000 0.549517
O O6 0.059118 0.312835 0.533068
O O7 0.500000 0.500000 0.633423
O O8 0.430916 0.653512 0.692478
O O9 0.625700 0.672219 0.600216
O O10 0.146459 0.932467 0.945450
O O11 0.377247 0.820479 0.877579
O O12 0.428150 0.712170 0.795748
O O13 0.500000 0.000000 0.907946
O O14 0.750000 0.250000 0.233261
#
# Coordination Sequence:
#
# PCOD9354624 Si02
#       8
#     4   8   8   4   4   8   8   4
#     4   9  20  37  62  96 134 177 226 293 350 424
#     4  12  25  48  72 104 145 191 250 315 375 458
#     4  12  24  43  68 105 149 194 245 301 363 442
#     4  11  24  47  76 102 136 183 250 315 388 452
#     4  10  24  42  65 104 142 184 241 300 364 444
#     4  10  21  43  69  96 137 180 232 303 373 440
#     4  11  22  38  65  99 139 185 237 285 360 429
#     4  12  26  46  75 100 158 198 241 312 376 440
#
# _framework density 22.301022
#
# number of rings (size 3 to 8) (size 9 to 14) (size 15 to 20)
#    0.000    1.000    4.167    2.000    2.333    0.000 
#    0.000   13.333    0.000    0.000    0.000    0.000 
#    0.000    0.000    0.000    0.000    0.000    0.000 
#
# Total GULP energy -133874.220315 kJ/mol
# GULP energy per Si atom -5578.092513 kJ/mol
# Density = 2.225026 g / cm^3
# Si number density = 22.301022 Si / 1000 Ang^3
#
#
#
# Elastic Constant Matrix: (Units=GPa)
#
#
# Indices 1 2 3 4 5 6 
#
# 1 98.2184 50.5167 51.9862 0.0000 0.0000 0.0000
# 2 50.5167 118.3329 46.5267 0.0000 0.0000 0.0000
# 3 51.9862 46.5267 128.4766 0.0000 0.0000 0.0000
# 4 0.0000 0.0000 0.0000 -29.5001 0.0000 0.0000
# 5 0.0000 0.0000 0.0000 0.0000-1794.3921 0.0000
# 6 0.0000 0.0000 0.0000 0.0000 0.0000 38.7896
#
#
#
# Elastic Compliance Matrix: (Units=1/GPa)
#
#
# Indices 1 2 3 4 5 6 
#
# 1 0.014862 -0.004641 -0.004333 0.000000 0.000000 0.000000
# 2 -0.004641 0.011303 -0.002215 0.000000 0.000000 0.000000
# 3 -0.004333 -0.002215 0.010339 0.000000 0.000000 0.000000
# 4 0.000000 0.000000 0.000000 -0.033898 0.000000 0.000000
# 5 0.000000 0.000000 0.000000 0.000000 -0.000557 0.000000
# 6 0.000000 0.000000 0.000000 0.000000 0.000000 0.025780
#
#
# Mechanical properties :
#
#
# Convention : Reuss Voigt Hill
#
# Bulk Modulus (GPa) = 70.79472 71.45412 71.12442
# Shear Modulus (GPa) = 91.04931 -343.95397 -126.45233
#
# Velocity S-wave (km/s) = 6.39657 -12.43251 -7.53827
# Velocity P-wave (km/s) = 9.29348 13.19012 6.61856
#
# Compressibility (1/GPa) = 0.01412535
#
# Stress axis : x y z
#
# Youngs Moduli (GPa) = 67.28697 88.47195 96.72054
#
# Poissons Ratio (x) = 0.41059 0.41908
# Poissons Ratio (y) = 0.31227 0.21428
# Poissons Ratio (z) = 0.29155 0.19600
#
# Static dielectric constant tensor:
#      x y z
#    x 2.020200 0.000000 0.000000 
#    y 0.000000 1.981750 0.000000 
#    z 0.000000 0.000000 1.793800 
# 
# From -- ./inp_files/19437.got.cif
#   From: 2010.05.17/outbox.cif.g08.bks.cpg/sg37_10_cif.got.tgz:19437.got - 2010.06.03 17:53:42.
