data_PCOD9354194
_publ_section_title
;
Structure prediction by ZEFSAII (Michael W. Deem and Ramdas Pophale) SiO2 
 PCOD9354194
Probable space group: C C C 2
;
_chemical_formula_sum "Si O2"
_cell_formula_units_Z 60
_cell_length_a 16.531810
_cell_length_b 25.940838
_cell_length_c 5.390260
_cell_angle_alpha 90.000000
_cell_angle_beta 90.000000
_cell_angle_gamma 90.000000
_cell_volume 2311.607638
_symmetry_space_group_name_H-M "C C C 2"
_symmetry_group_IT_number 37
_symmetry_cell_setting 'orthorhombic'
loop_
_space_group_symop_operation_xyz
x,y,z
-x,-y,z
-x,y,1/2+z
x,-y,1/2+z
1/2+x,1/2+y,z
1/2-x,1/2-y,z
1/2-x,1/2+y,1/2+z
1/2+x,1/2-y,1/2+z
loop_
_atom_site_type_symbol
_atom_site_label
_atom_site_fract_x
_atom_site_fract_y
_atom_site_fract_z
Si Si1 0.293150 0.521522 0.165400
Si Si2 0.021020 0.124619 0.734415
Si Si3 0.705534 0.356546 0.138225
Si Si4 0.950141 0.383342 0.913204
Si Si5 0.750000 0.750000 0.883764
Si Si6 0.113004 0.486158 0.596634
Si Si7 0.370052 0.699251 0.746580
Si Si8 0.947635 0.278402 0.056078
O O1 0.333276 0.498422 0.411750
O O2 0.274202 0.582946 0.175549
O O3 0.203623 0.496167 0.148965
O O4 0.956871 0.172269 0.694982
O O5 0.009981 0.095843 0.475529
O O6 0.113763 0.141603 0.754093
O O7 0.753121 0.306859 0.250455
O O8 0.691179 0.344419 0.845238
O O9 0.895280 0.431722 0.963844
O O10 0.904394 0.331560 0.986867
O O11 0.018593 0.382753 0.131502
O O12 0.672128 0.738221 0.058436
O O13 0.076791 0.520810 0.373640
O O14 0.387483 0.733024 0.992423
O O15 0.985431 0.276815 0.330207
#
# Coordination Sequence:
#
# PCOD9354194 Si02
#       8
#     8   8   8   8   4   8   8   8
#     4  10  25  48  74  98 135 187 246 310 377 439
#     4  10  20  39  70  97 139 194 233 279 364 455
#     4  11  25  45  73 109 148 191 251 310 374 449
#     4  10  21  36  55  88 123 164 224 282 333 407
#     4  12  26  42  66 120 148 188 248 306 368 440
#     4  10  21  39  60  86 116 164 219 279 362 421
#     4  11  24  42  66 104 147 191 235 285 367 446
#     4  10  22  40  63  91 133 186 232 270 337 429
#
# _framework density 25.955960999999999
#
# number of rings (size 3 to 8) (size 9 to 14) (size 15 to 20)
#    0.000    1.600    1.333    2.800    3.733    3.733 
#    9.600    0.000    0.000    9.600    0.000    0.000 
#    0.000    0.000    0.000    0.000    0.000    0.000 
#
# Total GULP energy -167230.100007 kJ/mol
# GULP energy per Si atom -5574.336667 kJ/mol
# Density = 2.589688 g / cm^3
# Si number density = 25.955961 Si / 1000 Ang^3
#
#
#
# Elastic Constant Matrix: (Units=GPa)
#
#
# Indices 1 2 3 4 5 6 
#
# 1 60.2871 9.1980 21.7359 0.0000 0.0000 0.0000
# 2 9.1980 115.2815 38.4660 0.0000 0.0000 0.0000
# 3 21.7359 38.4660 173.3469 0.0000 0.0000 0.0000
# 4 0.0000 0.0000 0.0000 32.0554 0.0000 0.0000
# 5 0.0000 0.0000 0.0000 0.0000 27.6902 0.0000
# 6 0.0000 0.0000 0.0000 0.0000 0.0000 31.4700
#
#
#
# Elastic Compliance Matrix: (Units=1/GPa)
#
#
# Indices 1 2 3 4 5 6 
#
# 1 0.017427 -0.000714 -0.002027 0.000000 0.000000 0.000000
# 2 -0.000714 0.009397 -0.001996 0.000000 0.000000 0.000000
# 3 -0.002027 -0.001996 0.006466 0.000000 0.000000 0.000000
# 4 0.000000 0.000000 0.000000 0.031196 0.000000 0.000000
# 5 0.000000 0.000000 0.000000 0.000000 0.036114 0.000000
# 6 0.000000 0.000000 0.000000 0.000000 0.000000 0.031776
#
#
# Mechanical properties :
#
#
# Convention : Reuss Voigt Hill
#
# Bulk Modulus (GPa) = 41.98716 54.19060 48.08888
# Shear Modulus (GPa) = 33.38044 36.87750 35.12897
#
# Velocity S-wave (km/s) = 3.59003 3.77340 3.68286
# Velocity P-wave (km/s) = 5.77892 6.31728 6.05408
#
# Compressibility (1/GPa) = 0.02381680
#
# Stress axis : x y z
#
# Youngs Moduli (GPa) = 57.38238 106.41334 154.66089
#
# Poissons Ratio (x) = 0.07600 0.31345
# Poissons Ratio (y) = 0.04098 0.30866
# Poissons Ratio (z) = 0.11630 0.21237
#
# Static dielectric constant tensor:
#      x y z
#    x 2.055590 0.000000 0.000000 
#    y 0.000000 2.109250 0.000000 
#    z 0.000000 0.000000 2.271000 
# 
# From -- ./inp_files/856.got.cif
#   From: 2010.05.17/outbox.cif.g08.bks.cpg/sg37_1_cif.got.tgz:856.got - 2010.06.03 17:53:42.
