data_PCOD9354786
_publ_section_title
;
Structure prediction by ZEFSAII (Michael W. Deem and Ramdas Pophale) SiO2 
 PCOD9354786
Probable space group: C C C 2
;
_chemical_formula_sum "Si O2"
_cell_formula_units_Z 60
_cell_length_a 11.344464
_cell_length_b 28.147318
_cell_length_c 8.025808
_cell_angle_alpha 90.000000
_cell_angle_beta 90.000000
_cell_angle_gamma 90.000000
_cell_volume 2562.770799
_symmetry_space_group_name_H-M "C C C 2"
_symmetry_group_IT_number 37
_symmetry_cell_setting 'orthorhombic'
loop_
_space_group_symop_operation_xyz
x,y,z
-x,-y,z
-x,y,1/2+z
x,-y,1/2+z
1/2+x,1/2+y,z
1/2-x,1/2-y,z
1/2-x,1/2+y,1/2+z
1/2+x,1/2-y,1/2+z
loop_
_atom_site_type_symbol
_atom_site_label
_atom_site_fract_x
_atom_site_fract_y
_atom_site_fract_z
Si Si1 0.502674 0.661652 0.296690
Si Si2 0.726700 0.049424 0.113932
Si Si3 0.122837 0.366837 0.428033
Si Si4 0.500000 0.000000 0.571551
Si Si5 0.625823 0.514133 0.303591
Si Si6 0.321574 0.702902 0.037399
Si Si7 0.630234 0.599520 0.041632
Si Si8 0.896633 0.398320 0.546368
O O1 0.566691 0.701602 0.409182
O O2 0.601604 0.641455 0.173296
O O3 0.465599 0.615150 0.404772
O O4 0.386555 0.679242 0.197914
O O5 0.619346 0.014783 0.161934
O O6 0.825713 0.036640 0.243150
O O7 0.671649 0.099661 0.077459
O O8 0.785772 0.035165 0.938333
O O9 0.218297 0.325755 0.440632
O O10 0.117506 0.391627 0.246232
O O11 0.986579 0.358929 0.477143
O O12 0.457503 0.949110 0.496657
O O13 0.500000 0.500000 0.373036
O O14 0.620013 0.550712 0.147962
O O15 0.250000 0.750000 0.085211
O O16 0.764419 0.603584 0.980643
#
# Coordination Sequence:
#
# PCOD9354786 Si02
#       8
#     8   8   8   4   8   8   8   8
#     4  10  25  46  77 102 138 186 214 289 355 415
#     4  11  23  41  56  89 130 173 236 277 336 388
#     4  11  25  42  66  96 133 179 226 286 344 411
#     4  10  22  40  64  88 138 184 232 290 334 392
#     4  12  26  35  59  91 129 182 232 284 322 396
#     4  11  25  50  76 107 140 169 229 284 355 429
#     4  11  23  46  67  96 141 181 235 275 345 409
#     4  11  23  42  65  97 135 183 233 281 338 398
#
# _framework density 23.412158999999999
#
# number of rings (size 3 to 8) (size 9 to 14) (size 15 to 20)
#    0.000    1.067    4.000    0.400    9.333    8.000 
#    0.000    1.333    0.000    0.000    0.000    0.000 
#    0.000    0.000    0.000    0.000    0.000    0.000 
#
# Total GULP energy -167374.876600 kJ/mol
# GULP energy per Si atom -5579.162553 kJ/mol
# Density = 2.335887 g / cm^3
# Si number density = 23.412159 Si / 1000 Ang^3
#
#
#
# Elastic Constant Matrix: (Units=GPa)
#
#
# Indices 1 2 3 4 5 6 
#
# 1 125.9867 31.6736 49.5796 0.0000 0.0000 0.0000
# 2 31.6736 52.7219 15.3178 0.0000 0.0000 0.0000
# 3 49.5796 15.3178 73.8814 0.0000 0.0000 0.0000
# 4 0.0000 0.0000 0.0000 15.5227 0.0000 0.0000
# 5 0.0000 0.0000 0.0000 0.0000 12.1298 0.0000
# 6 0.0000 0.0000 0.0000 0.0000 0.0000 38.4889
#
#
#
# Elastic Compliance Matrix: (Units=1/GPa)
#
#
# Indices 1 2 3 4 5 6 
#
# 1 0.011979 -0.005173 -0.006967 0.000000 0.000000 0.000000
# 2 -0.005173 0.022417 -0.001176 0.000000 0.000000 0.000000
# 3 -0.006967 -0.001176 0.018454 0.000000 0.000000 0.000000
# 4 0.000000 0.000000 0.000000 0.064422 0.000000 0.000000
# 5 0.000000 0.000000 0.000000 0.000000 0.082442 0.000000
# 6 0.000000 0.000000 0.000000 0.000000 0.000000 0.025981
#
#
# Mechanical properties :
#
#
# Convention : Reuss Voigt Hill
#
# Bulk Modulus (GPa) = 38.14027 49.52579 43.83303
# Shear Modulus (GPa) = 19.15221 23.62955 21.39088
#
# Velocity S-wave (km/s) = 2.86325 3.18037 3.02597
# Velocity P-wave (km/s) = 5.22083 5.88949 5.56522
#
# Compressibility (1/GPa) = 0.02621901
#
# Stress axis : x y z
#
# Youngs Moduli (GPa) = 83.47704 44.60930 54.18844
#
# Poissons Ratio (x) = 0.23075 0.37750
# Poissons Ratio (y) = 0.43181 0.06375
# Poissons Ratio (z) = 0.58154 0.05248
#
# Static dielectric constant tensor:
#      x y z
#    x 1.899520 0.000000 0.000000 
#    y 0.000000 1.900510 0.000000 
#    z 0.000000 0.000000 1.945330 
# 
# From -- ./inp_files/3056.got.cif
#   From: 2010.05.17/outbox.cif.g08.bks.cpg/sg37_2_cif.got.tgz:3056.got - 2010.06.03 17:53:42.
