data_PCOD9354696
_publ_section_title
;
Structure prediction by ZEFSAII (Michael W. Deem and Ramdas Pophale) SiO2 
 PCOD9354696
Probable space group: C C C 2
;
_chemical_formula_sum "Si O2"
_cell_formula_units_Z 48
_cell_length_a 14.949145
_cell_length_b 10.758955
_cell_length_c 15.582983
_cell_angle_alpha 90.000000
_cell_angle_beta 90.000000
_cell_angle_gamma 90.000000
_cell_volume 2506.323016
_symmetry_space_group_name_H-M "C C C 2"
_symmetry_group_IT_number 37
_symmetry_cell_setting 'orthorhombic'
loop_
_space_group_symop_operation_xyz
x,y,z
-x,-y,z
-x,y,1/2+z
x,-y,1/2+z
1/2+x,1/2+y,z
1/2-x,1/2-y,z
1/2-x,1/2+y,1/2+z
1/2+x,1/2-y,1/2+z
loop_
_atom_site_type_symbol
_atom_site_label
_atom_site_fract_x
_atom_site_fract_y
_atom_site_fract_z
Si Si1 0.250000 0.750000 0.970701
Si Si2 0.593598 0.930319 0.062410
Si Si3 0.723806 0.445468 0.117344
Si Si4 0.351988 0.297973 0.158519
Si Si5 0.750000 0.250000 0.263736
Si Si6 0.101524 0.669468 0.833551
Si Si7 0.102419 0.607738 0.362477
O O1 0.169020 0.704575 0.910031
O O2 0.285881 0.640923 0.033297
O O3 0.589069 0.790591 0.098348
O O4 0.500000 0.000000 0.074525
O O5 0.675316 0.000283 0.108745
O O6 0.616746 0.924345 0.961954
O O7 0.655245 0.559507 0.129579
O O8 0.718557 0.359218 0.200597
O O9 0.250000 0.250000 0.150185
O O10 0.380655 0.263266 0.255224
O O11 0.828956 0.296396 0.323780
O O12 0.116212 0.523007 0.812032
O O13 0.997141 0.663509 0.857090
#
# Coordination Sequence:
#
# PCOD9354696 Si02
#       7
#     4   8   8   8   4   8   8
#     4  11  20  40  73  90 138 168 219 268 330 395
#     4  11  21  39  67  98 125 162 227 276 320 390
#     4  10  23  42  62  96 129 178 209 262 342 390
#     4  10  22  37  64  95 129 166 209 266 329 387
#     4  11  26  40  67  92 136 174 217 270 330 397
#     4  11  22  41  68  98 122 171 220 273 320 383
#     4  11  23  41  66  96 125 167 224 270 322 387
#
# _framework density 19.151562999999999
#
# number of rings (size 3 to 8) (size 9 to 14) (size 15 to 20)
#    0.000    1.333    4.167    2.000    8.167    0.000 
#    0.000    0.833    0.000    0.000    0.000    0.000 
#    0.000    0.000    0.000    0.000    0.000    0.000 
#
# Total GULP energy -133967.175599 kJ/mol
# GULP energy per Si atom -5581.965650 kJ/mol
# Density = 1.910797 g / cm^3
# Si number density = 19.151563 Si / 1000 Ang^3
#
#
#
# Elastic Constant Matrix: (Units=GPa)
#
#
# Indices 1 2 3 4 5 6 
#
# 1 104.1369 69.3385 56.4280 0.0000 0.0000 0.0000
# 2 69.3385 140.5686 62.5229 0.0000 0.0000 0.0000
# 3 56.4280 62.5229 88.8058 0.0000 0.0000 0.0000
# 4 0.0000 0.0000 0.0000 36.4587 0.0000 0.0000
# 5 0.0000 0.0000 0.0000 0.0000 22.5649 0.0000
# 6 0.0000 0.0000 0.0000 0.0000 0.0000 41.8935
#
#
#
# Elastic Compliance Matrix: (Units=1/GPa)
#
#
# Indices 1 2 3 4 5 6 
#
# 1 0.016892 -0.005181 -0.007086 0.000000 0.000000 0.000000
# 2 -0.005181 0.011946 -0.005119 0.000000 0.000000 0.000000
# 3 -0.007086 -0.005119 0.019367 0.000000 0.000000 0.000000
# 4 0.000000 0.000000 0.000000 0.027428 0.000000 0.000000
# 5 0.000000 0.000000 0.000000 0.000000 0.044317 0.000000
# 6 0.000000 0.000000 0.000000 0.000000 0.000000 0.023870
#
#
# Mechanical properties :
#
#
# Convention : Reuss Voigt Hill
#
# Bulk Modulus (GPa) = 74.43651 78.89891 76.66771
# Shear Modulus (GPa) = 27.31225 29.86489 28.58857
#
# Velocity S-wave (km/s) = 3.78049 3.95320 3.86781
# Velocity P-wave (km/s) = 7.61627 7.88186 7.75020
#
# Compressibility (1/GPa) = 0.01343427
#
# Stress axis : x y z
#
# Youngs Moduli (GPa) = 59.20070 83.70904 51.63476
#
# Poissons Ratio (x) = 0.43366 0.36588
# Poissons Ratio (y) = 0.30669 0.26431
# Poissons Ratio (z) = 0.41949 0.42849
#
# Static dielectric constant tensor:
#      x y z
#    x 1.655970 0.000000 0.000000 
#    y 0.000000 1.697380 0.000000 
#    z 0.000000 0.000000 1.684870 
# 
# From -- ./inp_files/12111.got.cif
#   From: 2010.05.17/outbox.cif.g08.bks.cpg/sg37_7_cif.got.tgz:12111.got - 2010.06.03 17:53:42.
