data_PCOD9354175
_publ_section_title
;
Structure prediction by ZEFSAII (Michael W. Deem and Ramdas Pophale) SiO2 
 PCOD9354175
Probable space group: C C C 2
;
_chemical_formula_sum "Si O2"
_cell_formula_units_Z 60
_cell_length_a 21.151422
_cell_length_b 11.102319
_cell_length_c 12.689165
_cell_angle_alpha 90.000000
_cell_angle_beta 90.000000
_cell_angle_gamma 90.000000
_cell_volume 2979.794515
_symmetry_space_group_name_H-M "C C C 2"
_symmetry_group_IT_number 37
_symmetry_cell_setting 'orthorhombic'
loop_
_space_group_symop_operation_xyz
x,y,z
-x,-y,z
-x,y,1/2+z
x,-y,1/2+z
1/2+x,1/2+y,z
1/2-x,1/2-y,z
1/2-x,1/2+y,1/2+z
1/2+x,1/2-y,1/2+z
loop_
_atom_site_type_symbol
_atom_site_label
_atom_site_fract_x
_atom_site_fract_y
_atom_site_fract_z
Si Si1 0.328773 0.535896 0.125000
Si Si2 0.250000 0.750000 0.141100
Si Si3 0.402613 0.970020 0.667119
Si Si4 0.402964 0.655647 0.303257
Si Si5 0.175506 0.614946 0.322679
Si Si6 0.551490 0.405218 0.520899
Si Si7 0.015611 0.306019 0.638247
Si Si8 0.218782 0.618908 0.546059
O O1 0.302988 0.667844 0.083370
O O2 0.356305 0.568358 0.239516
O O3 0.382674 0.457078 0.067173
O O4 0.266782 0.456502 0.116533
O O5 0.214509 0.660748 0.221686
O O6 0.459677 0.880886 0.692344
O O7 0.350280 0.902696 0.596275
O O8 0.371158 0.016616 0.774736
O O9 0.433095 0.089056 0.609654
O O10 0.363293 0.765051 0.355461
O O11 0.440305 0.592849 0.395740
O O12 0.447990 0.717282 0.216947
O O13 0.214749 0.576103 0.424267
O O14 0.500000 0.500000 0.558596
O O15 0.521828 0.276115 0.553914
O O16 0.250000 0.750000 0.543631
#
# Coordination Sequence:
#
# PCOD9354175 Si02
#       8
#     8   4   8   8   8   8   8   8
#     4  11  24  40  67  90 127 164 215 263 317 389
#     4  10  20  42  64  84 126 166 204 256 318 388
#     4  10  22  40  68  94 129 167 216 274 324 375
#     4  10  23  42  64  89 127 174 212 261 324 387
#     4  10  20  39  64  93 119 169 211 252 324 388
#     4  12  25  40  65  95 127 173 220 266 329 389
#     4  10  22  44  64  95 129 169 220 271 319 387
#     4  12  23  38  66  97 127 164 215 264 324 393
#
# _framework density 20.135617
#
# number of rings (size 3 to 8) (size 9 to 14) (size 15 to 20)
#    0.000    1.333    3.333    2.400    3.733    1.067 
#    0.000    2.667    2.933    0.000    0.000    0.000 
#    0.000    0.000    0.000    0.000    0.000    0.000 
#
# Total GULP energy -167145.027960 kJ/mol
# GULP energy per Si atom -5571.500932 kJ/mol
# Density = 2.008979 g / cm^3
# Si number density = 20.135617 Si / 1000 Ang^3
#
#
#
# Elastic Constant Matrix: (Units=GPa)
#
#
# Indices 1 2 3 4 5 6 
#
# 1 116.7241 37.0510 22.9395 0.0000 0.0000 0.0000
# 2 37.0510 71.0140 32.6765 0.0000 0.0000 0.0000
# 3 22.9395 32.6765 45.6753 0.0000 0.0000 0.0000
# 4 0.0000 0.0000 0.0000 18.9948 0.0000 0.0000
# 5 0.0000 0.0000 0.0000 0.0000 22.6866 0.0000
# 6 0.0000 0.0000 0.0000 0.0000 0.0000 44.1152
#
#
#
# Elastic Compliance Matrix: (Units=1/GPa)
#
#
# Indices 1 2 3 4 5 6 
#
# 1 0.010388 -0.004501 -0.001997 0.000000 0.000000 0.000000
# 2 -0.004501 0.022942 -0.014153 0.000000 0.000000 0.000000
# 3 -0.001997 -0.014153 0.033022 0.000000 0.000000 0.000000
# 4 0.000000 0.000000 0.000000 0.052646 0.000000 0.000000
# 5 0.000000 0.000000 0.000000 0.000000 0.044079 0.000000
# 6 0.000000 0.000000 0.000000 0.000000 0.000000 0.022668
#
#
# Mechanical properties :
#
#
# Convention : Reuss Voigt Hill
#
# Bulk Modulus (GPa) = 39.91925 46.52750 43.22337
# Shear Modulus (GPa) = 21.24070 26.54243 23.89157
#
# Velocity S-wave (km/s) = 3.25142 3.63462 3.44835
# Velocity P-wave (km/s) = 5.82785 6.38523 6.11290
#
# Compressibility (1/GPa) = 0.02505057
#
# Stress axis : x y z
#
# Youngs Moduli (GPa) = 96.26052 43.58761 30.28317
#
# Poissons Ratio (x) = 0.19619 0.06048
# Poissons Ratio (y) = 0.43327 0.42858
# Poissons Ratio (z) = 0.19226 0.61688
#
# Static dielectric constant tensor:
#      x y z
#    x 1.793810 0.000000 0.000000 
#    y 0.000000 1.858140 0.000000 
#    z 0.000000 0.000000 1.669110 
# 
# From -- ./inp_files/8639.got.cif
#   From: 2010.05.17/outbox.cif.g08.bks.cpg/sg37_5_cif.got.tgz:8639.got - 2010.06.03 17:53:42.
