data_PCOD9354015
_publ_section_title
;
Structure prediction by ZEFSAII (Michael W. Deem and Ramdas Pophale) SiO2 
 PCOD9354015
Probable space group: C C C 2
;
_chemical_formula_sum "Si O2"
_cell_formula_units_Z 52
_cell_length_a 12.173086
_cell_length_b 18.609150
_cell_length_c 12.222548
_cell_angle_alpha 90.000000
_cell_angle_beta 90.000000
_cell_angle_gamma 90.000000
_cell_volume 2768.783373
_symmetry_space_group_name_H-M "C C C 2"
_symmetry_group_IT_number 37
_symmetry_cell_setting 'orthorhombic'
loop_
_space_group_symop_operation_xyz
x,y,z
-x,-y,z
-x,y,1/2+z
x,-y,1/2+z
1/2+x,1/2+y,z
1/2-x,1/2-y,z
1/2-x,1/2+y,1/2+z
1/2+x,1/2-y,1/2+z
loop_
_atom_site_type_symbol
_atom_site_label
_atom_site_fract_x
_atom_site_fract_y
_atom_site_fract_z
Si Si1 0.401285 0.218870 0.794040
Si Si2 0.372525 0.509386 0.786077
Si Si3 0.250000 0.250000 0.992868
Si Si4 0.709371 0.365706 0.213168
Si Si5 0.622845 0.727931 0.318781
Si Si6 0.634511 0.376522 0.619982
Si Si7 0.409848 0.610068 0.992492
O O1 0.250000 0.250000 0.313161
O O2 0.334499 0.158548 0.728929
O O3 0.531595 0.211237 0.800673
O O4 0.349402 0.225410 0.914739
O O5 0.500000 0.500000 0.753371
O O6 0.320249 0.430999 0.793509
O O7 0.319603 0.554563 0.685715
O O8 0.377131 0.552133 0.900293
O O9 0.285994 0.320624 0.059198
O O10 0.637587 0.295078 0.241947
O O11 0.673588 0.390232 0.093304
O O12 0.595670 0.671307 0.223083
O O13 0.598795 0.686788 0.431607
O O14 0.532705 0.397587 0.541670
#
# Coordination Sequence:
#
# PCOD9354015 Si02
#       7
#     8   8   4   8   8   8   8
#     4  10  22  38  58  87 124 159 208 244 317 379
#     4  11  23  34  55  95 127 162 206 259 313 382
#     4  10  20  36  60  82 122 168 198 258 312 380
#     4  10  21  38  58  85 126 161 193 251 312 383
#     4  11  22  36  59  91 118 157 214 259 298 377
#     4  11  21  37  56  87 127 162 203 253 324 361
#     4  11  22  35  58  88 127 161 202 253 325 364
#
# _framework density 18.780812999999998
#
# number of rings (size 3 to 8) (size 9 to 14) (size 15 to 20)
#    0.000    1.538    5.385    0.923    6.462    0.000 
#    0.000    0.000    0.000    3.692    0.000    4.308 
#    0.000    0.000    0.000    0.000    0.000    0.000 
#
# Total GULP energy -144988.134883 kJ/mol
# GULP energy per Si atom -5576.466726 kJ/mol
# Density = 1.873807 g / cm^3
# Si number density = 18.780813 Si / 1000 Ang^3
#
#
#
# Elastic Constant Matrix: (Units=GPa)
#
#
# Indices 1 2 3 4 5 6 
#
# 1 110.8792 37.3291 24.2391 0.0000 0.0000 0.0000
# 2 37.3291 94.9250 38.4761 0.0000 0.0000 0.0000
# 3 24.2391 38.4761 101.7756 0.0000 0.0000 0.0000
# 4 0.0000 0.0000 0.0000 29.5017 0.0000 0.0000
# 5 0.0000 0.0000 0.0000 0.0000 10.1722 0.0000
# 6 0.0000 0.0000 0.0000 0.0000 0.0000 26.4040
#
#
#
# Elastic Compliance Matrix: (Units=1/GPa)
#
#
# Indices 1 2 3 4 5 6 
#
# 1 0.010500 -0.003679 -0.001110 0.000000 0.000000 0.000000
# 2 -0.003679 0.013730 -0.004314 0.000000 0.000000 0.000000
# 3 -0.001110 -0.004314 0.011721 0.000000 0.000000 0.000000
# 4 0.000000 0.000000 0.000000 0.033896 0.000000 0.000000
# 5 0.000000 0.000000 0.000000 0.000000 0.098307 0.000000
# 6 0.000000 0.000000 0.000000 0.000000 0.000000 0.037873
#
#
# Mechanical properties :
#
#
# Convention : Reuss Voigt Hill
#
# Bulk Modulus (GPa) = 56.35625 56.40759 56.38192
# Shear Modulus (GPa) = 21.72501 27.05130 24.38815
#
# Velocity S-wave (km/s) = 3.40482 3.79934 3.60747
# Velocity P-wave (km/s) = 6.74756 7.02471 6.88753
#
# Compressibility (1/GPa) = 0.01774426
#
# Stress axis : x y z
#
# Youngs Moduli (GPa) = 95.23694 72.83160 85.31760
#
# Poissons Ratio (x) = 0.26797 0.09468
# Poissons Ratio (y) = 0.35041 0.36810
# Poissons Ratio (z) = 0.10569 0.31423
#
# Static dielectric constant tensor:
#      x y z
#    x 1.659410 0.000000 0.000000 
#    y 0.000000 1.742560 0.000000 
#    z 0.000000 0.000000 1.698960 
# 
# From -- ./inp_files/8012.got.cif
#   From: 2010.05.17/outbox.cif.g08.bks.cpg/sg37_5_cif.got.tgz:8012.got - 2010.06.03 17:53:42.
