data_PCOD9354141
_publ_section_title
;
Structure prediction by ZEFSAII (Michael W. Deem and Ramdas Pophale) SiO2 
 PCOD9354141
Probable space group: C C C 2
;
_chemical_formula_sum "Si O2"
_cell_formula_units_Z 64
_cell_length_a 12.534546
_cell_length_b 16.691400
_cell_length_c 15.481056
_cell_angle_alpha 90.000000
_cell_angle_beta 90.000000
_cell_angle_gamma 90.000000
_cell_volume 3238.932930
_symmetry_space_group_name_H-M "C C C 2"
_symmetry_group_IT_number 37
_symmetry_cell_setting 'orthorhombic'
loop_
_space_group_symop_operation_xyz
x,y,z
-x,-y,z
-x,y,1/2+z
x,-y,1/2+z
1/2+x,1/2+y,z
1/2-x,1/2-y,z
1/2-x,1/2+y,1/2+z
1/2+x,1/2-y,1/2+z
loop_
_atom_site_type_symbol
_atom_site_label
_atom_site_fract_x
_atom_site_fract_y
_atom_site_fract_z
Si Si1 0.768273 0.599208 0.556120
Si Si2 0.653020 0.687922 0.079552
Si Si3 0.103769 0.547027 0.467140
Si Si4 0.523166 0.804345 0.538634
Si Si5 0.145420 0.801559 0.911344
Si Si6 0.280114 0.343280 0.896120
Si Si7 0.892442 0.902060 0.242389
Si Si8 0.363582 0.578545 0.230079
O O1 0.825175 0.519162 0.517827
O O2 0.863935 0.663113 0.572362
O O3 0.687086 0.637259 0.485697
O O4 0.706972 0.586293 0.645015
O O5 0.750000 0.750000 0.076877
O O6 0.544781 0.739191 0.090526
O O7 0.671007 0.631605 0.160820
O O8 0.654606 0.644707 0.986023
O O9 0.179448 0.596587 0.403090
O O10 0.000000 0.500000 0.430333
O O11 0.051843 0.618248 0.524630
O O12 0.556623 0.758239 0.450361
O O13 0.250000 0.750000 0.888963
O O14 0.109221 0.846806 0.826096
O O15 0.250000 0.250000 0.895708
O O16 0.337949 0.361939 0.807468
O O17 0.012624 0.911254 0.208382
O O18 0.849963 0.989115 0.267083
#
# Coordination Sequence:
#
# PCOD9354141 Si02
#       8
#     8   8   8   8   8   8   8   8
#     4  10  22  41  65  87 134 170 213 267 333 383
#     4  11  21  38  65  93 124 166 215 269 327 384
#     4  10  20  39  64  93 127 169 215 268 318 392
#     4  10  20  38  64  96 122 168 218 262 325 389
#     4  10  21  40  65  91 123 171 213 269 324 384
#     4  11  22  39  65  90 127 168 212 269 327 388
#     4  11  24  39  60  91 128 164 219 265 323 397
#     4  11  25  40  59  92 127 170 212 268 325 397
#
# _framework density 19.759594
#
# number of rings (size 3 to 8) (size 9 to 14) (size 15 to 20)
#    0.000    1.500    2.500    3.375    0.000    2.500 
#    0.000    4.375    0.000    0.000    0.000    0.000 
#    0.000    0.000    0.000    0.000    0.000    0.000 
#
# Total GULP energy -178544.457455 kJ/mol
# GULP energy per Si atom -5579.514295 kJ/mol
# Density = 1.971462 g / cm^3
# Si number density = 19.759594 Si / 1000 Ang^3
#
#
#
# Elastic Constant Matrix: (Units=GPa)
#
#
# Indices 1 2 3 4 5 6 
#
# 1 61.4988 22.8890 30.9397 0.0000 0.0000 0.0000
# 2 22.8890 101.8739 40.8536 0.0000 0.0000 0.0000
# 3 30.9397 40.8536 79.7845 0.0000 0.0000 0.0000
# 4 0.0000 0.0000 0.0000 23.2380 0.0000 0.0000
# 5 0.0000 0.0000 0.0000 0.0000 8.7956 0.0000
# 6 0.0000 0.0000 0.0000 0.0000 0.0000 26.5381
#
#
#
# Elastic Compliance Matrix: (Units=1/GPa)
#
#
# Indices 1 2 3 4 5 6 
#
# 1 0.020455 -0.001780 -0.007021 0.000000 0.000000 0.000000
# 2 -0.001780 0.012508 -0.005714 0.000000 0.000000 0.000000
# 3 -0.007021 -0.005714 0.018182 0.000000 0.000000 0.000000
# 4 0.000000 0.000000 0.000000 0.043033 0.000000 0.000000
# 5 0.000000 0.000000 0.000000 0.000000 0.113693 0.000000
# 6 0.000000 0.000000 0.000000 0.000000 0.000000 0.037682
#
#
# Mechanical properties :
#
#
# Convention : Reuss Voigt Hill
#
# Bulk Modulus (GPa) = 45.21894 48.05798 46.63846
# Shear Modulus (GPa) = 17.73334 21.61267 19.67301
#
# Velocity S-wave (km/s) = 2.99901 3.31082 3.15876
# Velocity P-wave (km/s) = 5.90985 6.24416 6.07930
#
# Compressibility (1/GPa) = 0.02211463
#
# Stress axis : x y z
#
# Youngs Moduli (GPa) = 48.88733 79.95178 54.99889
#
# Poissons Ratio (x) = 0.14235 0.38613
# Poissons Ratio (y) = 0.08704 0.31427
# Poissons Ratio (z) = 0.34322 0.45685
#
# Static dielectric constant tensor:
#      x y z
#    x 1.727440 0.000000 0.000000 
#    y 0.000000 1.718370 0.000000 
#    z 0.000000 0.000000 1.638100 
# 
# From -- ./inp_files/11768.got.cif
#   From: 2010.05.17/outbox.cif.g08.bks.cpg/sg37_6_cif.got.tgz:11768.got - 2010.06.03 17:53:42.
