data_PCOD9354574
_publ_section_title
;
Structure prediction by ZEFSAII (Michael W. Deem and Ramdas Pophale) SiO2 
 PCOD9354574
Probable space group: C C C 2
;
_chemical_formula_sum "Si O2"
_cell_formula_units_Z 60
_cell_length_a 9.113893
_cell_length_b 24.500309
_cell_length_c 12.355622
_cell_angle_alpha 90.000000
_cell_angle_beta 90.000000
_cell_angle_gamma 90.000000
_cell_volume 2758.926309
_symmetry_space_group_name_H-M "C C C 2"
_symmetry_group_IT_number 37
_symmetry_cell_setting 'orthorhombic'
loop_
_space_group_symop_operation_xyz
x,y,z
-x,-y,z
-x,y,1/2+z
x,-y,1/2+z
1/2+x,1/2+y,z
1/2-x,1/2-y,z
1/2-x,1/2+y,1/2+z
1/2+x,1/2-y,1/2+z
loop_
_atom_site_type_symbol
_atom_site_label
_atom_site_fract_x
_atom_site_fract_y
_atom_site_fract_z
Si Si1 0.750000 0.250000 0.449471
Si Si2 0.147726 0.104283 0.421105
Si Si3 0.947499 0.342269 0.550694
Si Si4 0.897944 0.579004 0.854586
Si Si5 0.824364 0.427704 0.711520
Si Si6 0.370893 0.349496 0.810528
Si Si7 0.319936 0.994816 0.027691
Si Si8 0.229572 0.814265 0.094439
O O1 0.865616 0.286698 0.516889
O O2 0.664245 0.293861 0.375464
O O3 0.222992 0.091319 0.307807
O O4 0.184214 0.161052 0.479479
O O5 0.980463 0.113682 0.382059
O O6 0.221200 0.058380 0.501227
O O7 0.970356 0.380939 0.445112
O O8 0.846469 0.377928 0.628850
O O9 0.102458 0.334321 0.608126
O O10 0.775598 0.615325 0.801090
O O11 0.020157 0.560728 0.770130
O O12 0.815217 0.531105 0.918885
O O13 0.765785 0.476909 0.637644
O O14 0.390060 0.332386 0.684807
O O15 0.500000 0.000000 0.043189
O O16 0.250000 0.750000 0.094601
#
# Coordination Sequence:
#
# PCOD9354574 Si02
#       8
#     4   8   8   8   8   8   8   8
#     4  10  22  46  70 106 150 198 248 312 384 450
#     4  12  27  46  70 112 147 190 251 317 376 452
#     4  10  21  41  69 104 138 189 253 305 365 456
#     4  10  21  43  70 100 138 189 245 307 364 445
#     4  11  22  42  72 102 140 189 249 311 368 440
#     4  11  25  44  72 100 153 194 238 311 386 442
#     4  11  24  41  73 106 139 190 252 306 365 459
#     4  12  24  44  72 102 146 195 251 301 374 463
#
# _framework density 21.747591
#
# number of rings (size 3 to 8) (size 9 to 14) (size 15 to 20)
#    0.000    1.067    4.667    1.600    1.867    4.800 
#    3.600    0.000    0.000    0.000    0.000    0.000 
#    0.000    0.000    0.000    0.000    0.000    0.000 
#
# Total GULP energy -167269.533086 kJ/mol
# GULP energy per Si atom -5575.651103 kJ/mol
# Density = 2.169809 g / cm^3
# Si number density = 21.747591 Si / 1000 Ang^3
#
#
#
# Elastic Constant Matrix: (Units=GPa)
#
#
# Indices 1 2 3 4 5 6 
#
# 1 77.3224 27.2526 23.9728 0.0000 0.0000 0.0000
# 2 27.2526 74.3465 29.4767 0.0000 0.0000 0.0000
# 3 23.9728 29.4767 105.3502 0.0000 0.0000 0.0000
# 4 0.0000 0.0000 0.0000 25.6899 0.0000 0.0000
# 5 0.0000 0.0000 0.0000 0.0000 19.8987 0.0000
# 6 0.0000 0.0000 0.0000 0.0000 0.0000 28.1311
#
#
#
# Elastic Compliance Matrix: (Units=1/GPa)
#
#
# Indices 1 2 3 4 5 6 
#
# 1 0.015272 -0.004747 -0.002147 0.000000 0.000000 0.000000
# 2 -0.004747 0.016604 -0.003566 0.000000 0.000000 0.000000
# 3 -0.002147 -0.003566 0.010978 0.000000 0.000000 0.000000
# 4 0.000000 0.000000 0.000000 0.038926 0.000000 0.000000
# 5 0.000000 0.000000 0.000000 0.000000 0.050254 0.000000
# 6 0.000000 0.000000 0.000000 0.000000 0.000000 0.035548
#
#
# Mechanical properties :
#
#
# Convention : Reuss Voigt Hill
#
# Bulk Modulus (GPa) = 45.58853 46.49148 46.04001
# Shear Modulus (GPa) = 25.53460 26.49841 26.01650
#
# Velocity S-wave (km/s) = 3.43028 3.49442 3.46250
# Velocity P-wave (km/s) = 6.05782 6.14048 6.09929
#
# Compressibility (1/GPa) = 0.02193534
#
# Stress axis : x y z
#
# Youngs Moduli (GPa) = 65.48141 60.22561 91.08823
#
# Poissons Ratio (x) = 0.28588 0.19556
# Poissons Ratio (y) = 0.31082 0.32479
# Poissons Ratio (z) = 0.14059 0.21475
#
# Static dielectric constant tensor:
#      x y z
#    x 1.848880 0.000000 0.000000 
#    y 0.000000 1.836270 0.000000 
#    z 0.000000 0.000000 1.809760 
# 
# From -- ./inp_files/6549.got.cif
#   From: 2010.05.17/outbox.cif.g08.bks.cpg/sg37_4_cif.got.tgz:6549.got - 2010.06.03 17:53:42.
