data_PCOD9354018
_publ_section_title
;
Structure prediction by ZEFSAII (Michael W. Deem and Ramdas Pophale) SiO2 
 PCOD9354018
Probable space group: C C C 2
;
_chemical_formula_sum "Si O2"
_cell_formula_units_Z 64
_cell_length_a 16.179597
_cell_length_b 8.652957
_cell_length_c 24.306259
_cell_angle_alpha 90.000000
_cell_angle_beta 90.000000
_cell_angle_gamma 90.000000
_cell_volume 3402.909246
_symmetry_space_group_name_H-M "C C C 2"
_symmetry_group_IT_number 37
_symmetry_cell_setting 'orthorhombic'
loop_
_space_group_symop_operation_xyz
x,y,z
-x,-y,z
-x,y,1/2+z
x,-y,1/2+z
1/2+x,1/2+y,z
1/2-x,1/2-y,z
1/2-x,1/2+y,1/2+z
1/2+x,1/2-y,1/2+z
loop_
_atom_site_type_symbol
_atom_site_label
_atom_site_fract_x
_atom_site_fract_y
_atom_site_fract_z
Si Si1 0.831204 0.359810 0.658210
Si Si2 0.588706 0.933288 0.938168
Si Si3 0.908265 0.053979 0.671664
Si Si4 0.249397 0.937750 0.370687
Si Si5 0.260593 0.434064 0.743687
Si Si6 0.156140 0.438863 0.551667
Si Si7 0.853809 0.922165 0.553565
Si Si8 0.912107 0.061497 0.439760
O O1 0.750000 0.250000 0.647071
O O2 0.900158 0.238068 0.675032
O O3 0.805791 0.476549 0.706317
O O4 0.857044 0.456651 0.605181
O O5 0.665108 0.985632 0.899668
O O6 0.585925 0.747371 0.939683
O O7 0.500000 0.000000 0.920974
O O8 0.610713 0.992503 0.999030
O O9 0.847076 0.979671 0.716022
O O10 0.879037 0.002174 0.610609
O O11 0.000000 0.000000 0.680554
O O12 0.250000 0.750000 0.372091
O O13 0.244844 0.983838 0.307047
O O14 0.167903 0.988478 0.404142
O O15 0.250000 0.250000 0.740100
O O16 0.130114 0.260843 0.558845
O O17 0.255588 0.441637 0.543697
O O18 0.899070 0.996199 0.501333
O O19 0.000000 0.000000 0.418440
#
# Coordination Sequence:
#
# PCOD9354018 Si02
#       8
#     8   8   8   8   8   8   8   8
#     4  10  20  36  60  86 117 159 196 239 304 360
#     4  11  23  40  61  91 124 158 204 250 301 365
#     4  11  23  38  59  90 123 155 198 249 304 357
#     4   9  21  40  64  85 115 164 203 247 310 356
#     4  10  20  41  64  85 113 158 207 247 297 367
#     4  11  21  35  61  90 120 158 203 245 300 364
#     4  11  21  36  59  91 122 160 201 246 300 361
#     4  11  22  39  61  89 125 161 200 248 304 363
#
# _framework density 18.807437
#
# number of rings (size 3 to 8) (size 9 to 14) (size 15 to 20)
#    0.000    1.500    3.750    2.625    0.000    1.500 
#    0.000   13.125    0.000    0.000    0.000    0.000 
#    0.000    0.000    0.000    0.000    0.000    0.000 
#
# Total GULP energy -178763.289492 kJ/mol
# GULP energy per Si atom -5586.352797 kJ/mol
# Density = 1.876463 g / cm^3
# Si number density = 18.807437 Si / 1000 Ang^3
#
#
#
# Elastic Constant Matrix: (Units=GPa)
#
#
# Indices 1 2 3 4 5 6 
#
# 1 132.9280 47.9842 69.9512 0.0000 0.0000 0.0000
# 2 47.9842 100.9936 42.9627 0.0000 0.0000 0.0000
# 3 69.9512 42.9627 147.5283 0.0000 0.0000 0.0000
# 4 0.0000 0.0000 0.0000 24.9006 0.0000 0.0000
# 5 0.0000 0.0000 0.0000 0.0000 6.6694 0.0000
# 6 0.0000 0.0000 0.0000 0.0000 0.0000 23.4049
#
#
#
# Elastic Compliance Matrix: (Units=1/GPa)
#
#
# Indices 1 2 3 4 5 6 
#
# 1 0.010972 -0.003424 -0.004205 0.000000 0.000000 0.000000
# 2 -0.003424 0.012370 -0.001979 0.000000 0.000000 0.000000
# 3 -0.004205 -0.001979 0.009349 0.000000 0.000000 0.000000
# 4 0.000000 0.000000 0.000000 0.040160 0.000000 0.000000
# 5 0.000000 0.000000 0.000000 0.000000 0.149939 0.000000
# 6 0.000000 0.000000 0.000000 0.000000 0.000000 0.042726
#
#
# Mechanical properties :
#
#
# Convention : Reuss Voigt Hill
#
# Bulk Modulus (GPa) = 74.21503 78.13845 76.17674
# Shear Modulus (GPa) = 17.28768 25.69843 21.49305
#
# Velocity S-wave (km/s) = 3.03511 3.70049 3.38419
# Velocity P-wave (km/s) = 7.19921 7.73918 7.47408
#
# Compressibility (1/GPa) = 0.01347436
#
# Stress axis : x y z
#
# Youngs Moduli (GPa) = 91.14293 80.83894 106.96846
#
# Poissons Ratio (x) = 0.27680 0.44982
# Poissons Ratio (y) = 0.31208 0.21168
# Poissons Ratio (z) = 0.38327 0.15997
#
# Static dielectric constant tensor:
#      x y z
#    x 1.666390 0.000000 0.000000 
#    y 0.000000 1.651430 0.000000 
#    z 0.000000 0.000000 1.622080 
# 
# From -- ./inp_files/18529.got.cif
#   From: 2010.05.17/outbox.cif.g08.bks.cpg/sg37_10_cif.got.tgz:18529.got - 2010.06.03 17:53:42.
