data_PCOD9354321
_publ_section_title
;
Structure prediction by ZEFSAII (Michael W. Deem and Ramdas Pophale) SiO2 
 PCOD9354321
Probable space group: C C C 2
;
_chemical_formula_sum "Si O2"
_cell_formula_units_Z 32
_cell_length_a 10.817837
_cell_length_b 9.102977
_cell_length_c 11.577853
_cell_angle_alpha 90.000000
_cell_angle_beta 90.000000
_cell_angle_gamma 90.000000
_cell_volume 1140.123533
_symmetry_space_group_name_H-M "C C C 2"
_symmetry_group_IT_number 37
_symmetry_cell_setting 'orthorhombic'
loop_
_space_group_symop_operation_xyz
x,y,z
-x,-y,z
-x,y,1/2+z
x,-y,1/2+z
1/2+x,1/2+y,z
1/2-x,1/2-y,z
1/2-x,1/2+y,1/2+z
1/2+x,1/2-y,1/2+z
loop_
_atom_site_type_symbol
_atom_site_label
_atom_site_fract_x
_atom_site_fract_y
_atom_site_fract_z
Si Si1 0.875317 0.397017 0.150570
Si Si2 0.885027 0.387187 0.901720
Si Si3 0.799780 0.912596 0.008275
Si Si4 0.473509 0.655330 0.308357
O O1 0.754397 0.497037 0.120284
O O2 0.882539 0.269584 0.244891
O O3 0.000000 0.500000 0.159685
O O4 0.888448 0.315953 0.028101
O O5 0.000000 0.500000 0.896869
O O6 0.903369 0.255717 0.814609
O O7 0.769540 0.494317 0.906294
O O8 0.750000 0.750000 0.028189
O O9 0.925466 0.878527 0.938258
O O10 0.500000 0.500000 0.249617
#
# Coordination Sequence:
#
# PCOD9354321 Si02
#       4
#     8   8   8   8
#     4   9  21  43  76 106 154 205 263 332 395 475
#     4   9  19  42  76  98 156 195 259 336 395 451
#     4  10  20  44  77 108 147 211 254 334 405 459
#     4  12  24  41  78 111 155 215 267 319 401 476
#
# _framework density 28.067133999999999
#
# number of rings (size 3 to 8) (size 9 to 14) (size 15 to 20)
#    1.500    0.500    2.500    0.750    0.000    2.000 
#    0.000    7.500   11.000    0.000    0.000    0.000 
#    0.000    0.000    0.000    0.000    0.000    0.000 
#
# Total GULP energy -89082.625226 kJ/mol
# GULP energy per Si atom -5567.664077 kJ/mol
# Density = 2.800325 g / cm^3
# Si number density = 28.067134 Si / 1000 Ang^3
#
#
#
# Elastic Constant Matrix: (Units=GPa)
#
#
# Indices 1 2 3 4 5 6 
#
# 1 89.8759 69.4851 16.7087 0.0000 0.0000 0.0000
# 2 69.4851 237.6744 72.0099 0.0000 0.0000 0.0000
# 3 16.7087 72.0099 104.7942 0.0000 0.0000 0.0000
# 4 0.0000 0.0000 0.0000 -27.2723 0.0000 0.0000
# 5 0.0000 0.0000 0.0000 0.0000 -0.0410 0.0000
# 6 0.0000 0.0000 0.0000 0.0000 0.0000 64.7344
#
#
#
# Elastic Compliance Matrix: (Units=1/GPa)
#
#
# Indices 1 2 3 4 5 6 
#
# 1 0.014423 -0.004445 0.000755 0.000000 0.000000 0.000000
# 2 -0.004445 0.006684 -0.003884 0.000000 0.000000 0.000000
# 3 0.000755 -0.003884 0.012091 0.000000 0.000000 0.000000
# 4 0.000000 0.000000 0.000000 -0.036667 0.000000 0.000000
# 5 0.000000 0.000000 0.000000 0.000000-24.400027 0.000000
# 6 0.000000 0.000000 0.000000 0.000000 0.000000 0.015448
#
#
# Mechanical properties :
#
#
# Convention : Reuss Voigt Hill
#
# Bulk Modulus (GPa) = 55.40464 83.19466 69.29965
# Shear Modulus (GPa) = -0.20520 25.76027 12.77754
#
# Velocity S-wave (km/s) = -0.27068 3.03282 2.13597
# Velocity P-wave (km/s) = 4.43680 6.47840 5.55225
#
# Compressibility (1/GPa) = 0.01804903
#
# Stress axis : x y z
#
# Youngs Moduli (GPa) = 69.33427 149.61478 82.70565
#
# Poissons Ratio (x) = 0.66509 -0.06244
# Poissons Ratio (y) = 0.30821 0.32123
# Poissons Ratio (z) = -0.05235 0.58111
#
# Static dielectric constant tensor:
#      x y z
#    x 2.253540 0.000000 0.000000 
#    y 0.000000 2.140300 0.000000 
#    z 0.000000 0.000000 2.226800 
# 
# From -- ./inp_files/11188.got.cif
#   From: 2010.05.17/outbox.cif.g08.bks.cpg/sg37_6_cif.got.tgz:11188.got - 2010.06.03 17:53:42.
