data_PCOD9354592
_publ_section_title
;
Structure prediction by ZEFSAII (Michael W. Deem and Ramdas Pophale) SiO2 
 PCOD9354592
Probable space group: C C C 2
;
_chemical_formula_sum "Si O2"
_cell_formula_units_Z 64
_cell_length_a 9.615924
_cell_length_b 21.767694
_cell_length_c 14.446182
_cell_angle_alpha 90.000000
_cell_angle_beta 90.000000
_cell_angle_gamma 90.000000
_cell_volume 3023.824127
_symmetry_space_group_name_H-M "C C C 2"
_symmetry_group_IT_number 37
_symmetry_cell_setting 'orthorhombic'
loop_
_space_group_symop_operation_xyz
x,y,z
-x,-y,z
-x,y,1/2+z
x,-y,1/2+z
1/2+x,1/2+y,z
1/2-x,1/2-y,z
1/2-x,1/2+y,1/2+z
1/2+x,1/2-y,1/2+z
loop_
_atom_site_type_symbol
_atom_site_label
_atom_site_fract_x
_atom_site_fract_y
_atom_site_fract_z
Si Si1 0.359520 0.464111 0.182380
Si Si2 0.202325 0.416878 0.720984
Si Si3 0.584354 0.063048 0.401450
Si Si4 0.574244 0.148187 0.039870
Si Si5 0.914253 0.231476 0.134162
Si Si6 0.500945 0.355923 0.777581
Si Si7 0.642827 0.640569 0.473484
Si Si8 0.352908 0.503720 0.472576
O O1 0.500000 0.500000 0.208015
O O2 0.234577 0.510185 0.208464
O O3 0.379881 0.398968 0.230878
O O4 0.364102 0.462263 0.070962
O O5 0.088062 0.407197 0.800589
O O6 0.142537 0.388938 0.626114
O O7 0.348126 0.384993 0.752576
O O8 0.531298 0.106928 0.482286
O O9 0.740760 0.040277 0.416801
O O10 0.500000 0.000000 0.403846
O O11 0.517383 0.210264 0.084638
O O12 0.700311 0.167014 0.970186
O O13 0.750000 0.250000 0.148772
O O14 0.987436 0.209673 0.227506
O O15 0.920175 0.174005 0.063097
O O16 0.544782 0.351923 0.884690
O O17 0.674057 0.568136 0.488094
O O18 0.500000 0.500000 0.422439
#
# Coordination Sequence:
#
# PCOD9354592 Si02
#       8
#     8   8   8   8   8   8   8   8
#     4   9  18  33  61  95 133 164 211 278 347 391
#     4  11  21  40  62  95 132 177 222 280 348 419
#     4  12  25  39  63  99 137 184 228 272 352 429
#     4  11  24  46  63  90 140 187 224 277 358 421
#     4  10  21  42  67  88 130 184 231 279 347 417
#     4  11  21  37  70 100 124 174 233 288 344 410
#     4  11  20  39  67  96 126 170 229 280 342 408
#     4  11  20  38  66 100 138 172 218 287 346 409
#
# _framework density 21.165253
#
# number of rings (size 3 to 8) (size 9 to 14) (size 15 to 20)
#    0.000    1.250    5.000    3.000    0.000    3.500 
#    0.000    0.000    0.000    3.000    0.000    0.000 
#    0.000    0.000    0.000    0.000    0.000    0.000 
#
# Total GULP energy -178562.498974 kJ/mol
# GULP energy per Si atom -5580.078093 kJ/mol
# Density = 2.111708 g / cm^3
# Si number density = 21.165253 Si / 1000 Ang^3
#
#
#
# Elastic Constant Matrix: (Units=GPa)
#
#
# Indices 1 2 3 4 5 6 
#
# 1 48.4738 15.3726 33.3707 0.0000 0.0000 0.0000
# 2 15.3726 78.3046 35.1157 0.0000 0.0000 0.0000
# 3 33.3707 35.1157 126.1851 0.0000 0.0000 0.0000
# 4 0.0000 0.0000 0.0000 91.2483 0.0000 0.0000
# 5 0.0000 0.0000 0.0000 0.0000 34.3148 0.0000
# 6 0.0000 0.0000 0.0000 0.0000 0.0000 9.2918
#
#
#
# Elastic Compliance Matrix: (Units=1/GPa)
#
#
# Indices 1 2 3 4 5 6 
#
# 1 0.025570 -0.002271 -0.006130 0.000000 0.000000 0.000000
# 2 -0.002271 0.014793 -0.003516 0.000000 0.000000 0.000000
# 3 -0.006130 -0.003516 0.010525 0.000000 0.000000 0.000000
# 4 0.000000 0.000000 0.000000 0.010959 0.000000 0.000000
# 5 0.000000 0.000000 0.000000 0.000000 0.029142 0.000000
# 6 0.000000 0.000000 0.000000 0.000000 0.000000 0.107622
#
#
# Mechanical properties :
#
#
# Convention : Reuss Voigt Hill
#
# Bulk Modulus (GPa) = 36.96395 46.74237 41.85316
# Shear Modulus (GPa) = 21.60168 38.24462 29.92315
#
# Velocity S-wave (km/s) = 3.19818 4.25544 3.76411
# Velocity P-wave (km/s) = 5.58034 6.80275 6.22164
#
# Compressibility (1/GPa) = 0.02705338
#
# Stress axis : x y z
#
# Youngs Moduli (GPa) = 39.10822 67.59824 95.01543
#
# Poissons Ratio (x) = 0.15350 0.58247
# Poissons Ratio (y) = 0.08880 0.33410
# Poissons Ratio (z) = 0.23975 0.23769
#
# Static dielectric constant tensor:
#      x y z
#    x 1.817540 0.000000 0.000000 
#    y 0.000000 1.746790 0.000000 
#    z 0.000000 0.000000 1.786950 
# 
# From -- ./inp_files/10997.got.cif
#   From: 2010.05.17/outbox.cif.g08.bks.cpg/sg37_6_cif.got.tgz:10997.got - 2010.06.03 17:53:42.
