data_PCOD9354855
_publ_section_title
;
Structure prediction by ZEFSAII (Michael W. Deem and Ramdas Pophale) SiO2 
 PCOD9354855
Probable space group: C C C 2
;
_chemical_formula_sum "Si O2"
_cell_formula_units_Z 64
_cell_length_a 12.405924
_cell_length_b 26.865656
_cell_length_c 9.456493
_cell_angle_alpha 90.000000
_cell_angle_beta 90.000000
_cell_angle_gamma 90.000000
_cell_volume 3151.785631
_symmetry_space_group_name_H-M "C C C 2"
_symmetry_group_IT_number 37
_symmetry_cell_setting 'orthorhombic'
loop_
_space_group_symop_operation_xyz
x,y,z
-x,-y,z
-x,y,1/2+z
x,-y,1/2+z
1/2+x,1/2+y,z
1/2-x,1/2-y,z
1/2-x,1/2+y,1/2+z
1/2+x,1/2-y,1/2+z
loop_
_atom_site_type_symbol
_atom_site_label
_atom_site_fract_x
_atom_site_fract_y
_atom_site_fract_z
Si Si1 0.903166 0.711663 0.267320
Si Si2 0.296712 0.099623 0.942391
Si Si3 0.833410 0.186881 0.877329
Si Si4 0.669172 0.504553 0.868906
Si Si5 0.737970 0.142169 0.140632
Si Si6 0.587710 0.558761 0.617835
Si Si7 0.500475 0.154881 0.517855
Si Si8 0.638324 0.406001 0.694917
O O1 0.907950 0.767824 0.326382
O O2 0.780347 0.695529 0.297395
O O3 0.975900 0.677453 0.365988
O O4 0.941528 0.697625 0.111368
O O5 0.269599 0.136829 0.810931
O O6 0.417872 0.109448 0.994447
O O7 0.268207 0.042406 0.898571
O O8 0.221582 0.110893 0.075937
O O9 0.878549 0.135406 0.815595
O O10 0.800265 0.183923 0.044256
O O11 0.589484 0.538390 0.777341
O O12 0.685055 0.455263 0.773201
O O13 0.614357 0.485466 0.011130
O O14 0.809949 0.094484 0.101827
O O15 0.615390 0.141088 0.084604
O O16 0.473030 0.584808 0.611155
#
# Coordination Sequence:
#
# PCOD9354855 Si02
#       8
#     8   8   8   8   8   8   8   8
#     4  10  22  41  71  97 130 175 225 272 346 403
#     4  11  24  41  69 101 131 182 229 279 346 408
#     4  10  22  43  67  97 133 177 220 274 341 408
#     4  11  24  41  61  96 135 179 226 278 340 409
#     4  10  23  42  69  97 135 177 224 279 344 408
#     4  11  25  39  64  97 137 179 224 278 345 407
#     4  11  21  45  72  96 133 178 221 289 341 403
#     4  12  24  39  69  95 140 183 222 287 340 411
#
# _framework density 20.305949999999999
#
# number of rings (size 3 to 8) (size 9 to 14) (size 15 to 20)
#    0.000    1.250    5.000    0.375    5.250    1.000 
#    0.000    1.875    5.500    0.000    0.000    0.000 
#    0.000    0.000    0.000    0.000    0.000    0.000 
#
# Total GULP energy -178369.211395 kJ/mol
# GULP energy per Si atom -5574.037856 kJ/mol
# Density = 2.025973 g / cm^3
# Si number density = 20.305950 Si / 1000 Ang^3
#
#
#
# Elastic Constant Matrix: (Units=GPa)
#
#
# Indices 1 2 3 4 5 6 
#
# 1 83.5994 35.2071 18.2139 0.0000 0.0000 0.0000
# 2 35.2071 81.1620 12.2241 0.0000 0.0000 0.0000
# 3 18.2139 12.2241 83.9884 0.0000 0.0000 0.0000
# 4 0.0000 0.0000 0.0000 21.1141 0.0000 0.0000
# 5 0.0000 0.0000 0.0000 0.0000 14.0850 0.0000
# 6 0.0000 0.0000 0.0000 0.0000 0.0000 31.0482
#
#
#
# Elastic Compliance Matrix: (Units=1/GPa)
#
#
# Indices 1 2 3 4 5 6 
#
# 1 0.015083 -0.006186 -0.002371 0.000000 0.000000 0.000000
# 2 -0.006186 0.015134 -0.000861 0.000000 0.000000 0.000000
# 3 -0.002371 -0.000861 0.012546 0.000000 0.000000 0.000000
# 4 0.000000 0.000000 0.000000 0.047362 0.000000 0.000000
# 5 0.000000 0.000000 0.000000 0.000000 0.070998 0.000000
# 6 0.000000 0.000000 0.000000 0.000000 0.000000 0.032208
#
#
# Mechanical properties :
#
#
# Convention : Reuss Voigt Hill
#
# Bulk Modulus (GPa) = 41.79247 42.22666 42.00956
# Shear Modulus (GPa) = 22.71257 25.45644 24.08450
#
# Velocity S-wave (km/s) = 3.34805 3.54453 3.44769
# Velocity P-wave (km/s) = 5.96423 6.13122 6.04830
#
# Compressibility (1/GPa) = 0.02392776
#
# Stress axis : x y z
#
# Youngs Moduli (GPa) = 66.29779 66.07579 79.70752
#
# Poissons Ratio (x) = 0.40874 0.18896
# Poissons Ratio (y) = 0.41012 0.06865
# Poissons Ratio (z) = 0.15717 0.05691
#
# Static dielectric constant tensor:
#      x y z
#    x 1.705280 0.000000 0.000000 
#    y 0.000000 1.769100 0.000000 
#    z 0.000000 0.000000 1.752330 
# 
# From -- ./inp_files/3124.got.cif
#   From: 2010.05.17/outbox.cif.g08.bks.cpg/sg37_2_cif.got.tgz:3124.got - 2010.06.03 17:53:42.
