data_PCOD9354195
_publ_section_title
;
Structure prediction by ZEFSAII (Michael W. Deem and Ramdas Pophale) SiO2 
 PCOD9354195
Probable space group: C C C 2
;
_chemical_formula_sum "Si O2"
_cell_formula_units_Z 48
_cell_length_a 7.841523
_cell_length_b 12.953578
_cell_length_c 19.758229
_cell_angle_alpha 90.000000
_cell_angle_beta 90.000000
_cell_angle_gamma 90.000000
_cell_volume 2006.957519
_symmetry_space_group_name_H-M "C C C 2"
_symmetry_group_IT_number 37
_symmetry_cell_setting 'orthorhombic'
loop_
_space_group_symop_operation_xyz
x,y,z
-x,-y,z
-x,y,1/2+z
x,-y,1/2+z
1/2+x,1/2+y,z
1/2-x,1/2-y,z
1/2-x,1/2+y,1/2+z
1/2+x,1/2-y,1/2+z
loop_
_atom_site_type_symbol
_atom_site_label
_atom_site_fract_x
_atom_site_fract_y
_atom_site_fract_z
Si Si1 0.218235 0.586206 0.662230
Si Si2 0.750000 0.250000 0.046623
Si Si3 0.364152 0.914759 0.374377
Si Si4 0.105821 0.661110 0.517429
Si Si5 0.934007 0.182999 0.317944
Si Si6 0.250000 0.250000 0.268024
Si Si7 0.129415 0.117312 0.669659
O O1 0.130347 0.609775 0.590972
O O2 0.158853 0.669919 0.716781
O O3 0.426243 0.597048 0.656824
O O4 0.223172 0.468023 0.684338
O O5 0.583023 0.209060 0.008748
O O6 0.813767 0.163914 0.098980
O O7 0.363497 0.915296 0.455535
O O8 0.167603 0.911310 0.350788
O O9 0.409244 0.796816 0.350464
O O10 0.500000 0.000000 0.350122
O O11 0.250000 0.750000 0.513576
O O12 0.881656 0.179877 0.239140
O O13 0.136630 0.176296 0.314175
#
# Coordination Sequence:
#
# PCOD9354195 Si02
#       7
#     8   4   8   8   8   4   8
#     4  10  21  41  71 101 150 185 229 307 369 438
#     4  12  24  39  70 101 130 186 242 294 370 434
#     4  11  26  45  66  95 140 199 248 298 368 447
#     4  12  23  47  68  97 145 191 239 311 364 441
#     4  10  22  44  67  98 144 181 241 305 361 451
#     4  10  20  39  72 105 138 186 236 306 382 434
#     4  10  22  40  68 110 138 186 240 292 378 439
#
# _framework density 23.916798
#
# number of rings (size 3 to 8) (size 9 to 14) (size 15 to 20)
#    0.000    1.333    4.167    2.000    4.667    0.667 
#    0.000    0.000    0.000    0.000    0.000    0.000 
#    0.000    0.000    0.000    0.000    0.000    0.000 
#
# Total GULP energy -133800.973149 kJ/mol
# GULP energy per Si atom -5575.040548 kJ/mol
# Density = 2.386236 g / cm^3
# Si number density = 23.916798 Si / 1000 Ang^3
#
#
#
# Elastic Constant Matrix: (Units=GPa)
#
#
# Indices 1 2 3 4 5 6 
#
# 1 132.2576 33.3645 49.2159 0.0000 0.0000 0.0000
# 2 33.3645 72.5261 9.5218 0.0000 0.0000 0.0000
# 3 49.2159 9.5218 66.7379 0.0000 0.0000 0.0000
# 4 0.0000 0.0000 0.0000 -291.6097 0.0000 0.0000
# 5 0.0000 0.0000 0.0000 0.0000 17.3986 0.0000
# 6 0.0000 0.0000 0.0000 0.0000 0.0000 44.1995
#
#
#
# Elastic Compliance Matrix: (Units=1/GPa)
#
#
# Indices 1 2 3 4 5 6 
#
# 1 0.011599 -0.004293 -0.007941 0.000000 0.000000 0.000000
# 2 -0.004293 0.015641 0.000935 0.000000 0.000000 0.000000
# 3 -0.007941 0.000935 0.020707 0.000000 0.000000 0.000000
# 4 0.000000 0.000000 0.000000 -0.003429 0.000000 0.000000
# 5 0.000000 0.000000 0.000000 0.000000 0.057476 0.000000
# 6 0.000000 0.000000 0.000000 0.000000 0.000000 0.022625
#
#
# Mechanical properties :
#
#
# Convention : Reuss Voigt Hill
#
# Bulk Modulus (GPa) = 39.45294 50.63623 45.04458
# Shear Modulus (GPa) = 32.11985 -34.04104 -0.96060
#
# Velocity S-wave (km/s) = 3.66865 -3.77677 -0.63444
# Velocity P-wave (km/s) = 5.87171 1.48294 4.28230
#
# Compressibility (1/GPa) = 0.02534666
#
# Stress axis : x y z
#
# Youngs Moduli (GPa) = 86.21256 63.93628 48.29296
#
# Poissons Ratio (x) = 0.27451 0.38351
# Poissons Ratio (y) = 0.37015 -0.04514
# Poissons Ratio (z) = 0.68464 -0.05976
#
# Static dielectric constant tensor:
#      x y z
#    x 2.179910 0.000000 0.000000 
#    y 0.000000 2.297490 0.000000 
#    z 0.000000 0.000000 1.845120 
# 
# From -- ./inp_files/14534.got.cif
#   From: 2010.05.17/outbox.cif.g08.bks.cpg/sg37_8_cif.got.tgz:14534.got - 2010.06.03 17:53:42.
