data_PCOD9354958
_publ_section_title
;
Structure prediction by ZEFSAII (Michael W. Deem and Ramdas Pophale) SiO2 
 PCOD9354958
Probable space group: C C C 2
;
_chemical_formula_sum "Si O2"
_cell_formula_units_Z 36
_cell_length_a 13.472875
_cell_length_b 11.476985
_cell_length_c 8.527812
_cell_angle_alpha 90.000000
_cell_angle_beta 90.000000
_cell_angle_gamma 90.000000
_cell_volume 1318.638380
_symmetry_space_group_name_H-M "C C C 2"
_symmetry_group_IT_number 37
_symmetry_cell_setting 'orthorhombic'
loop_
_space_group_symop_operation_xyz
x,y,z
-x,-y,z
-x,y,1/2+z
x,-y,1/2+z
1/2+x,1/2+y,z
1/2-x,1/2-y,z
1/2-x,1/2+y,1/2+z
1/2+x,1/2-y,1/2+z
loop_
_atom_site_type_symbol
_atom_site_label
_atom_site_fract_x
_atom_site_fract_y
_atom_site_fract_z
Si Si1 0.000000 0.500000 0.397550
Si Si2 0.940826 0.730833 0.589241
Si Si3 0.193711 0.388758 0.818931
Si Si4 0.151731 0.766961 0.630491
Si Si5 0.891689 0.025776 0.157349
O O1 0.972141 0.618259 0.490169
O O2 0.896090 0.481232 0.309238
O O3 0.845182 0.698712 0.687673
O O4 0.915236 0.864476 0.541630
O O5 0.042054 0.741582 0.693265
O O6 0.174905 0.320372 0.983829
O O7 0.299519 0.439934 0.769547
O O8 0.250000 0.750000 0.735613
O O9 0.141222 0.902634 0.585099
O O10 0.000000 0.000000 0.232964
#
# Coordination Sequence:
#
# PCOD9354958 Si02
#       5
#     4   8   8   8   8
#     4  10  24  40  76 112 144 198 252 312 370 460
#     4  10  22  44  68 103 144 190 250 303 370 449
#     4  11  23  44  77 102 147 197 245 309 384 440
#     4  10  23  42  71 104 140 195 241 309 375 450
#     4  10  23  45  75 100 146 195 245 316 376 456
#
# _framework density 27.300885999999998
#
# number of rings (size 3 to 8) (size 9 to 14) (size 15 to 20)
#    0.000    1.778    0.000    2.667    9.333    0.000 
#    0.000   37.778    0.000    0.000    0.000    0.000 
#    0.000    0.000    0.000    0.000    0.000    0.000 
#
# Total GULP energy -100270.094733 kJ/mol
# GULP energy per Si atom -5570.560819 kJ/mol
# Density = 2.723875 g / cm^3
# Si number density = 27.300886 Si / 1000 Ang^3
#
#
#
# Elastic Constant Matrix: (Units=GPa)
#
#
# Indices 1 2 3 4 5 6 
#
# 1 299.1978 78.9909 42.9142 0.0000 0.0000 0.0000
# 2 78.9909 172.5046 39.5171 0.0000 0.0000 0.0000
# 3 42.9142 39.5171 56.1674 0.0000 0.0000 0.0000
# 4 0.0000 0.0000 0.0000 4.6506 0.0000 0.0000
# 5 0.0000 0.0000 0.0000 0.0000 22.3444 0.0000
# 6 0.0000 0.0000 0.0000 0.0000 0.0000 69.2592
#
#
#
# Elastic Compliance Matrix: (Units=1/GPa)
#
#
# Indices 1 2 3 4 5 6 
#
# 1 0.004001 -0.001349 -0.002108 0.000000 0.000000 0.000000
# 2 -0.001349 0.007366 -0.004151 0.000000 0.000000 0.000000
# 3 -0.002108 -0.004151 0.022335 0.000000 0.000000 0.000000
# 4 0.000000 0.000000 0.000000 0.215026 0.000000 0.000000
# 5 0.000000 0.000000 0.000000 0.000000 0.044754 0.000000
# 6 0.000000 0.000000 0.000000 0.000000 0.000000 0.014439
#
#
# Mechanical properties :
#
#
# Convention : Reuss Voigt Hill
#
# Bulk Modulus (GPa) = 54.09729 94.52381 74.31055
# Shear Modulus (GPa) = 15.18383 43.68068 29.43225
#
# Velocity S-wave (km/s) = 2.36088 4.00431 3.28696
# Velocity P-wave (km/s) = 5.22397 7.48849 6.45629
#
# Compressibility (1/GPa) = 0.01848521
#
# Stress axis : x y z
#
# Youngs Moduli (GPa) = 249.95319 135.76355 44.77292
#
# Poissons Ratio (x) = 0.18317 0.09436
# Poissons Ratio (y) = 0.33723 0.18587
# Poissons Ratio (z) = 0.52678 0.56361
#
# Static dielectric constant tensor:
#      x y z
#    x 1.995860 0.000000 0.000000 
#    y 0.000000 2.328190 0.000000 
#    z 0.000000 0.000000 2.201690 
# 
# From -- ./inp_files/6882.got.cif
#   From: 2010.05.17/outbox.cif.g08.bks.cpg/sg37_4_cif.got.tgz:6882.got - 2010.06.03 17:53:42.
