data_PCOD9354266
_publ_section_title
;
Structure prediction by ZEFSAII (Michael W. Deem and Ramdas Pophale) SiO2 
 PCOD9354266
Probable space group: C C C 2
;
_chemical_formula_sum "Si O2"
_cell_formula_units_Z 60
_cell_length_a 9.060912
_cell_length_b 11.906692
_cell_length_c 24.069077
_cell_angle_alpha 90.000000
_cell_angle_beta 90.000000
_cell_angle_gamma 90.000000
_cell_volume 2596.704128
_symmetry_space_group_name_H-M "C C C 2"
_symmetry_group_IT_number 37
_symmetry_cell_setting 'orthorhombic'
loop_
_space_group_symop_operation_xyz
x,y,z
-x,-y,z
-x,y,1/2+z
x,-y,1/2+z
1/2+x,1/2+y,z
1/2-x,1/2-y,z
1/2-x,1/2+y,1/2+z
1/2+x,1/2-y,1/2+z
loop_
_atom_site_type_symbol
_atom_site_label
_atom_site_fract_x
_atom_site_fract_y
_atom_site_fract_z
Si Si1 0.409670 0.197379 0.530400
Si Si2 0.500000 0.500000 0.973674
Si Si3 0.801329 0.877364 0.719431
Si Si4 0.340301 0.648995 0.555294
Si Si5 0.941456 0.810533 0.294814
Si Si6 0.859300 0.565453 0.288725
Si Si7 0.577440 0.727616 0.414723
Si Si8 0.660101 0.017368 0.120487
O O1 0.250000 0.250000 0.523278
O O2 0.505974 0.287446 0.565404
O O3 0.468796 0.192447 0.466631
O O4 0.388514 0.086026 0.565588
O O5 0.444225 0.603185 0.938200
O O6 0.625831 0.548464 0.013734
O O7 0.750000 0.750000 0.726681
O O8 0.778439 0.910844 0.655364
O O9 0.956105 0.876735 0.752005
O O10 0.696035 0.969290 0.747643
O O11 0.250000 0.750000 0.528176
O O12 0.243273 0.597780 0.604584
O O13 0.909510 0.688510 0.266888
O O14 0.800892 0.889235 0.311571
O O15 0.003358 0.770662 0.355162
O O16 0.000000 0.500000 0.317635
O O17 0.750000 0.750000 0.404399
O O18 0.500000 0.000000 0.149133
#
# Coordination Sequence:
#
# PCOD9354266 Si02
#       8
#     8   4   8   8   8   8   8   8
#     4  10  22  45  72 104 148 190 241 302 379 461
#     4  10  24  40  72 104 152 186 240 306 370 458
#     4  12  27  48  73 104 146 197 253 312 382 449
#     4  11  22  46  70 106 147 191 245 302 372 457
#     4  11  25  47  74 107 146 193 252 316 374 453
#     4  11  23  49  73 101 140 188 252 313 365 444
#     4  10  20  41  75 105 142 199 238 298 388 445
#     4  12  25  46  73 106 149 198 247 318 379 455
#
# _framework density 23.106214000000001
#
# number of rings (size 3 to 8) (size 9 to 14) (size 15 to 20)
#    0.000    1.067    4.000    3.600    1.867    0.000 
#   14.400    6.000    0.000    0.000    0.000    0.000 
#    0.000    0.000    0.000    0.000    0.000    0.000 
#
# Total GULP energy -167004.489077 kJ/mol
# GULP energy per Si atom -5566.816303 kJ/mol
# Density = 2.305362 g / cm^3
# Si number density = 23.106214 Si / 1000 Ang^3
#
#
#
# Elastic Constant Matrix: (Units=GPa)
#
#
# Indices 1 2 3 4 5 6 
#
# 1 115.8265 26.8394 48.5986 0.0000 0.0000 0.0000
# 2 26.8394 111.0794 45.2697 0.0000 0.0000 0.0000
# 3 48.5986 45.2697 88.5943 0.0000 0.0000 0.0000
# 4 0.0000 0.0000 0.0000 36.7931 0.0000 0.0000
# 5 0.0000 0.0000 0.0000 0.0000 7.9363 0.0000
# 6 0.0000 0.0000 0.0000 0.0000 0.0000 45.5577
#
#
#
# Elastic Compliance Matrix: (Units=1/GPa)
#
#
# Indices 1 2 3 4 5 6 
#
# 1 0.011221 -0.000256 -0.006024 0.000000 0.000000 0.000000
# 2 -0.000256 0.011376 -0.005673 0.000000 0.000000 0.000000
# 3 -0.006024 -0.005673 0.017491 0.000000 0.000000 0.000000
# 4 0.000000 0.000000 0.000000 0.027179 0.000000 0.000000
# 5 0.000000 0.000000 0.000000 0.000000 0.126003 0.000000
# 6 0.000000 0.000000 0.000000 0.000000 0.000000 0.021950
#
#
# Mechanical properties :
#
#
# Convention : Reuss Voigt Hill
#
# Bulk Modulus (GPa) = 61.79810 61.87954 61.83882
# Shear Modulus (GPa) = 20.44829 31.04359 25.74594
#
# Velocity S-wave (km/s) = 2.97807 3.66938 3.34165
# Velocity P-wave (km/s) = 6.21518 6.69261 6.45831
#
# Compressibility (1/GPa) = 0.01618173
#
# Stress axis : x y z
#
# Youngs Moduli (GPa) = 89.12180 87.90244 57.17358
#
# Poissons Ratio (x) = 0.02250 0.34443
# Poissons Ratio (y) = 0.02282 0.32432
# Poissons Ratio (z) = 0.53689 0.49863
#
# Static dielectric constant tensor:
#      x y z
#    x 2.088680 0.000000 0.000000 
#    y 0.000000 1.843870 0.000000 
#    z 0.000000 0.000000 1.950290 
# 
# From -- ./inp_files/19683.got.cif
#   From: 2010.05.17/outbox.cif.g08.bks.cpg/sg37_10_cif.got.tgz:19683.got - 2010.06.03 17:53:42.
