data_PCOD9354061
_publ_section_title
;
Structure prediction by ZEFSAII (Michael W. Deem and Ramdas Pophale) SiO2 
 PCOD9354061
Probable space group: C C C 2
;
_chemical_formula_sum "Si O2"
_cell_formula_units_Z 60
_cell_length_a 8.757818
_cell_length_b 26.393999
_cell_length_c 11.554602
_cell_angle_alpha 90.000000
_cell_angle_beta 90.000000
_cell_angle_gamma 90.000000
_cell_volume 2670.890617
_symmetry_space_group_name_H-M "C C C 2"
_symmetry_group_IT_number 37
_symmetry_cell_setting 'orthorhombic'
loop_
_space_group_symop_operation_xyz
x,y,z
-x,-y,z
-x,y,1/2+z
x,-y,1/2+z
1/2+x,1/2+y,z
1/2-x,1/2-y,z
1/2-x,1/2+y,1/2+z
1/2+x,1/2-y,1/2+z
loop_
_atom_site_type_symbol
_atom_site_label
_atom_site_fract_x
_atom_site_fract_y
_atom_site_fract_z
Si Si1 0.824074 0.928998 0.611700
Si Si2 0.415992 0.341433 0.771193
Si Si3 0.250000 0.250000 0.893562
Si Si4 0.102527 0.389352 0.444130
Si Si5 0.368374 0.827949 0.571211
Si Si6 0.867461 0.912877 0.989535
Si Si7 0.368162 0.042053 0.830591
Si Si8 0.756158 0.804403 0.302602
O O1 0.843441 0.872052 0.665200
O O2 0.709581 0.930799 0.503303
O O3 0.739020 0.958419 0.716594
O O4 0.997208 0.937214 0.565510
O O5 0.320456 0.294130 0.816646
O O6 0.428963 0.382986 0.875542
O O7 0.580748 0.317947 0.749667
O O8 0.359307 0.217700 0.978921
O O9 0.210599 0.349259 0.385093
O O10 0.014063 0.361799 0.547046
O O11 0.974001 0.408089 0.353439
O O12 0.229668 0.868705 0.553767
O O13 0.360980 0.803969 0.696603
O O14 0.748365 0.954056 0.939041
O O15 0.500000 0.000000 0.827740
O O16 0.750000 0.750000 0.361540
#
# Coordination Sequence:
#
# PCOD9354061 Si02
#       8
#     8   8   4   8   8   8   8   8
#     4  11  21  42  73  97 131 190 226 281 362 433
#     4  10  21  37  60  93 132 181 235 287 337 414
#     4  10  20  38  56  86 142 174 236 296 346 388
#     4  11  24  41  65  96 141 181 229 292 366 419
#     4  10  20  37  58  88 131 184 226 282 351 404
#     4   9  19  40  69  95 134 180 221 283 352 423
#     4  10  24  46  75 108 140 173 232 304 365 447
#     4  12  22  36  61  94 136 182 243 287 335 414
#
# _framework density 22.464416
#
# number of rings (size 3 to 8) (size 9 to 14) (size 15 to 20)
#    0.000    1.600    3.333    2.400    0.000    1.600 
#    3.600    0.667    2.933    0.000    0.000    3.733 
#    0.000    0.000    0.000    0.000    0.000    0.000 
#
# Total GULP energy -167393.011255 kJ/mol
# GULP energy per Si atom -5579.767042 kJ/mol
# Density = 2.241329 g / cm^3
# Si number density = 22.464416 Si / 1000 Ang^3
#
#
#
# Elastic Constant Matrix: (Units=GPa)
#
#
# Indices 1 2 3 4 5 6 
#
# 1 106.6739 37.6513 28.9062 0.0000 0.0000 0.0000
# 2 37.6513 92.1709 24.6247 0.0000 0.0000 0.0000
# 3 28.9062 24.6247 69.7028 0.0000 0.0000 0.0000
# 4 0.0000 0.0000 0.0000 5.7387 0.0000 0.0000
# 5 0.0000 0.0000 0.0000 0.0000 41.8196 0.0000
# 6 0.0000 0.0000 0.0000 0.0000 0.0000 17.7626
#
#
#
# Elastic Compliance Matrix: (Units=1/GPa)
#
#
# Indices 1 2 3 4 5 6 
#
# 1 0.011673 -0.003837 -0.003485 0.000000 0.000000 0.000000
# 2 -0.003837 0.013242 -0.003087 0.000000 0.000000 0.000000
# 3 -0.003485 -0.003087 0.016882 0.000000 0.000000 0.000000
# 4 0.000000 0.000000 0.000000 0.174255 0.000000 0.000000
# 5 0.000000 0.000000 0.000000 0.000000 0.023912 0.000000
# 6 0.000000 0.000000 0.000000 0.000000 0.000000 0.056298
#
#
# Mechanical properties :
#
#
# Convention : Reuss Voigt Hill
#
# Bulk Modulus (GPa) = 47.66733 50.10134 48.88434
# Shear Modulus (GPa) = 15.42856 24.88854 20.15855
#
# Velocity S-wave (km/s) = 2.62353 3.33214 2.99884
# Velocity P-wave (km/s) = 5.51746 6.09550 5.81367
#
# Compressibility (1/GPa) = 0.02097873
#
# Stress axis : x y z
#
# Youngs Moduli (GPa) = 85.66632 75.51973 59.23312
#
# Poissons Ratio (x) = 0.28979 0.20645
# Poissons Ratio (y) = 0.32873 0.18283
# Poissons Ratio (z) = 0.29857 0.23310
#
# Static dielectric constant tensor:
#      x y z
#    x 1.827770 0.000000 0.000000 
#    y 0.000000 1.832750 0.000000 
#    z 0.000000 0.000000 1.816180 
# 
# From -- ./inp_files/6550.got.cif
#   From: 2010.05.17/outbox.cif.g08.bks.cpg/sg37_4_cif.got.tgz:6550.got - 2010.06.03 17:53:42.
