data_PCOD9354359
_publ_section_title
;
Structure prediction by ZEFSAII (Michael W. Deem and Ramdas Pophale) SiO2 
 PCOD9354359
Probable space group: C C C 2
;
_chemical_formula_sum "Si O2"
_cell_formula_units_Z 56
_cell_length_a 15.740700
_cell_length_b 5.067195
_cell_length_c 34.840636
_cell_angle_alpha 90.000000
_cell_angle_beta 90.000000
_cell_angle_gamma 90.000000
_cell_volume 2778.930808
_symmetry_space_group_name_H-M "C C C 2"
_symmetry_group_IT_number 37
_symmetry_cell_setting 'orthorhombic'
loop_
_space_group_symop_operation_xyz
x,y,z
-x,-y,z
-x,y,1/2+z
x,-y,1/2+z
1/2+x,1/2+y,z
1/2-x,1/2-y,z
1/2-x,1/2+y,1/2+z
1/2+x,1/2-y,1/2+z
loop_
_atom_site_type_symbol
_atom_site_label
_atom_site_fract_x
_atom_site_fract_y
_atom_site_fract_z
Si Si1 0.397309 0.996322 0.948940
Si Si2 0.060653 0.755422 0.673990
Si Si3 0.436958 0.757036 0.588045
Si Si4 0.898105 0.998249 0.401579
Si Si5 0.688606 0.496705 0.321016
Si Si6 0.310960 0.505402 0.736817
Si Si7 0.805950 0.490230 0.526797
O O1 0.367395 0.772864 0.919772
O O2 0.500000 0.000000 0.950418
O O3 0.368605 0.269112 0.929732
O O4 0.365224 0.929813 0.991338
O O5 0.100142 0.724227 0.631516
O O6 0.125663 0.873806 0.705138
O O7 0.000000 0.500000 0.683709
O O8 0.000000 0.000000 0.667702
O O9 0.500000 0.500000 0.581657
O O10 0.361724 0.836212 0.558999
O O11 0.500000 0.000000 0.585005
O O12 0.871589 0.016203 0.357535
O O13 0.000000 0.000000 0.402905
O O14 0.750000 0.250000 0.323402
O O15 0.646127 0.467381 0.278668
O O16 0.750000 0.750000 0.323668
O O17 0.250000 0.750000 0.743512
O O18 0.250000 0.250000 0.727168
O O19 0.750000 0.250000 0.511035
O O20 0.750000 0.750000 0.538783
#
# Coordination Sequence:
#
# PCOD9354359 Si02
#       7
#     8   8   8   8   8   8   8
#     4  10  22  39  58  80 114 156 192 234 295 353
#     4  10  21  39  63  90 115 151 203 248 291 353
#     4  10  22  42  64  85 118 160 196 239 303 365
#     4  10  21  37  57  83 111 148 198 242 283 339
#     4  10  21  36  56  82 116 155 191 232 292 353
#     4  10  21  38  59  87 122 159 193 236 300 360
#     4  12  25  39  60  93 121 149 198 249 293 349
#
# _framework density 20.151636
#
# number of rings (size 3 to 8) (size 9 to 14) (size 15 to 20)
#    0.000    1.714    0.000    3.857    0.000    6.286 
#    0.000    3.571    0.000    0.000    0.000    0.000 
#    0.000    0.000    0.000    0.000    0.000    0.000 
#
# Total GULP energy -155882.453021 kJ/mol
# GULP energy per Si atom -5567.230465 kJ/mol
# Density = 2.010577 g / cm^3
# Si number density = 20.151636 Si / 1000 Ang^3
#
#
#
# Elastic Constant Matrix: (Units=GPa)
#
#
# Indices 1 2 3 4 5 6 
#
# 1 36.8942 23.0721 61.7389 0.0000 0.0000 0.0000
# 2 23.0721 140.4189 34.0555 0.0000 0.0000 0.0000
# 3 61.7389 34.0555 136.5159 0.0000 0.0000 0.0000
# 4 0.0000 0.0000 0.0000 31.3809 0.0000 0.0000
# 5 0.0000 0.0000 0.0000 0.0000 -5.3023 0.0000
# 6 0.0000 0.0000 0.0000 0.0000 0.0000 17.2597
#
#
#
# Elastic Compliance Matrix: (Units=1/GPa)
#
#
# Indices 1 2 3 4 5 6 
#
# 1 0.117275 -0.006819 -0.051336 0.000000 0.000000 0.000000
# 2 -0.006819 0.007977 0.001094 0.000000 0.000000 0.000000
# 3 -0.051336 0.001094 0.030269 0.000000 0.000000 0.000000
# 4 0.000000 0.000000 0.000000 0.031867 0.000000 0.000000
# 5 0.000000 0.000000 0.000000 0.000000 -0.188597 0.000000
# 6 0.000000 0.000000 0.000000 0.000000 0.000000 0.057939
#
#
# Mechanical properties :
#
#
# Convention : Reuss Voigt Hill
#
# Bulk Modulus (GPa) = 24.15560 61.28466 42.72013
# Shear Modulus (GPa) = 27.07816 21.66514 24.37165
#
# Velocity S-wave (km/s) = 3.66966 3.28244 3.48143
# Velocity P-wave (km/s) = 5.47431 6.69654 6.11603
#
# Compressibility (1/GPa) = 0.04139827
#
# Stress axis : x y z
#
# Youngs Moduli (GPa) = 8.52697 125.36606 33.03722
#
# Poissons Ratio (x) = 0.85486 1.69601
# Poissons Ratio (y) = 0.05814 -0.03614
# Poissons Ratio (z) = 0.43774 -0.13714
#
# Static dielectric constant tensor:
#      x y z
#    x 1.753580 0.000000 0.000000 
#    y 0.000000 1.642810 0.000000 
#    z 0.000000 0.000000 1.823710 
# 
# From -- ./inp_files/20145.got.cif
#   From: 2010.05.17/outbox.cif.g08.bks.cpg/sg37_11_cif.got.tgz:20145.got - 2010.06.03 17:53:42.
