data_PCOD9354876
_publ_section_title
;
Structure prediction by ZEFSAII (Michael W. Deem and Ramdas Pophale) SiO2 
 PCOD9354876
Probable space group: C C C 2
;
_chemical_formula_sum "Si O2"
_cell_formula_units_Z 48
_cell_length_a 18.149927
_cell_length_b 8.867836
_cell_length_c 14.874388
_cell_angle_alpha 90.000000
_cell_angle_beta 90.000000
_cell_angle_gamma 90.000000
_cell_volume 2394.041317
_symmetry_space_group_name_H-M "C C C 2"
_symmetry_group_IT_number 37
_symmetry_cell_setting 'orthorhombic'
loop_
_space_group_symop_operation_xyz
x,y,z
-x,-y,z
-x,y,1/2+z
x,-y,1/2+z
1/2+x,1/2+y,z
1/2-x,1/2-y,z
1/2-x,1/2+y,1/2+z
1/2+x,1/2-y,1/2+z
loop_
_atom_site_type_symbol
_atom_site_label
_atom_site_fract_x
_atom_site_fract_y
_atom_site_fract_z
Si Si1 0.076544 0.591827 0.446180
Si Si2 0.824779 0.685617 0.787147
Si Si3 0.398036 0.364877 0.627466
Si Si4 0.165746 0.295970 0.460217
Si Si5 0.822908 0.662500 0.253533
Si Si6 0.934739 0.791807 0.121065
O O1 0.108005 0.671599 0.357129
O O2 0.138585 0.468023 0.474932
O O3 0.066249 0.714147 0.523881
O O4 0.000000 0.500000 0.431909
O O5 0.750000 0.750000 0.830338
O O6 0.845906 0.787099 0.701305
O O7 0.692381 0.985634 0.759639
O O8 0.381032 0.304475 0.527880
O O9 0.481225 0.315832 0.649729
O O10 0.395876 0.545232 0.625012
O O11 0.250000 0.250000 0.479521
O O12 0.156706 0.275452 0.353011
O O13 0.750000 0.750000 0.222767
O O14 0.890962 0.686168 0.188547
#
# Coordination Sequence:
#
# PCOD9354876 Si02
#       6
#     8   8   8   8   8   8
#     4  11  24  44  70 100 131 181 230 278 340 410
#     4  11  25  42  68  98 134 176 225 282 339 404
#     4  11  24  41  64  97 138 173 223 277 340 397
#     4  10  22  42  67  95 130 173 220 274 337 397
#     4  10  23  41  67  96 132 174 224 275 341 403
#     4  11  25  40  64  98 132 178 223 276 336 406
#
# _framework density 20.049779999999998
#
# number of rings (size 3 to 8) (size 9 to 14) (size 15 to 20)
#    0.000    1.333    1.667    2.500    4.667    7.333 
#    0.000    3.333    0.000    0.000    0.000    0.000 
#    0.000    0.000    0.000    0.000    0.000    0.000 
#
# Total GULP energy -134057.516489 kJ/mol
# GULP energy per Si atom -5585.729854 kJ/mol
# Density = 2.000415 g / cm^3
# Si number density = 20.049780 Si / 1000 Ang^3
#
#
#
# Elastic Constant Matrix: (Units=GPa)
#
#
# Indices 1 2 3 4 5 6 
#
# 1 86.5097 45.4220 44.6399 0.0000 0.0000 0.0000
# 2 45.4220 68.2668 31.0734 0.0000 0.0000 0.0000
# 3 44.6399 31.0734 51.1938 0.0000 0.0000 0.0000
# 4 0.0000 0.0000 0.0000 25.6227 0.0000 0.0000
# 5 0.0000 0.0000 0.0000 0.0000 32.6495 0.0000
# 6 0.0000 0.0000 0.0000 0.0000 0.0000 36.1136
#
#
#
# Elastic Compliance Matrix: (Units=1/GPa)
#
#
# Indices 1 2 3 4 5 6 
#
# 1 0.024518 -0.009095 -0.015859 0.000000 0.000000 0.000000
# 2 -0.009095 0.023614 -0.006403 0.000000 0.000000 0.000000
# 3 -0.015859 -0.006403 0.037249 0.000000 0.000000 0.000000
# 4 0.000000 0.000000 0.000000 0.039028 0.000000 0.000000
# 5 0.000000 0.000000 0.000000 0.000000 0.030628 0.000000
# 6 0.000000 0.000000 0.000000 0.000000 0.000000 0.027690
#
#
# Mechanical properties :
#
#
# Convention : Reuss Voigt Hill
#
# Bulk Modulus (GPa) = 44.11533 49.80454 46.95993
# Shear Modulus (GPa) = 19.76319 24.53283 22.14801
#
# Velocity S-wave (km/s) = 3.14300 3.50179 3.32723
# Velocity P-wave (km/s) = 5.93481 6.42218 6.18330
#
# Compressibility (1/GPa) = 0.02266786
#
# Stress axis : x y z
#
# Youngs Moduli (GPa) = 40.78657 42.34767 26.84667
#
# Poissons Ratio (x) = 0.38514 0.42576
# Poissons Ratio (y) = 0.37094 0.17189
# Poissons Ratio (z) = 0.64683 0.27115
#
# Static dielectric constant tensor:
#      x y z
#    x 1.728270 0.000000 0.000000 
#    y 0.000000 1.700480 0.000000 
#    z 0.000000 0.000000 1.697420 
# 
# From -- ./inp_files/12554.got.cif
#   From: 2010.05.17/outbox.cif.g08.bks.cpg/sg37_7_cif.got.tgz:12554.got - 2010.06.03 17:53:42.
