data_PCOD9354966
_publ_section_title
;
Structure prediction by ZEFSAII (Michael W. Deem and Ramdas Pophale) SiO2 
 PCOD9354966
Probable space group: C C C 2
;
_chemical_formula_sum "Si O2"
_cell_formula_units_Z 56
_cell_length_a 11.812344
_cell_length_b 14.403202
_cell_length_c 14.444558
_cell_angle_alpha 90.000000
_cell_angle_beta 90.000000
_cell_angle_gamma 90.000000
_cell_volume 2457.533206
_symmetry_space_group_name_H-M "C C C 2"
_symmetry_group_IT_number 37
_symmetry_cell_setting 'orthorhombic'
loop_
_space_group_symop_operation_xyz
x,y,z
-x,-y,z
-x,y,1/2+z
x,-y,1/2+z
1/2+x,1/2+y,z
1/2-x,1/2-y,z
1/2-x,1/2+y,1/2+z
1/2+x,1/2-y,1/2+z
loop_
_atom_site_type_symbol
_atom_site_label
_atom_site_fract_x
_atom_site_fract_y
_atom_site_fract_z
Si Si1 0.125956 0.022174 0.164500
Si Si2 0.750000 0.750000 0.821697
Si Si3 0.253741 0.039109 0.833202
Si Si4 0.423100 0.749375 0.986928
Si Si5 0.498747 0.205389 0.296717
Si Si6 0.000000 0.500000 0.305473
Si Si7 0.745336 0.088399 0.014457
Si Si8 0.876493 0.766816 0.123523
O O1 0.150148 0.978018 0.264260
O O2 0.221187 0.981815 0.095840
O O3 0.126982 0.132343 0.169873
O O4 0.000000 0.000000 0.129310
O O5 0.751508 0.853151 0.865939
O O6 0.625804 0.759101 0.772832
O O7 0.368004 0.012892 0.773432
O O8 0.254255 0.970982 0.920341
O O9 0.366697 0.847478 0.016942
O O10 0.342285 0.666506 0.017937
O O11 0.542180 0.738742 0.036472
O O12 0.439579 0.736313 0.876954
O O13 0.497231 0.103921 0.345533
O O14 0.426665 0.200686 0.203456
O O15 0.750000 0.750000 0.093695
#
# Coordination Sequence:
#
# PCOD9354966 Si02
#       8
#     8   4   8   8   8   4   8   8
#     4  12  26  47  72 108 145 187 248 300 358 437
#     4  10  26  38  76 104 148 184 244 290 370 422
#     4  11  24  46  72 105 147 192 236 298 365 432
#     4  11  26  47  75 103 142 196 245 303 372 438
#     4  11  24  46  72 106 147 191 241 298 369 435
#     4  10  22  44  70 104 138 182 246 284 350 450
#     4  11  26  47  75  99 144 194 247 295 371 437
#     4  12  28  47  74 109 149 187 250 309 365 433
#
# _framework density 22.787078999999999
#
# number of rings (size 3 to 8) (size 9 to 14) (size 15 to 20)
#    0.000    0.857    2.857    2.571    9.000    1.714 
#    0.000    0.000    0.000    0.000    0.000    0.000 
#    0.000    0.000    0.000    0.000    0.000    0.000 
#
# Total GULP energy -156027.272042 kJ/mol
# GULP energy per Si atom -5572.402573 kJ/mol
# Density = 2.273521 g / cm^3
# Si number density = 22.787079 Si / 1000 Ang^3
#
#
#
# Elastic Constant Matrix: (Units=GPa)
#
#
# Indices 1 2 3 4 5 6 
#
# 1 139.8268 18.6515 17.1719 0.0000 0.0000 0.0000
# 2 18.6515 83.3782 3.4570 0.0000 0.0000 0.0000
# 3 17.1719 3.4570 65.4238 0.0000 0.0000 0.0000
# 4 0.0000 0.0000 0.0000 263.2987 0.0000 0.0000
# 5 0.0000 0.0000 0.0000 0.0000 253.7560 0.0000
# 6 0.0000 0.0000 0.0000 0.0000 0.0000 23.0037
#
#
#
# Elastic Compliance Matrix: (Units=1/GPa)
#
#
# Indices 1 2 3 4 5 6 
#
# 1 0.007603 -0.001621 -0.001910 0.000000 0.000000 0.000000
# 2 -0.001621 0.012366 -0.000228 0.000000 0.000000 0.000000
# 3 -0.001910 -0.000228 0.015798 0.000000 0.000000 0.000000
# 4 0.000000 0.000000 0.000000 0.003798 0.000000 0.000000
# 5 0.000000 0.000000 0.000000 0.000000 0.003941 0.000000
# 6 0.000000 0.000000 0.000000 0.000000 0.000000 0.043471
#
#
# Mechanical properties :
#
#
# Convention : Reuss Voigt Hill
#
# Bulk Modulus (GPa) = 35.40029 40.79886 38.09957
# Shear Modulus (GPa) = 48.11818 124.63489 86.37653
#
# Velocity S-wave (km/s) = 4.60025 7.40366 6.16346
# Velocity P-wave (km/s) = 6.61705 9.54090 8.21018
#
# Compressibility (1/GPa) = 0.02824835
#
# Stress axis : x y z
#
# Youngs Moduli (GPa) = 131.53511 80.86875 63.29810
#
# Poissons Ratio (x) = 0.13113 0.12088
# Poissons Ratio (y) = 0.21328 0.01442
# Poissons Ratio (z) = 0.25120 0.01842
#
# Static dielectric constant tensor:
#      x y z
#    x 1.579250 0.000000 0.000000 
#    y 0.000000 1.685010 0.000000 
#    z 0.000000 0.000000 1.792890 
# 
# From -- ./inp_files/11646.got.cif
#   From: 2010.05.17/outbox.cif.g08.bks.cpg/sg37_6_cif.got.tgz:11646.got - 2010.06.03 17:53:42.
