data_PCOD9354395
_publ_section_title
;
Structure prediction by ZEFSAII (Michael W. Deem and Ramdas Pophale) SiO2 
 PCOD9354395
Probable space group: C C C 2
;
_chemical_formula_sum "Si O2"
_cell_formula_units_Z 64
_cell_length_a 15.909491
_cell_length_b 18.482645
_cell_length_c 8.273180
_cell_angle_alpha 90.000000
_cell_angle_beta 90.000000
_cell_angle_gamma 90.000000
_cell_volume 2432.724230
_symmetry_space_group_name_H-M "C C C 2"
_symmetry_group_IT_number 37
_symmetry_cell_setting 'orthorhombic'
loop_
_space_group_symop_operation_xyz
x,y,z
-x,-y,z
-x,y,1/2+z
x,-y,1/2+z
1/2+x,1/2+y,z
1/2-x,1/2-y,z
1/2-x,1/2+y,1/2+z
1/2+x,1/2-y,1/2+z
loop_
_atom_site_type_symbol
_atom_site_label
_atom_site_fract_x
_atom_site_fract_y
_atom_site_fract_z
Si Si1 0.444851 0.882618 0.241140
Si Si2 0.362253 0.607422 0.223794
Si Si3 0.721212 0.607014 0.259703
Si Si4 0.117304 0.407248 0.406009
Si Si5 0.121094 0.238563 0.317947
Si Si6 0.508677 0.273350 0.099583
Si Si7 0.283906 0.832062 0.419343
Si Si8 0.096205 0.022398 0.051739
O O1 0.528900 0.918714 0.312979
O O2 0.471133 0.807802 0.154655
O O3 0.378694 0.855496 0.375196
O O4 0.400414 0.924197 0.093231
O O5 0.428910 0.668848 0.179721
O O6 0.272456 0.637441 0.272981
O O7 0.355899 0.553521 0.071989
O O8 0.393646 0.564841 0.384706
O O9 0.794887 0.560040 0.343502
O O10 0.691588 0.679965 0.352178
O O11 0.636374 0.567755 0.198883
O O12 0.762346 0.631825 0.089561
O O13 0.135488 0.321234 0.367524
O O14 0.036219 0.219809 0.415079
O O15 0.090322 0.222986 0.135116
O O16 0.250000 0.750000 0.430060
O O17 0.000000 0.000000 0.077507
#
# Coordination Sequence:
#
# PCOD9354395 Si02
#       8
#     8   8   8   8   8   8   8   8
#     4  10  21  38  61  95 134 172 213 282 354 432
#     4  11  25  40  62  89 125 176 228 281 334 415
#     4  11  24  39  62  91 130 182 231 288 337 411
#     4  10  21  37  60  92 131 174 219 277 358 415
#     4  10  22  35  58  89 130 171 224 281 346 415
#     4  10  22  36  59  88 128 173 221 273 349 414
#     4  11  22  38  63  94 133 168 224 284 362 417
#     4  11  26  44  62  89 130 184 233 280 333 397
#
# _framework density 26.307955
#
# number of rings (size 3 to 8) (size 9 to 14) (size 15 to 20)
#    0.000    1.500    1.250    3.000    8.750    2.000 
#    0.000    0.000    0.000    0.750    0.000    5.250 
#    0.000    0.000    0.000    0.000    0.000    0.000 
#
# Total GULP energy -179032.153091 kJ/mol
# GULP energy per Si atom -5594.754784 kJ/mol
# Density = 2.624808 g / cm^3
# Si number density = 26.307955 Si / 1000 Ang^3
#
#
#
# Elastic Constant Matrix: (Units=GPa)
#
#
# Indices 1 2 3 4 5 6 
#
# 1 144.2050 3.9090 32.0926 0.0000 0.0000 0.0000
# 2 3.9090 36.9440 -3.4071 0.0000 0.0000 0.0000
# 3 32.0926 -3.4071 81.2982 0.0000 0.0000 0.0000
# 4 0.0000 0.0000 0.0000 33.2779 0.0000 0.0000
# 5 0.0000 0.0000 0.0000 0.0000 43.8859 0.0000
# 6 0.0000 0.0000 0.0000 0.0000 0.0000 15.2946
#
#
#
# Elastic Compliance Matrix: (Units=1/GPa)
#
#
# Indices 1 2 3 4 5 6 
#
# 1 0.007646 -0.001092 -0.003064 0.000000 0.000000 0.000000
# 2 -0.001092 0.027329 0.001576 0.000000 0.000000 0.000000
# 3 -0.003064 0.001576 0.013576 0.000000 0.000000 0.000000
# 4 0.000000 0.000000 0.000000 0.030050 0.000000 0.000000
# 5 0.000000 0.000000 0.000000 0.000000 0.022786 0.000000
# 6 0.000000 0.000000 0.000000 0.000000 0.000000 0.065382
#
#
# Mechanical properties :
#
#
# Convention : Reuss Voigt Hill
#
# Bulk Modulus (GPa) = 23.04568 36.40402 29.72485
# Shear Modulus (GPa) = 26.82512 33.81521 30.32016
#
# Velocity S-wave (km/s) = 3.19667 3.58908 3.39855
# Velocity P-wave (km/s) = 4.73328 5.57163 5.16948
#
# Compressibility (1/GPa) = 0.04339209
#
# Stress axis : x y z
#
# Youngs Moduli (GPa) = 130.78639 36.59136 73.65952
#
# Poissons Ratio (x) = 0.03994 0.22570
# Poissons Ratio (y) = 0.14277 -0.11610
# Poissons Ratio (z) = 0.40073 -0.05768
#
# Static dielectric constant tensor:
#      x y z
#    x 2.093390 0.000000 0.000000 
#    y 0.000000 2.146280 0.000000 
#    z 0.000000 0.000000 2.088160 
# 
# From -- ./inp_files/3746.got.cif
#   From: 2010.05.17/outbox.cif.g08.bks.cpg/sg37_2_cif.got.tgz:3746.got - 2010.06.03 17:53:42.
