data_PCOD9354250
_publ_section_title
;
Structure prediction by ZEFSAII (Michael W. Deem and Ramdas Pophale) SiO2 
 PCOD9354250
Probable space group: C C C 2
;
_chemical_formula_sum "Si O2"
_cell_formula_units_Z 36
_cell_length_a 12.195451
_cell_length_b 9.167359
_cell_length_c 15.513793
_cell_angle_alpha 90.000000
_cell_angle_beta 90.000000
_cell_angle_gamma 90.000000
_cell_volume 1734.443259
_symmetry_space_group_name_H-M "C C C 2"
_symmetry_group_IT_number 37
_symmetry_cell_setting 'orthorhombic'
loop_
_space_group_symop_operation_xyz
x,y,z
-x,-y,z
-x,y,1/2+z
x,-y,1/2+z
1/2+x,1/2+y,z
1/2-x,1/2-y,z
1/2-x,1/2+y,1/2+z
1/2+x,1/2-y,1/2+z
loop_
_atom_site_type_symbol
_atom_site_label
_atom_site_fract_x
_atom_site_fract_y
_atom_site_fract_z
Si Si1 0.500000 0.000000 0.185560
Si Si2 0.490743 0.745555 0.820990
Si Si3 0.670460 0.475566 0.280942
Si Si4 0.680893 0.100909 0.913719
Si Si5 0.272473 0.077000 0.601324
O O1 0.479741 0.141332 0.243701
O O2 0.606261 0.037594 0.131090
O O3 0.409002 0.610036 0.804202
O O4 0.609721 0.670138 0.814833
O O5 0.443818 0.838290 0.902794
O O6 0.782972 0.502271 0.332993
O O7 0.693139 0.476847 0.178338
O O8 0.750000 0.250000 0.906903
O O9 0.725390 0.028378 0.001465
O O10 0.250000 0.250000 0.599023
#
# Coordination Sequence:
#
# PCOD9354250 Si02
#       5
#     4   8   8   8   8
#     4  12  22  36  64  88 120 160 204 252 308 372
#     4  10  21  38  65  91 121 163 207 252 312 374
#     4  10  20  41  65  89 121 166 207 251 315 376
#     4   9  20  39  62  88 129 163 202 262 313 369
#     4  11  22  39  61  93 125 163 206 260 315 369
#
# _framework density 20.755939999999999
#
# number of rings (size 3 to 8) (size 9 to 14) (size 15 to 20)
#    0.000    1.778    4.444    0.000    0.000    0.889 
#    4.000    2.222    4.889    0.000    0.000    0.000 
#    0.000    0.000    0.000    0.000    0.000    0.000 
#
# Total GULP energy -100234.578865 kJ/mol
# GULP energy per Si atom -5568.587715 kJ/mol
# Density = 2.070870 g / cm^3
# Si number density = 20.755940 Si / 1000 Ang^3
#
#
#
# Elastic Constant Matrix: (Units=GPa)
#
#
# Indices 1 2 3 4 5 6 
#
# 1 79.9976 26.9051 14.4649 0.0000 0.0000 0.0000
# 2 26.9051 83.4717 22.0262 0.0000 0.0000 0.0000
# 3 14.4649 22.0262 113.3214 0.0000 0.0000 0.0000
# 4 0.0000 0.0000 0.0000 35.9578 0.0000 0.0000
# 5 0.0000 0.0000 0.0000 0.0000 27.4704 0.0000
# 6 0.0000 0.0000 0.0000 0.0000 0.0000 32.4362
#
#
#
# Elastic Compliance Matrix: (Units=1/GPa)
#
#
# Indices 1 2 3 4 5 6 
#
# 1 0.014120 -0.004296 -0.000967 0.000000 0.000000 0.000000
# 2 -0.004296 0.013935 -0.002160 0.000000 0.000000 0.000000
# 3 -0.000967 -0.002160 0.009368 0.000000 0.000000 0.000000
# 4 0.000000 0.000000 0.000000 0.027810 0.000000 0.000000
# 5 0.000000 0.000000 0.000000 0.000000 0.036403 0.000000
# 6 0.000000 0.000000 0.000000 0.000000 0.000000 0.030830
#
#
# Mechanical properties :
#
#
# Convention : Reuss Voigt Hill
#
# Bulk Modulus (GPa) = 44.29531 44.84256 44.56893
# Shear Modulus (GPa) = 32.29184 33.39920 32.84552
#
# Velocity S-wave (km/s) = 3.94863 4.01576 3.98233
# Velocity P-wave (km/s) = 6.49432 6.56912 6.53183
#
# Compressibility (1/GPa) = 0.02257576
#
# Stress axis : x y z
#
# Youngs Moduli (GPa) = 70.82080 71.76255 106.74869
#
# Poissons Ratio (x) = 0.30829 0.10326
# Poissons Ratio (y) = 0.30425 0.23059
# Poissons Ratio (z) = 0.06851 0.15502
#
# Static dielectric constant tensor:
#      x y z
#    x 1.795860 0.000000 0.000000 
#    y 0.000000 1.718890 0.000000 
#    z 0.000000 0.000000 1.777350 
# 
# From -- ./inp_files/10271.got.cif
#   From: 2010.05.17/outbox.cif.g08.bks.cpg/sg37_6_cif.got.tgz:10271.got - 2010.06.03 17:53:42.
