data_PCOD9354207
_publ_section_title
;
Structure prediction by ZEFSAII (Michael W. Deem and Ramdas Pophale) SiO2 
 PCOD9354207
Probable space group: C C C 2
;
_chemical_formula_sum "Si O2"
_cell_formula_units_Z 64
_cell_length_a 8.461518
_cell_length_b 13.166175
_cell_length_c 27.898512
_cell_angle_alpha 90.000000
_cell_angle_beta 90.000000
_cell_angle_gamma 90.000000
_cell_volume 3108.056795
_symmetry_space_group_name_H-M "C C C 2"
_symmetry_group_IT_number 37
_symmetry_cell_setting 'orthorhombic'
loop_
_space_group_symop_operation_xyz
x,y,z
-x,-y,z
-x,y,1/2+z
x,-y,1/2+z
1/2+x,1/2+y,z
1/2-x,1/2-y,z
1/2-x,1/2+y,1/2+z
1/2+x,1/2-y,1/2+z
loop_
_atom_site_type_symbol
_atom_site_label
_atom_site_fract_x
_atom_site_fract_y
_atom_site_fract_z
Si Si1 0.943280 0.611945 0.958670
Si Si2 0.566882 0.783088 0.859397
Si Si3 0.458242 0.605226 0.293596
Si Si4 0.153808 0.946945 0.524914
Si Si5 0.568212 0.715923 0.208688
Si Si6 0.586322 0.102286 0.268390
Si Si7 0.569132 0.276882 0.602865
Si Si8 0.153034 0.354689 0.549981
O O1 0.956151 0.686193 0.913851
O O2 0.000000 0.500000 0.943054
O O3 0.773268 0.602076 0.985886
O O4 0.064868 0.644612 0.999459
O O5 0.750000 0.750000 0.855994
O O6 0.489738 0.688127 0.832689
O O7 0.528970 0.873509 0.822633
O O8 0.500000 0.500000 0.316716
O O9 0.555858 0.623184 0.245260
O O10 0.275798 0.604064 0.275727
O O11 0.080279 0.863786 0.561723
O O12 0.253061 0.038346 0.551447
O O13 0.000000 0.000000 0.501803
O O14 0.750000 0.750000 0.207611
O O15 0.465409 0.805479 0.233603
O O16 0.509255 0.690020 0.155194
O O17 0.500000 0.000000 0.251939
O O18 0.750000 0.250000 0.608880
O O19 0.481589 0.172015 0.588529
O O20 0.250000 0.250000 0.553402
#
# Coordination Sequence:
#
# PCOD9354207 Si02
#       8
#     8   8   8   8   8   8   8   8
#     4  10  22  40  64  92 125 167 209 263 314 381
#     4   9  20  36  63  91 122 164 208 252 322 371
#     4  10  21  41  64  92 128 165 208 260 318 380
#     4  11  23  41  64  92 126 172 213 266 323 381
#     4  10  22  40  62  94 121 165 213 255 323 377
#     4  10  20  40  63  89 128 163 204 266 314 376
#     4  11  23  42  64  90 130 171 215 270 320 384
#     4  11  23  40  62  90 128 167 215 262 320 375
#
# _framework density 20.591643999999999
#
# number of rings (size 3 to 8) (size 9 to 14) (size 15 to 20)
#    0.000    1.750    2.500    2.250    1.750    1.500 
#    6.750   11.250    0.000    4.500    0.000    0.000 
#    0.000    0.000    0.000    0.000    0.000    0.000 
#
# Total GULP energy -178221.934128 kJ/mol
# GULP energy per Si atom -5569.435441 kJ/mol
# Density = 2.054478 g / cm^3
# Si number density = 20.591644 Si / 1000 Ang^3
#
#
#
# Elastic Constant Matrix: (Units=GPa)
#
#
# Indices 1 2 3 4 5 6 
#
# 1 55.3273 2.0887 1.9951 0.0000 0.0000 0.0000
# 2 2.0887 64.5765 22.5031 0.0000 0.0000 0.0000
# 3 1.9951 22.5031 96.8896 0.0000 0.0000 0.0000
# 4 0.0000 0.0000 0.0000 -4.0238 0.0000 0.0000
# 5 0.0000 0.0000 0.0000 0.0000 4.3969 0.0000
# 6 0.0000 0.0000 0.0000 0.0000 0.0000 24.6903
#
#
#
# Elastic Compliance Matrix: (Units=1/GPa)
#
#
# Indices 1 2 3 4 5 6 
#
# 1 0.018102 -0.000496 -0.000258 0.000000 0.000000 0.000000
# 2 -0.000496 0.016863 -0.003906 0.000000 0.000000 0.000000
# 3 -0.000258 -0.003906 0.011234 0.000000 0.000000 0.000000
# 4 0.000000 0.000000 0.000000 -0.248524 0.000000 0.000000
# 5 0.000000 0.000000 0.000000 0.000000 0.227434 0.000000
# 6 0.000000 0.000000 0.000000 0.000000 0.000000 0.040502
#
#
# Mechanical properties :
#
#
# Convention : Reuss Voigt Hill
#
# Bulk Modulus (GPa) = 27.11541 29.99635 28.55588
# Shear Modulus (GPa) = 57.32452 17.69311 37.50882
#
# Velocity S-wave (km/s) = 5.28197 2.93446 4.27260
# Velocity P-wave (km/s) = 7.09899 5.10688 6.18368
#
# Compressibility (1/GPa) = 0.03687940
#
# Stress axis : x y z
#
# Youngs Moduli (GPa) = 55.24173 59.30224 89.01880
#
# Poissons Ratio (x) = 0.02940 0.02293
# Poissons Ratio (y) = 0.02739 0.34773
# Poissons Ratio (z) = 0.01423 0.23165
#
# Static dielectric constant tensor:
#      x y z
#    x 1.788940 0.000000 0.000000 
#    y 0.000000 1.790430 0.000000 
#    z 0.000000 0.000000 1.731640 
# 
# From -- ./inp_files/18447.got.cif
#   From: 2010.05.17/outbox.cif.g08.bks.cpg/sg37_10_cif.got.tgz:18447.got - 2010.06.03 17:53:42.
