data_PCOD9354233
_publ_section_title
;
Structure prediction by ZEFSAII (Michael W. Deem and Ramdas Pophale) SiO2 
 PCOD9354233
Probable space group: C C C 2
;
_chemical_formula_sum "Si O2"
_cell_formula_units_Z 36
_cell_length_a 10.268008
_cell_length_b 10.338322
_cell_length_c 15.198626
_cell_angle_alpha 90.000000
_cell_angle_beta 90.000000
_cell_angle_gamma 90.000000
_cell_volume 1613.394534
_symmetry_space_group_name_H-M "C C C 2"
_symmetry_group_IT_number 37
_symmetry_cell_setting 'orthorhombic'
loop_
_space_group_symop_operation_xyz
x,y,z
-x,-y,z
-x,y,1/2+z
x,-y,1/2+z
1/2+x,1/2+y,z
1/2-x,1/2-y,z
1/2-x,1/2+y,1/2+z
1/2+x,1/2-y,1/2+z
loop_
_atom_site_type_symbol
_atom_site_label
_atom_site_fract_x
_atom_site_fract_y
_atom_site_fract_z
Si Si1 0.430698 0.365154 0.567680
Si Si2 0.708807 0.941655 0.429578
Si Si3 0.250000 0.750000 0.775073
Si Si4 0.430063 0.198639 0.933205
Si Si5 0.979117 0.845750 0.752171
O O1 0.500000 0.500000 0.584303
O O2 0.309722 0.390041 0.502247
O O3 0.543746 0.285665 0.517960
O O4 0.392351 0.321137 0.665576
O O5 0.750423 0.877417 0.337503
O O6 0.565703 0.881304 0.438048
O O7 0.687027 0.095551 0.433335
O O8 0.114403 0.771513 0.726971
O O9 0.432836 0.280626 0.843007
O O10 0.000000 0.000000 0.767483
#
# Coordination Sequence:
#
# PCOD9354233 Si02
#       5
#     8   8   4   8   8
#     4  11  22  38  64  95 139 171 221 283 341 403
#     4  10  20  40  68  89 130 181 219 284 337 398
#     4  10  20  42  66  86 138 176 224 284 336 396
#     4  10  21  41  68  92 127 181 229 270 348 405
#     4  10  22  40  64  97 135 178 226 285 338 408
#
# _framework density 22.313203000000001
#
# number of rings (size 3 to 8) (size 9 to 14) (size 15 to 20)
#    0.000    1.778    4.444    0.667    0.000    4.444 
#    0.000   17.778    0.000    0.000    0.000    0.000 
#    0.000    0.000    0.000    0.000    0.000    0.000 
#
# Total GULP energy -100364.531084 kJ/mol
# GULP energy per Si atom -5575.807282 kJ/mol
# Density = 2.226242 g / cm^3
# Si number density = 22.313203 Si / 1000 Ang^3
#
#
#
# Elastic Constant Matrix: (Units=GPa)
#
#
# Indices 1 2 3 4 5 6 
#
# 1 96.9073 29.0145 31.4744 0.0000 0.0000 0.0000
# 2 29.0145 130.7920 72.3027 0.0000 0.0000 0.0000
# 3 31.4744 72.3027 134.7652 0.0000 0.0000 0.0000
# 4 0.0000 0.0000 0.0000 -18.5064 0.0000 0.0000
# 5 0.0000 0.0000 0.0000 0.0000 18.5495 0.0000
# 6 0.0000 0.0000 0.0000 0.0000 0.0000 38.9168
#
#
#
# Elastic Compliance Matrix: (Units=1/GPa)
#
#
# Indices 1 2 3 4 5 6 
#
# 1 0.011369 -0.001499 -0.001851 0.000000 0.000000 0.000000
# 2 -0.001499 0.011067 -0.005588 0.000000 0.000000 0.000000
# 3 -0.001851 -0.005588 0.010850 0.000000 0.000000 0.000000
# 4 0.000000 0.000000 0.000000 -0.054035 0.000000 0.000000
# 5 0.000000 0.000000 0.000000 0.000000 0.053910 0.000000
# 6 0.000000 0.000000 0.000000 0.000000 0.000000 0.025696
#
#
# Mechanical properties :
#
#
# Convention : Reuss Voigt Hill
#
# Bulk Modulus (GPa) = 64.88590 69.78307 67.33449
# Shear Modulus (GPa) = 61.07331 23.10351 42.08841
#
# Velocity S-wave (km/s) = 5.23740 3.22128 4.34782
# Velocity P-wave (km/s) = 8.10657 6.72144 7.44628
#
# Compressibility (1/GPa) = 0.01541167
#
# Stress axis : x y z
#
# Youngs Moduli (GPa) = 87.95767 90.35847 92.16240
#
# Poissons Ratio (x) = 0.13542 0.17061
# Poissons Ratio (y) = 0.13183 0.51496
# Poissons Ratio (z) = 0.16282 0.50488
#
# Static dielectric constant tensor:
#      x y z
#    x 1.829380 0.000000 0.000000 
#    y 0.000000 1.927230 0.000000 
#    z 0.000000 0.000000 1.828080 
# 
# From -- ./inp_files/11283.got.cif
#   From: 2010.05.17/outbox.cif.g08.bks.cpg/sg37_6_cif.got.tgz:11283.got - 2010.06.03 17:53:42.
