data_PCOD9354435
_publ_section_title
;
Structure prediction by ZEFSAII (Michael W. Deem and Ramdas Pophale) SiO2 
 PCOD9354435
Probable space group: C C C 2
;
_chemical_formula_sum "Si O2"
_cell_formula_units_Z 48
_cell_length_a 5.411405
_cell_length_b 27.539714
_cell_length_c 13.481743
_cell_angle_alpha 90.000000
_cell_angle_beta 90.000000
_cell_angle_gamma 90.000000
_cell_volume 2009.164557
_symmetry_space_group_name_H-M "C C C 2"
_symmetry_group_IT_number 37
_symmetry_cell_setting 'orthorhombic'
loop_
_space_group_symop_operation_xyz
x,y,z
-x,-y,z
-x,y,1/2+z
x,-y,1/2+z
1/2+x,1/2+y,z
1/2-x,1/2-y,z
1/2-x,1/2+y,1/2+z
1/2+x,1/2-y,1/2+z
loop_
_atom_site_type_symbol
_atom_site_label
_atom_site_fract_x
_atom_site_fract_y
_atom_site_fract_z
Si Si1 0.240918 0.971921 0.121760
Si Si2 0.148573 0.118803 0.753832
Si Si3 0.498681 0.720027 0.161681
Si Si4 0.929335 0.916776 0.446388
Si Si5 0.498361 0.757220 0.450287
Si Si6 0.420371 0.136523 0.950042
O O1 0.253430 0.918986 0.173893
O O2 0.500000 0.000000 0.132311
O O3 0.000000 0.000000 0.163187
O O4 0.169312 0.962857 0.006378
O O5 0.016627 0.165897 0.707007
O O6 0.982118 0.085879 0.828862
O O7 0.350703 0.138980 0.832690
O O8 0.250000 0.750000 0.186047
O O9 0.750000 0.750000 0.182615
O O10 0.485648 0.719663 0.040748
O O11 0.190424 0.895848 0.490393
O O12 0.691986 0.883576 0.459558
O O13 0.750000 0.750000 0.393165
O O14 0.454883 0.810335 0.493858
O O15 0.250000 0.750000 0.390467
#
# Coordination Sequence:
#
# PCOD9354435 Si02
#       6
#     8   8   8   8   8   8
#     4  12  29  51  81 117 144 197 263 326 404 473
#     4  10  28  48  76 108 160 199 256 318 388 454
#     4  10  24  39  68 106 145 197 245 298 359 446
#     4  10  25  48  75 105 147 197 249 314 395 453
#     4  10  21  38  64 101 142 192 247 296 350 434
#     4  10  23  44  70 103 146 204 244 304 382 450
#
# _framework density 23.890526999999999
#
# number of rings (size 3 to 8) (size 9 to 14) (size 15 to 20)
#    1.000    0.667    0.000    2.000   14.000    1.333 
#    0.000    0.000    0.000    0.000    0.000    0.000 
#    0.000    0.000    0.000    0.000    0.000    0.000 
#
# Total GULP energy -133681.981635 kJ/mol
# GULP energy per Si atom -5570.082568 kJ/mol
# Density = 2.383615 g / cm^3
# Si number density = 23.890527 Si / 1000 Ang^3
#
#
#
# Elastic Constant Matrix: (Units=GPa)
#
#
# Indices 1 2 3 4 5 6 
#
# 1 172.1811 32.7727 60.4756 0.0000 0.0000 0.0000
# 2 32.7727 96.0731 51.5971 0.0000 0.0000 0.0000
# 3 60.4756 51.5971 82.2165 0.0000 0.0000 0.0000
# 4 0.0000 0.0000 0.0000 11.5294 0.0000 0.0000
# 5 0.0000 0.0000 0.0000 0.0000 -27.3509 0.0000
# 6 0.0000 0.0000 0.0000 0.0000 0.0000 49.6481
#
#
#
# Elastic Compliance Matrix: (Units=1/GPa)
#
#
# Indices 1 2 3 4 5 6 
#
# 1 0.007857 0.000639 -0.006180 0.000000 0.000000 0.000000
# 2 0.000639 0.015753 -0.010356 0.000000 0.000000 0.000000
# 3 -0.006180 -0.010356 0.023208 0.000000 0.000000 0.000000
# 4 0.000000 0.000000 0.000000 0.086735 0.000000 0.000000
# 5 0.000000 0.000000 0.000000 0.000000 -0.036562 0.000000
# 6 0.000000 0.000000 0.000000 0.000000 0.000000 0.020142
#
#
# Mechanical properties :
#
#
# Convention : Reuss Voigt Hill
#
# Bulk Modulus (GPa) = 66.56394 71.12906 68.84650
# Shear Modulus (GPa) = 32.48135 20.47367 26.47751
#
# Velocity S-wave (km/s) = 3.69126 2.93060 3.33270
# Velocity P-wave (km/s) = 6.78895 6.42563 6.60979
#
# Compressibility (1/GPa) = 0.01502315
#
# Stress axis : x y z
#
# Youngs Moduli (GPa) = 127.27593 63.48188 43.08820
#
# Poissons Ratio (x) = -0.04057 0.26630
# Poissons Ratio (y) = -0.08133 0.44622
# Poissons Ratio (z) = 0.78661 0.65742
#
# Static dielectric constant tensor:
#      x y z
#    x 2.025070 0.000000 0.000000 
#    y 0.000000 2.121120 0.000000 
#    z 0.000000 0.000000 2.015290 
# 
# From -- ./inp_files/9745.got.cif
#   From: 2010.05.17/outbox.cif.g08.bks.cpg/sg37_5_cif.got.tgz:9745.got - 2010.06.03 17:53:42.
