data_PCOD9354945
_publ_section_title
;
Structure prediction by ZEFSAII (Michael W. Deem and Ramdas Pophale) SiO2 
 PCOD9354945
Probable space group: C C C 2
;
_chemical_formula_sum "Si O2"
_cell_formula_units_Z 32
_cell_length_a 16.867170
_cell_length_b 7.641752
_cell_length_c 9.381938
_cell_angle_alpha 90.000000
_cell_angle_beta 90.000000
_cell_angle_gamma 90.000000
_cell_volume 1209.282366
_symmetry_space_group_name_H-M "C C C 2"
_symmetry_group_IT_number 37
_symmetry_cell_setting 'orthorhombic'
loop_
_space_group_symop_operation_xyz
x,y,z
-x,-y,z
-x,y,1/2+z
x,-y,1/2+z
1/2+x,1/2+y,z
1/2-x,1/2-y,z
1/2-x,1/2+y,1/2+z
1/2+x,1/2-y,1/2+z
loop_
_atom_site_type_symbol
_atom_site_label
_atom_site_fract_x
_atom_site_fract_y
_atom_site_fract_z
Si Si1 0.452759 0.817316 0.458590
Si Si2 0.313046 0.958942 0.865986
Si Si3 0.579782 0.662702 0.268931
Si Si4 0.784984 0.056040 0.129691
O O1 0.498794 0.675517 0.362583
O O2 0.443973 0.760361 0.621805
O O3 0.500000 0.000000 0.455270
O O4 0.368842 0.875330 0.392958
O O5 0.134976 0.717720 0.874505
O O6 0.281303 0.942344 0.708079
O O7 0.236319 0.978042 0.965778
O O8 0.631844 0.503101 0.199045
O O9 0.750000 0.250000 0.156945
#
# Coordination Sequence:
#
# PCOD9354945 Si02
#       4
#     8   8   8   8
#     4  10  22  43  80 115 160 209 264 334 418 482
#     4  11  24  46  79 111 156 215 271 331 412 489
#     4  11  24  47  79 118 158 213 266 340 410 496
#     4  12  27  45  76 115 161 212 277 338 402 485
#
# _framework density 26.461974999999999
#
# number of rings (size 3 to 8) (size 9 to 14) (size 15 to 20)
#    0.000    1.000    2.500    4.500    7.000    0.000 
#    0.000    1.250   11.000    0.000    0.000    0.000 
#    0.000    0.000    0.000    0.000    0.000    0.000 
#
# Total GULP energy -89246.182397 kJ/mol
# GULP energy per Si atom -5577.886400 kJ/mol
# Density = 2.640175 g / cm^3
# Si number density = 26.461975 Si / 1000 Ang^3
#
#
#
# Elastic Constant Matrix: (Units=GPa)
#
#
# Indices 1 2 3 4 5 6 
#
# 1 114.9249 69.8149 49.1462 0.0000 0.0000 0.0000
# 2 69.8149 148.6544 27.7320 0.0000 0.0000 0.0000
# 3 49.1462 27.7320 132.5857 0.0000 0.0000 0.0000
# 4 0.0000 0.0000 0.0000 -18.9642 0.0000 0.0000
# 5 0.0000 0.0000 0.0000 0.0000 44.9136 0.0000
# 6 0.0000 0.0000 0.0000 0.0000 0.0000 40.8864
#
#
#
# Elastic Compliance Matrix: (Units=1/GPa)
#
#
# Indices 1 2 3 4 5 6 
#
# 1 0.013909 -0.005797 -0.003943 0.000000 0.000000 0.000000
# 2 -0.005797 0.009416 0.000179 0.000000 0.000000 0.000000
# 3 -0.003943 0.000179 0.008966 0.000000 0.000000 0.000000
# 4 0.000000 0.000000 0.000000 -0.052731 0.000000 0.000000
# 5 0.000000 0.000000 0.000000 0.000000 0.022265 0.000000
# 6 0.000000 0.000000 0.000000 0.000000 0.000000 0.024458
#
#
# Mechanical properties :
#
#
# Convention : Reuss Voigt Hill
#
# Bulk Modulus (GPa) = 75.93025 76.61680 76.27353
# Shear Modulus (GPa) = 100.41168 29.99862 65.20515
#
# Velocity S-wave (km/s) = 6.16669 3.37062 4.96936
# Velocity P-wave (km/s) = 8.91406 6.64564 7.86209
#
# Compressibility (1/GPa) = 0.01316998
#
# Stress axis : x y z
#
# Youngs Moduli (GPa) = 71.89594 106.20269 111.52655
#
# Poissons Ratio (x) = 0.61562 0.43978
# Poissons Ratio (y) = 0.41676 -0.01999
# Poissons Ratio (z) = 0.28350 -0.01903
#
# Static dielectric constant tensor:
#      x y z
#    x 2.105980 0.000000 0.000000 
#    y 0.000000 2.211810 0.000000 
#    z 0.000000 0.000000 1.982900 
# 
# From -- ./inp_files/3237.got.cif
#   From: 2010.05.17/outbox.cif.g08.bks.cpg/sg37_2_cif.got.tgz:3237.got - 2010.06.03 17:53:42.
