data_PCOD9354428
_publ_section_title
;
Structure prediction by ZEFSAII (Michael W. Deem and Ramdas Pophale) SiO2 
 PCOD9354428
Probable space group: C C C 2
;
_chemical_formula_sum "Si O2"
_cell_formula_units_Z 56
_cell_length_a 12.558909
_cell_length_b 15.013433
_cell_length_c 14.159447
_cell_angle_alpha 90.000000
_cell_angle_beta 90.000000
_cell_angle_gamma 90.000000
_cell_volume 2669.796848
_symmetry_space_group_name_H-M "C C C 2"
_symmetry_group_IT_number 37
_symmetry_cell_setting 'orthorhombic'
loop_
_space_group_symop_operation_xyz
x,y,z
-x,-y,z
-x,y,1/2+z
x,-y,1/2+z
1/2+x,1/2+y,z
1/2-x,1/2-y,z
1/2-x,1/2+y,1/2+z
1/2+x,1/2-y,1/2+z
loop_
_atom_site_type_symbol
_atom_site_label
_atom_site_fract_x
_atom_site_fract_y
_atom_site_fract_z
Si Si1 0.720251 0.145810 0.981060
Si Si2 0.842555 0.292059 0.334743
Si Si3 0.504565 0.705870 0.226761
Si Si4 0.565799 0.091302 0.682626
Si Si5 0.695211 0.394004 0.181486
Si Si6 0.478719 0.097307 0.967170
Si Si7 0.296401 0.582514 0.778328
O O1 0.750000 0.250000 0.987023
O O2 0.592734 0.144222 0.970743
O O3 0.776314 0.100188 0.889979
O O4 0.750345 0.096559 0.079086
O O5 0.750000 0.250000 0.396761
O O6 0.929698 0.214995 0.318674
O O7 0.778638 0.335610 0.245381
O O8 0.900135 0.365383 0.391760
O O9 0.516340 0.810971 0.203930
O O10 0.417921 0.655416 0.161858
O O11 0.613721 0.653106 0.242748
O O12 0.572846 0.091029 0.569790
O O13 0.680168 0.094041 0.731664
O O14 0.500000 0.000000 0.706634
O O15 0.672525 0.483834 0.240902
O O16 0.500000 0.000000 0.932726
#
# Coordination Sequence:
#
# PCOD9354428 Si02
#       7
#     8   8   8   8   8   8   8
#     4  12  24  42  70  98 130 178 230 271 327 409
#     4  10  21  38  62  90 127 170 216 266 325 394
#     4  11  23  42  64  92 131 174 217 274 337 399
#     4  11  23  41  65  94 131 172 220 277 338 399
#     4  11  24  45  67  93 133 180 221 265 332 414
#     4  11  22  38  62  95 127 165 215 269 326 387
#     4  12  25  42  66 100 133 167 220 284 334 384
#
# _framework density 20.975377000000002
#
# number of rings (size 3 to 8) (size 9 to 14) (size 15 to 20)
#    0.000    0.857    0.000    9.857    0.000    2.286 
#    0.000    6.429    0.000    0.000    0.000    0.000 
#    0.000    0.000    0.000    0.000    0.000    0.000 
#
# Total GULP energy -156139.469239 kJ/mol
# GULP energy per Si atom -5576.409616 kJ/mol
# Density = 2.092764 g / cm^3
# Si number density = 20.975377 Si / 1000 Ang^3
#
#
#
# Elastic Constant Matrix: (Units=GPa)
#
#
# Indices 1 2 3 4 5 6 
#
# 1 134.7191 52.7316 50.4074 0.0000 0.0000 0.0000
# 2 52.7316 133.4119 39.2938 0.0000 0.0000 0.0000
# 3 50.4074 39.2938 112.5724 0.0000 0.0000 0.0000
# 4 0.0000 0.0000 0.0000 28.8874 0.0000 0.0000
# 5 0.0000 0.0000 0.0000 0.0000 3.2503 0.0000
# 6 0.0000 0.0000 0.0000 0.0000 0.0000 24.0308
#
#
#
# Elastic Compliance Matrix: (Units=1/GPa)
#
#
# Indices 1 2 3 4 5 6 
#
# 1 0.009820 -0.002883 -0.003391 0.000000 0.000000 0.000000
# 2 -0.002883 0.009201 -0.001921 0.000000 0.000000 0.000000
# 3 -0.003391 -0.001921 0.011072 0.000000 0.000000 0.000000
# 4 0.000000 0.000000 0.000000 0.034617 0.000000 0.000000
# 5 0.000000 0.000000 0.000000 0.000000 0.307668 0.000000
# 6 0.000000 0.000000 0.000000 0.000000 0.000000 0.041613
#
#
# Mechanical properties :
#
#
# Convention : Reuss Voigt Hill
#
# Bulk Modulus (GPa) = 72.97168 73.95212 73.46190
# Shear Modulus (GPa) = 11.49563 27.11840 19.30701
#
# Velocity S-wave (km/s) = 2.34359 3.59955 3.03720
# Velocity P-wave (km/s) = 6.49523 7.25320 6.88465
#
# Compressibility (1/GPa) = 0.01370395
#
# Stress axis : x y z
#
# Youngs Moduli (GPa) = 101.83344 108.68771 90.31783
#
# Poissons Ratio (x) = 0.31331 0.30626
# Poissons Ratio (y) = 0.29355 0.17348
# Poissons Ratio (z) = 0.34531 0.20876
#
# Static dielectric constant tensor:
#      x y z
#    x 1.834550 0.000000 0.000000 
#    y 0.000000 1.807210 0.000000 
#    z 0.000000 0.000000 1.794220 
# 
# From -- ./inp_files/11608.got.cif
#   From: 2010.05.17/outbox.cif.g08.bks.cpg/sg37_6_cif.got.tgz:11608.got - 2010.06.03 17:53:42.
