data_PCOD9354705
_publ_section_title
;
Structure prediction by ZEFSAII (Michael W. Deem and Ramdas Pophale) SiO2 
 PCOD9354705
Probable space group: C C C 2
;
_chemical_formula_sum "Si O2"
_cell_formula_units_Z 64
_cell_length_a 14.507384
_cell_length_b 9.283255
_cell_length_c 24.139994
_cell_angle_alpha 90.000000
_cell_angle_beta 90.000000
_cell_angle_gamma 90.000000
_cell_volume 3251.071678
_symmetry_space_group_name_H-M "C C C 2"
_symmetry_group_IT_number 37
_symmetry_cell_setting 'orthorhombic'
loop_
_space_group_symop_operation_xyz
x,y,z
-x,-y,z
-x,y,1/2+z
x,-y,1/2+z
1/2+x,1/2+y,z
1/2-x,1/2-y,z
1/2-x,1/2+y,1/2+z
1/2+x,1/2-y,1/2+z
loop_
_atom_site_type_symbol
_atom_site_label
_atom_site_fract_x
_atom_site_fract_y
_atom_site_fract_z
Si Si1 0.094048 0.403080 0.901310
Si Si2 0.254093 0.908475 0.203391
Si Si3 0.045693 0.870018 0.202232
Si Si4 0.408351 0.907077 0.275213
Si Si5 0.096131 0.813647 0.599488
Si Si6 0.206355 0.478194 0.092509
Si Si7 0.512529 0.666293 0.977477
Si Si8 0.670978 0.862049 0.476727
O O1 0.117865 0.368484 0.838018
O O2 0.078674 0.259288 0.937352
O O3 0.163640 0.510175 0.932220
O O4 0.000000 0.500000 0.901483
O O5 0.250000 0.750000 0.228886
O O6 0.147461 0.935774 0.191965
O O7 0.322805 0.988742 0.244981
O O8 0.301913 0.911986 0.143660
O O9 0.060825 0.726942 0.237125
O O10 0.979562 0.842605 0.148381
O O11 0.000000 0.000000 0.236125
O O12 0.500000 0.000000 0.278324
O O13 0.132688 0.649215 0.601743
O O14 0.191585 0.906491 0.596808
O O15 0.049398 0.837898 0.540162
O O16 0.189742 0.560593 0.035488
O O17 0.500000 0.500000 0.959346
O O18 0.420418 0.763612 0.979044
O O19 0.750000 0.750000 0.463183
#
# Coordination Sequence:
#
# PCOD9354705 Si02
#       8
#     8   8   8   8   8   8   8   8
#     4   9  21  45  65  92 130 172 221 276 323 404
#     4  10  22  38  58  91 125 166 214 259 319 398
#     4  11  22  40  61  92 131 168 213 276 329 387
#     4  10  22  43  68  89 126 173 223 270 327 387
#     4  11  23  37  59  92 131 172 210 274 328 391
#     4  11  22  38  59  92 130 168 218 264 330 401
#     4  11  23  40  64  95 131 170 218 267 339 396
#     4  11  23  40  65  96 128 174 219 277 331 402
#
# _framework density 19.685815999999999
#
# number of rings (size 3 to 8) (size 9 to 14) (size 15 to 20)
#    0.000    1.500    2.500    2.250    5.250    0.500 
#    0.000   11.250    0.000    0.000    0.000    0.000 
#    0.000    0.000    0.000    0.000    0.000    0.000 
#
# Total GULP energy -178216.910681 kJ/mol
# GULP energy per Si atom -5569.278459 kJ/mol
# Density = 1.964101 g / cm^3
# Si number density = 19.685816 Si / 1000 Ang^3
#
#
#
# Elastic Constant Matrix: (Units=GPa)
#
#
# Indices 1 2 3 4 5 6 
#
# 1 103.6303 44.7858 51.7356 0.0000 0.0000 0.0000
# 2 44.7858 104.3236 52.2516 0.0000 0.0000 0.0000
# 3 51.7356 52.2516 147.3548 0.0000 0.0000 0.0000
# 4 0.0000 0.0000 0.0000 5.6018 0.0000 0.0000
# 5 0.0000 0.0000 0.0000 0.0000 -0.7083 0.0000
# 6 0.0000 0.0000 0.0000 0.0000 0.0000 21.0033
#
#
#
# Elastic Compliance Matrix: (Units=1/GPa)
#
#
# Indices 1 2 3 4 5 6 
#
# 1 0.012934 -0.003986 -0.003128 0.000000 0.000000 0.000000
# 2 -0.003986 0.012884 -0.003169 0.000000 0.000000 0.000000
# 3 -0.003128 -0.003169 0.009008 0.000000 0.000000 0.000000
# 4 0.000000 0.000000 0.000000 0.178514 0.000000 0.000000
# 5 0.000000 0.000000 0.000000 0.000000 -1.411930 0.000000
# 6 0.000000 0.000000 0.000000 0.000000 0.000000 0.047612
#
#
# Mechanical properties :
#
#
# Convention : Reuss Voigt Hill
#
# Bulk Modulus (GPa) = 70.12358 72.53944 71.33151
# Shear Modulus (GPa) = -4.44184 18.94840 7.25328
#
# Velocity S-wave (km/s) = -1.50375 3.10585 1.92159
# Velocity P-wave (km/s) = 5.71696 7.05623 6.42160
#
# Compressibility (1/GPa) = 0.01426054
#
# Stress axis : x y z
#
# Youngs Moduli (GPa) = 77.31771 77.61548 111.00986
#
# Poissons Ratio (x) = 0.30937 0.34719
# Poissons Ratio (y) = 0.30818 0.35181
# Poissons Ratio (z) = 0.24182 0.24598
#
# Static dielectric constant tensor:
#      x y z
#    x 1.813050 0.000000 0.000000 
#    y 0.000000 1.716220 0.000000 
#    z 0.000000 0.000000 1.666030 
# 
# From -- ./inp_files/18911.got.cif
#   From: 2010.05.17/outbox.cif.g08.bks.cpg/sg37_10_cif.got.tgz:18911.got - 2010.06.03 17:53:42.
