data_PCOD9354963
_publ_section_title
;
Structure prediction by ZEFSAII (Michael W. Deem and Ramdas Pophale) SiO2 
 PCOD9354963
Probable space group: C C C 2
;
_chemical_formula_sum "Si O2"
_cell_formula_units_Z 44
_cell_length_a 23.766676
_cell_length_b 6.159904
_cell_length_c 13.961619
_cell_angle_alpha 90.000000
_cell_angle_beta 90.000000
_cell_angle_gamma 90.000000
_cell_volume 2043.987200
_symmetry_space_group_name_H-M "C C C 2"
_symmetry_group_IT_number 37
_symmetry_cell_setting 'orthorhombic'
loop_
_space_group_symop_operation_xyz
x,y,z
-x,-y,z
-x,y,1/2+z
x,-y,1/2+z
1/2+x,1/2+y,z
1/2-x,1/2-y,z
1/2-x,1/2+y,1/2+z
1/2+x,1/2-y,1/2+z
loop_
_atom_site_type_symbol
_atom_site_label
_atom_site_fract_x
_atom_site_fract_y
_atom_site_fract_z
Si Si1 0.609038 0.868381 0.772070
Si Si2 0.368184 0.911267 0.575799
Si Si3 0.058349 0.116438 0.933893
Si Si4 0.212693 0.064525 0.799558
Si Si5 0.250000 0.250000 0.142321
Si Si6 0.350857 0.239457 0.416554
O O1 0.558974 0.757049 0.834429
O O2 0.655300 0.676887 0.763569
O O3 0.602832 0.990752 0.671211
O O4 0.634966 0.052697 0.840524
O O5 0.413214 0.773047 0.513757
O O6 0.311126 0.772054 0.593172
O O7 0.346219 0.117338 0.515968
O O8 0.099508 0.913255 0.921418
O O9 0.000000 0.000000 0.958204
O O10 0.250000 0.250000 0.846122
O O11 0.245083 0.959953 0.710819
O O12 0.199483 0.881733 0.876323
#
# Coordination Sequence:
#
# PCOD9354963 Si02
#       6
#     8   8   8   8   4   8
#     4  10  22  44  69  96 138 190 238 291 359 436
#     4  11  24  44  69 107 140 192 246 296 366 447
#     4  10  25  48  74 101 145 186 244 317 363 430
#     4  11  20  40  66  94 140 194 226 291 355 428
#     4  12  24  42  68 100 148 188 240 298 356 448
#     4  10  23  45  64 100 141 182 244 290 359 430
#
# _framework density 21.526554999999998
#
# number of rings (size 3 to 8) (size 9 to 14) (size 15 to 20)
#    0.000    1.455    3.636    0.000    2.545    2.909 
#   27.818    5.455    0.000    0.000    0.000    0.000 
#    0.000    0.000    0.000    0.000    0.000    0.000 
#
# Total GULP energy -122822.808771 kJ/mol
# GULP energy per Si atom -5582.854944 kJ/mol
# Density = 2.147756 g / cm^3
# Si number density = 21.526555 Si / 1000 Ang^3
#
#
#
# Elastic Constant Matrix: (Units=GPa)
#
#
# Indices 1 2 3 4 5 6 
#
# 1 106.4905 39.9329 38.4353 0.0000 0.0000 0.0000
# 2 39.9329 106.5247 38.3664 0.0000 0.0000 0.0000
# 3 38.4353 38.3664 114.8730 0.0000 0.0000 0.0000
# 4 0.0000 0.0000 0.0000 25.7373 0.0000 0.0000
# 5 0.0000 0.0000 0.0000 0.0000 15.5027 0.0000
# 6 0.0000 0.0000 0.0000 0.0000 0.0000 40.7992
#
#
#
# Elastic Compliance Matrix: (Units=1/GPa)
#
#
# Indices 1 2 3 4 5 6 
#
# 1 0.011656 -0.003370 -0.002774 0.000000 0.000000 0.000000
# 2 -0.003370 0.011646 -0.002762 0.000000 0.000000 0.000000
# 3 -0.002774 -0.002762 0.010556 0.000000 0.000000 0.000000
# 4 0.000000 0.000000 0.000000 0.038854 0.000000 0.000000
# 5 0.000000 0.000000 0.000000 0.000000 0.064505 0.000000
# 6 0.000000 0.000000 0.000000 0.000000 0.000000 0.024510
#
#
# Mechanical properties :
#
#
# Convention : Reuss Voigt Hill
#
# Bulk Modulus (GPa) = 62.32642 62.37304 62.34973
# Shear Modulus (GPa) = 27.04354 30.48475 28.76415
#
# Velocity S-wave (km/s) = 3.54826 3.76725 3.65940
# Velocity P-wave (km/s) = 6.76779 6.92537 6.84703
#
# Compressibility (1/GPa) = 0.01604456
#
# Stress axis : x y z
#
# Youngs Moduli (GPa) = 85.79586 85.86936 94.73337
#
# Poissons Ratio (x) = 0.28939 0.26281
# Poissons Ratio (y) = 0.28914 0.26164
# Poissons Ratio (z) = 0.23802 0.23716
#
# Static dielectric constant tensor:
#      x y z
#    x 7.763080 0.000000 0.000000 
#    y 0.000000 1.782140 0.000000 
#    z 0.000000 0.000000 1.807380 
# 
# From -- ./inp_files/13242.got.cif
#   From: 2010.05.17/outbox.cif.g08.bks.cpg/sg37_7_cif.got.tgz:13242.got - 2010.06.03 17:53:42.
