data_PCOD9354975
_publ_section_title
;
Structure prediction by ZEFSAII (Michael W. Deem and Ramdas Pophale) SiO2 
 PCOD9354975
Probable space group: C C C 2
;
_chemical_formula_sum "Si O2"
_cell_formula_units_Z 56
_cell_length_a 14.434786
_cell_length_b 5.605332
_cell_length_c 31.364317
_cell_angle_alpha 90.000000
_cell_angle_beta 90.000000
_cell_angle_gamma 90.000000
_cell_volume 2537.742337
_symmetry_space_group_name_H-M "C C C 2"
_symmetry_group_IT_number 37
_symmetry_cell_setting 'orthorhombic'
loop_
_space_group_symop_operation_xyz
x,y,z
-x,-y,z
-x,y,1/2+z
x,-y,1/2+z
1/2+x,1/2+y,z
1/2-x,1/2-y,z
1/2-x,1/2+y,1/2+z
1/2+x,1/2-y,1/2+z
loop_
_atom_site_type_symbol
_atom_site_label
_atom_site_fract_x
_atom_site_fract_y
_atom_site_fract_z
Si Si1 0.695440 0.499172 0.939350
Si Si2 0.397791 0.107562 0.192504
Si Si3 0.500000 0.000000 0.820882
Si Si4 0.354869 0.660793 0.772856
Si Si5 0.893892 0.057475 0.622438
Si Si6 0.250000 0.250000 0.676934
Si Si7 0.190961 0.999409 0.532554
Si Si8 0.600856 0.614555 0.851870
O O1 0.750000 0.750000 0.941507
O O2 0.649154 0.516783 0.893242
O O3 0.750000 0.250000 0.939073
O O4 0.644618 0.492147 0.985465
O O5 0.382289 0.337156 0.223068
O O6 0.379455 0.182746 0.143590
O O7 0.500000 0.000000 0.196775
O O8 0.316990 0.921389 0.204192
O O9 0.562803 0.168860 0.791189
O O10 0.421658 0.108008 0.851871
O O11 0.250000 0.750000 0.776852
O O12 0.358509 0.439091 0.805138
O O13 0.876564 0.025930 0.572614
O O14 0.820530 0.891857 0.646562
O O15 0.000000 0.000000 0.633295
O O16 0.250000 0.750000 0.534273
O O17 0.250000 0.250000 0.536835
O O18 0.500000 0.500000 0.852239
#
# Coordination Sequence:
#
# PCOD9354975 Si02
#       8
#     8   8   4   8   8   4   8   8
#     4  10  23  42  72 104 138 185 237 294 366 437
#     4  12  26  47  70 102 144 189 249 296 369 440
#     4  10  24  42  62  96 134 178 232 294 352 432
#     4  11  24  43  66  96 132 185 233 296 360 426
#     4  12  25  42  73 102 141 188 242 297 367 435
#     4  12  24  46  70 100 142 190 226 312 356 436
#     4  10  22  44  71 104 144 186 236 302 367 439
#     4  10  24  41  66  94 139 178 233 297 359 428
#
# _framework density 22.066858
#
# number of rings (size 3 to 8) (size 9 to 14) (size 15 to 20)
#    0.000    1.143    2.857    2.571    6.000    4.571 
#    2.571    0.000    1.571    0.000    0.000    0.000 
#    0.000    0.000    0.000    0.000    0.000    0.000 
#
# Total GULP energy -156040.238621 kJ/mol
# GULP energy per Si atom -5572.865665 kJ/mol
# Density = 2.201663 g / cm^3
# Si number density = 22.066858 Si / 1000 Ang^3
#
#
#
# Elastic Constant Matrix: (Units=GPa)
#
#
# Indices 1 2 3 4 5 6 
#
# 1 109.0598 34.7963 39.8946 0.0000 0.0000 0.0000
# 2 34.7963 83.7535 37.3880 0.0000 0.0000 0.0000
# 3 39.8946 37.3880 157.1945 0.0000 0.0000 0.0000
# 4 0.0000 0.0000 0.0000 15.1946 0.0000 0.0000
# 5 0.0000 0.0000 0.0000 0.0000 37.4531 0.0000
# 6 0.0000 0.0000 0.0000 0.0000 0.0000 21.1656
#
#
#
# Elastic Compliance Matrix: (Units=1/GPa)
#
#
# Indices 1 2 3 4 5 6 
#
# 1 0.011064 -0.003740 -0.001918 0.000000 0.000000 0.000000
# 2 -0.003740 0.014623 -0.002529 0.000000 0.000000 0.000000
# 3 -0.001918 -0.002529 0.007450 0.000000 0.000000 0.000000
# 4 0.000000 0.000000 0.000000 0.065813 0.000000 0.000000
# 5 0.000000 0.000000 0.000000 0.000000 0.026700 0.000000
# 6 0.000000 0.000000 0.000000 0.000000 0.000000 0.047246
#
#
# Mechanical properties :
#
#
# Convention : Reuss Voigt Hill
#
# Bulk Modulus (GPa) = 59.65906 63.79619 61.72762
# Shear Modulus (GPa) = 25.65964 30.62459 28.14211
#
# Velocity S-wave (km/s) = 3.41370 3.72937 3.57502
# Velocity P-wave (km/s) = 6.52933 6.89329 6.71378
#
# Compressibility (1/GPa) = 0.01676191
#
# Stress axis : x y z
#
# Youngs Moduli (GPa) = 90.37937 68.38729 134.23092
#
# Poissons Ratio (x) = 0.25580 0.25751
# Poissons Ratio (y) = 0.33806 0.33942
# Poissons Ratio (z) = 0.17339 0.17293
#
# Static dielectric constant tensor:
#      x y z
#    x 1.770960 0.000000 0.000000 
#    y 0.000000 2.072650 0.000000 
#    z 0.000000 0.000000 1.857670 
# 
# From -- ./inp_files/20564.got.cif
#   From: 2010.05.17/outbox.cif.g08.bks.cpg/sg37_11_cif.got.tgz:20564.got - 2010.06.03 17:53:42.
