data_PCOD9354704
_publ_section_title
;
Structure prediction by ZEFSAII (Michael W. Deem and Ramdas Pophale) SiO2 
 PCOD9354704
Probable space group: C C C 2
;
_chemical_formula_sum "Si O2"
_cell_formula_units_Z 48
_cell_length_a 20.837690
_cell_length_b 11.724480
_cell_length_c 8.669172
_cell_angle_alpha 90.000000
_cell_angle_beta 90.000000
_cell_angle_gamma 90.000000
_cell_volume 2117.974771
_symmetry_space_group_name_H-M "C C C 2"
_symmetry_group_IT_number 37
_symmetry_cell_setting 'orthorhombic'
loop_
_space_group_symop_operation_xyz
x,y,z
-x,-y,z
-x,y,1/2+z
x,-y,1/2+z
1/2+x,1/2+y,z
1/2-x,1/2-y,z
1/2-x,1/2+y,1/2+z
1/2+x,1/2-y,1/2+z
loop_
_atom_site_type_symbol
_atom_site_label
_atom_site_fract_x
_atom_site_fract_y
_atom_site_fract_z
Si Si1 0.942370 0.352279 0.410220
Si Si2 0.500000 0.500000 0.453842
Si Si3 0.057630 0.852278 0.216196
Si Si4 0.500000 0.000000 0.172575
Si Si5 0.696935 0.346596 0.102889
Si Si6 0.250000 0.545096 0.813208
Si Si7 0.696936 0.153403 0.523527
O O1 0.973164 0.250000 0.313208
O O2 0.943703 0.456098 0.285999
O O3 0.873518 0.311000 0.470895
O O4 0.979132 0.399698 0.557985
O O5 0.556297 0.456097 0.340418
O O6 0.479132 0.399698 0.568431
O O7 0.126482 0.811000 0.155521
O O8 0.750000 0.250000 0.135678
O O9 0.711396 0.460853 0.200406
O O10 0.705155 0.379600 0.923710
O O11 0.205155 0.620400 0.702706
O O12 0.211396 0.460853 0.926010
O O13 0.750000 0.250000 0.490738
#
# Coordination Sequence:
#
# PCOD9354704 Si02
#       7
#     8   4   8   4   8   8   8
#     4  11  22  41  65  93 128 166 215 266 313 378
#     4  10  24  42  64  94 126 172 218 258 314 370
#     4  11  22  41  65  93 128 166 215 266 313 378
#     4  10  24  42  64  94 126 172 218 258 314 370
#     4  11  22  39  62  92 126 165 206 259 320 377
#     4  10  22  38  58  90 126 162 206 248 318 382
#     4  11  22  39  62  92 126 165 206 259 320 377
#
# _framework density 22.663159
#
# number of rings (size 3 to 8) (size 9 to 14) (size 15 to 20)
#    0.000    1.333    0.000    6.000    0.000    2.667 
#    0.000   10.000    0.000    0.000    0.000    0.000 
#    0.000    0.000    0.000    0.000    0.000    0.000 
#
# Total GULP energy -134052.057004 kJ/mol
# GULP energy per Si atom -5585.502375 kJ/mol
# Density = 2.261158 g / cm^3
# Si number density = 22.663159 Si / 1000 Ang^3
#
#
#
# Elastic Constant Matrix: (Units=GPa)
#
#
# Indices 1 2 3 4 5 6 
#
# 1 87.3960 29.8457 47.9316 0.0000 0.0000 0.0000
# 2 29.8457 80.9317 54.6020 0.0000 0.0000 0.0000
# 3 47.9316 54.6020 182.9562 0.0000 0.0000 0.0000
# 4 0.0000 0.0000 0.0000 59.2339 0.0000 0.0000
# 5 0.0000 0.0000 0.0000 0.0000 34.5822 0.0000
# 6 0.0000 0.0000 0.0000 0.0000 0.0000 28.5213
#
#
#
# Elastic Compliance Matrix: (Units=1/GPa)
#
#
# Indices 1 2 3 4 5 6 
#
# 1 0.014064 -0.003382 -0.002675 0.000000 0.000000 0.000000
# 2 -0.003382 0.016284 -0.003974 0.000000 0.000000 0.000000
# 3 -0.002675 -0.003974 0.007353 0.000000 0.000000 0.000000
# 4 0.000000 0.000000 0.000000 0.016882 0.000000 0.000000
# 5 0.000000 0.000000 0.000000 0.000000 0.028917 0.000000
# 6 0.000000 0.000000 0.000000 0.000000 0.000000 0.035062
#
#
# Mechanical properties :
#
#
# Convention : Reuss Voigt Hill
#
# Bulk Modulus (GPa) = 56.69158 68.44916 62.57037
# Shear Modulus (GPa) = 34.60128 39.06113 36.83120
#
# Velocity S-wave (km/s) = 3.91162 4.15607 4.03570
# Velocity P-wave (km/s) = 6.74316 7.30062 7.02742
#
# Compressibility (1/GPa) = 0.01763930
#
# Stress axis : x y z
#
# Youngs Moduli (GPa) = 71.10209 61.40893 136.00412
#
# Poissons Ratio (x) = 0.20766 0.36387
# Poissons Ratio (y) = 0.24044 0.54048
# Poissons Ratio (z) = 0.19023 0.24404
#
# Static dielectric constant tensor:
#      x y z
#    x 1.823920 0.000000 0.000000 
#    y 0.000000 1.887050 0.000000 
#    z 0.000000 0.000000 1.845050 
# 
# From -- ./inp_files/4594.got.cif
#   From: 2010.05.17/outbox.cif.g08.bks.cpg/sg37_3_cif.got.tgz:4594.got - 2010.06.03 17:53:42.
