data_PCOD9354962
_publ_section_title
;
Structure prediction by ZEFSAII (Michael W. Deem and Ramdas Pophale) SiO2 
 PCOD9354962
Probable space group: C C C 2
;
_chemical_formula_sum "Si O2"
_cell_formula_units_Z 44
_cell_length_a 17.123365
_cell_length_b 8.260045
_cell_length_c 14.228502
_cell_angle_alpha 90.000000
_cell_angle_beta 90.000000
_cell_angle_gamma 90.000000
_cell_volume 2012.475986
_symmetry_space_group_name_H-M "C C C 2"
_symmetry_group_IT_number 37
_symmetry_cell_setting 'orthorhombic'
loop_
_space_group_symop_operation_xyz
x,y,z
-x,-y,z
-x,y,1/2+z
x,-y,1/2+z
1/2+x,1/2+y,z
1/2-x,1/2-y,z
1/2-x,1/2+y,1/2+z
1/2+x,1/2-y,1/2+z
loop_
_atom_site_type_symbol
_atom_site_label
_atom_site_fract_x
_atom_site_fract_y
_atom_site_fract_z
Si Si1 0.642357 0.373600 0.972290
Si Si2 0.500000 0.000000 0.228891
Si Si3 0.834383 0.551091 0.158197
Si Si4 0.335817 0.733610 0.470836
Si Si5 0.750000 0.750000 0.621022
Si Si6 0.492442 0.313105 0.856499
Si Si7 0.250000 0.750000 0.811621
O O1 0.650420 0.554089 0.011738
O O2 0.556744 0.323544 0.939385
O O3 0.700427 0.362973 0.882579
O O4 0.676168 0.259728 0.051819
O O5 0.579365 0.018199 0.171395
O O6 0.510979 0.834961 0.288156
O O7 0.767873 0.414634 0.172953
O O8 0.813236 0.672583 0.242329
O O9 0.833110 0.639832 0.057027
O O10 0.250000 0.750000 0.425396
O O11 0.407603 0.736847 0.398005
O O12 0.500000 0.500000 0.817483
#
# Coordination Sequence:
#
# PCOD9354962 Si02
#       7
#     8   4   8   8   4   8   4
#     4  10  22  44  68  96 131 185 234 285 342 431
#     4  12  28  46  70 106 148 184 232 306 360 414
#     4  12  26  44  67 107 143 182 231 299 362 416
#     4  11  23  43  71  98 137 186 237 288 349 427
#     4  11  24  40  66  99 134 186 232 273 358 424
#     4  10  25  45  69 102 137 187 242 283 355 433
#     4  11  22  44  70  95 140 170 234 293 344 420
#
# _framework density 21.863613999999998
#
# number of rings (size 3 to 8) (size 9 to 14) (size 15 to 20)
#    0.000    1.091    4.545    0.000    7.636    2.909 
#    3.273    0.000    0.000    0.000    0.000    0.000 
#    0.000    0.000    0.000    0.000    0.000    0.000 
#
# Total GULP energy -122712.744243 kJ/mol
# GULP energy per Si atom -5577.852011 kJ/mol
# Density = 2.181385 g / cm^3
# Si number density = 21.863614 Si / 1000 Ang^3
#
#
#
# Elastic Constant Matrix: (Units=GPa)
#
#
# Indices 1 2 3 4 5 6 
#
# 1 164.2380 28.9649 25.2027 0.0000 0.0000 0.0000
# 2 28.9649 115.3537 39.9676 0.0000 0.0000 0.0000
# 3 25.2027 39.9676 35.3683 0.0000 0.0000 0.0000
# 4 0.0000 0.0000 0.0000 127.9594 0.0000 0.0000
# 5 0.0000 0.0000 0.0000 0.0000 28.4718 0.0000
# 6 0.0000 0.0000 0.0000 0.0000 0.0000 36.8955
#
#
#
# Elastic Compliance Matrix: (Units=1/GPa)
#
#
# Indices 1 2 3 4 5 6 
#
# 1 0.006836 -0.000047 -0.004818 0.000000 0.000000 0.000000
# 2 -0.000047 0.014248 -0.016067 0.000000 0.000000 0.000000
# 3 -0.004818 -0.016067 0.049863 0.000000 0.000000 0.000000
# 4 0.000000 0.000000 0.000000 0.007815 0.000000 0.000000
# 5 0.000000 0.000000 0.000000 0.000000 0.035122 0.000000
# 6 0.000000 0.000000 0.000000 0.000000 0.000000 0.027104
#
#
# Mechanical properties :
#
#
# Convention : Reuss Voigt Hill
#
# Bulk Modulus (GPa) = 34.38421 55.91449 45.14935
# Shear Modulus (GPa) = 25.96770 53.38698 39.67734
#
# Velocity S-wave (km/s) = 3.45006 4.94684 4.26463
# Velocity P-wave (km/s) = 5.62418 7.63269 6.70408
#
# Compressibility (1/GPa) = 0.02908312
#
# Stress axis : x y z
#
# Youngs Moduli (GPa) = 146.27574 70.18705 20.05485
#
# Poissons Ratio (x) = 0.00331 0.09663
# Poissons Ratio (y) = 0.00691 0.32222
# Poissons Ratio (z) = 0.70477 1.12768
#
# Static dielectric constant tensor:
#      x y z
#    x 1.840360 0.000000 0.000000 
#    y 0.000000 1.846310 0.000000 
#    z 0.000000 0.000000 1.762250 
# 
# From -- ./inp_files/10560.got.cif
#   From: 2010.05.17/outbox.cif.g08.bks.cpg/sg37_6_cif.got.tgz:10560.got - 2010.06.03 17:53:42.
