data_PCOD9354898
_publ_section_title
;
Structure prediction by ZEFSAII (Michael W. Deem and Ramdas Pophale) SiO2 
 PCOD9354898
Probable space group: C C C 2
;
_chemical_formula_sum "Si O2"
_cell_formula_units_Z 56
_cell_length_a 11.989153
_cell_length_b 20.544099
_cell_length_c 9.532187
_cell_angle_alpha 90.000000
_cell_angle_beta 90.000000
_cell_angle_gamma 90.000000
_cell_volume 2347.838151
_symmetry_space_group_name_H-M "C C C 2"
_symmetry_group_IT_number 37
_symmetry_cell_setting 'orthorhombic'
loop_
_space_group_symop_operation_xyz
x,y,z
-x,-y,z
-x,y,1/2+z
x,-y,1/2+z
1/2+x,1/2+y,z
1/2-x,1/2-y,z
1/2-x,1/2+y,1/2+z
1/2+x,1/2-y,1/2+z
loop_
_atom_site_type_symbol
_atom_site_label
_atom_site_fract_x
_atom_site_fract_y
_atom_site_fract_z
Si Si1 0.700935 0.994032 0.572610
Si Si2 0.327110 0.310962 0.202763
Si Si3 0.494874 0.217020 0.364259
Si Si4 0.909080 0.083921 0.495593
Si Si5 0.112535 0.092328 0.677936
Si Si6 0.358573 0.089938 0.306010
Si Si7 0.626666 0.256456 0.128447
O O1 0.767626 0.941317 0.666086
O O2 0.646418 0.954885 0.444523
O O3 0.801737 0.038511 0.514683
O O4 0.630272 0.042043 0.672176
O O5 0.250000 0.250000 0.162052
O O6 0.420406 0.276077 0.298047
O O7 0.255537 0.366949 0.284003
O O8 0.374671 0.347583 0.067186
O O9 0.450428 0.145925 0.321097
O O10 0.611776 0.226576 0.284449
O O11 0.467735 0.224772 0.528743
O O12 0.933846 0.087028 0.333116
O O13 0.021320 0.064095 0.573606
O O14 0.118036 0.167048 0.639431
O O15 0.750000 0.250000 0.065393
#
# Coordination Sequence:
#
# PCOD9354898 Si02
#       7
#     8   8   8   8   8   8   8
#     4  11  22  40  63 100 137 192 244 295 359 440
#     4   9  19  38  65  95 138 193 235 302 376 443
#     4  11  23  47  72 106 147 197 242 312 383 438
#     4  11  24  36  58  95 140 188 241 302 365 449
#     4  12  24  39  61  97 147 186 238 306 374 441
#     4  10  22  42  70  98 146 189 246 300 368 438
#     4  12  26  46  75 112 147 193 252 313 381 450
#
# _framework density 23.851731000000001
#
# number of rings (size 3 to 8) (size 9 to 14) (size 15 to 20)
#    0.000    1.143    2.857    4.286    4.000    1.714 
#    5.143    0.714    0.000    6.857    0.000    0.000 
#    0.000    0.000    0.000    0.000    0.000    0.000 
#
# Total GULP energy -156621.696846 kJ/mol
# GULP energy per Si atom -5593.632030 kJ/mol
# Density = 2.379744 g / cm^3
# Si number density = 23.851731 Si / 1000 Ang^3
#
#
#
# Elastic Constant Matrix: (Units=GPa)
#
#
# Indices 1 2 3 4 5 6 
#
# 1 21.1157 18.4124 4.0152 0.0000 0.0000 0.0000
# 2 18.4124 148.6252 40.4222 0.0000 0.0000 0.0000
# 3 4.0152 40.4222 126.1201 0.0000 0.0000 0.0000
# 4 0.0000 0.0000 0.0000 56.3571 0.0000 0.0000
# 5 0.0000 0.0000 0.0000 0.0000 23.4551 0.0000
# 6 0.0000 0.0000 0.0000 0.0000 0.0000 3.0001
#
#
#
# Elastic Compliance Matrix: (Units=1/GPa)
#
#
# Indices 1 2 3 4 5 6 
#
# 1 0.053118 -0.006705 0.000458 0.000000 0.000000 0.000000
# 2 -0.006705 0.008217 -0.002420 0.000000 0.000000 0.000000
# 3 0.000458 -0.002420 0.008690 0.000000 0.000000 0.000000
# 4 0.000000 0.000000 0.000000 0.017744 0.000000 0.000000
# 5 0.000000 0.000000 0.000000 0.000000 0.042635 0.000000
# 6 0.000000 0.000000 0.000000 0.000000 0.000000 0.333324
#
#
# Mechanical properties :
#
#
# Convention : Reuss Voigt Hill
#
# Bulk Modulus (GPa) = 18.97878 46.84008 32.90943
# Shear Modulus (GPa) = 10.02757 32.09654 21.06205
#
# Velocity S-wave (km/s) = 2.05262 3.67232 2.97482
# Velocity P-wave (km/s) = 3.68672 6.13693 5.06230
#
# Compressibility (1/GPa) = 0.05269042
#
# Stress axis : x y z
#
# Youngs Moduli (GPa) = 18.82610 121.69567 115.07400
#
# Poissons Ratio (x) = 0.81597 -0.05270
# Poissons Ratio (y) = 0.12623 0.27850
# Poissons Ratio (z) = -0.00862 0.29453
#
# Static dielectric constant tensor:
#      x y z
#    x 1.953660 0.000000 0.000000 
#    y 0.000000 1.879630 0.000000 
#    z 0.000000 0.000000 1.920340 
# 
# From -- ./inp_files/3640.got.cif
#   From: 2010.05.17/outbox.cif.g08.bks.cpg/sg37_2_cif.got.tgz:3640.got - 2010.06.03 17:53:42.
