data_PCOD9354563
_publ_section_title
;
Structure prediction by ZEFSAII (Michael W. Deem and Ramdas Pophale) SiO2 
 PCOD9354563
Probable space group: C C C 2
;
_chemical_formula_sum "Si O2"
_cell_formula_units_Z 64
_cell_length_a 21.376160
_cell_length_b 11.286126
_cell_length_c 9.954450
_cell_angle_alpha 90.000000
_cell_angle_beta 90.000000
_cell_angle_gamma 90.000000
_cell_volume 2401.551230
_symmetry_space_group_name_H-M "C C C 2"
_symmetry_group_IT_number 37
_symmetry_cell_setting 'orthorhombic'
loop_
_space_group_symop_operation_xyz
x,y,z
-x,-y,z
-x,y,1/2+z
x,-y,1/2+z
1/2+x,1/2+y,z
1/2-x,1/2-y,z
1/2-x,1/2+y,1/2+z
1/2+x,1/2-y,1/2+z
loop_
_atom_site_type_symbol
_atom_site_label
_atom_site_fract_x
_atom_site_fract_y
_atom_site_fract_z
Si Si1 0.934929 0.963444 0.863180
Si Si2 0.446123 0.927348 0.221205
Si Si3 0.875313 0.356404 0.644336
Si Si4 0.350088 0.515940 0.610486
Si Si5 0.521065 0.257916 0.797044
Si Si6 0.788528 0.636561 0.371276
Si Si7 0.883947 0.245847 0.036380
Si Si8 0.266551 0.885115 0.465021
O O1 0.027660 0.136926 0.779706
O O2 0.889839 0.025553 0.749486
O O3 0.888898 0.931420 0.984030
O O4 0.000000 0.000000 0.938864
O O5 0.485712 0.864598 0.338977
O O6 0.422058 0.812138 0.149192
O O7 0.500000 0.000000 0.143153
O O8 0.392135 0.022543 0.224458
O O9 0.935503 0.274784 0.668825
O O10 0.840306 0.375946 0.505221
O O11 0.818536 0.312177 0.735420
O O12 0.349258 0.373321 0.583735
O O13 0.281984 0.575303 0.585141
O O14 0.569170 0.288693 0.916146
O O15 0.750000 0.750000 0.418619
O O16 0.842847 0.645449 0.481421
O O17 0.761095 0.503449 0.371088
O O18 0.250000 0.750000 0.419060
#
# Coordination Sequence:
#
# PCOD9354563 Si02
#       8
#     8   8   8   8   8   8   8   8
#     4  12  26  47  73 114 151 202 257 330 399 487
#     4  10  21  41  67 106 140 186 252 322 392 464
#     4  10  24  45  73 102 141 203 254 323 397 477
#     4  12  28  45  77 112 156 208 264 325 409 478
#     4  10  23  42  72 105 147 190 254 328 401 468
#     4  11  23  44  74  98 142 195 256 307 390 470
#     4  11  21  43  70 103 139 196 249 310 393 474
#     4  12  28  47  69 110 153 202 263 332 389 478
#
# _framework density 26.649440999999999
#
# number of rings (size 3 to 8) (size 9 to 14) (size 15 to 20)
#    0.000    1.000    5.000    0.750    3.500    3.500 
#    2.250    0.625    0.000    0.000    0.000    0.000 
#    0.000    0.000    0.000    0.000    0.000    0.000 
#
# Total GULP energy -178154.504822 kJ/mol
# GULP energy per Si atom -5567.328276 kJ/mol
# Density = 2.658879 g / cm^3
# Si number density = 26.649441 Si / 1000 Ang^3
#
#
#
# Elastic Constant Matrix: (Units=GPa)
#
#
# Indices 1 2 3 4 5 6 
#
# 1 84.9047 5.4741 -8.0210 0.0000 0.0000 0.0000
# 2 5.4741 145.0353 -9.5167 0.0000 0.0000 0.0000
# 3 -8.0210 -9.5167 39.9698 0.0000 0.0000 0.0000
# 4 0.0000 0.0000 0.0000 21.6518 0.0000 0.0000
# 5 0.0000 0.0000 0.0000 0.0000 34.3918 0.0000
# 6 0.0000 0.0000 0.0000 0.0000 0.0000 43.4369
#
#
#
# Elastic Compliance Matrix: (Units=1/GPa)
#
#
# Indices 1 2 3 4 5 6 
#
# 1 0.012018 -0.000300 0.002340 0.000000 0.000000 0.000000
# 2 -0.000300 0.007012 0.001609 0.000000 0.000000 0.000000
# 3 0.002340 0.001609 0.025872 0.000000 0.000000 0.000000
# 4 0.000000 0.000000 0.000000 0.046186 0.000000 0.000000
# 5 0.000000 0.000000 0.000000 0.000000 0.029077 0.000000
# 6 0.000000 0.000000 0.000000 0.000000 0.000000 0.023022
#
#
# Mechanical properties :
#
#
# Convention : Reuss Voigt Hill
#
# Bulk Modulus (GPa) = 19.15670 27.30918 23.23294
# Shear Modulus (GPa) = 32.61851 38.69433 35.65642
#
# Velocity S-wave (km/s) = 3.50234 3.81461 3.66181
# Velocity P-wave (km/s) = 4.85379 5.44716 5.15901
#
# Compressibility (1/GPa) = 0.05220107
#
# Stress axis : x y z
#
# Youngs Moduli (GPa) = 83.20612 142.61691 38.65223
#
# Poissons Ratio (x) = 0.04279 -0.09046
# Poissons Ratio (y) = 0.02497 -0.06220
# Poissons Ratio (z) = -0.19473 -0.22951
#
# Static dielectric constant tensor:
#      x y z
#    x 2.189330 0.000000 0.000000 
#    y 0.000000 2.277760 0.000000 
#    z 0.000000 0.000000 2.104120 
# 
# From -- ./inp_files/8916.got.cif
#   From: 2010.05.17/outbox.cif.g08.bks.cpg/sg37_5_cif.got.tgz:8916.got - 2010.06.03 17:53:42.
