data_PCOD9354878
_publ_section_title
;
Structure prediction by ZEFSAII (Michael W. Deem and Ramdas Pophale) SiO2 
 PCOD9354878
Probable space group: C C C 2
;
_chemical_formula_sum "Si O2"
_cell_formula_units_Z 48
_cell_length_a 5.452049
_cell_length_b 26.899365
_cell_length_c 14.358363
_cell_angle_alpha 90.000000
_cell_angle_beta 90.000000
_cell_angle_gamma 90.000000
_cell_volume 2105.749504
_symmetry_space_group_name_H-M "C C C 2"
_symmetry_group_IT_number 37
_symmetry_cell_setting 'orthorhombic'
loop_
_space_group_symop_operation_xyz
x,y,z
-x,-y,z
-x,y,1/2+z
x,-y,1/2+z
1/2+x,1/2+y,z
1/2-x,1/2-y,z
1/2-x,1/2+y,1/2+z
1/2+x,1/2-y,1/2+z
loop_
_atom_site_type_symbol
_atom_site_label
_atom_site_fract_x
_atom_site_fract_y
_atom_site_fract_z
Si Si1 0.000000 0.000000 0.055840
Si Si2 0.717271 0.576189 0.909480
Si Si3 0.112275 0.827699 0.868421
Si Si4 0.284226 0.562564 0.206139
Si Si5 0.294057 0.126012 0.190695
Si Si6 0.485938 0.160486 0.997419
Si Si7 0.250000 0.750000 0.385143
O O1 0.200101 0.978835 0.127250
O O2 0.896887 0.956899 0.990104
O O3 0.556058 0.623731 0.879704
O O4 0.724589 0.545098 0.813824
O O5 0.953126 0.605310 0.950858
O O6 0.294959 0.841433 0.784698
O O7 0.971502 0.778247 0.835471
O O8 0.237856 0.823820 0.970253
O O9 0.529613 0.597200 0.187654
O O10 0.027578 0.590286 0.197045
O O11 0.363897 0.156296 0.098125
O O12 0.345206 0.204593 0.946138
#
# Coordination Sequence:
#
# PCOD9354878 Si02
#       7
#     4   8   8   8   8   8   4
#     4  12  22  42  68 106 146 188 258 302 362 442
#     4  10  22  42  67  96 140 195 233 311 364 423
#     4  10  22  45  72  99 146 189 246 301 380 445
#     4  11  24  44  65 105 139 191 249 301 364 439
#     4  11  24  44  74  99 141 195 240 296 373 441
#     4  11  21  44  68 100 141 187 235 299 375 438
#     4  10  24  42  70 106 140 182 242 304 368 454
#
# _framework density 22.794733999999998
#
# number of rings (size 3 to 8) (size 9 to 14) (size 15 to 20)
#    0.000    1.333    3.333    2.000    2.333    0.667 
#    6.000    0.000    0.000    0.000    0.000    0.000 
#    0.000    0.000    0.000    0.000    0.000    0.000 
#
# Total GULP energy -133815.804019 kJ/mol
# GULP energy per Si atom -5575.658501 kJ/mol
# Density = 2.274285 g / cm^3
# Si number density = 22.794734 Si / 1000 Ang^3
#
#
#
# Elastic Constant Matrix: (Units=GPa)
#
#
# Indices 1 2 3 4 5 6 
#
# 1 86.6459 34.8491 8.4523 0.0000 0.0000 0.0000
# 2 34.8491 103.4670 59.1169 0.0000 0.0000 0.0000
# 3 8.4523 59.1169 114.3261 0.0000 0.0000 0.0000
# 4 0.0000 0.0000 0.0000 -98.0354 0.0000 0.0000
# 5 0.0000 0.0000 0.0000 0.0000 111.2549 0.0000
# 6 0.0000 0.0000 0.0000 0.0000 0.0000 39.8098
#
#
#
# Elastic Compliance Matrix: (Units=1/GPa)
#
#
# Indices 1 2 3 4 5 6 
#
# 1 0.013647 -0.005706 0.001941 0.000000 0.000000 0.000000
# 2 -0.005706 0.016103 -0.007905 0.000000 0.000000 0.000000
# 3 0.001941 -0.007905 0.012691 0.000000 0.000000 0.000000
# 4 0.000000 0.000000 0.000000 -0.010200 0.000000 0.000000
# 5 0.000000 0.000000 0.000000 0.000000 0.008988 0.000000
# 6 0.000000 0.000000 0.000000 0.000000 0.000000 0.025119
#
#
# Mechanical properties :
#
#
# Convention : Reuss Voigt Hill
#
# Bulk Modulus (GPa) = 52.34935 56.58619 54.46777
# Shear Modulus (GPa) = 52.05396 24.07391 38.06393
#
# Velocity S-wave (km/s) = 4.78388 3.25332 4.09082
# Velocity P-wave (km/s) = 7.31638 6.24422 6.80146
#
# Compressibility (1/GPa) = 0.01910243
#
# Stress axis : x y z
#
# Youngs Moduli (GPa) = 73.27803 62.09931 78.79620
#
# Poissons Ratio (x) = 0.35431 -0.15297
# Poissons Ratio (y) = 0.41810 0.62288
# Poissons Ratio (z) = -0.14226 0.49089
#
# Static dielectric constant tensor:
#      x y z
#    x -0.995540 0.000000 0.000000 
#    y 0.000000 1.901300 0.000000 
#    z 0.000000 0.000000 1.886790 
# 
# From -- ./inp_files/9772.got.cif
#   From: 2010.05.17/outbox.cif.g08.bks.cpg/sg37_5_cif.got.tgz:9772.got - 2010.06.03 17:53:42.
