data_PCOD9354693
_publ_section_title
;
Structure prediction by ZEFSAII (Michael W. Deem and Ramdas Pophale) SiO2 
 PCOD9354693
Probable space group: C C C 2
;
_chemical_formula_sum "Si O2"
_cell_formula_units_Z 60
_cell_length_a 11.637642
_cell_length_b 17.428913
_cell_length_c 14.532540
_cell_angle_alpha 90.000000
_cell_angle_beta 90.000000
_cell_angle_gamma 90.000000
_cell_volume 2947.656160
_symmetry_space_group_name_H-M "C C C 2"
_symmetry_group_IT_number 37
_symmetry_cell_setting 'orthorhombic'
loop_
_space_group_symop_operation_xyz
x,y,z
-x,-y,z
-x,y,1/2+z
x,-y,1/2+z
1/2+x,1/2+y,z
1/2-x,1/2-y,z
1/2-x,1/2+y,1/2+z
1/2+x,1/2-y,1/2+z
loop_
_atom_site_type_symbol
_atom_site_label
_atom_site_fract_x
_atom_site_fract_y
_atom_site_fract_z
Si Si1 0.617019 0.953393 0.026250
Si Si2 0.735539 0.554159 0.663386
Si Si3 0.153366 0.296774 0.753949
Si Si4 0.409445 0.816238 0.810754
Si Si5 0.590836 0.324623 0.096676
Si Si6 0.250000 0.250000 0.456311
Si Si7 0.367552 0.989165 0.822886
Si Si8 0.876585 0.721302 0.094416
O O1 0.602531 0.864124 0.053453
O O2 0.500000 0.000000 0.046121
O O3 0.712791 0.998925 0.085243
O O4 0.639730 0.965366 0.918120
O O5 0.809875 0.630212 0.692657
O O6 0.612147 0.589499 0.635033
O O7 0.761343 0.508656 0.756957
O O8 0.250000 0.250000 0.809222
O O9 0.117350 0.232220 0.681096
O O10 0.046341 0.318625 0.815119
O O11 0.354700 0.764190 0.887711
O O12 0.361202 0.898891 0.836281
O O13 0.380831 0.791697 0.706044
O O14 0.469547 0.287213 0.066146
O O15 0.694235 0.313265 0.023514
O O16 0.500000 0.000000 0.784250
O O17 0.750000 0.750000 0.070147
#
# Coordination Sequence:
#
# PCOD9354693 Si02
#       8
#     8   8   8   8   8   4   8   8
#     4  11  23  37  65  96 134 171 223 280 334 391
#     4  11  18  38  59  91 126 171 218 272 325 400
#     4   9  18  34  58  89 126 172 210 261 337 398
#     4  11  21  36  60  93 134 164 220 275 336 399
#     4  10  22  37  63  91 130 172 218 266 342 402
#     4  12  22  36  62  96 124 168 220 276 326 414
#     4  11  22  32  61  97 126 164 219 276 336 391
#     4  11  24  46  64  96 135 181 215 280 349 401
#
# _framework density 20.355156000000001
#
# number of rings (size 3 to 8) (size 9 to 14) (size 15 to 20)
#    0.000    1.333    5.333    2.800    3.733    0.000 
#    0.000    7.333    0.000    0.000    0.000    0.000 
#    0.000    0.000    0.000    0.000    0.000    0.000 
#
# Total GULP energy -167034.263257 kJ/mol
# GULP energy per Si atom -5567.808775 kJ/mol
# Density = 2.030883 g / cm^3
# Si number density = 20.355156 Si / 1000 Ang^3
#
#
#
# Elastic Constant Matrix: (Units=GPa)
#
#
# Indices 1 2 3 4 5 6 
#
# 1 94.4234 41.0357 31.7648 0.0000 0.0000 0.0000
# 2 41.0357 67.6317 22.2663 0.0000 0.0000 0.0000
# 3 31.7648 22.2663 88.7381 0.0000 0.0000 0.0000
# 4 0.0000 0.0000 0.0000 26.2252 0.0000 0.0000
# 5 0.0000 0.0000 0.0000 0.0000 11.1669 0.0000
# 6 0.0000 0.0000 0.0000 0.0000 0.0000 25.6775
#
#
#
# Elastic Compliance Matrix: (Units=1/GPa)
#
#
# Indices 1 2 3 4 5 6 
#
# 1 0.015283 -0.008145 -0.003427 0.000000 0.000000 0.000000
# 2 -0.008145 0.020458 -0.002218 0.000000 0.000000 0.000000
# 3 -0.003427 -0.002218 0.013052 0.000000 0.000000 0.000000
# 4 0.000000 0.000000 0.000000 0.038131 0.000000 0.000000
# 5 0.000000 0.000000 0.000000 0.000000 0.089550 0.000000
# 6 0.000000 0.000000 0.000000 0.000000 0.000000 0.038945
#
#
# Mechanical properties :
#
#
# Convention : Reuss Voigt Hill
#
# Bulk Modulus (GPa) = 47.13838 48.99188 48.06513
# Shear Modulus (GPa) = 19.99437 22.99568 21.49502
#
# Velocity S-wave (km/s) = 3.13753 3.36478 3.25314
# Velocity P-wave (km/s) = 6.02774 6.26230 6.14614
#
# Compressibility (1/GPa) = 0.02121413
#
# Stress axis : x y z
#
# Youngs Moduli (GPa) = 65.43149 48.88055 76.61439
#
# Poissons Ratio (x) = 0.39812 0.26256
# Poissons Ratio (y) = 0.53293 0.16992
# Poissons Ratio (z) = 0.22424 0.10841
#
# Static dielectric constant tensor:
#      x y z
#    x 1.814270 0.000000 0.000000 
#    y 0.000000 1.712390 0.000000 
#    z 0.000000 0.000000 1.748830 
# 
# From -- ./inp_files/11756.got.cif
#   From: 2010.05.17/outbox.cif.g08.bks.cpg/sg37_6_cif.got.tgz:11756.got - 2010.06.03 17:53:42.
