data_PCOD9354628
_publ_section_title
;
Structure prediction by ZEFSAII (Michael W. Deem and Ramdas Pophale) SiO2 
 PCOD9354628
Probable space group: C C C 2
;
_chemical_formula_sum "Si O2"
_cell_formula_units_Z 48
_cell_length_a 26.406884
_cell_length_b 8.331414
_cell_length_c 9.552204
_cell_angle_alpha 90.000000
_cell_angle_beta 90.000000
_cell_angle_gamma 90.000000
_cell_volume 2101.548718
_symmetry_space_group_name_H-M "C C C 2"
_symmetry_group_IT_number 37
_symmetry_cell_setting 'orthorhombic'
loop_
_space_group_symop_operation_xyz
x,y,z
-x,-y,z
-x,y,1/2+z
x,-y,1/2+z
1/2+x,1/2+y,z
1/2-x,1/2-y,z
1/2-x,1/2+y,1/2+z
1/2+x,1/2-y,1/2+z
loop_
_atom_site_type_symbol
_atom_site_label
_atom_site_fract_x
_atom_site_fract_y
_atom_site_fract_z
Si Si1 0.898843 0.201145 0.493430
Si Si2 0.557551 0.006493 0.649438
Si Si3 0.111911 0.655771 0.914661
Si Si4 0.738728 0.425431 0.230276
Si Si5 0.121350 0.009536 0.253371
Si Si6 0.302055 0.076480 0.005751
O O1 0.935335 0.341011 0.545553
O O2 0.902194 0.059537 0.606333
O O3 0.842174 0.277989 0.504185
O O4 0.905275 0.132374 0.339126
O O5 0.592832 0.045302 0.783396
O O6 0.500000 0.000000 0.696837
O O7 0.574714 0.861418 0.548287
O O8 0.118852 0.831040 0.850296
O O9 0.163225 0.577930 0.972617
O O10 0.750000 0.250000 0.165595
O O11 0.679696 0.462738 0.229024
O O12 0.760382 0.416845 0.386072
O O13 0.772609 0.554661 0.149421
#
# Coordination Sequence:
#
# PCOD9354628 Si02
#       6
#     8   8   8   8   8   8
#     4  10  23  42  62  92 132 168 213 275 328 395
#     4  10  21  43  71 100 126 164 220 270 332 418
#     4  10  23  40  67  95 129 175 209 273 335 390
#     4  12  25  38  62  91 130 181 227 275 305 384
#     4  11  23  39  60  91 132 171 211 267 334 363
#     4  11  24  42  58  92 129 177 234 259 318 383
#
# _framework density 22.840299000000002
#
# number of rings (size 3 to 8) (size 9 to 14) (size 15 to 20)
#    0.000    1.333    1.667    4.500    4.667    4.000 
#    0.000    0.833    0.000    4.000    0.000    0.000 
#    0.000    0.000    0.000    0.000    0.000    0.000 
#
# Total GULP energy -134292.469504 kJ/mol
# GULP energy per Si atom -5595.519563 kJ/mol
# Density = 2.278831 g / cm^3
# Si number density = 22.840299 Si / 1000 Ang^3
#
#
#
# Elastic Constant Matrix: (Units=GPa)
#
#
# Indices 1 2 3 4 5 6 
#
# 1 54.1243 2.0140 -1.0564 0.0000 0.0000 0.0000
# 2 2.0140 57.4138 25.9160 0.0000 0.0000 0.0000
# 3 -1.0564 25.9160 89.8834 0.0000 0.0000 0.0000
# 4 0.0000 0.0000 0.0000 49.0113 0.0000 0.0000
# 5 0.0000 0.0000 0.0000 0.0000 20.1096 0.0000
# 6 0.0000 0.0000 0.0000 0.0000 0.0000 10.9770
#
#
#
# Elastic Compliance Matrix: (Units=1/GPa)
#
#
# Indices 1 2 3 4 5 6 
#
# 1 0.018517 -0.000860 0.000466 0.000000 0.000000 0.000000
# 2 -0.000860 0.020063 -0.005795 0.000000 0.000000 0.000000
# 3 0.000466 -0.005795 0.012802 0.000000 0.000000 0.000000
# 4 0.000000 0.000000 0.000000 0.020403 0.000000 0.000000
# 5 0.000000 0.000000 0.000000 0.000000 0.049728 0.000000
# 6 0.000000 0.000000 0.000000 0.000000 0.000000 0.091099
#
#
# Mechanical properties :
#
#
# Convention : Reuss Voigt Hill
#
# Bulk Modulus (GPa) = 25.63840 28.35208 26.99524
# Shear Modulus (GPa) = 21.00908 27.65610 24.33259
#
# Velocity S-wave (km/s) = 3.03615 3.48350 3.26749
# Velocity P-wave (km/s) = 4.85185 5.34975 5.10687
#
# Compressibility (1/GPa) = 0.03900399
#
# Stress axis : x y z
#
# Youngs Moduli (GPa) = 54.00428 49.84208 78.11373
#
# Poissons Ratio (x) = 0.04285 -0.03636
# Poissons Ratio (y) = 0.04643 0.45267
# Poissons Ratio (z) = -0.02514 0.28883
#
# Static dielectric constant tensor:
#      x y z
#    x 1.818250 0.000000 0.000000 
#    y 0.000000 1.936270 0.000000 
#    z 0.000000 0.000000 1.848670 
# 
# From -- ./inp_files/2409.got.cif
#   From: 2010.05.17/outbox.cif.g08.bks.cpg/sg37_2_cif.got.tgz:2409.got - 2010.06.03 17:53:42.
