data_PCOD9354480
_publ_section_title
;
Structure prediction by ZEFSAII (Michael W. Deem and Ramdas Pophale) SiO2 
 PCOD9354480
Probable space group: C C C 2
;
_chemical_formula_sum "Si O2"
_cell_formula_units_Z 48
_cell_length_a 8.716717
_cell_length_b 13.995823
_cell_length_c 19.016087
_cell_angle_alpha 90.000000
_cell_angle_beta 90.000000
_cell_angle_gamma 90.000000
_cell_volume 2319.917513
_symmetry_space_group_name_H-M "C C C 2"
_symmetry_group_IT_number 37
_symmetry_cell_setting 'orthorhombic'
loop_
_space_group_symop_operation_xyz
x,y,z
-x,-y,z
-x,y,1/2+z
x,-y,1/2+z
1/2+x,1/2+y,z
1/2-x,1/2-y,z
1/2-x,1/2+y,1/2+z
1/2+x,1/2-y,1/2+z
loop_
_atom_site_type_symbol
_atom_site_label
_atom_site_fract_x
_atom_site_fract_y
_atom_site_fract_z
Si Si1 0.567728 0.736707 0.306180
Si Si2 0.618323 0.326003 0.436036
Si Si3 0.615021 0.932849 0.786385
Si Si4 0.595716 0.398674 0.037644
Si Si5 0.175863 0.489009 0.436608
Si Si6 0.082851 0.103026 0.699029
O O1 0.750000 0.750000 0.314270
O O2 0.494534 0.673814 0.369217
O O3 0.475587 0.837251 0.309375
O O4 0.526470 0.682630 0.233876
O O5 0.750000 0.250000 0.424851
O O6 0.512881 0.317620 0.504357
O O7 0.715566 0.420731 0.447569
O O8 0.663458 0.002999 0.851361
O O9 0.764546 0.901504 0.745532
O O10 0.500000 0.000000 0.742354
O O11 0.500000 0.500000 0.038279
O O12 0.628708 0.377828 0.118519
O O13 0.738168 0.409935 0.983440
O O14 0.000000 0.500000 0.460498
O O15 0.000000 0.000000 0.703052
#
# Coordination Sequence:
#
# PCOD9354480 Si02
#       6
#     8   8   8   8   8   8
#     4  12  25  41  66  98 129 169 227 271 324 387
#     4  11  21  40  63  93 130 165 214 273 319 377
#     4  11  23  41  67  96 128 172 220 272 318 380
#     4   9  23  40  63  95 132 172 214 257 328 394
#     4  10  21  39  65  93 128 166 219 267 315 387
#     4  11  23  43  66  97 133 176 210 265 334 389
#
# _framework density 20.690391000000002
#
# number of rings (size 3 to 8) (size 9 to 14) (size 15 to 20)
#    0.000    1.333    3.333    1.500    7.000    1.333 
#    0.000    8.333    0.000    0.000    0.000    0.000 
#    0.000    0.000    0.000    0.000    0.000    0.000 
#
# Total GULP energy -133781.194244 kJ/mol
# GULP energy per Si atom -5574.216427 kJ/mol
# Density = 2.064330 g / cm^3
# Si number density = 20.690391 Si / 1000 Ang^3
#
#
#
# Elastic Constant Matrix: (Units=GPa)
#
#
# Indices 1 2 3 4 5 6 
#
# 1 171.0693 27.1716 72.0461 0.0000 0.0000 0.0000
# 2 27.1716 41.5355 24.2082 0.0000 0.0000 0.0000
# 3 72.0461 24.2082 121.9269 0.0000 0.0000 0.0000
# 4 0.0000 0.0000 0.0000 -21.9756 0.0000 0.0000
# 5 0.0000 0.0000 0.0000 0.0000 4.7440 0.0000
# 6 0.0000 0.0000 0.0000 0.0000 0.0000 24.3364
#
#
#
# Elastic Compliance Matrix: (Units=1/GPa)
#
#
# Indices 1 2 3 4 5 6 
#
# 1 0.008065 -0.002825 -0.004205 0.000000 0.000000 0.000000
# 2 -0.002825 0.028216 -0.003933 0.000000 0.000000 0.000000
# 3 -0.004205 -0.003933 0.011467 0.000000 0.000000 0.000000
# 4 0.000000 0.000000 0.000000 -0.045505 0.000000 0.000000
# 5 0.000000 0.000000 0.000000 0.000000 0.210792 0.000000
# 6 0.000000 0.000000 0.000000 0.000000 0.000000 0.041091
#
#
# Mechanical properties :
#
#
# Convention : Reuss Voigt Hill
#
# Bulk Modulus (GPa) = 38.72560 64.59818 51.66189
# Shear Modulus (GPa) = 17.56485 15.49469 16.52977
#
# Velocity S-wave (km/s) = 2.91681 2.73954 2.82957
# Velocity P-wave (km/s) = 5.48645 6.42619 5.97482
#
# Compressibility (1/GPa) = 0.02582271
#
# Stress axis : x y z
#
# Youngs Moduli (GPa) = 123.98992 35.44062 87.20668
#
# Poissons Ratio (x) = 0.10013 0.36668
# Poissons Ratio (y) = 0.35032 0.34296
# Poissons Ratio (z) = 0.52134 0.13938
#
# Static dielectric constant tensor:
#      x y z
#    x 1.830720 0.000000 0.000000 
#    y 0.000000 2.002050 0.000000 
#    z 0.000000 0.000000 1.742110 
# 
# From -- ./inp_files/14476.got.cif
#   From: 2010.05.17/outbox.cif.g08.bks.cpg/sg37_8_cif.got.tgz:14476.got - 2010.06.03 17:53:42.
