data_PCOD9354263
_publ_section_title
;
Structure prediction by ZEFSAII (Michael W. Deem and Ramdas Pophale) SiO2 
 PCOD9354263
Probable space group: C C C 2
;
_chemical_formula_sum "Si O2"
_cell_formula_units_Z 64
_cell_length_a 8.369650
_cell_length_b 14.306812
_cell_length_c 22.684790
_cell_angle_alpha 90.000000
_cell_angle_beta 90.000000
_cell_angle_gamma 90.000000
_cell_volume 2716.345014
_symmetry_space_group_name_H-M "C C C 2"
_symmetry_group_IT_number 37
_symmetry_cell_setting 'orthorhombic'
loop_
_space_group_symop_operation_xyz
x,y,z
-x,-y,z
-x,y,1/2+z
x,-y,1/2+z
1/2+x,1/2+y,z
1/2-x,1/2-y,z
1/2-x,1/2+y,1/2+z
1/2+x,1/2-y,1/2+z
loop_
_atom_site_type_symbol
_atom_site_label
_atom_site_fract_x
_atom_site_fract_y
_atom_site_fract_z
Si Si1 0.628897 0.083214 0.700240
Si Si2 0.146206 0.156085 0.634126
Si Si3 0.317422 0.971466 0.049494
Si Si4 0.813272 0.850409 0.081019
Si Si5 0.632640 0.083124 0.927786
Si Si6 0.608482 0.189966 0.358381
Si Si7 0.060991 0.235157 0.743591
Si Si8 0.695612 0.500935 0.316905
O O1 0.729597 0.114540 0.642513
O O2 0.530290 0.178656 0.713797
O O3 0.500000 0.000000 0.692484
O O4 0.732647 0.050618 0.757667
O O5 0.250000 0.250000 0.633360
O O6 0.254084 0.074967 0.609054
O O7 0.065846 0.148251 0.699036
O O8 0.998882 0.160910 0.591015
O O9 0.500000 0.000000 0.057560
O O10 0.223550 0.066599 0.036596
O O11 0.299101 0.905725 0.992984
O O12 0.750000 0.750000 0.064166
O O13 0.522007 0.165387 0.905804
O O14 0.500000 0.000000 0.932158
O O15 0.754883 0.057281 0.875910
O O16 0.750000 0.250000 0.384728
O O17 0.514193 0.255268 0.310931
O O18 0.697247 0.096977 0.327944
O O19 0.250000 0.250000 0.750517
O O20 0.500000 0.500000 0.313083
#
# Coordination Sequence:
#
# PCOD9354263 Si02
#       8
#     8   8   8   8   8   8   8   8
#     4  12  23  43  69  98 145 191 230 291 366 443
#     4  11  25  45  66  98 143 184 234 291 355 440
#     4  11  25  46  72  99 136 192 243 303 368 430
#     4  12  26  42  67 103 136 182 237 293 357 439
#     4   9  20  45  72  94 133 187 243 297 362 436
#     4  10  20  41  72 101 140 184 240 294 370 440
#     4  10  21  37  69  99 140 186 226 288 364 435
#     4  11  23  40  65 104 139 182 237 296 361 437
#
# _framework density 23.561073
#
# number of rings (size 3 to 8) (size 9 to 14) (size 15 to 20)
#    0.000    1.250    3.750    1.875    5.250    5.000 
#    0.000   11.250    0.000    0.000    0.000    0.000 
#    0.000    0.000    0.000    0.000    0.000    0.000 
#
# Total GULP energy -178537.904730 kJ/mol
# GULP energy per Si atom -5579.309523 kJ/mol
# Density = 2.350745 g / cm^3
# Si number density = 23.561073 Si / 1000 Ang^3
#
#
#
# Elastic Constant Matrix: (Units=GPa)
#
#
# Indices 1 2 3 4 5 6 
#
# 1 101.3193 27.0346 33.0353 0.0000 0.0000 0.0000
# 2 27.0346 88.3198 49.7917 0.0000 0.0000 0.0000
# 3 33.0353 49.7917 89.9469 0.0000 0.0000 0.0000
# 4 0.0000 0.0000 0.0000 27.8788 0.0000 0.0000
# 5 0.0000 0.0000 0.0000 0.0000 11.3021 0.0000
# 6 0.0000 0.0000 0.0000 0.0000 0.0000 39.1170
#
#
#
# Elastic Compliance Matrix: (Units=1/GPa)
#
#
# Indices 1 2 3 4 5 6 
#
# 1 0.011373 -0.001637 -0.003271 0.000000 0.000000 0.000000
# 2 -0.001637 0.016695 -0.008640 0.000000 0.000000 0.000000
# 3 -0.003271 -0.008640 0.017102 0.000000 0.000000 0.000000
# 4 0.000000 0.000000 0.000000 0.035870 0.000000 0.000000
# 5 0.000000 0.000000 0.000000 0.000000 0.088479 0.000000
# 6 0.000000 0.000000 0.000000 0.000000 0.000000 0.025564
#
#
# Mechanical properties :
#
#
# Convention : Reuss Voigt Hill
#
# Bulk Modulus (GPa) = 55.33101 55.47879 55.40490
# Shear Modulus (GPa) = 21.91021 26.97454 24.44237
#
# Velocity S-wave (km/s) = 3.05279 3.38727 3.22437
# Velocity P-wave (km/s) = 5.99676 6.23667 6.11789
#
# Compressibility (1/GPa) = 0.01807305
#
# Stress axis : x y z
#
# Youngs Moduli (GPa) = 87.92692 59.89878 58.47298
#
# Poissons Ratio (x) = 0.09808 0.19124
# Poissons Ratio (y) = 0.14397 0.50523
# Poissons Ratio (z) = 0.28758 0.51755
#
# Static dielectric constant tensor:
#      x y z
#    x 1.925400 0.000000 0.000000 
#    y 0.000000 2.017640 0.000000 
#    z 0.000000 0.000000 2.052310 
# 
# From -- ./inp_files/18486.got.cif
#   From: 2010.05.17/outbox.cif.g08.bks.cpg/sg37_10_cif.got.tgz:18486.got - 2010.06.03 17:53:42.
