data_PCOD9354300
_publ_section_title
;
Structure prediction by ZEFSAII (Michael W. Deem and Ramdas Pophale) SiO2 
 PCOD9354300
Probable space group: C C C 2
;
_chemical_formula_sum "Si O2"
_cell_formula_units_Z 48
_cell_length_a 14.399207
_cell_length_b 18.902106
_cell_length_c 9.179036
_cell_angle_alpha 90.000000
_cell_angle_beta 90.000000
_cell_angle_gamma 90.000000
_cell_volume 2498.307217
_symmetry_space_group_name_H-M "C C C 2"
_symmetry_group_IT_number 37
_symmetry_cell_setting 'orthorhombic'
loop_
_space_group_symop_operation_xyz
x,y,z
-x,-y,z
-x,y,1/2+z
x,-y,1/2+z
1/2+x,1/2+y,z
1/2-x,1/2-y,z
1/2-x,1/2+y,1/2+z
1/2+x,1/2-y,1/2+z
loop_
_atom_site_type_symbol
_atom_site_label
_atom_site_fract_x
_atom_site_fract_y
_atom_site_fract_z
Si Si1 0.078236 0.560028 0.797520
Si Si2 0.383715 0.210213 0.831862
Si Si3 0.389976 0.500925 0.943479
Si Si4 0.704719 0.358125 0.424299
Si Si5 0.971403 0.346875 0.057437
Si Si6 0.215428 0.057546 0.199882
O O1 0.181202 0.537522 0.749340
O O2 0.000000 0.500000 0.815630
O O3 0.037332 0.609563 0.668693
O O4 0.085141 0.599881 0.952927
O O5 0.342909 0.285645 0.877136
O O6 0.307882 0.148580 0.860664
O O7 0.412928 0.202948 0.664366
O O8 0.467567 0.195578 0.941618
O O9 0.500000 0.500000 0.964962
O O10 0.355677 0.425515 0.876640
O O11 0.352513 0.561341 0.837418
O O12 0.331810 0.499605 0.092331
O O13 0.716030 0.372372 0.598285
#
# Coordination Sequence:
#
# PCOD9354300 Si02
#       6
#     8   8   8   8   8   8
#     4  11  23  36  60  97 134 166 205 261 334 393
#     4  10  20  43  63  87 125 168 211 264 317 394
#     4  10  22  40  62  92 123 164 220 266 320 373
#     4   9  22  40  65  83 125 169 208 263 331 359
#     4  10  22  36  63  92 124 161 216 254 321 393
#     4  10  23  39  62  92 129 170 207 270 319 390
#
# _framework density 19.213011000000002
#
# number of rings (size 3 to 8) (size 9 to 14) (size 15 to 20)
#    1.000    1.000    1.667    1.000    9.333    1.333 
#    0.000    0.000   14.667    0.000    0.000    0.000 
#    0.000    0.000    0.000    0.000    0.000    0.000 
#
# Total GULP energy -133624.170021 kJ/mol
# GULP energy per Si atom -5567.673751 kJ/mol
# Density = 1.916928 g / cm^3
# Si number density = 19.213011 Si / 1000 Ang^3
#
#
#
# Elastic Constant Matrix: (Units=GPa)
#
#
# Indices 1 2 3 4 5 6 
#
# 1 136.1550 32.9643 61.5387 0.0000 0.0000 0.0000
# 2 32.9643 51.6617 30.5110 0.0000 0.0000 0.0000
# 3 61.5387 30.5110 139.3486 0.0000 0.0000 0.0000
# 4 0.0000 0.0000 0.0000 15.1420 0.0000 0.0000
# 5 0.0000 0.0000 0.0000 0.0000 -1.1720 0.0000
# 6 0.0000 0.0000 0.0000 0.0000 0.0000 26.1758
#
#
#
# Elastic Compliance Matrix: (Units=1/GPa)
#
#
# Indices 1 2 3 4 5 6 
#
# 1 0.009947 -0.004310 -0.003449 0.000000 0.000000 0.000000
# 2 -0.004310 0.024099 -0.003373 0.000000 0.000000 0.000000
# 3 -0.003449 -0.003373 0.009438 0.000000 0.000000 0.000000
# 4 0.000000 0.000000 0.000000 0.066041 0.000000 0.000000
# 5 0.000000 0.000000 0.000000 0.000000 -0.853250 0.000000
# 6 0.000000 0.000000 0.000000 0.000000 0.000000 0.038203
#
#
# Mechanical properties :
#
#
# Convention : Reuss Voigt Hill
#
# Bulk Modulus (GPa) = 47.12658 64.13257 55.62958
# Shear Modulus (GPa) = -7.39444 21.50592 7.05574
#
# Velocity S-wave (km/s) = -1.96393 3.34929 1.91842
# Velocity P-wave (km/s) = 4.40897 6.95767 5.82444
#
# Compressibility (1/GPa) = 0.02121945
#
# Stress axis : x y z
#
# Youngs Moduli (GPa) = 100.53352 41.49550 105.95475
#
# Poissons Ratio (x) = 0.17884 0.36544
# Poissons Ratio (y) = 0.43329 0.35741
# Poissons Ratio (z) = 0.34675 0.13997
#
# Static dielectric constant tensor:
#      x y z
#    x 1.688900 0.000000 0.000000 
#    y 0.000000 1.706290 0.000000 
#    z 0.000000 0.000000 1.695240 
# 
# From -- ./inp_files/3508.got.cif
#   From: 2010.05.17/outbox.cif.g08.bks.cpg/sg37_2_cif.got.tgz:3508.got - 2010.06.03 17:53:42.
