data_PCOD9354841
_publ_section_title
;
Structure prediction by ZEFSAII (Michael W. Deem and Ramdas Pophale) SiO2 
 PCOD9354841
Probable space group: C C C 2
;
_chemical_formula_sum "Si O2"
_cell_formula_units_Z 56
_cell_length_a 23.041340
_cell_length_b 8.561874
_cell_length_c 14.725704
_cell_angle_alpha 90.000000
_cell_angle_beta 90.000000
_cell_angle_gamma 90.000000
_cell_volume 2905.043442
_symmetry_space_group_name_H-M "C C C 2"
_symmetry_group_IT_number 37
_symmetry_cell_setting 'orthorhombic'
loop_
_space_group_symop_operation_xyz
x,y,z
-x,-y,z
-x,y,1/2+z
x,-y,1/2+z
1/2+x,1/2+y,z
1/2-x,1/2-y,z
1/2-x,1/2+y,1/2+z
1/2+x,1/2-y,1/2+z
loop_
_atom_site_type_symbol
_atom_site_label
_atom_site_fract_x
_atom_site_fract_y
_atom_site_fract_z
Si Si1 0.535491 0.651399 0.955540
Si Si2 0.564529 0.949583 0.058240
Si Si3 0.801318 0.871874 0.101705
Si Si4 0.077798 0.682142 0.895049
Si Si5 0.851804 0.992727 0.415231
Si Si6 0.243270 0.934841 0.262870
Si Si7 0.140378 0.394109 0.218165
O O1 0.500000 0.500000 0.991353
O O2 0.486753 0.747770 0.902058
O O3 0.589683 0.593042 0.896073
O O4 0.559511 0.766818 0.032788
O O5 0.611707 0.985589 0.134546
O O6 0.500000 0.000000 0.086949
O O7 0.580319 0.042076 0.966770
O O8 0.750000 0.750000 0.075635
O O9 0.839276 0.767389 0.171312
O O10 0.778983 0.013569 0.163660
O O11 0.829408 0.940848 0.011285
O O12 0.092469 0.632042 0.794073
O O13 0.124352 0.816289 0.921089
O O14 0.802033 0.009399 0.339812
O O15 0.250000 0.750000 0.271214
O O16 0.305247 0.022534 0.266372
#
# Coordination Sequence:
#
# PCOD9354841 Si02
#       7
#     8   8   8   8   8   8   8
#     4   9  20  40  64  96 128 169 219 264 329 401
#     4  10  22  41  65  96 130 173 216 272 336 392
#     4  10  22  42  64  91 127 170 214 268 327 385
#     4  10  23  40  67  97 129 171 216 277 328 396
#     4  11  21  42  69  90 132 174 213 268 335 389
#     4  11  26  41  61  97 126 169 226 266 321 403
#     4  11  23  44  64  94 136 171 216 277 326 392
#
# _framework density 19.276821999999999
#
# number of rings (size 3 to 8) (size 9 to 14) (size 15 to 20)
#    0.000    1.714    2.857    0.429    4.000    4.000 
#    0.000    2.143    0.000    0.000    0.000    0.000 
#    0.000    0.000    0.000    0.000    0.000    0.000 
#
# Total GULP energy -156185.423379 kJ/mol
# GULP energy per Si atom -5578.050835 kJ/mol
# Density = 1.923295 g / cm^3
# Si number density = 19.276822 Si / 1000 Ang^3
#
#
#
# Elastic Constant Matrix: (Units=GPa)
#
#
# Indices 1 2 3 4 5 6 
#
# 1 82.9576 28.7928 38.3710 0.0000 0.0000 0.0000
# 2 28.7928 75.0538 26.9087 0.0000 0.0000 0.0000
# 3 38.3710 26.9087 75.7397 0.0000 0.0000 0.0000
# 4 0.0000 0.0000 0.0000 9.4803 0.0000 0.0000
# 5 0.0000 0.0000 0.0000 0.0000 41.5425 0.0000
# 6 0.0000 0.0000 0.0000 0.0000 0.0000 17.8453
#
#
#
# Elastic Compliance Matrix: (Units=1/GPa)
#
#
# Indices 1 2 3 4 5 6 
#
# 1 0.016664 -0.003857 -0.007072 0.000000 0.000000 0.000000
# 2 -0.003857 0.016162 -0.003788 0.000000 0.000000 0.000000
# 3 -0.007072 -0.003788 0.018132 0.000000 0.000000 0.000000
# 4 0.000000 0.000000 0.000000 0.105482 0.000000 0.000000
# 5 0.000000 0.000000 0.000000 0.000000 0.024072 0.000000
# 6 0.000000 0.000000 0.000000 0.000000 0.000000 0.056037
#
#
# Mechanical properties :
#
#
# Convention : Reuss Voigt Hill
#
# Bulk Modulus (GPa) = 46.46109 46.87735 46.66922
# Shear Modulus (GPa) = 18.30451 23.08553 20.69502
#
# Velocity S-wave (km/s) = 3.08484 3.46436 3.28009
# Velocity P-wave (km/s) = 6.06982 6.35399 6.21353
#
# Compressibility (1/GPa) = 0.02152339
#
# Stress axis : x y z
#
# Youngs Moduli (GPa) = 60.00891 61.87529 55.15259
#
# Poissons Ratio (x) = 0.23868 0.39003
# Poissons Ratio (y) = 0.23148 0.20890
# Poissons Ratio (z) = 0.42438 0.23436
#
# Static dielectric constant tensor:
#      x y z
#    x 1.710780 0.000000 0.000000 
#    y 0.000000 1.689660 0.000000 
#    z 0.000000 0.000000 1.618360 
# 
# From -- ./inp_files/12929.got.cif
#   From: 2010.05.17/outbox.cif.g08.bks.cpg/sg37_7_cif.got.tgz:12929.got - 2010.06.03 17:53:42.
