data_PCOD9354366
_publ_section_title
;
Structure prediction by ZEFSAII (Michael W. Deem and Ramdas Pophale) SiO2 
 PCOD9354366
Probable space group: C C C 2
;
_chemical_formula_sum "Si O2"
_cell_formula_units_Z 48
_cell_length_a 15.201512
_cell_length_b 5.014329
_cell_length_c 28.974956
_cell_angle_alpha 90.000000
_cell_angle_beta 90.000000
_cell_angle_gamma 90.000000
_cell_volume 2208.627103
_symmetry_space_group_name_H-M "C C C 2"
_symmetry_group_IT_number 37
_symmetry_cell_setting 'orthorhombic'
loop_
_space_group_symop_operation_xyz
x,y,z
-x,-y,z
-x,y,1/2+z
x,-y,1/2+z
1/2+x,1/2+y,z
1/2-x,1/2-y,z
1/2-x,1/2+y,1/2+z
1/2+x,1/2-y,1/2+z
loop_
_atom_site_type_symbol
_atom_site_label
_atom_site_fract_x
_atom_site_fract_y
_atom_site_fract_z
Si Si1 0.143989 0.736944 0.696360
Si Si2 0.311807 0.521546 0.862344
Si Si3 0.064827 0.748656 0.939994
Si Si4 0.445381 0.735833 0.789478
Si Si5 0.061687 0.254080 0.543612
Si Si6 0.145105 0.759098 0.140101
O O1 0.250000 0.750000 0.696324
O O2 0.116579 0.666313 0.748233
O O3 0.111512 0.515853 0.660684
O O4 0.112520 0.011670 0.674065
O O5 0.250000 0.750000 0.842327
O O6 0.353206 0.649864 0.909143
O O7 0.395680 0.554311 0.828322
O O8 0.250000 0.250000 0.865936
O O9 0.000000 0.500000 0.925334
O O10 0.097793 0.688853 0.992065
O O11 0.000000 0.000000 0.939958
O O12 0.500000 0.500000 0.765846
O O13 0.500000 0.000000 0.805920
O O14 0.124412 0.202660 0.586461
O O15 0.000000 0.500000 0.556019
O O16 0.000000 0.000000 0.538657
O O17 0.250000 0.750000 0.143996
#
# Coordination Sequence:
#
# PCOD9354366 Si02
#       6
#     8   8   8   8   8   8
#     4  10  22  39  58  83 119 158 198 246 301 358
#     4  12  25  42  65  92 122 160 203 254 310 370
#     4  10  21  41  63  88 122 160 201 252 308 365
#     4  12  25  41  63  91 120 158 203 253 307 367
#     4  10  21  36  59  86 117 155 197 245 299 357
#     4  10  21  37  57  84 119 157 195 244 300 357
#
# _framework density 21.732959000000001
#
# number of rings (size 3 to 8) (size 9 to 14) (size 15 to 20)
#    0.000    1.333    0.000    5.500    0.000    6.667 
#    0.000    2.500    0.000    0.000    0.000    0.000 
#    0.000    0.000    0.000    0.000    0.000    0.000 
#
# Total GULP energy -133653.527330 kJ/mol
# GULP energy per Si atom -5568.896972 kJ/mol
# Density = 2.168349 g / cm^3
# Si number density = 21.732959 Si / 1000 Ang^3
#
#
#
# Elastic Constant Matrix: (Units=GPa)
#
#
# Indices 1 2 3 4 5 6 
#
# 1 63.6402 39.8822 36.0959 0.0000 0.0000 0.0000
# 2 39.8822 142.1995 16.6107 0.0000 0.0000 0.0000
# 3 36.0959 16.6107 128.6114 0.0000 0.0000 0.0000
# 4 0.0000 0.0000 0.0000 25.2853 0.0000 0.0000
# 5 0.0000 0.0000 0.0000 0.0000 -63.0632 0.0000
# 6 0.0000 0.0000 0.0000 0.0000 0.0000 25.0382
#
#
#
# Elastic Compliance Matrix: (Units=1/GPa)
#
#
# Indices 1 2 3 4 5 6 
#
# 1 0.022395 -0.005632 -0.005558 0.000000 0.000000 0.000000
# 2 -0.005632 0.008556 0.000476 0.000000 0.000000 0.000000
# 3 -0.005558 0.000476 0.009274 0.000000 0.000000 0.000000
# 4 0.000000 0.000000 0.000000 0.039549 0.000000 0.000000
# 5 0.000000 0.000000 0.000000 0.000000 -0.015857 0.000000
# 6 0.000000 0.000000 0.000000 0.000000 0.000000 0.039939
#
#
# Mechanical properties :
#
#
# Convention : Reuss Voigt Hill
#
# Bulk Modulus (GPa) = 53.20076 57.73652 55.46864
# Shear Modulus (GPa) = 38.00836 13.57622 25.79229
#
# Velocity S-wave (km/s) = 4.18650 2.50208 3.44871
# Velocity P-wave (km/s) = 6.92109 5.91365 6.43711
#
# Compressibility (1/GPa) = 0.01879672
#
# Stress axis : x y z
#
# Youngs Moduli (GPa) = 44.65253 116.87210 107.83010
#
# Poissons Ratio (x) = 0.65820 0.59932
# Poissons Ratio (y) = 0.25148 -0.05128
# Poissons Ratio (z) = 0.24818 -0.05558
#
# Static dielectric constant tensor:
#      x y z
#    x 2.051460 0.000000 0.000000 
#    y 0.000000 1.668270 0.000000 
#    z 0.000000 0.000000 1.800070 
# 
# From -- ./inp_files/19874.got.cif
#   From: 2010.05.17/outbox.cif.g08.bks.cpg/sg37_10_cif.got.tgz:19874.got - 2010.06.03 17:53:42.
