data_PCOD9354014
_publ_section_title
;
Structure prediction by ZEFSAII (Michael W. Deem and Ramdas Pophale) SiO2 
 PCOD9354014
Probable space group: C C C 2
;
_chemical_formula_sum "Si O2"
_cell_formula_units_Z 60
_cell_length_a 24.794972
_cell_length_b 7.851382
_cell_length_c 14.003825
_cell_angle_alpha 90.000000
_cell_angle_beta 90.000000
_cell_angle_gamma 90.000000
_cell_volume 2726.191787
_symmetry_space_group_name_H-M "C C C 2"
_symmetry_group_IT_number 37
_symmetry_cell_setting 'orthorhombic'
loop_
_space_group_symop_operation_xyz
x,y,z
-x,-y,z
-x,y,1/2+z
x,-y,1/2+z
1/2+x,1/2+y,z
1/2-x,1/2-y,z
1/2-x,1/2+y,1/2+z
1/2+x,1/2-y,1/2+z
loop_
_atom_site_type_symbol
_atom_site_label
_atom_site_fract_x
_atom_site_fract_y
_atom_site_fract_z
Si Si1 0.878680 0.386682 0.148570
Si Si2 0.812538 0.918906 0.241368
Si Si3 0.698232 0.616821 0.556761
Si Si4 0.114014 0.892622 0.899597
Si Si5 0.619900 0.004564 0.445955
Si Si6 0.038348 0.660672 0.304793
Si Si7 0.796389 0.525366 0.304188
Si Si8 0.500000 0.500000 0.885158
O O1 0.849843 0.225272 0.103865
O O2 0.933401 0.347198 0.202446
O O3 0.837012 0.444777 0.228895
O O4 0.885463 0.513917 0.059351
O O5 0.870512 0.952239 0.291246
O O6 0.802703 0.724886 0.275992
O O7 0.764591 0.028758 0.288565
O O8 0.799646 0.957424 0.130085
O O9 0.750000 0.750000 0.550148
O O10 0.669343 0.568528 0.457636
O O11 0.105082 0.688320 0.910841
O O12 0.058294 0.976190 0.935539
O O13 0.681453 0.015066 0.409183
O O14 0.583396 0.134828 0.387468
O O15 0.000000 0.500000 0.314208
O O16 0.006447 0.832204 0.322088
#
# Coordination Sequence:
#
# PCOD9354014 Si02
#       8
#     8   8   8   8   8   8   8   4
#     4  10  21  39  63  97 126 169 216 268 336 399
#     4  10  20  36  59  91 125 167 212 262 329 393
#     4  11  22  39  63  97 132 168 219 276 336 413
#     4  10  23  39  65  90 129 178 221 278 337 394
#     4   9  20  40  64  92 126 171 222 264 337 401
#     4  11  23  43  70  95 131 177 227 283 337 399
#     4   9  19  34  60  89 126 168 206 263 329 400
#     4  12  24  46  68  96 134 178 230 284 336 404
#
# _framework density 22.008721999999999
#
# number of rings (size 3 to 8) (size 9 to 14) (size 15 to 20)
#    0.000    1.867    2.667    0.800    5.600    1.600 
#    0.000    6.000    2.933    0.000    0.000    0.000 
#    0.000    0.000    0.000    0.000    0.000    0.000 
#
# Total GULP energy -167098.937927 kJ/mol
# GULP energy per Si atom -5569.964598 kJ/mol
# Density = 2.195863 g / cm^3
# Si number density = 22.008722 Si / 1000 Ang^3
#
#
#
# Elastic Constant Matrix: (Units=GPa)
#
#
# Indices 1 2 3 4 5 6 
#
# 1 69.7487 6.8122 14.5558 0.0000 0.0000 0.0000
# 2 6.8122 49.4734 10.3974 0.0000 0.0000 0.0000
# 3 14.5558 10.3974 98.6524 0.0000 0.0000 0.0000
# 4 0.0000 0.0000 0.0000 17.1135 0.0000 0.0000
# 5 0.0000 0.0000 0.0000 0.0000 28.0703 0.0000
# 6 0.0000 0.0000 0.0000 0.0000 0.0000 19.6177
#
#
#
# Elastic Compliance Matrix: (Units=1/GPa)
#
#
# Indices 1 2 3 4 5 6 
#
# 1 0.014920 -0.001628 -0.002030 0.000000 0.000000 0.000000
# 2 -0.001628 0.020848 -0.001957 0.000000 0.000000 0.000000
# 3 -0.002030 -0.001957 0.010642 0.000000 0.000000 0.000000
# 4 0.000000 0.000000 0.000000 0.058433 0.000000 0.000000
# 5 0.000000 0.000000 0.000000 0.000000 0.035625 0.000000
# 6 0.000000 0.000000 0.000000 0.000000 0.000000 0.050974
#
#
# Mechanical properties :
#
#
# Convention : Reuss Voigt Hill
#
# Bulk Modulus (GPa) = 28.42441 31.26727 29.84584
# Shear Modulus (GPa) = 23.32096 25.36757 24.34426
#
# Velocity S-wave (km/s) = 3.25872 3.39870 3.32944
# Velocity P-wave (km/s) = 5.20597 5.44419 5.32641
#
# Compressibility (1/GPa) = 0.03518103
#
# Stress axis : x y z
#
# Youngs Moduli (GPa) = 67.02523 47.96552 93.96406
#
# Poissons Ratio (x) = 0.07808 0.19073
# Poissons Ratio (y) = 0.10910 0.18390
# Poissons Ratio (z) = 0.13605 0.09387
#
# Static dielectric constant tensor:
#      x y z
#    x 1.862760 0.000000 0.000000 
#    y 0.000000 1.889420 0.000000 
#    z 0.000000 0.000000 1.940320 
# 
# From -- ./inp_files/13127.got.cif
#   From: 2010.05.17/outbox.cif.g08.bks.cpg/sg37_7_cif.got.tgz:13127.got - 2010.06.03 17:53:42.
