data_PCOD9354880
_publ_section_title
;
Structure prediction by ZEFSAII (Michael W. Deem and Ramdas Pophale) SiO2 
 PCOD9354880
Probable space group: C C C 2
;
_chemical_formula_sum "Si O2"
_cell_formula_units_Z 36
_cell_length_a 5.665811
_cell_length_b 13.966585
_cell_length_c 18.998831
_cell_angle_alpha 90.000000
_cell_angle_beta 90.000000
_cell_angle_gamma 90.000000
_cell_volume 1503.416082
_symmetry_space_group_name_H-M "C C C 2"
_symmetry_group_IT_number 37
_symmetry_cell_setting 'orthorhombic'
loop_
_space_group_symop_operation_xyz
x,y,z
-x,-y,z
-x,y,1/2+z
x,-y,1/2+z
1/2+x,1/2+y,z
1/2-x,1/2-y,z
1/2-x,1/2+y,1/2+z
1/2+x,1/2-y,1/2+z
loop_
_atom_site_type_symbol
_atom_site_label
_atom_site_fract_x
_atom_site_fract_y
_atom_site_fract_z
Si Si1 0.107481 0.394691 0.287040
Si Si2 0.748159 0.884637 0.131394
Si Si3 0.750000 0.750000 0.858325
Si Si4 0.243900 0.899381 0.077929
Si Si5 0.367280 0.644647 0.925948
O O1 0.230916 0.367274 0.214330
O O2 0.276736 0.401565 0.354217
O O3 0.000000 0.500000 0.276212
O O4 0.927186 0.310214 0.309295
O O5 0.500111 0.855051 0.094961
O O6 0.001293 0.849478 0.103179
O O7 0.753249 0.998506 0.116335
O O8 0.636275 0.670941 0.910041
O O9 0.205195 0.912480 0.994650
O O10 0.250000 0.750000 0.934216
#
# Coordination Sequence:
#
# PCOD9354880 Si02
#       5
#     8   8   4   8   8
#     4  11  24  45  75 103 145 195 254 309 378 455
#     4  10  23  42  67 107 138 184 242 302 368 450
#     4  10  26  46  66 106 150 190 258 306 382 446
#     4  10  22  42  67  98 144 177 239 299 363 439
#     4  10  25  45  69 101 144 194 246 304 368 449
#
# _framework density 23.945467000000001
#
# number of rings (size 3 to 8) (size 9 to 14) (size 15 to 20)
#    0.000    1.778    2.222    0.000   12.444    2.667 
#    2.000    0.000    0.000    0.000    0.000    0.000 
#    0.000    0.000    0.000    0.000    0.000    0.000 
#
# Total GULP energy -100562.843432 kJ/mol
# GULP energy per Si atom -5586.824635 kJ/mol
# Density = 2.389097 g / cm^3
# Si number density = 23.945467 Si / 1000 Ang^3
#
#
#
# Elastic Constant Matrix: (Units=GPa)
#
#
# Indices 1 2 3 4 5 6 
#
# 1 179.1470 8.1745 69.0345 0.0000 0.0000 0.0000
# 2 8.1745 99.3330 1.3801 0.0000 0.0000 0.0000
# 3 69.0345 1.3801 206.3052 0.0000 0.0000 0.0000
# 4 0.0000 0.0000 0.0000 131.5308 0.0000 0.0000
# 5 0.0000 0.0000 0.0000 0.0000 23.4870 0.0000
# 6 0.0000 0.0000 0.0000 0.0000 0.0000 -20.4249
#
#
#
# Elastic Compliance Matrix: (Units=1/GPa)
#
#
# Indices 1 2 3 4 5 6 
#
# 1 0.006433 -0.000500 -0.002149 0.000000 0.000000 0.000000
# 2 -0.000500 0.010107 0.000100 0.000000 0.000000 0.000000
# 3 -0.002149 0.000100 0.005566 0.000000 0.000000 0.000000
# 4 0.000000 0.000000 0.000000 0.007603 0.000000 0.000000
# 5 0.000000 0.000000 0.000000 0.000000 0.042577 0.000000
# 6 0.000000 0.000000 0.000000 0.000000 0.000000 -0.048960
#
#
# Mechanical properties :
#
#
# Convention : Reuss Voigt Hill
#
# Bulk Modulus (GPa) = 58.79914 71.32926 65.06420
# Shear Modulus (GPa) = 146.65758 53.99831 100.32794
#
# Velocity S-wave (km/s) = 7.83450 4.75389 6.47993
# Velocity P-wave (km/s) = 10.31736 7.74503 9.12232
#
# Compressibility (1/GPa) = 0.01700705
#
# Stress axis : x y z
#
# Youngs Moduli (GPa) = 155.44752 98.94259 179.67099
#
# Poissons Ratio (x) = 0.04943 0.38617
# Poissons Ratio (y) = 0.07765 -0.01789
# Poissons Ratio (z) = 0.33410 -0.00985
#
# Static dielectric constant tensor:
#      x y z
#    x 2.012220 0.000000 0.000000 
#    y 0.000000 1.848290 0.000000 
#    z 0.000000 0.000000 1.845670 
# 
# From -- ./inp_files/15587.got.cif
#   From: 2010.05.17/outbox.cif.g08.bks.cpg/sg37_8_cif.got.tgz:15587.got - 2010.06.03 17:53:42.
