data_PCOD9354993
_publ_section_title
;
Structure prediction by ZEFSAII (Michael W. Deem and Ramdas Pophale) SiO2 
 PCOD9354993
Probable space group: C C C 2
;
_chemical_formula_sum "Si O2"
_cell_formula_units_Z 64
_cell_length_a 15.189736
_cell_length_b 23.664211
_cell_length_c 8.486935
_cell_angle_alpha 90.000000
_cell_angle_beta 90.000000
_cell_angle_gamma 90.000000
_cell_volume 3050.655246
_symmetry_space_group_name_H-M "C C C 2"
_symmetry_group_IT_number 37
_symmetry_cell_setting 'orthorhombic'
loop_
_space_group_symop_operation_xyz
x,y,z
-x,-y,z
-x,y,1/2+z
x,-y,1/2+z
1/2+x,1/2+y,z
1/2-x,1/2-y,z
1/2-x,1/2+y,1/2+z
1/2+x,1/2-y,1/2+z
loop_
_atom_site_type_symbol
_atom_site_label
_atom_site_fract_x
_atom_site_fract_y
_atom_site_fract_z
Si Si1 0.605478 0.890119 0.476020
Si Si2 0.117525 0.895376 0.606501
Si Si3 0.818163 0.023209 0.107497
Si Si4 0.253702 0.816809 0.433546
Si Si5 0.728219 0.314889 0.064352
Si Si6 0.177091 0.500167 0.868719
Si Si7 0.068709 0.882182 0.969205
Si Si8 0.418827 0.888166 0.354642
O O1 0.692999 0.850999 0.482659
O O2 0.514356 0.866836 0.406772
O O3 0.587551 0.899510 0.664828
O O4 0.613378 0.945908 0.362318
O O5 0.145510 0.960365 0.582978
O O6 0.196862 0.854304 0.554898
O O7 0.033838 0.877475 0.502659
O O8 0.087707 0.894968 0.787577
O O9 0.746812 0.026291 0.246450
O O10 0.894449 0.068502 0.086176
O O11 0.750344 0.032674 0.969068
O O12 0.250000 0.750000 0.469266
O O13 0.222396 0.825981 0.252454
O O14 0.351503 0.841384 0.419082
O O15 0.750000 0.250000 0.041492
O O16 0.631902 0.329710 0.002128
O O17 0.117755 0.447874 0.926709
#
# Coordination Sequence:
#
# PCOD9354993 Si02
#       8
#     8   8   8   8   8   8   8   8
#     4  11  24  40  62  96 129 169 213 262 325 384
#     4  12  26  41  66  97 132 171 215 270 324 391
#     4  12  23  40  67  93 128 169 210 260 319 384
#     4  10  23  45  69  92 125 171 221 273 330 381
#     4  10  22  45  69  91 126 171 218 276 327 381
#     4  12  22  40  65  93 128 167 209 258 321 383
#     4  12  26  42  65  99 132 172 215 266 327 387
#     4  11  24  39  63  93 130 168 211 267 321 389
#
# _framework density 20.979099000000001
#
# number of rings (size 3 to 8) (size 9 to 14) (size 15 to 20)
#    0.000    0.750    5.000    2.250    3.500    4.500 
#    0.000    2.500    0.000    0.000    0.000    0.000 
#    0.000    0.000    0.000    0.000    0.000    0.000 
#
# Total GULP energy -178195.075613 kJ/mol
# GULP energy per Si atom -5568.596113 kJ/mol
# Density = 2.093135 g / cm^3
# Si number density = 20.979099 Si / 1000 Ang^3
#
#
#
# Elastic Constant Matrix: (Units=GPa)
#
#
# Indices 1 2 3 4 5 6 
#
# 1 17891.880510330.0594-4420.4560 0.0000 0.0000 0.0000
# 2 10330.0594 6074.4395-2552.2947 0.0000 0.0000 0.0000
# 3 -4420.4560-2552.2947 1154.8776 0.0000 0.0000 0.0000
# 4 0.0000 0.0000 0.0000 20.3139 0.0000 0.0000
# 5 0.0000 0.0000 0.0000 0.0000 38.2830 0.0000
# 6 0.0000 0.0000 0.0000 0.0000 0.0000 -18.2278
#
#
#
# Elastic Compliance Matrix: (Units=1/GPa)
#
#
# Indices 1 2 3 4 5 6 
#
# 1 0.004048 -0.005232 0.003930 0.000000 0.000000 0.000000
# 2 -0.005232 0.009068 0.000014 0.000000 0.000000 0.000000
# 3 0.003930 0.000014 0.015939 0.000000 0.000000 0.000000
# 4 0.000000 0.000000 0.000000 0.049227 0.000000 0.000000
# 5 0.000000 0.000000 0.000000 0.000000 0.026121 0.000000
# 6 0.000000 0.000000 0.000000 0.000000 0.000000 -0.054861
#
#
# Mechanical properties :
#
#
# Convention : Reuss Voigt Hill
#
# Bulk Modulus (GPa) = 37.76545 3537.31277 1787.53911
# Shear Modulus (GPa) = 82.04106 1458.99973 770.52039
#
# Velocity S-wave (km/s) = 6.26027 26.40007 19.18534
# Velocity P-wave (km/s) = 8.38422 51.17673 36.66983
#
# Compressibility (1/GPa) = 0.02647923
#
# Stress axis : x y z
#
# Youngs Moduli (GPa) = 247.05933 110.27433 62.73795
#
# Poissons Ratio (x) = 0.57697 -0.24654
# Poissons Ratio (y) = 1.29264 -0.00090
# Poissons Ratio (z) = -0.97088 -0.00159
#
# Static dielectric constant tensor:
#      x y z
#    x 1.733440 0.000000 0.000000 
#    y 0.000000 1.759570 0.000000 
#    z 0.000000 0.000000 1.706360 
# 
# From -- ./inp_files/3749.got.cif
#   From: 2010.05.17/outbox.cif.g08.bks.cpg/sg37_2_cif.got.tgz:3749.got - 2010.06.03 17:53:42.
