data_PCOD9354948
_publ_section_title
;
Structure prediction by ZEFSAII (Michael W. Deem and Ramdas Pophale) SiO2 
 PCOD9354948
Probable space group: C C C 2
;
_chemical_formula_sum "Si O2"
_cell_formula_units_Z 44
_cell_length_a 6.263952
_cell_length_b 22.332285
_cell_length_c 14.586064
_cell_angle_alpha 90.000000
_cell_angle_beta 90.000000
_cell_angle_gamma 90.000000
_cell_volume 2040.420591
_symmetry_space_group_name_H-M "C C C 2"
_symmetry_group_IT_number 37
_symmetry_cell_setting 'orthorhombic'
loop_
_space_group_symop_operation_xyz
x,y,z
-x,-y,z
-x,y,1/2+z
x,-y,1/2+z
1/2+x,1/2+y,z
1/2-x,1/2-y,z
1/2-x,1/2+y,1/2+z
1/2+x,1/2-y,1/2+z
loop_
_atom_site_type_symbol
_atom_site_label
_atom_site_fract_x
_atom_site_fract_y
_atom_site_fract_z
Si Si1 0.512958 0.805695 0.991010
Si Si2 0.167388 0.089832 0.061624
Si Si3 0.750000 0.250000 0.322606
Si Si4 0.702930 0.598208 0.429267
Si Si5 0.750000 0.250000 0.638786
Si Si6 0.500000 0.000000 0.506679
Si Si7 0.450874 0.349971 0.240065
O O1 0.576087 0.776906 0.893814
O O2 0.295327 0.841516 0.977564
O O3 0.692826 0.854118 0.022904
O O4 0.954317 0.742903 0.071537
O O5 0.331869 0.035441 0.069610
O O6 0.034375 0.106664 0.152416
O O7 0.000437 0.075273 0.983322
O O8 0.645086 0.304835 0.265839
O O9 0.628525 0.614681 0.328190
O O10 0.884806 0.548703 0.442321
O O11 0.735262 0.305903 0.705321
#
# Coordination Sequence:
#
# PCOD9354948 Si02
#       7
#     8   8   4   8   4   4   8
#     4   9  20  38  63  90 140 174 216 260 321 396
#     4  10  22  44  63 100 128 173 221 283 326 398
#     4  11  20  38  57 102 136 178 213 260 323 400
#     4  11  22  43  67  94 126 176 222 280 331 393
#     4   9  20  38  55 100 136 184 213 254 323 394
#     4  10  24  46  72  84 130 170 228 288 346 368
#     4  11  23  37  66  98 138 170 226 259 327 401
#
# _framework density 21.564181999999999
#
# number of rings (size 3 to 8) (size 9 to 14) (size 15 to 20)
#    0.000    1.818    1.818    1.636    2.545    0.727 
#    3.273    3.636    0.000    0.000    0.000    0.000 
#    0.000    0.000    0.000    0.000    0.000    0.000 
#
# Total GULP energy -122789.012151 kJ/mol
# GULP energy per Si atom -5581.318734 kJ/mol
# Density = 2.151510 g / cm^3
# Si number density = 21.564182 Si / 1000 Ang^3
#
#
#
# Elastic Constant Matrix: (Units=GPa)
#
#
# Indices 1 2 3 4 5 6 
#
# 1 57.4947 28.0861 31.9501 0.0000 0.0000 0.0000
# 2 28.0861 91.0863 49.9189 0.0000 0.0000 0.0000
# 3 31.9501 49.9189 146.2576 0.0000 0.0000 0.0000
# 4 0.0000 0.0000 0.0000 7.5477 0.0000 0.0000
# 5 0.0000 0.0000 0.0000 0.0000 19.3852 0.0000
# 6 0.0000 0.0000 0.0000 0.0000 0.0000 45.0327
#
#
#
# Elastic Compliance Matrix: (Units=1/GPa)
#
#
# Indices 1 2 3 4 5 6 
#
# 1 0.021492 -0.004987 -0.002993 0.000000 0.000000 0.000000
# 2 -0.004987 0.014662 -0.003915 0.000000 0.000000 0.000000
# 3 -0.002993 -0.003915 0.008827 0.000000 0.000000 0.000000
# 4 0.000000 0.000000 0.000000 0.132490 0.000000 0.000000
# 5 0.000000 0.000000 0.000000 0.000000 0.051586 0.000000
# 6 0.000000 0.000000 0.000000 0.000000 0.000000 0.022206
#
#
# Mechanical properties :
#
#
# Convention : Reuss Voigt Hill
#
# Bulk Modulus (GPa) = 47.18753 57.19433 52.19093
# Shear Modulus (GPa) = 17.72320 26.71869 22.22094
#
# Velocity S-wave (km/s) = 2.86996 3.52381 3.21355
# Velocity P-wave (km/s) = 5.73690 6.56785 6.16639
#
# Compressibility (1/GPa) = 0.02119204
#
# Stress axis : x y z
#
# Youngs Moduli (GPa) = 46.52865 68.20485 113.28596
#
# Poissons Ratio (x) = 0.34012 0.33906
# Poissons Ratio (y) = 0.23203 0.44349
# Poissons Ratio (z) = 0.13926 0.26701
#
# Static dielectric constant tensor:
#      x y z
#    x 1.812210 0.000000 0.000000 
#    y 0.000000 1.879290 0.000000 
#    z 0.000000 0.000000 1.745710 
# 
# From -- ./inp_files/9722.got.cif
#   From: 2010.05.17/outbox.cif.g08.bks.cpg/sg37_5_cif.got.tgz:9722.got - 2010.06.03 17:53:42.
