data_PCOD9354440
_publ_section_title
;
Structure prediction by ZEFSAII (Michael W. Deem and Ramdas Pophale) SiO2 
 PCOD9354440
Probable space group: C C C 2
;
_chemical_formula_sum "Si O2"
_cell_formula_units_Z 36
_cell_length_a 14.010092
_cell_length_b 5.518800
_cell_length_c 19.721133
_cell_angle_alpha 90.000000
_cell_angle_beta 90.000000
_cell_angle_gamma 90.000000
_cell_volume 1524.816226
_symmetry_space_group_name_H-M "C C C 2"
_symmetry_group_IT_number 37
_symmetry_cell_setting 'orthorhombic'
loop_
_space_group_symop_operation_xyz
x,y,z
-x,-y,z
-x,y,1/2+z
x,-y,1/2+z
1/2+x,1/2+y,z
1/2-x,1/2-y,z
1/2-x,1/2+y,1/2+z
1/2+x,1/2-y,1/2+z
loop_
_atom_site_type_symbol
_atom_site_label
_atom_site_fract_x
_atom_site_fract_y
_atom_site_fract_z
Si Si1 0.250000 0.250000 0.073861
Si Si2 0.856136 0.633105 0.642033
Si Si3 0.133163 0.241997 0.790277
Si Si4 0.137888 0.737707 0.859211
Si Si5 0.897652 0.114360 0.008341
O O1 0.169837 0.357073 0.124874
O O2 0.309476 0.433168 0.026007
O O3 0.750000 0.750000 0.640748
O O4 0.899926 0.710010 0.713074
O O5 0.908895 0.727694 0.575934
O O6 0.250000 0.250000 0.788873
O O7 0.103485 0.479187 0.832106
O O8 0.103044 0.986443 0.823174
O O9 0.250000 0.750000 0.844083
O O10 0.126054 0.745986 0.939822
O O11 0.000000 0.000000 0.995460
#
# Coordination Sequence:
#
# PCOD9354440 Si02
#       5
#     4   8   8   8   8
#     4  10  22  40  70  92 130 174 224 286 338 398
#     4   9  20  38  64  98 125 171 222 276 331 402
#     4   9  20  35  65  96 131 171 226 274 339 399
#     4  10  21  38  64  98 131 177 220 276 337 406
#     4  11  25  42  65  97 136 173 230 276 339 407
#
# _framework density 23.609404000000001
#
# number of rings (size 3 to 8) (size 9 to 14) (size 15 to 20)
#    0.000    2.222    0.000    2.000   18.667    0.889 
#    0.000    1.111    4.889    0.000    0.000    0.000 
#    0.000    0.000    0.000    0.000    0.000    0.000 
#
# Total GULP energy -100526.225496 kJ/mol
# GULP energy per Si atom -5584.790305 kJ/mol
# Density = 2.355567 g / cm^3
# Si number density = 23.609404 Si / 1000 Ang^3
#
#
#
# Elastic Constant Matrix: (Units=GPa)
#
#
# Indices 1 2 3 4 5 6 
#
# 1 78.3080 9.9069 1.7423 0.0000 0.0000 0.0000
# 2 9.9069 134.2555 96.3223 0.0000 0.0000 0.0000
# 3 1.7423 96.3223 185.6349 0.0000 0.0000 0.0000
# 4 0.0000 0.0000 0.0000 3.8535 0.0000 0.0000
# 5 0.0000 0.0000 0.0000 0.0000 -33.1985 0.0000
# 6 0.0000 0.0000 0.0000 0.0000 0.0000 -18.3622
#
#
#
# Elastic Compliance Matrix: (Units=1/GPa)
#
#
# Indices 1 2 3 4 5 6 
#
# 1 0.012932 -0.001381 0.000595 0.000000 0.000000 0.000000
# 2 -0.001381 0.012013 -0.006221 0.000000 0.000000 0.000000
# 3 0.000595 -0.006221 0.008609 0.000000 0.000000 0.000000
# 4 0.000000 0.000000 0.000000 0.259505 0.000000 0.000000
# 5 0.000000 0.000000 0.000000 0.000000 -0.030122 0.000000
# 6 0.000000 0.000000 0.000000 0.000000 0.000000 -0.054460
#
#
# Mechanical properties :
#
#
# Convention : Reuss Voigt Hill
#
# Bulk Modulus (GPa) = 51.17459 68.23793 59.70626
# Shear Modulus (GPa) = 21.83370 9.80703 15.82037
#
# Velocity S-wave (km/s) = 3.04433 2.04031 2.59141
# Velocity P-wave (km/s) = 5.83779 5.87504 5.85645
#
# Compressibility (1/GPa) = 0.01954095
#
# Stress axis : x y z
#
# Youngs Moduli (GPa) = 77.32988 83.24051 116.15692
#
# Poissons Ratio (x) = 0.11499 -0.06916
# Poissons Ratio (y) = 0.10683 0.72256
# Poissons Ratio (z) = -0.04604 0.51780
#
# Static dielectric constant tensor:
#      x y z
#    x 2.018240 0.000000 0.000000 
#    y 0.000000 2.036120 0.000000 
#    z 0.000000 0.000000 1.854770 
# 
# From -- ./inp_files/15573.got.cif
#   From: 2010.05.17/outbox.cif.g08.bks.cpg/sg37_8_cif.got.tgz:15573.got - 2010.06.03 17:53:42.
