data_PCOD9354427
_publ_section_title
;
Structure prediction by ZEFSAII (Michael W. Deem and Ramdas Pophale) SiO2 
 PCOD9354427
Probable space group: C C C 2
;
_chemical_formula_sum "Si O2"
_cell_formula_units_Z 32
_cell_length_a 5.010071
_cell_length_b 13.752046
_cell_length_c 21.176873
_cell_angle_alpha 90.000000
_cell_angle_beta 90.000000
_cell_angle_gamma 90.000000
_cell_volume 1459.059588
_symmetry_space_group_name_H-M "C C C 2"
_symmetry_group_IT_number 37
_symmetry_cell_setting 'orthorhombic'
loop_
_space_group_symop_operation_xyz
x,y,z
-x,-y,z
-x,y,1/2+z
x,-y,1/2+z
1/2+x,1/2+y,z
1/2-x,1/2-y,z
1/2-x,1/2+y,1/2+z
1/2+x,1/2-y,1/2+z
loop_
_atom_site_type_symbol
_atom_site_label
_atom_site_fract_x
_atom_site_fract_y
_atom_site_fract_z
Si Si1 0.733436 0.366570 0.388350
Si Si2 0.000000 0.500000 0.690313
Si Si3 0.500000 0.500000 0.781649
Si Si4 0.766246 0.633566 0.461243
Si Si5 0.492528 0.177673 0.592954
O O1 0.750000 0.250000 0.381620
O O2 0.596668 0.413579 0.327749
O O3 0.537007 0.394770 0.446632
O O4 0.031537 0.398584 0.406441
O O5 0.251673 0.515072 0.735751
O O6 0.993909 0.404251 0.646291
O O7 0.750000 0.750000 0.456694
O O8 0.904503 0.621021 0.528811
O O9 0.250000 0.250000 0.608125
O O10 0.750000 0.250000 0.584601
#
# Coordination Sequence:
#
# PCOD9354427 Si02
#       5
#     8   4   4   8   8
#     4  10  21  38  62  90 124 160 199 259 320 370
#     4  12  28  44  62  94 128 174 230 256 298 384
#     4  12  26  42  60  90 130 172 222 258 296 378
#     4   9  18  37  64  95 121 152 202 256 325 388
#     4  11  23  43  69  95 129 166 207 270 327 374
#
# _framework density 21.931936
#
# number of rings (size 3 to 8) (size 9 to 14) (size 15 to 20)
#    0.000    1.500    0.000    6.750    0.000    5.000 
#    0.000    0.000    0.000    0.000    0.000    0.000 
#    0.000    0.000    0.000    0.000    0.000    0.000 
#
# Total GULP energy -89310.705729 kJ/mol
# GULP energy per Si atom -5581.919108 kJ/mol
# Density = 2.188202 g / cm^3
# Si number density = 21.931936 Si / 1000 Ang^3
#
#
#
# Elastic Constant Matrix: (Units=GPa)
#
#
# Indices 1 2 3 4 5 6 
#
# 1 149.5290 8.3598 68.0987 0.0000 0.0000 0.0000
# 2 8.3598 115.4843 51.5115 0.0000 0.0000 0.0000
# 3 68.0987 51.5115 153.0461 0.0000 0.0000 0.0000
# 4 0.0000 0.0000 0.0000 48.8707 0.0000 0.0000
# 5 0.0000 0.0000 0.0000 0.0000 107.1597 0.0000
# 6 0.0000 0.0000 0.0000 0.0000 0.0000 14.7718
#
#
#
# Elastic Compliance Matrix: (Units=1/GPa)
#
#
# Indices 1 2 3 4 5 6 
#
# 1 0.008542 0.001267 -0.004227 0.000000 0.000000 0.000000
# 2 0.001267 0.010377 -0.004056 0.000000 0.000000 0.000000
# 3 -0.004227 -0.004056 0.009780 0.000000 0.000000 0.000000
# 4 0.000000 0.000000 0.000000 0.020462 0.000000 0.000000
# 5 0.000000 0.000000 0.000000 0.000000 0.009332 0.000000
# 6 0.000000 0.000000 0.000000 0.000000 0.000000 0.067697
#
#
# Mechanical properties :
#
#
# Convention : Reuss Voigt Hill
#
# Bulk Modulus (GPa) = 68.18483 74.88884 71.53683
# Shear Modulus (GPa) = 34.45624 53.49972 43.97798
#
# Velocity S-wave (km/s) = 3.96795 4.94434 4.48281
# Velocity P-wave (km/s) = 7.22147 8.17407 7.71249
#
# Compressibility (1/GPa) = 0.01466602
#
# Stress axis : x y z
#
# Youngs Moduli (GPa) = 117.06800 96.36864 102.24677
#
# Poissons Ratio (x) = -0.12212 0.43223
# Poissons Ratio (y) = -0.14835 0.41476
# Poissons Ratio (z) = 0.49489 0.39091
#
# Static dielectric constant tensor:
#      x y z
#    x 1.798450 0.000000 0.000000 
#    y 0.000000 1.811760 0.000000 
#    z 0.000000 0.000000 1.825500 
# 
# From -- ./inp_files/13657.got.cif
#   From: 2010.05.17/outbox.cif.g08.bks.cpg/sg37_7_cif.got.tgz:13657.got - 2010.06.03 17:53:42.
