data_PCOD9354450
_publ_section_title
;
Structure prediction by ZEFSAII (Michael W. Deem and Ramdas Pophale) SiO2 
 PCOD9354450
Probable space group: C C C 2
;
_chemical_formula_sum "Si O2"
_cell_formula_units_Z 56
_cell_length_a 33.788745
_cell_length_b 5.044890
_cell_length_c 14.240457
_cell_angle_alpha 90.000000
_cell_angle_beta 90.000000
_cell_angle_gamma 90.000000
_cell_volume 2427.435446
_symmetry_space_group_name_H-M "C C C 2"
_symmetry_group_IT_number 37
_symmetry_cell_setting 'orthorhombic'
loop_
_space_group_symop_operation_xyz
x,y,z
-x,-y,z
-x,y,1/2+z
x,-y,1/2+z
1/2+x,1/2+y,z
1/2-x,1/2-y,z
1/2-x,1/2+y,1/2+z
1/2+x,1/2-y,1/2+z
loop_
_atom_site_type_symbol
_atom_site_label
_atom_site_fract_x
_atom_site_fract_y
_atom_site_fract_z
Si Si1 0.971922 0.756014 0.694990
Si Si2 0.088910 0.650378 0.036643
Si Si3 0.874764 0.316017 0.697560
Si Si4 0.224068 0.990760 0.069319
Si Si5 0.421246 0.922227 0.358482
Si Si6 0.649624 0.446809 0.437732
Si Si7 0.673038 0.670260 0.736733
O O1 0.938744 0.781990 0.614464
O O2 0.950543 0.748662 0.796178
O O3 0.000000 0.500000 0.683764
O O4 0.000000 0.000000 0.688608
O O5 0.109303 0.417216 0.098002
O O6 0.061384 0.549726 0.951766
O O7 0.122670 0.818529 0.982023
O O8 0.905827 0.365966 0.781270
O O9 0.862195 0.013011 0.694897
O O10 0.839674 0.523039 0.725921
O O11 0.250000 0.250000 0.079044
O O12 0.209605 0.885859 0.170136
O O13 0.250000 0.750000 0.025358
O O14 0.184642 0.079863 0.013292
O O15 0.383417 0.763616 0.400910
O O16 0.675181 0.452209 0.340738
#
# Coordination Sequence:
#
# PCOD9354450 Si02
#       7
#     8   8   8   8   8   8   8
#     4  11  29  51  71 109 159 192 234 304 377 446
#     4  11  23  43  76 104 137 190 245 297 356 428
#     4  10  21  38  69 101 134 171 232 296 341 411
#     4  12  28  45  68 102 147 191 230 305 377 424
#     4  10  24  43  75 108 139 191 247 300 355 425
#     4  11  25  44  77 105 137 185 260 295 346 445
#     4  11  22  42  67  97 138 177 227 290 354 423
#
# _framework density 23.069617000000001
#
# number of rings (size 3 to 8) (size 9 to 14) (size 15 to 20)
#    0.000    1.143    2.857    1.714    6.000    4.000 
#    0.000    0.000    0.000    0.000    0.000    0.000 
#    0.000    0.000    0.000    0.000    0.000    0.000 
#
# Total GULP energy -156364.312683 kJ/mol
# GULP energy per Si atom -5584.439739 kJ/mol
# Density = 2.301711 g / cm^3
# Si number density = 23.069617 Si / 1000 Ang^3
#
#
#
# Elastic Constant Matrix: (Units=GPa)
#
#
# Indices 1 2 3 4 5 6 
#
# 1 75.5901 24.6266 22.8264 0.0000 0.0000 0.0000
# 2 24.6266 74.5819 -5.4670 0.0000 0.0000 0.0000
# 3 22.8264 -5.4670 162.9562 0.0000 0.0000 0.0000
# 4 0.0000 0.0000 0.0000 24.0003 0.0000 0.0000
# 5 0.0000 0.0000 0.0000 0.0000 17.2285 0.0000
# 6 0.0000 0.0000 0.0000 0.0000 0.0000 39.1737
#
#
#
# Elastic Compliance Matrix: (Units=1/GPa)
#
#
# Indices 1 2 3 4 5 6 
#
# 1 0.015692 -0.005356 -0.002378 0.000000 0.000000 0.000000
# 2 -0.005356 0.015269 0.001262 0.000000 0.000000 0.000000
# 3 -0.002378 0.001262 0.006512 0.000000 0.000000 0.000000
# 4 0.000000 0.000000 0.000000 0.041666 0.000000 0.000000
# 5 0.000000 0.000000 0.000000 0.000000 0.058043 0.000000
# 6 0.000000 0.000000 0.000000 0.000000 0.000000 0.025527
#
#
# Mechanical properties :
#
#
# Convention : Reuss Voigt Hill
#
# Bulk Modulus (GPa) = 40.76455 44.12223 42.44339
# Shear Modulus (GPa) = 27.19915 34.15664 30.67789
#
# Velocity S-wave (km/s) = 3.43739 3.85202 3.65059
# Velocity P-wave (km/s) = 5.78470 6.24109 6.01723
#
# Compressibility (1/GPa) = 0.02453112
#
# Stress axis : x y z
#
# Youngs Moduli (GPa) = 63.72614 65.49187 153.56150
#
# Poissons Ratio (x) = 0.35076 0.36514
# Poissons Ratio (y) = 0.34130 -0.19387
# Poissons Ratio (z) = 0.15153 -0.08268
#
# Static dielectric constant tensor:
#      x y z
#    x 1.869240 0.000000 0.000000 
#    y 0.000000 1.886290 0.000000 
#    z 0.000000 0.000000 1.942140 
# 
# From -- ./inp_files/13371.got.cif
#   From: 2010.05.17/outbox.cif.g08.bks.cpg/sg37_7_cif.got.tgz:13371.got - 2010.06.03 17:53:42.
