data_PCOD9354515
_publ_section_title
;
Structure prediction by ZEFSAII (Michael W. Deem and Ramdas Pophale) SiO2 
 PCOD9354515
Probable space group: C C C 2
;
_chemical_formula_sum "Si O2"
_cell_formula_units_Z 64
_cell_length_a 13.702570
_cell_length_b 8.647793
_cell_length_c 28.322775
_cell_angle_alpha 90.000000
_cell_angle_beta 90.000000
_cell_angle_gamma 90.000000
_cell_volume 3356.163556
_symmetry_space_group_name_H-M "C C C 2"
_symmetry_group_IT_number 37
_symmetry_cell_setting 'orthorhombic'
loop_
_space_group_symop_operation_xyz
x,y,z
-x,-y,z
-x,y,1/2+z
x,-y,1/2+z
1/2+x,1/2+y,z
1/2-x,1/2-y,z
1/2-x,1/2+y,1/2+z
1/2+x,1/2-y,1/2+z
loop_
_atom_site_type_symbol
_atom_site_label
_atom_site_fract_x
_atom_site_fract_y
_atom_site_fract_z
Si Si1 0.574672 0.123996 0.441400
Si Si2 0.601098 0.598468 0.869843
Si Si3 0.778471 0.928766 0.179073
Si Si4 0.141122 0.174185 0.611332
Si Si5 0.736004 0.581177 0.439551
Si Si6 0.083921 0.375622 0.694563
Si Si7 0.603705 0.415973 0.261076
Si Si8 0.057390 0.841207 0.007421
O O1 0.591421 0.243571 0.399149
O O2 0.513863 0.212837 0.483194
O O3 0.500000 0.000000 0.421830
O O4 0.671608 0.024635 0.455546
O O5 0.500000 0.500000 0.873001
O O6 0.682671 0.513202 0.899532
O O7 0.631850 0.609016 0.815412
O O8 0.750000 0.750000 0.173116
O O9 0.839356 0.006353 0.135746
O O10 0.680362 0.027123 0.184245
O O11 0.832945 0.970892 0.227903
O O12 0.250000 0.250000 0.607230
O O13 0.074438 0.269257 0.648128
O O14 0.087621 0.182398 0.561456
O O15 0.750000 0.750000 0.417515
O O16 0.659354 0.626976 0.480509
O O17 0.098404 0.251215 0.736021
O O18 0.000000 0.500000 0.703005
O O19 0.500000 0.500000 0.261901
O O20 0.000000 0.000000 0.002749
#
# Coordination Sequence:
#
# PCOD9354515 Si02
#       8
#     8   8   8   8   8   8   8   8
#     4  12  24  41  65  90 123 172 210 271 325 381
#     4  11  22  43  64  93 128 164 220 262 324 389
#     4  10  21  41  64  93 131 164 212 256 317 382
#     4   9  22  42  62  90 125 169 207 265 319 378
#     4  12  23  42  65  87 128 166 211 269 323 377
#     4  10  21  40  64  91 130 165 206 260 314 373
#     4  10  22  38  66  93 127 168 206 264 314 379
#     4  12  24  43  63  92 129 163 219 267 321 392
#
# _framework density 19.069393000000002
#
# number of rings (size 3 to 8) (size 9 to 14) (size 15 to 20)
#    0.000    1.250    3.750    2.625    0.000    6.500 
#    4.500    0.000    0.000    0.000    0.000    0.000 
#    0.000    0.000    0.000    0.000    0.000    0.000 
#
# Total GULP energy -178373.476521 kJ/mol
# GULP energy per Si atom -5574.171141 kJ/mol
# Density = 1.902599 g / cm^3
# Si number density = 19.069393 Si / 1000 Ang^3
#
#
#
# Elastic Constant Matrix: (Units=GPa)
#
#
# Indices 1 2 3 4 5 6 
#
# 1 71.7373 39.8195 37.2376 0.0000 0.0000 0.0000
# 2 39.8195 161.5331 65.4676 0.0000 0.0000 0.0000
# 3 37.2376 65.4676 135.8105 0.0000 0.0000 0.0000
# 4 0.0000 0.0000 0.0000 23.8687 0.0000 0.0000
# 5 0.0000 0.0000 0.0000 0.0000 28.8735 0.0000
# 6 0.0000 0.0000 0.0000 0.0000 0.0000 43.8646
#
#
#
# Elastic Compliance Matrix: (Units=1/GPa)
#
#
# Indices 1 2 3 4 5 6 
#
# 1 0.017287 -0.002909 -0.003338 0.000000 0.000000 0.000000
# 2 -0.002909 0.008183 -0.003147 0.000000 0.000000 0.000000
# 3 -0.003338 -0.003147 0.009795 0.000000 0.000000 0.000000
# 4 0.000000 0.000000 0.000000 0.041896 0.000000 0.000000
# 5 0.000000 0.000000 0.000000 0.000000 0.034634 0.000000
# 6 0.000000 0.000000 0.000000 0.000000 0.000000 0.022797
#
#
# Mechanical properties :
#
#
# Convention : Reuss Voigt Hill
#
# Bulk Modulus (GPa) = 60.68562 72.68115 66.68339
# Shear Modulus (GPa) = 31.47176 34.42511 32.94843
#
# Velocity S-wave (km/s) = 4.06690 4.25344 4.16121
# Velocity P-wave (km/s) = 7.34476 7.89424 7.62445
#
# Compressibility (1/GPa) = 0.01647837
#
# Stress axis : x y z
#
# Youngs Moduli (GPa) = 57.84761 122.20130 102.08785
#
# Poissons Ratio (x) = 0.35544 0.34074
# Poissons Ratio (y) = 0.16826 0.32129
# Poissons Ratio (z) = 0.19308 0.38459
#
# Static dielectric constant tensor:
#      x y z
#    x 1.664670 0.000000 0.000000 
#    y 0.000000 1.500470 0.000000 
#    z 0.000000 0.000000 1.682500 
# 
# From -- ./inp_files/20482.got.cif
#   From: 2010.05.17/outbox.cif.g08.bks.cpg/sg37_11_cif.got.tgz:20482.got - 2010.06.03 17:53:42.
