data_PCOD9354396
_publ_section_title
;
Structure prediction by ZEFSAII (Michael W. Deem and Ramdas Pophale) SiO2 
 PCOD9354396
Probable space group: C C C 2
;
_chemical_formula_sum "Si O2"
_cell_formula_units_Z 48
_cell_length_a 11.995345
_cell_length_b 7.657577
_cell_length_c 24.874181
_cell_angle_alpha 90.000000
_cell_angle_beta 90.000000
_cell_angle_gamma 90.000000
_cell_volume 2284.824810
_symmetry_space_group_name_H-M "C C C 2"
_symmetry_group_IT_number 37
_symmetry_cell_setting 'orthorhombic'
loop_
_space_group_symop_operation_xyz
x,y,z
-x,-y,z
-x,y,1/2+z
x,-y,1/2+z
1/2+x,1/2+y,z
1/2-x,1/2-y,z
1/2-x,1/2+y,1/2+z
1/2+x,1/2-y,1/2+z
loop_
_atom_site_type_symbol
_atom_site_label
_atom_site_fract_x
_atom_site_fract_y
_atom_site_fract_z
Si Si1 0.628974 0.834684 0.139670
Si Si2 0.161696 0.904308 0.377354
Si Si3 0.872192 0.170991 0.261432
Si Si4 0.000000 0.500000 0.053166
Si Si5 0.000000 0.500000 0.234989
Si Si6 0.000000 0.000000 0.166637
Si Si7 0.007958 0.809133 0.974117
Si Si8 0.250000 0.250000 0.429094
O O1 0.750000 0.750000 0.137208
O O2 0.597012 0.925203 0.196076
O O3 0.543559 0.669298 0.134884
O O4 0.602974 0.982788 0.095190
O O5 0.250000 0.750000 0.375152
O O6 0.120459 0.934297 0.316838
O O7 0.066587 0.841648 0.420049
O O8 0.229266 0.074584 0.395758
O O9 0.750000 0.250000 0.254950
O O10 0.954158 0.336596 0.267277
O O11 0.905080 0.064698 0.208378
O O12 0.970364 0.659783 0.014099
O O13 0.134445 0.750018 0.961685
O O14 0.000000 0.000000 0.000759
#
# Coordination Sequence:
#
# PCOD9354396 Si02
#       8
#     8   8   8   4   4   4   8   4
#     4  10  22  41  63  90 121 162 208 263 318 371
#     4  10  22  39  61  92 128 165 205 256 308 372
#     4  10  21  37  60  93 122 166 208 251 312 374
#     4  11  24  41  64  92 118 161 208 257 318 376
#     4   9  20  39  58  86 126 159 208 259 312 372
#     4  10  22  40  64  88 128 162 206 264 306 370
#     4  10  23  41  62  90 128 159 209 257 309 380
#     4  10  22  40  62  90 126 168 206 256 310 366
#
# _framework density 21.008175000000001
#
# number of rings (size 3 to 8) (size 9 to 14) (size 15 to 20)
#    0.000    2.000    0.000    2.000    4.667    6.667 
#    7.500    0.000    0.000    0.000    0.000    0.000 
#    0.000    0.000    0.000    0.000    0.000    0.000 
#
# Total GULP energy -133783.391525 kJ/mol
# GULP energy per Si atom -5574.307980 kJ/mol
# Density = 2.096036 g / cm^3
# Si number density = 21.008175 Si / 1000 Ang^3
#
#
#
# Elastic Constant Matrix: (Units=GPa)
#
#
# Indices 1 2 3 4 5 6 
#
# 1 106.4065 9.6465 23.7060 0.0000 0.0000 0.0000
# 2 9.6465 67.9218 15.9926 0.0000 0.0000 0.0000
# 3 23.7060 15.9926 52.4561 0.0000 0.0000 0.0000
# 4 0.0000 0.0000 0.0000 18.0867 0.0000 0.0000
# 5 0.0000 0.0000 0.0000 0.0000 -3.8960 0.0000
# 6 0.0000 0.0000 0.0000 0.0000 0.0000 47.6525
#
#
#
# Elastic Compliance Matrix: (Units=1/GPa)
#
#
# Indices 1 2 3 4 5 6 
#
# 1 0.010460 -0.000401 -0.004605 0.000000 0.000000 0.000000
# 2 -0.000401 0.015877 -0.004659 0.000000 0.000000 0.000000
# 3 -0.004605 -0.004659 0.022565 0.000000 0.000000 0.000000
# 4 0.000000 0.000000 0.000000 0.055289 0.000000 0.000000
# 5 0.000000 0.000000 0.000000 0.000000 -0.256672 0.000000
# 6 0.000000 0.000000 0.000000 0.000000 0.000000 0.020985
#
#
# Mechanical properties :
#
#
# Convention : Reuss Voigt Hill
#
# Bulk Modulus (GPa) = 33.81630 36.16382 34.99006
# Shear Modulus (GPa) = -48.87233 24.19792 -12.33720
#
# Velocity S-wave (km/s) = -4.82846 3.39755 -2.42597
# Velocity P-wave (km/s) = 3.86699 5.71338 2.97397
#
# Compressibility (1/GPa) = 0.02957154
#
# Stress axis : x y z
#
# Youngs Moduli (GPa) = 95.60050 62.98488 44.31641
#
# Poissons Ratio (x) = 0.02528 0.20407
# Poissons Ratio (y) = 0.03837 0.20647
# Poissons Ratio (z) = 0.44022 0.29345
#
# Static dielectric constant tensor:
#      x y z
#    x 1.821780 0.000000 0.000000 
#    y 0.000000 1.830890 0.000000 
#    z 0.000000 0.000000 1.785580 
# 
# From -- ./inp_files/18682.got.cif
#   From: 2010.05.17/outbox.cif.g08.bks.cpg/sg37_10_cif.got.tgz:18682.got - 2010.06.03 17:53:42.
