data_PCOD9354700
_publ_section_title
;
Structure prediction by ZEFSAII (Michael W. Deem and Ramdas Pophale) SiO2 
 PCOD9354700
Probable space group: C C C 2
;
_chemical_formula_sum "Si O2"
_cell_formula_units_Z 48
_cell_length_a 20.034567
_cell_length_b 7.597421
_cell_length_c 14.039102
_cell_angle_alpha 90.000000
_cell_angle_beta 90.000000
_cell_angle_gamma 90.000000
_cell_volume 2136.906317
_symmetry_space_group_name_H-M "C C C 2"
_symmetry_group_IT_number 37
_symmetry_cell_setting 'orthorhombic'
loop_
_space_group_symop_operation_xyz
x,y,z
-x,-y,z
-x,y,1/2+z
x,-y,1/2+z
1/2+x,1/2+y,z
1/2-x,1/2-y,z
1/2-x,1/2+y,1/2+z
1/2+x,1/2-y,1/2+z
loop_
_atom_site_type_symbol
_atom_site_label
_atom_site_fract_x
_atom_site_fract_y
_atom_site_fract_z
Si Si1 0.890274 0.054517 0.156600
Si Si2 0.000000 0.000000 0.501062
Si Si3 0.869658 0.534996 0.602076
Si Si4 0.559499 0.292265 0.336028
Si Si5 0.693959 0.885606 0.918490
Si Si6 0.000000 0.500000 0.198710
Si Si7 0.250156 0.533922 0.229289
O O1 0.879164 0.258529 0.124909
O O2 0.925167 0.052122 0.260458
O O3 0.817742 0.975354 0.178199
O O4 0.936923 0.989484 0.071875
O O5 0.014445 0.842490 0.426256
O O6 0.841853 0.500748 0.497934
O O7 0.813118 0.466724 0.672642
O O8 0.939275 0.446526 0.630211
O O9 0.632469 0.219892 0.368466
O O10 0.523937 0.150648 0.269607
O O11 0.750000 0.750000 0.957041
O O12 0.734835 0.998046 0.840025
O O13 0.250000 0.750000 0.224371
#
# Coordination Sequence:
#
# PCOD9354700 Si02
#       7
#     8   4   8   8   8   4   8
#     4  10  22  44  64  90 134 176 215 271 337 390
#     4  12  28  38  66 100 132 180 220 268 332 410
#     4  10  22  37  66  95 123 169 225 268 323 400
#     4  11  24  43  63  94 131 174 214 276 328 392
#     4  11  21  39  66  93 120 168 223 270 325 389
#     4  10  22  42  68  92 140 170 216 282 328 382
#     4   9  17  40  61  83 119 167 206 263 329 373
#
# _framework density 22.462378999999999
#
# number of rings (size 3 to 8) (size 9 to 14) (size 15 to 20)
#    0.000    1.667    6.667    0.500    9.333    0.000 
#    0.000    0.000    0.000    3.000    0.000    0.000 
#    0.000    0.000    0.000    0.000    0.000    0.000 
#
# Total GULP energy -133929.394806 kJ/mol
# GULP energy per Si atom -5580.391450 kJ/mol
# Density = 2.241125 g / cm^3
# Si number density = 22.462379 Si / 1000 Ang^3
#
#
#
# Elastic Constant Matrix: (Units=GPa)
#
#
# Indices 1 2 3 4 5 6 
#
# 1 175.1951 21.7229 74.7467 0.0000 0.0000 0.0000
# 2 21.7229 30.4315 25.0374 0.0000 0.0000 0.0000
# 3 74.7467 25.0374 160.2619 0.0000 0.0000 0.0000
# 4 0.0000 0.0000 0.0000 -5.3470 0.0000 0.0000
# 5 0.0000 0.0000 0.0000 0.0000 7.2481 0.0000
# 6 0.0000 0.0000 0.0000 0.0000 0.0000 10.6394
#
#
#
# Elastic Compliance Matrix: (Units=1/GPa)
#
#
# Indices 1 2 3 4 5 6 
#
# 1 0.007325 -0.002774 -0.002983 0.000000 0.000000 0.000000
# 2 -0.002774 0.038758 -0.004761 0.000000 0.000000 0.000000
# 3 -0.002983 -0.004761 0.008375 0.000000 0.000000 0.000000
# 4 0.000000 0.000000 0.000000 -0.187019 0.000000 0.000000
# 5 0.000000 0.000000 0.000000 0.000000 0.137967 0.000000
# 6 0.000000 0.000000 0.000000 0.000000 0.000000 0.093991
#
#
# Mechanical properties :
#
#
# Convention : Reuss Voigt Hill
#
# Bulk Modulus (GPa) = 29.92124 67.65582 48.78853
# Shear Modulus (GPa) = 38.00180 18.80018 28.40099
#
# Velocity S-wave (km/s) = 4.11761 2.89617 3.55967
# Velocity P-wave (km/s) = 5.99632 6.43185 6.21790
#
# Compressibility (1/GPa) = 0.03342107
#
# Stress axis : x y z
#
# Youngs Moduli (GPa) = 136.52784 25.80086 119.40631
#
# Poissons Ratio (x) = 0.07158 0.35616
# Poissons Ratio (y) = 0.37879 0.56851
# Poissons Ratio (z) = 0.40723 0.12284
#
# Static dielectric constant tensor:
#      x y z
#    x 1.893950 0.000000 0.000000 
#    y 0.000000 1.888720 0.000000 
#    z 0.000000 0.000000 1.840210 
# 
# From -- ./inp_files/7222.got.cif
#   From: 2010.05.17/outbox.cif.g08.bks.cpg/sg37_4_cif.got.tgz:7222.got - 2010.06.03 17:53:42.
