data_PCOD9354004
_publ_section_title
;
Structure prediction by ZEFSAII (Michael W. Deem and Ramdas Pophale) SiO2 
 PCOD9354004
Probable space group: C C C 2
;
_chemical_formula_sum "Si O2"
_cell_formula_units_Z 60
_cell_length_a 22.713228
_cell_length_b 12.323735
_cell_length_c 8.508863
_cell_angle_alpha 90.000000
_cell_angle_beta 90.000000
_cell_angle_gamma 90.000000
_cell_volume 2381.731183
_symmetry_space_group_name_H-M "C C C 2"
_symmetry_group_IT_number 37
_symmetry_cell_setting 'orthorhombic'
loop_
_space_group_symop_operation_xyz
x,y,z
-x,-y,z
-x,y,1/2+z
x,-y,1/2+z
1/2+x,1/2+y,z
1/2-x,1/2-y,z
1/2-x,1/2+y,1/2+z
1/2+x,1/2-y,1/2+z
loop_
_atom_site_type_symbol
_atom_site_label
_atom_site_fract_x
_atom_site_fract_y
_atom_site_fract_z
Si Si1 0.703015 0.839503 0.587950
Si Si2 0.447063 0.079585 0.450972
Si Si3 0.000000 0.000000 0.946341
Si Si4 0.884103 0.815160 0.714587
Si Si5 0.407436 0.440404 0.197443
Si Si6 0.175402 0.551133 0.784940
Si Si7 0.873144 0.267853 0.561543
Si Si8 0.501199 0.206063 0.690616
O O1 0.750000 0.750000 0.637451
O O2 0.644938 0.762755 0.584759
O O3 0.715646 0.891605 0.417192
O O4 0.696032 0.938155 0.710594
O O5 0.385243 0.037611 0.386607
O O6 0.457322 0.109881 0.632143
O O7 0.464477 0.185252 0.351387
O O8 0.500000 0.000000 0.414642
O O9 0.952046 0.064245 0.843203
O O10 0.046080 0.064256 0.053636
O O11 0.954661 0.802476 0.704362
O O12 0.874307 0.943934 0.699101
O O13 0.862259 0.767654 0.882213
O O14 0.365700 0.338582 0.171074
O O15 0.161884 0.633543 0.640962
O O16 0.942783 0.296360 0.574292
#
# Coordination Sequence:
#
# PCOD9354004 Si02
#       8
#     8   8   4   8   8   8   8   8
#     4  12  29  57  85 111 144 191 258 332 404 463
#     4  11  22  35  64 106 155 196 243 285 369 459
#     4  10  20  36  56  98 162 216 262 294 356 428
#     4  12  24  44  69 106 153 200 260 314 378 449
#     4  11  23  36  63  99 150 217 261 307 355 439
#     4  11  27  50  81 113 153 194 250 321 394 461
#     4  11  25  43  70 109 159 205 251 306 382 470
#     4  11  21  35  60 104 154 203 238 291 357 460
#
# _framework density 25.191759000000001
#
# number of rings (size 3 to 8) (size 9 to 14) (size 15 to 20)
#    0.000    0.800    4.000    3.600    5.600    0.000 
#    4.800    1.333    0.000    0.000    0.000    0.000 
#    0.000    0.000    0.000    0.000    0.000    0.000 
#
# Total GULP energy -167702.803928 kJ/mol
# GULP energy per Si atom -5590.093464 kJ/mol
# Density = 2.513442 g / cm^3
# Si number density = 25.191759 Si / 1000 Ang^3
#
#
#
# Elastic Constant Matrix: (Units=GPa)
#
#
# Indices 1 2 3 4 5 6 
#
# 1 33.8542 41.0344 10.3227 0.0000 0.0000 0.0000
# 2 41.0344 191.6177 55.1407 0.0000 0.0000 0.0000
# 3 10.3227 55.1407 112.2725 0.0000 0.0000 0.0000
# 4 0.0000 0.0000 0.0000 26.4173 0.0000 0.0000
# 5 0.0000 0.0000 0.0000 0.0000 17.3260 0.0000
# 6 0.0000 0.0000 0.0000 0.0000 0.0000 48.2935
#
#
#
# Elastic Compliance Matrix: (Units=1/GPa)
#
#
# Indices 1 2 3 4 5 6 
#
# 1 0.039930 -0.008728 0.000615 0.000000 0.000000 0.000000
# 2 -0.008728 0.007985 -0.003119 0.000000 0.000000 0.000000
# 3 0.000615 -0.003119 0.010382 0.000000 0.000000 0.000000
# 4 0.000000 0.000000 0.000000 0.037854 0.000000 0.000000
# 5 0.000000 0.000000 0.000000 0.000000 0.057717 0.000000
# 6 0.000000 0.000000 0.000000 0.000000 0.000000 0.020707
#
#
# Mechanical properties :
#
#
# Convention : Reuss Voigt Hill
#
# Bulk Modulus (GPa) = 27.90680 61.19332 44.55006
# Shear Modulus (GPa) = 23.92529 33.82379 28.87454
#
# Velocity S-wave (km/s) = 3.08511 3.66820 3.38922
# Velocity P-wave (km/s) = 4.87774 6.50266 5.74791
#
# Compressibility (1/GPa) = 0.03583356
#
# Stress axis : x y z
#
# Youngs Moduli (GPa) = 25.04389 125.22773 96.31693
#
# Poissons Ratio (x) = 1.09298 -0.05926
# Poissons Ratio (y) = 0.21858 0.30045
# Poissons Ratio (z) = -0.01541 0.39064
#
# Static dielectric constant tensor:
#      x y z
#    x 2.055110 0.000000 0.000000 
#    y 0.000000 2.100140 0.000000 
#    z 0.000000 0.000000 2.073010 
# 
# From -- ./inp_files/4791.got.cif
#   From: 2010.05.17/outbox.cif.g08.bks.cpg/sg37_3_cif.got.tgz:4791.got - 2010.06.03 17:53:42.
