data_PCOD9354860
_publ_section_title
;
Structure prediction by ZEFSAII (Michael W. Deem and Ramdas Pophale) SiO2 
 PCOD9354860
Probable space group: C C C 2
;
_chemical_formula_sum "Si O2"
_cell_formula_units_Z 44
_cell_length_a 17.148913
_cell_length_b 11.289214
_cell_length_c 8.959686
_cell_angle_alpha 90.000000
_cell_angle_beta 90.000000
_cell_angle_gamma 90.000000
_cell_volume 1734.575039
_symmetry_space_group_name_H-M "C C C 2"
_symmetry_group_IT_number 37
_symmetry_cell_setting 'orthorhombic'
loop_
_space_group_symop_operation_xyz
x,y,z
-x,-y,z
-x,y,1/2+z
x,-y,1/2+z
1/2+x,1/2+y,z
1/2-x,1/2-y,z
1/2-x,1/2+y,1/2+z
1/2+x,1/2-y,1/2+z
loop_
_atom_site_type_symbol
_atom_site_label
_atom_site_fract_x
_atom_site_fract_y
_atom_site_fract_z
Si Si1 0.631910 0.326372 0.961140
Si Si2 0.402841 0.893224 0.446104
Si Si3 0.244464 0.514455 0.821044
Si Si4 0.365654 0.677147 0.280266
Si Si5 0.500000 0.500000 0.856990
Si Si6 0.500000 0.000000 0.207783
Si Si7 0.750000 0.750000 0.234562
O O1 0.699772 0.426341 0.947058
O O2 0.551625 0.397137 0.936034
O O3 0.668492 0.246035 0.830852
O O4 0.629813 0.260610 0.118863
O O5 0.372183 0.759663 0.425640
O O6 0.437415 0.938937 0.599435
O O7 0.338597 0.983078 0.385328
O O8 0.470171 0.899870 0.320829
O O9 0.284839 0.391958 0.781013
O O10 0.249435 0.612796 0.686588
O O11 0.433307 0.577022 0.276192
#
# Coordination Sequence:
#
# PCOD9354860 Si02
#       7
#     8   8   8   8   4   4   4
#     4   9  21  38  67  93 129 181 222 288 351 414
#     4  11  25  45  72  99 144 178 239 288 352 435
#     4   9  22  39  66  98 127 175 233 283 344 420
#     4  11  23  39  70  99 128 185 228 292 354 417
#     4  10  22  42  60 100 142 166 240 282 356 418
#     4  10  28  46  64 106 136 196 224 284 370 426
#     4   8  20  40  64  86 134 170 234 266 358 396
#
# _framework density 25.366444000000001
#
# number of rings (size 3 to 8) (size 9 to 14) (size 15 to 20)
#    1.091    1.091    0.000    1.091   10.182    1.455 
#    0.000    0.000    0.000    0.000    0.000    0.000 
#    0.000    0.000    0.000    0.000    0.000    0.000 
#
# Total GULP energy -122598.860085 kJ/mol
# GULP energy per Si atom -5572.675458 kJ/mol
# Density = 2.530871 g / cm^3
# Si number density = 25.366444 Si / 1000 Ang^3
#
#
#
# Elastic Constant Matrix: (Units=GPa)
#
#
# Indices 1 2 3 4 5 6 
#
# 1 92.3604 -1.2082 3.7119 0.0000 0.0000 0.0000
# 2 -1.2082 94.1634 -4.5722 0.0000 0.0000 0.0000
# 3 3.7119 -4.5722 56.6689 0.0000 0.0000 0.0000
# 4 0.0000 0.0000 0.0000 26.4303 0.0000 0.0000
# 5 0.0000 0.0000 0.0000 0.0000 6.3870 0.0000
# 6 0.0000 0.0000 0.0000 0.0000 0.0000 46.2081
#
#
#
# Elastic Compliance Matrix: (Units=1/GPa)
#
#
# Indices 1 2 3 4 5 6 
#
# 1 0.010857 0.000105 -0.000703 0.000000 0.000000 0.000000
# 2 0.000105 0.010663 0.000853 0.000000 0.000000 0.000000
# 3 -0.000703 0.000853 0.017761 0.000000 0.000000 0.000000
# 4 0.000000 0.000000 0.000000 0.037835 0.000000 0.000000
# 5 0.000000 0.000000 0.000000 0.000000 0.156568 0.000000
# 6 0.000000 0.000000 0.000000 0.000000 0.000000 0.021641
#
#
# Mechanical properties :
#
#
# Convention : Reuss Voigt Hill
#
# Bulk Modulus (GPa) = 25.13037 26.56175 25.84606
# Shear Modulus (GPa) = 18.65132 32.15584 25.40358
#
# Velocity S-wave (km/s) = 2.71454 3.56427 3.16802
# Velocity P-wave (km/s) = 4.44448 5.23762 4.85727
#
# Compressibility (1/GPa) = 0.03979249
#
# Stress axis : x y z
#
# Youngs Moduli (GPa) = 92.10850 93.78554 56.30240
#
# Poissons Ratio (x) = -0.00986 0.03956
# Poissons Ratio (y) = -0.00969 -0.04805
# Poissons Ratio (z) = 0.06472 -0.08004
#
# Static dielectric constant tensor:
#      x y z
#    x 2.037860 0.000000 0.000000 
#    y 0.000000 2.088610 0.000000 
#    z 0.000000 0.000000 2.036780 
# 
# From -- ./inp_files/8228.got.cif
#   From: 2010.05.17/outbox.cif.g08.bks.cpg/sg37_5_cif.got.tgz:8228.got - 2010.06.03 17:53:42.
