data_PCOD9354370
_publ_section_title
;
Structure prediction by ZEFSAII (Michael W. Deem and Ramdas Pophale) SiO2 
 PCOD9354370
Probable space group: C C C 2
;
_chemical_formula_sum "Si O2"
_cell_formula_units_Z 40
_cell_length_a 16.806956
_cell_length_b 9.377887
_cell_length_c 9.576835
_cell_angle_alpha 90.000000
_cell_angle_beta 90.000000
_cell_angle_gamma 90.000000
_cell_volume 1509.440726
_symmetry_space_group_name_H-M "C C C 2"
_symmetry_group_IT_number 37
_symmetry_cell_setting 'orthorhombic'
loop_
_space_group_symop_operation_xyz
x,y,z
-x,-y,z
-x,y,1/2+z
x,-y,1/2+z
1/2+x,1/2+y,z
1/2-x,1/2-y,z
1/2-x,1/2+y,1/2+z
1/2+x,1/2-y,1/2+z
loop_
_atom_site_type_symbol
_atom_site_label
_atom_site_fract_x
_atom_site_fract_y
_atom_site_fract_z
Si Si1 0.708971 0.094091 0.980510
Si Si2 0.357965 0.528739 0.611838
Si Si3 0.399505 0.795511 0.774131
Si Si4 0.843411 0.276017 0.243273
Si Si5 0.540100 0.250051 0.484650
O O1 0.750000 0.250000 0.977719
O O2 0.721882 0.515226 0.020026
O O3 0.661457 0.090869 0.837175
O O4 0.653124 0.112763 0.115836
O O5 0.351797 0.652586 0.728172
O O6 0.374011 0.376704 0.682094
O O7 0.428851 0.590490 0.518114
O O8 0.451301 0.825611 0.635305
O O9 0.459076 0.759746 0.900518
O O10 0.750000 0.250000 0.275866
O O11 0.893105 0.309908 0.380034
#
# Coordination Sequence:
#
# PCOD9354370 Si02
#       5
#     8   8   8   8   8
#     4   9  19  39  57  81 132 181 218 265 339 417
#     4   8  21  35  57  88 132 174 218 265 343 410
#     4  10  21  36  63  90 138 166 216 278 346 399
#     4   9  19  37  55  79 129 168 210 266 325 410
#     4  10  21  37  57  98 131 167 218 272 351 401
#
# _framework density 26.499879
#
# number of rings (size 3 to 8) (size 9 to 14) (size 15 to 20)
#    1.200    2.000    0.000    1.200    5.600    1.600 
#    7.200    0.000    4.400    0.000    0.000    1.400 
#   24.000    0.000    0.000    0.000    0.000    0.000 
#
# Total GULP energy -111880.443569 kJ/mol
# GULP energy per Si atom -5594.022178 kJ/mol
# Density = 2.643956 g / cm^3
# Si number density = 26.499879 Si / 1000 Ang^3
#
#
#
# Elastic Constant Matrix: (Units=GPa)
#
#
# Indices 1 2 3 4 5 6 
#
# 1 130.7733 40.0581 82.9124 0.0000 0.0000 0.0000
# 2 40.0581 91.0566 44.0325 0.0000 0.0000 0.0000
# 3 82.9124 44.0325 219.7159 0.0000 0.0000 0.0000
# 4 0.0000 0.0000 0.0000 32.4862 0.0000 0.0000
# 5 0.0000 0.0000 0.0000 0.0000 48.5878 0.0000
# 6 0.0000 0.0000 0.0000 0.0000 0.0000 26.9459
#
#
#
# Elastic Compliance Matrix: (Units=1/GPa)
#
#
# Indices 1 2 3 4 5 6 
#
# 1 0.010776 -0.003072 -0.003451 0.000000 0.000000 0.000000
# 2 -0.003072 0.013036 -0.001453 0.000000 0.000000 0.000000
# 3 -0.003451 -0.001453 0.006145 0.000000 0.000000 0.000000
# 4 0.000000 0.000000 0.000000 0.030782 0.000000 0.000000
# 5 0.000000 0.000000 0.000000 0.000000 0.020581 0.000000
# 6 0.000000 0.000000 0.000000 0.000000 0.000000 0.037111
#
#
# Mechanical properties :
#
#
# Convention : Reuss Voigt Hill
#
# Bulk Modulus (GPa) = 71.40332 86.17242 78.78787
# Shear Modulus (GPa) = 35.95785 39.90683 37.93234
#
# Velocity S-wave (km/s) = 3.68762 3.88483 3.78751
# Velocity P-wave (km/s) = 6.71823 7.26025 6.99449
#
# Compressibility (1/GPa) = 0.01400495
#
# Stress axis : x y z
#
# Youngs Moduli (GPa) = 92.80272 76.70846 162.74040
#
# Poissons Ratio (x) = 0.23563 0.56156
# Poissons Ratio (y) = 0.28507 0.23653
# Poissons Ratio (z) = 0.32023 0.11149
#
# Static dielectric constant tensor:
#      x y z
#    x 2.092130 0.000000 0.000000 
#    y 0.000000 2.153720 0.000000 
#    z 0.000000 0.000000 2.093590 
# 
# From -- ./inp_files/4306.got.cif
#   From: 2010.05.17/outbox.cif.g08.bks.cpg/sg37_3_cif.got.tgz:4306.got - 2010.06.03 17:53:42.
