data_PCOD9354615
_publ_section_title
;
Structure prediction by ZEFSAII (Michael W. Deem and Ramdas Pophale) SiO2 
 PCOD9354615
Probable space group: C C C 2
;
_chemical_formula_sum "Si O2"
_cell_formula_units_Z 64
_cell_length_a 9.307541
_cell_length_b 27.522123
_cell_length_c 10.437014
_cell_angle_alpha 90.000000
_cell_angle_beta 90.000000
_cell_angle_gamma 90.000000
_cell_volume 2673.579826
_symmetry_space_group_name_H-M "C C C 2"
_symmetry_group_IT_number 37
_symmetry_cell_setting 'orthorhombic'
loop_
_space_group_symop_operation_xyz
x,y,z
-x,-y,z
-x,y,1/2+z
x,-y,1/2+z
1/2+x,1/2+y,z
1/2-x,1/2-y,z
1/2-x,1/2+y,1/2+z
1/2+x,1/2-y,1/2+z
loop_
_atom_site_type_symbol
_atom_site_label
_atom_site_fract_x
_atom_site_fract_y
_atom_site_fract_z
Si Si1 0.625377 0.708983 0.181290
Si Si2 0.199132 0.972658 0.851510
Si Si3 0.969800 0.350568 0.899284
Si Si4 0.065446 0.432029 0.201457
Si Si5 0.773942 0.584053 0.582930
Si Si6 0.574185 0.579183 0.803488
Si Si7 0.236229 0.118485 0.029855
Si Si8 0.586293 0.740804 0.455080
O O1 0.750000 0.750000 0.178619
O O2 0.687440 0.658239 0.131799
O O3 0.577754 0.705959 0.330144
O O4 0.507056 0.725022 0.076634
O O5 0.191462 0.955438 0.997712
O O6 0.362679 0.964353 0.809873
O O7 0.091140 0.934326 0.782827
O O8 0.147563 0.026293 0.823600
O O9 0.850430 0.374891 0.994455
O O10 0.129764 0.361230 0.948143
O O11 0.951331 0.378472 0.765404
O O12 0.957774 0.293182 0.898197
O O13 0.185304 0.428149 0.091806
O O14 0.909464 0.442892 0.148284
O O15 0.661294 0.603344 0.687230
O O16 0.606915 0.606689 0.934703
O O17 0.750000 0.750000 0.496094
#
# Coordination Sequence:
#
# PCOD9354615 Si02
#       8
#     8   8   8   8   8   8   8   8
#     4  11  24  45  69 101 138 184 231 284 354 424
#     4  10  26  44  65  99 140 186 230 286 358 416
#     4  10  21  44  70  98 136 177 228 283 351 411
#     4  10  21  43  67  99 132 175 228 288 338 412
#     4  10  23  43  68 101 132 182 234 284 344 420
#     4  11  25  44  68  97 139 190 232 288 359 418
#     4  11  23  41  69  97 135 183 227 288 344 411
#     4  11  25  44  71 103 138 182 226 291 354 424
#
# _framework density 23.937942
#
# number of rings (size 3 to 8) (size 9 to 14) (size 15 to 20)
#    0.000    1.500    2.500    1.500    5.250    5.000 
#    4.500    0.000    0.000    0.000    0.000    0.000 
#    0.000    0.000    0.000    0.000    0.000    0.000 
#
# Total GULP energy -179034.366664 kJ/mol
# GULP energy per Si atom -5594.823958 kJ/mol
# Density = 2.388346 g / cm^3
# Si number density = 23.937942 Si / 1000 Ang^3
#
#
#
# Elastic Constant Matrix: (Units=GPa)
#
#
# Indices 1 2 3 4 5 6 
#
# 1 110.4311 9.7898 45.4608 0.0000 0.0000 0.0000
# 2 9.7898 51.7755 -5.0790 0.0000 0.0000 0.0000
# 3 45.4608 -5.0790 84.8618 0.0000 0.0000 0.0000
# 4 0.0000 0.0000 0.0000 29.6442 0.0000 0.0000
# 5 0.0000 0.0000 0.0000 0.0000 48.7270 0.0000
# 6 0.0000 0.0000 0.0000 0.0000 0.0000 26.1037
#
#
#
# Elastic Compliance Matrix: (Units=1/GPa)
#
#
# Indices 1 2 3 4 5 6 
#
# 1 0.012043 -0.002927 -0.006627 0.000000 0.000000 0.000000
# 2 -0.002927 0.020140 0.002773 0.000000 0.000000 0.000000
# 3 -0.006627 0.002773 0.015500 0.000000 0.000000 0.000000
# 4 0.000000 0.000000 0.000000 0.033733 0.000000 0.000000
# 5 0.000000 0.000000 0.000000 0.000000 0.020523 0.000000
# 6 0.000000 0.000000 0.000000 0.000000 0.000000 0.038309
#
#
# Mechanical properties :
#
#
# Convention : Reuss Voigt Hill
#
# Bulk Modulus (GPa) = 29.30687 38.60131 33.95409
# Shear Modulus (GPa) = 30.26973 34.02141 32.14557
#
# Velocity S-wave (km/s) = 3.55985 3.77402 3.66850
# Velocity P-wave (km/s) = 5.40057 5.92887 5.67088
#
# Compressibility (1/GPa) = 0.03412170
#
# Stress axis : x y z
#
# Youngs Moduli (GPa) = 83.03673 49.65322 64.51715
#
# Poissons Ratio (x) = 0.14534 0.42753
# Poissons Ratio (y) = 0.24306 -0.17893
# Poissons Ratio (z) = 0.55025 -0.13771
#
# Static dielectric constant tensor:
#      x y z
#    x 1.899050 0.000000 0.000000 
#    y 0.000000 1.935020 0.000000 
#    z 0.000000 0.000000 1.913800 
# 
# From -- ./inp_files/6641.got.cif
#   From: 2010.05.17/outbox.cif.g08.bks.cpg/sg37_4_cif.got.tgz:6641.got - 2010.06.03 17:53:42.
