data_PCOD9354491
_publ_section_title
;
Structure prediction by ZEFSAII (Michael W. Deem and Ramdas Pophale) SiO2 
 PCOD9354491
Probable space group: C C C 2
;
_chemical_formula_sum "Si O2"
_cell_formula_units_Z 36
_cell_length_a 13.016305
_cell_length_b 8.595434
_cell_length_c 15.206251
_cell_angle_alpha 90.000000
_cell_angle_beta 90.000000
_cell_angle_gamma 90.000000
_cell_volume 1701.287383
_symmetry_space_group_name_H-M "C C C 2"
_symmetry_group_IT_number 37
_symmetry_cell_setting 'orthorhombic'
loop_
_space_group_symop_operation_xyz
x,y,z
-x,-y,z
-x,y,1/2+z
x,-y,1/2+z
1/2+x,1/2+y,z
1/2-x,1/2-y,z
1/2-x,1/2+y,1/2+z
1/2+x,1/2-y,1/2+z
loop_
_atom_site_type_symbol
_atom_site_label
_atom_site_fract_x
_atom_site_fract_y
_atom_site_fract_z
Si Si1 0.639737 0.195087 0.753190
Si Si2 0.665577 0.138473 0.331187
Si Si3 0.471337 0.681035 0.908287
Si Si4 0.750000 0.250000 0.496470
Si Si5 0.962626 0.824867 0.090879
O O1 0.750000 0.250000 0.718065
O O2 0.622527 0.289242 0.843794
O O3 0.552108 0.233362 0.681580
O O4 0.643400 0.015092 0.778057
O O5 0.750000 0.250000 0.285469
O O6 0.562743 0.228358 0.358312
O O7 0.716813 0.113693 0.427858
O O8 0.500000 0.500000 0.912148
O O9 0.466323 0.735263 0.010011
O O10 0.848782 0.188562 0.547776
O O11 0.000000 0.000000 0.110916
#
# Coordination Sequence:
#
# PCOD9354491 Si02
#       5
#     8   8   8   4   8
#     4  12  23  37  66 105 138 180 234 285 352 432
#     4   9  20  39  65  91 137 175 228 283 345 418
#     4  10  21  41  68  94 130 181 228 282 360 414
#     4   8  18  42  64  92 132 184 234 294 354 410
#     4  10  21  39  68  99 143 178 234 294 355 422
#
# _framework density 21.160446
#
# number of rings (size 3 to 8) (size 9 to 14) (size 15 to 20)
#    0.667    1.333    1.111    2.667    3.111    0.000 
#    0.000    8.889    0.000    6.667    0.000    0.000 
#    0.000    0.000    0.000    0.000    0.000    0.000 
#
# Total GULP energy -100280.376399 kJ/mol
# GULP energy per Si atom -5571.132022 kJ/mol
# Density = 2.111228 g / cm^3
# Si number density = 21.160446 Si / 1000 Ang^3
#
#
#
# Elastic Constant Matrix: (Units=GPa)
#
#
# Indices 1 2 3 4 5 6 
#
# 1 27.3466 11.3483 28.5071 0.0000 0.0000 0.0000
# 2 11.3483 117.7312 60.4820 0.0000 0.0000 0.0000
# 3 28.5071 60.4820 149.2413 0.0000 0.0000 0.0000
# 4 0.0000 0.0000 0.0000 -175.5087 0.0000 0.0000
# 5 0.0000 0.0000 0.0000 0.0000 28.3378 0.0000
# 6 0.0000 0.0000 0.0000 0.0000 0.0000 30.4444
#
#
#
# Elastic Compliance Matrix: (Units=1/GPa)
#
#
# Indices 1 2 3 4 5 6 
#
# 1 0.045660 0.000100 -0.008762 0.000000 0.000000 0.000000
# 2 0.000100 0.010728 -0.004367 0.000000 0.000000 0.000000
# 3 -0.008762 -0.004367 0.010144 0.000000 0.000000 0.000000
# 4 0.000000 0.000000 0.000000 -0.005698 0.000000 0.000000
# 5 0.000000 0.000000 0.000000 0.000000 0.035288 0.000000
# 6 0.000000 0.000000 0.000000 0.000000 0.000000 0.032847
#
#
# Mechanical properties :
#
#
# Convention : Reuss Voigt Hill
#
# Bulk Modulus (GPa) = 24.70708 54.99932 39.85320
# Shear Modulus (GPa) = 29.67039 -10.41317 9.62861
#
# Velocity S-wave (km/s) = 3.74861 -2.22075 2.13545
# Velocity P-wave (km/s) = 5.51702 4.41275 4.99549
#
# Compressibility (1/GPa) = 0.04047423
#
# Stress axis : x y z
#
# Youngs Moduli (GPa) = 21.90086 93.21815 98.58130
#
# Poissons Ratio (x) = -0.00934 0.86380
# Poissons Ratio (y) = -0.00219 0.43047
# Poissons Ratio (z) = 0.19190 0.40705
#
# Static dielectric constant tensor:
#      x y z
#    x 1.829280 0.000000 0.000000 
#    y 0.000000 1.746870 0.000000 
#    z 0.000000 0.000000 1.826380 
# 
# From -- ./inp_files/11964.got.cif
#   From: 2010.05.17/outbox.cif.g08.bks.cpg/sg37_6_cif.got.tgz:11964.got - 2010.06.03 17:53:42.
