data_PCOD9354981
_publ_section_title
;
Structure prediction by ZEFSAII (Michael W. Deem and Ramdas Pophale) SiO2 
 PCOD9354981
Probable space group: C C C 2
;
_chemical_formula_sum "Si O2"
_cell_formula_units_Z 40
_cell_length_a 15.002409
_cell_length_b 11.860660
_cell_length_c 9.488925
_cell_angle_alpha 90.000000
_cell_angle_beta 90.000000
_cell_angle_gamma 90.000000
_cell_volume 1688.444819
_symmetry_space_group_name_H-M "C C C 2"
_symmetry_group_IT_number 37
_symmetry_cell_setting 'orthorhombic'
loop_
_space_group_symop_operation_xyz
x,y,z
-x,-y,z
-x,y,1/2+z
x,-y,1/2+z
1/2+x,1/2+y,z
1/2-x,1/2-y,z
1/2-x,1/2+y,1/2+z
1/2+x,1/2-y,1/2+z
loop_
_atom_site_type_symbol
_atom_site_label
_atom_site_fract_x
_atom_site_fract_y
_atom_site_fract_z
Si Si1 0.359467 0.939590 0.378120
Si Si2 0.246834 0.474287 0.135191
Si Si3 0.069109 0.101183 0.656288
Si Si4 0.676620 0.815887 0.359454
Si Si5 0.497353 0.259400 0.896687
O O1 0.325963 0.946100 0.217063
O O2 0.439323 0.854351 0.403004
O O3 0.280105 0.918089 0.487900
O O4 0.372476 0.071917 0.417755
O O5 0.335813 0.545741 0.124169
O O6 0.243563 0.370534 0.244957
O O7 0.064118 0.152760 0.812714
O O8 0.036336 0.194532 0.543788
O O9 0.000000 0.000000 0.647835
O O10 0.750000 0.750000 0.452320
O O11 0.589668 0.750651 0.307716
#
# Coordination Sequence:
#
# PCOD9354981 Si02
#       5
#     8   8   8   8   8
#     4  10  25  46  73 108 147 195 246 307 370 457
#     4  10  25  46  71 103 152 189 257 299 382 446
#     4  12  28  47  74 110 147 201 251 322 380 463
#     4  10  22  44  73 104 147 192 238 303 375 450
#     4  12  26  46  78 108 149 193 253 309 383 444
#
# _framework density 23.690439000000001
#
# number of rings (size 3 to 8) (size 9 to 14) (size 15 to 20)
#    1.200    0.000    0.000    4.800    8.400    0.800 
#    3.600    0.000    0.000    0.000    0.000    0.000 
#    0.000    0.000    0.000    0.000    0.000    0.000 
#
# Total GULP energy -111341.520225 kJ/mol
# GULP energy per Si atom -5567.076011 kJ/mol
# Density = 2.363652 g / cm^3
# Si number density = 23.690439 Si / 1000 Ang^3
#
#
#
# Elastic Constant Matrix: (Units=GPa)
#
#
# Indices 1 2 3 4 5 6 
#
# 1 162.1511 74.0352 34.5562 0.0000 0.0000 0.0000
# 2 74.0352 80.0171 0.1298 0.0000 0.0000 0.0000
# 3 34.5562 0.1298 85.8341 0.0000 0.0000 0.0000
# 4 0.0000 0.0000 0.0000 15.0215 0.0000 0.0000
# 5 0.0000 0.0000 0.0000 0.0000 18.3440 0.0000
# 6 0.0000 0.0000 0.0000 0.0000 0.0000 46.1352
#
#
#
# Elastic Compliance Matrix: (Units=1/GPa)
#
#
# Indices 1 2 3 4 5 6 
#
# 1 0.012526 -0.011581 -0.005025 0.000000 0.000000 0.000000
# 2 -0.011581 0.023205 0.004627 0.000000 0.000000 0.000000
# 3 -0.005025 0.004627 0.013667 0.000000 0.000000 0.000000
# 4 0.000000 0.000000 0.000000 0.066571 0.000000 0.000000
# 5 0.000000 0.000000 0.000000 0.000000 0.054514 0.000000
# 6 0.000000 0.000000 0.000000 0.000000 0.000000 0.021675
#
#
# Mechanical properties :
#
#
# Convention : Reuss Voigt Hill
#
# Bulk Modulus (GPa) = 39.30901 60.60495 49.95698
# Shear Modulus (GPa) = 22.26218 30.51888 26.39053
#
# Velocity S-wave (km/s) = 3.06880 3.59309 3.34125
# Velocity P-wave (km/s) = 5.40236 6.54609 6.00153
#
# Compressibility (1/GPa) = 0.02543946
#
# Stress axis : x y z
#
# Youngs Moduli (GPa) = 79.83492 43.09351 73.17137
#
# Poissons Ratio (x) = 0.49908 0.36771
# Poissons Ratio (y) = 0.92459 -0.33860
# Poissons Ratio (z) = 0.40120 -0.19941
#
# Static dielectric constant tensor:
#      x y z
#    x 2.062870 0.000000 0.000000 
#    y 0.000000 2.059170 0.000000 
#    z 0.000000 0.000000 1.998790 
# 
# From -- ./inp_files/7653.got.cif
#   From: 2010.05.17/outbox.cif.g08.bks.cpg/sg37_4_cif.got.tgz:7653.got - 2010.06.03 17:53:42.
