data_PCOD9354299
_publ_section_title
;
Structure prediction by ZEFSAII (Michael W. Deem and Ramdas Pophale) SiO2 
 PCOD9354299
Probable space group: C C C 2
;
_chemical_formula_sum "Si O2"
_cell_formula_units_Z 44
_cell_length_a 8.837503
_cell_length_b 17.957233
_cell_length_c 11.964098
_cell_angle_alpha 90.000000
_cell_angle_beta 90.000000
_cell_angle_gamma 90.000000
_cell_volume 1898.667663
_symmetry_space_group_name_H-M "C C C 2"
_symmetry_group_IT_number 37
_symmetry_cell_setting 'orthorhombic'
loop_
_space_group_symop_operation_xyz
x,y,z
-x,-y,z
-x,y,1/2+z
x,-y,1/2+z
1/2+x,1/2+y,z
1/2-x,1/2-y,z
1/2-x,1/2+y,1/2+z
1/2+x,1/2-y,1/2+z
loop_
_atom_site_type_symbol
_atom_site_label
_atom_site_fract_x
_atom_site_fract_y
_atom_site_fract_z
Si Si1 0.042046 0.630170 0.094200
Si Si2 0.521254 0.583885 0.408968
Si Si3 0.500000 0.000000 0.911674
Si Si4 0.233696 0.887581 0.727211
Si Si5 0.591847 0.717216 0.056747
Si Si6 0.234104 0.048566 0.738896
O O1 0.195438 0.606686 0.154059
O O2 0.906102 0.622435 0.186516
O O3 0.017817 0.570576 0.995150
O O4 0.025153 0.715222 0.058055
O O5 0.500000 0.500000 0.454070
O O6 0.683889 0.604291 0.356070
O O7 0.468468 0.647669 0.489406
O O8 0.407223 0.581348 0.303485
O O9 0.637490 0.975943 0.829622
O O10 0.142208 0.819040 0.674495
O O11 0.194153 0.970110 0.680438
O O12 0.750000 0.750000 0.008281
#
# Coordination Sequence:
#
# PCOD9354299 Si02
#       6
#     8   8   4   8   8   8
#     4  11  22  41  67  96 136 173 226 283 334 392
#     4  10  24  41  68  96 135 181 222 270 347 410
#     4  12  20  38  72  94 130 170 242 266 328 406
#     4  10  20  43  62  93 135 176 216 279 333 400
#     4  10  23  42  67  98 137 178 217 284 344 399
#     4  11  21  40  68 100 126 180 227 279 324 411
#
# _framework density 23.174143999999998
#
# number of rings (size 3 to 8) (size 9 to 14) (size 15 to 20)
#    0.000    1.455    3.636    2.182    0.000    5.091 
#    6.545    0.000    0.000    0.000    0.000    0.000 
#    0.000    0.000    0.000    0.000    0.000    0.000 
#
# Total GULP energy -122919.418231 kJ/mol
# GULP energy per Si atom -5587.246283 kJ/mol
# Density = 2.312140 g / cm^3
# Si number density = 23.174144 Si / 1000 Ang^3
#
#
#
# Elastic Constant Matrix: (Units=GPa)
#
#
# Indices 1 2 3 4 5 6 
#
# 1 53.9803 30.8720 30.8056 0.0000 0.0000 0.0000
# 2 30.8720 216.0652 58.6929 0.0000 0.0000 0.0000
# 3 30.8056 58.6929 48.1046 0.0000 0.0000 0.0000
# 4 0.0000 0.0000 0.0000 -18.0600 0.0000 0.0000
# 5 0.0000 0.0000 0.0000 0.0000 21.3833 0.0000
# 6 0.0000 0.0000 0.0000 0.0000 0.0000 46.7354
#
#
#
# Elastic Compliance Matrix: (Units=1/GPa)
#
#
# Indices 1 2 3 4 5 6 
#
# 1 0.029463 0.001369 -0.020539 0.000000 0.000000 0.000000
# 2 0.001369 0.006986 -0.009401 0.000000 0.000000 0.000000
# 3 -0.020539 -0.009401 0.045411 0.000000 0.000000 0.000000
# 4 0.000000 0.000000 0.000000 -0.055371 0.000000 0.000000
# 5 0.000000 0.000000 0.000000 0.000000 0.046765 0.000000
# 6 0.000000 0.000000 0.000000 0.000000 0.000000 0.021397
#
#
# Mechanical properties :
#
#
# Convention : Reuss Voigt Hill
#
# Bulk Modulus (GPa) = 40.45319 62.09900 51.27609
# Shear Modulus (GPa) = 31.24365 23.19705 27.22035
#
# Velocity S-wave (km/s) = 3.67578 3.16727 3.43096
# Velocity P-wave (km/s) = 5.95896 6.34274 6.15384
#
# Compressibility (1/GPa) = 0.02471993
#
# Stress axis : x y z
#
# Youngs Moduli (GPa) = 33.94071 143.13727 22.02105
#
# Poissons Ratio (x) = -0.19602 0.45228
# Poissons Ratio (y) = -0.04648 0.20702
# Poissons Ratio (z) = 0.69710 1.34564
#
# Static dielectric constant tensor:
#      x y z
#    x 1.955430 0.000000 0.000000 
#    y 0.000000 1.863790 0.000000 
#    z 0.000000 0.000000 1.876840 
# 
# From -- ./inp_files/10538.got.cif
#   From: 2010.05.17/outbox.cif.g08.bks.cpg/sg37_6_cif.got.tgz:10538.got - 2010.06.03 17:53:42.
