data_PCOD9354455
_publ_section_title
;
Structure prediction by ZEFSAII (Michael W. Deem and Ramdas Pophale) SiO2 
 PCOD9354455
Probable space group: C C C 2
;
_chemical_formula_sum "Si O2"
_cell_formula_units_Z 60
_cell_length_a 26.716942
_cell_length_b 10.166200
_cell_length_c 9.226724
_cell_angle_alpha 90.000000
_cell_angle_beta 90.000000
_cell_angle_gamma 90.000000
_cell_volume 2506.068437
_symmetry_space_group_name_H-M "C C C 2"
_symmetry_group_IT_number 37
_symmetry_cell_setting 'orthorhombic'
loop_
_space_group_symop_operation_xyz
x,y,z
-x,-y,z
-x,y,1/2+z
x,-y,1/2+z
1/2+x,1/2+y,z
1/2-x,1/2-y,z
1/2-x,1/2+y,1/2+z
1/2+x,1/2-y,1/2+z
loop_
_atom_site_type_symbol
_atom_site_label
_atom_site_fract_x
_atom_site_fract_y
_atom_site_fract_z
Si Si1 0.947593 0.253796 0.231930
Si Si2 0.685645 0.916614 0.149587
Si Si3 0.500000 0.500000 0.513378
Si Si4 0.533999 0.123834 0.924571
Si Si5 0.933063 0.055574 0.754268
Si Si6 0.874873 0.449382 0.374467
Si Si7 0.229932 0.099130 0.913620
Si Si8 0.819999 0.880963 0.202435
O O1 0.934973 0.101355 0.235201
O O2 0.901822 0.323517 0.311900
O O3 0.997851 0.300238 0.314342
O O4 0.950611 0.305402 0.070265
O O5 0.694535 0.773054 0.219728
O O6 0.673614 0.017280 0.277587
O O7 0.638257 0.924863 0.041341
O O8 0.729587 0.946615 0.035276
O O9 0.467275 0.595713 0.616191
O O10 0.538950 0.569857 0.406412
O O11 0.500000 0.000000 0.969993
O O12 0.585259 0.067802 0.856664
O O13 0.877405 0.106404 0.750543
O O14 0.250000 0.250000 0.872033
O O15 0.212407 0.992000 0.791956
O O16 0.183098 0.106935 0.026707
#
# Coordination Sequence:
#
# PCOD9354455 Si02
#       8
#     8   8   4   8   8   8   8   8
#     4  11  23  37  65  94 142 189 246 301 353 440
#     4  11  25  46  75 106 151 182 249 315 376 456
#     4  10  24  42  58  96 142 184 234 296 346 436
#     4  10  21  39  59  97 138 192 244 289 361 420
#     4  11  24  42  66  97 140 186 242 291 369 429
#     4  11  23  41  68 105 142 193 239 305 372 439
#     4  10  24  48  74 107 143 187 244 305 380 454
#     4  11  25  47  77 105 145 196 241 307 379 457
#
# _framework density 23.941883000000001
#
# number of rings (size 3 to 8) (size 9 to 14) (size 15 to 20)
#    0.000    1.333    1.333    3.600    7.467    4.267 
#    0.000    2.000    0.000    0.000    0.000    0.000 
#    0.000    0.000    0.000    0.000    0.000    0.000 
#
# Total GULP energy -167595.311227 kJ/mol
# GULP energy per Si atom -5586.510374 kJ/mol
# Density = 2.388739 g / cm^3
# Si number density = 23.941883 Si / 1000 Ang^3
#
#
#
# Elastic Constant Matrix: (Units=GPa)
#
#
# Indices 1 2 3 4 5 6 
#
# 1 128.4377 23.4192 38.8985 0.0000 0.0000 0.0000
# 2 23.4192 96.1816 44.1467 0.0000 0.0000 0.0000
# 3 38.8985 44.1467 129.3326 0.0000 0.0000 0.0000
# 4 0.0000 0.0000 0.0000 29.7939 0.0000 0.0000
# 5 0.0000 0.0000 0.0000 0.0000 37.2141 0.0000
# 6 0.0000 0.0000 0.0000 0.0000 0.0000 22.1740
#
#
#
# Elastic Compliance Matrix: (Units=1/GPa)
#
#
# Indices 1 2 3 4 5 6 
#
# 1 0.008660 -0.001083 -0.002235 0.000000 0.000000 0.000000
# 2 -0.001083 0.012464 -0.003929 0.000000 0.000000 0.000000
# 3 -0.002235 -0.003929 0.009745 0.000000 0.000000 0.000000
# 4 0.000000 0.000000 0.000000 0.033564 0.000000 0.000000
# 5 0.000000 0.000000 0.000000 0.000000 0.026872 0.000000
# 6 0.000000 0.000000 0.000000 0.000000 0.000000 0.045098
#
#
# Mechanical properties :
#
#
# Convention : Reuss Voigt Hill
#
# Bulk Modulus (GPa) = 61.06452 62.98675 62.02563
# Shear Modulus (GPa) = 31.97856 34.33558 33.15707
#
# Velocity S-wave (km/s) = 3.65865 3.79109 3.72546
# Velocity P-wave (km/s) = 6.58850 6.74748 6.66846
#
# Compressibility (1/GPa) = 0.01637612
#
# Stress axis : x y z
#
# Youngs Moduli (GPa) = 115.47046 80.23146 102.61354
#
# Poissons Ratio (x) = 0.08687 0.22935
# Poissons Ratio (y) = 0.12503 0.40315
# Poissons Ratio (z) = 0.25809 0.31521
#
# Static dielectric constant tensor:
#      x y z
#    x 2.053130 0.000000 0.000000 
#    y 0.000000 1.988700 0.000000 
#    z 0.000000 0.000000 1.906720 
# 
# From -- ./inp_files/4809.got.cif
#   From: 2010.05.17/outbox.cif.g08.bks.cpg/sg37_3_cif.got.tgz:4809.got - 2010.06.03 17:53:42.
