data_PCOD9354289
_publ_section_title
;
Structure prediction by ZEFSAII (Michael W. Deem and Ramdas Pophale) SiO2 
 PCOD9354289
Probable space group: C C C 2
;
_chemical_formula_sum "Si O2"
_cell_formula_units_Z 52
_cell_length_a 14.772677
_cell_length_b 7.243147
_cell_length_c 21.988087
_cell_angle_alpha 90.000000
_cell_angle_beta 90.000000
_cell_angle_gamma 90.000000
_cell_volume 2352.740065
_symmetry_space_group_name_H-M "C C C 2"
_symmetry_group_IT_number 37
_symmetry_cell_setting 'orthorhombic'
loop_
_space_group_symop_operation_xyz
x,y,z
-x,-y,z
-x,y,1/2+z
x,-y,1/2+z
1/2+x,1/2+y,z
1/2-x,1/2-y,z
1/2-x,1/2+y,1/2+z
1/2+x,1/2-y,1/2+z
loop_
_atom_site_type_symbol
_atom_site_label
_atom_site_fract_x
_atom_site_fract_y
_atom_site_fract_z
Si Si1 0.330108 0.894481 0.514470
Si Si2 0.256989 0.026618 0.137219
Si Si3 0.500000 0.000000 0.688757
Si Si4 0.677622 0.078405 0.759733
Si Si5 0.668978 0.893152 0.394127
Si Si6 0.982472 0.211645 0.969320
Si Si7 0.928181 0.169248 0.102127
O O1 0.250000 0.750000 0.522422
O O2 0.326059 0.992857 0.580405
O O3 0.426033 0.806968 0.494719
O O4 0.302457 0.998869 0.453937
O O5 0.250000 0.250000 0.144165
O O6 0.282404 0.958769 0.204496
O O7 0.166284 0.922455 0.120157
O O8 0.576420 0.098752 0.731200
O O9 0.463299 0.166106 0.645592
O O10 0.750000 0.250000 0.764526
O O11 0.664808 0.007750 0.828637
O O12 0.750000 0.750000 0.387511
O O13 0.571877 0.808087 0.414612
O O14 0.922594 0.215022 0.030252
O O15 0.000000 0.000000 0.952570
O O16 0.000000 0.000000 0.105936
#
# Coordination Sequence:
#
# PCOD9354289 Si02
#       7
#     8   8   4   8   8   8   8
#     4  11  22  40  69  99 136 175 228 288 350 425
#     4  10  20  42  69  96 139 181 223 296 359 413
#     4  12  26  44  74 104 140 202 238 296 378 444
#     4  10  24  46  67  97 142 182 239 301 353 436
#     4  11  24  43  66  94 138 182 231 292 352 427
#     4  11  23  41  68 101 138 182 234 295 364 426
#     4  11  23  42  71 109 145 180 243 304 362 442
#
# _framework density 22.101890000000001
#
# number of rings (size 3 to 8) (size 9 to 14) (size 15 to 20)
#    0.000    1.231    0.000    8.769    6.462    0.615 
#    2.769    5.385    0.000    0.000    0.000    0.000 
#    0.000    0.000    0.000    0.000    0.000    0.000 
#
# Total GULP energy -144890.110845 kJ/mol
# GULP energy per Si atom -5572.696571 kJ/mol
# Density = 2.205159 g / cm^3
# Si number density = 22.101890 Si / 1000 Ang^3
#
#
#
# Elastic Constant Matrix: (Units=GPa)
#
#
# Indices 1 2 3 4 5 6 
#
# 1 122.6702 18.1157 47.0191 0.0000 0.0000 0.0000
# 2 18.1157 64.8355 35.8773 0.0000 0.0000 0.0000
# 3 47.0191 35.8773 214.7282 0.0000 0.0000 0.0000
# 4 0.0000 0.0000 0.0000 30.0414 0.0000 0.0000
# 5 0.0000 0.0000 0.0000 0.0000 -2.2878 0.0000
# 6 0.0000 0.0000 0.0000 0.0000 0.0000 49.3985
#
#
#
# Elastic Compliance Matrix: (Units=1/GPa)
#
#
# Indices 1 2 3 4 5 6 
#
# 1 0.009043 -0.001577 -0.001717 0.000000 0.000000 0.000000
# 2 -0.001577 0.017270 -0.002540 0.000000 0.000000 0.000000
# 3 -0.001717 -0.002540 0.005457 0.000000 0.000000 0.000000
# 4 0.000000 0.000000 0.000000 0.033287 0.000000 0.000000
# 5 0.000000 0.000000 0.000000 0.000000 -0.437111 0.000000
# 6 0.000000 0.000000 0.000000 0.000000 0.000000 0.020244
#
#
# Mechanical properties :
#
#
# Convention : Reuss Voigt Hill
#
# Bulk Modulus (GPa) = 49.74436 67.13980 58.44208
# Shear Modulus (GPa) = -14.99514 35.51187 10.25837
#
# Velocity S-wave (km/s) = -2.60754 4.01276 2.15673
# Velocity P-wave (km/s) = 3.67287 7.20507 5.71852
#
# Compressibility (1/GPa) = 0.02010278
#
# Stress axis : x y z
#
# Youngs Moduli (GPa) = 110.58549 57.90439 183.23828
#
# Poissons Ratio (x) = 0.09130 0.31456
# Poissons Ratio (y) = 0.17436 0.46547
# Poissons Ratio (z) = 0.18984 0.14709
#
# Static dielectric constant tensor:
#      x y z
#    x 2.535090 0.000000 0.000000 
#    y 0.000000 1.954530 0.000000 
#    z 0.000000 0.000000 1.848610 
# 
# From -- ./inp_files/17152.got.cif
#   From: 2010.05.17/outbox.cif.g08.bks.cpg/sg37_9_cif.got.tgz:17152.got - 2010.06.03 17:53:42.
