data_PCOD9354739
_publ_section_title
;
Structure prediction by ZEFSAII (Michael W. Deem and Ramdas Pophale) SiO2 
 PCOD9354739
Probable space group: C C C 2
;
_chemical_formula_sum "Si O2"
_cell_formula_units_Z 56
_cell_length_a 20.919537
_cell_length_b 13.855886
_cell_length_c 8.829152
_cell_angle_alpha 90.000000
_cell_angle_beta 90.000000
_cell_angle_gamma 90.000000
_cell_volume 2559.206696
_symmetry_space_group_name_H-M "C C C 2"
_symmetry_group_IT_number 37
_symmetry_cell_setting 'orthorhombic'
loop_
_space_group_symop_operation_xyz
x,y,z
-x,-y,z
-x,y,1/2+z
x,-y,1/2+z
1/2+x,1/2+y,z
1/2-x,1/2-y,z
1/2-x,1/2+y,1/2+z
1/2+x,1/2-y,1/2+z
loop_
_atom_site_type_symbol
_atom_site_label
_atom_site_fract_x
_atom_site_fract_y
_atom_site_fract_z
Si Si1 0.405975 0.976410 0.794040
Si Si2 0.145648 0.711143 0.964675
Si Si3 0.221383 0.415168 0.684659
Si Si4 0.500000 0.000000 0.526833
Si Si5 0.449881 0.622384 0.961030
Si Si6 0.750000 0.250000 0.723007
Si Si7 0.220389 0.086605 0.008230
Si Si8 0.576435 0.583944 0.104221
O O1 0.390028 0.883641 0.898436
O O2 0.450269 0.956601 0.652430
O O3 0.339886 0.024549 0.744208
O O4 0.451178 0.042527 0.895889
O O5 0.093100 0.788256 0.009838
O O6 0.189398 0.756685 0.833351
O O7 0.191238 0.675958 0.099532
O O8 0.259735 0.479184 0.561484
O O9 0.264572 0.398343 0.832227
O O10 0.437721 0.600911 0.782437
O O11 0.523806 0.638455 0.002560
O O12 0.431214 0.528514 0.059018
O O13 0.739919 0.158870 0.614610
O O14 0.147782 0.108656 0.053583
#
# Coordination Sequence:
#
# PCOD9354739 Si02
#       8
#     8   8   8   4   8   4   8   8
#     4  11  21  43  66 104 144 192 241 294 375 442
#     4  12  26  46  73 108 150 191 254 310 373 460
#     4  12  24  45  77 108 150 200 244 309 389 454
#     4  10  22  38  70  96 138 200 238 282 358 462
#     4  11  25  48  74 105 144 193 257 314 374 455
#     4  12  26  48  66 106 148 186 252 312 372 444
#     4  12  24  46  74 106 147 196 243 310 381 454
#     4  11  24  48  74 101 145 195 247 311 391 443
#
# _framework density 21.881781
#
# number of rings (size 3 to 8) (size 9 to 14) (size 15 to 20)
#    0.000    0.571    5.714    2.571    2.000    1.714 
#    5.143    0.000    0.000    0.000    0.000    0.000 
#    0.000    0.000    0.000    0.000    0.000    0.000 
#
# Total GULP energy -155991.619073 kJ/mol
# GULP energy per Si atom -5571.129253 kJ/mol
# Density = 2.183198 g / cm^3
# Si number density = 21.881781 Si / 1000 Ang^3
#
#
#
# Elastic Constant Matrix: (Units=GPa)
#
#
# Indices 1 2 3 4 5 6 
#
# 1 106.5383 34.7531 44.3219 0.0000 0.0000 0.0000
# 2 34.7531 79.0128 39.4081 0.0000 0.0000 0.0000
# 3 44.3219 39.4081 164.9116 0.0000 0.0000 0.0000
# 4 0.0000 0.0000 0.0000 41.8664 0.0000 0.0000
# 5 0.0000 0.0000 0.0000 0.0000 51.3065 0.0000
# 6 0.0000 0.0000 0.0000 0.0000 0.0000 34.5901
#
#
#
# Elastic Compliance Matrix: (Units=1/GPa)
#
#
# Indices 1 2 3 4 5 6 
#
# 1 0.011596 -0.004026 -0.002154 0.000000 0.000000 0.000000
# 2 -0.004026 0.015766 -0.002686 0.000000 0.000000 0.000000
# 3 -0.002154 -0.002686 0.007285 0.000000 0.000000 0.000000
# 4 0.000000 0.000000 0.000000 0.023886 0.000000 0.000000
# 5 0.000000 0.000000 0.000000 0.000000 0.019491 0.000000
# 6 0.000000 0.000000 0.000000 0.000000 0.000000 0.028910
#
#
# Mechanical properties :
#
#
# Convention : Reuss Voigt Hill
#
# Bulk Modulus (GPa) = 59.11891 65.26990 62.19440
# Shear Modulus (GPa) = 38.37202 41.01788 39.69495
#
# Velocity S-wave (km/s) = 4.19215 4.33427 4.26380
# Velocity P-wave (km/s) = 7.10691 7.41222 7.26117
#
# Compressibility (1/GPa) = 0.01691506
#
# Stress axis : x y z
#
# Youngs Moduli (GPa) = 86.23797 63.42617 137.27446
#
# Poissons Ratio (x) = 0.25534 0.29576
# Poissons Ratio (y) = 0.34717 0.36867
# Poissons Ratio (z) = 0.18580 0.17034
#
# Static dielectric constant tensor:
#      x y z
#    x 1.818940 0.000000 0.000000 
#    y 0.000000 1.836090 0.000000 
#    z 0.000000 0.000000 1.757170 
# 
# From -- ./inp_files/4403.got.cif
#   From: 2010.05.17/outbox.cif.g08.bks.cpg/sg37_3_cif.got.tgz:4403.got - 2010.06.03 17:53:42.
