data_PCOD9354260
_publ_section_title
;
Structure prediction by ZEFSAII (Michael W. Deem and Ramdas Pophale) SiO2 
 PCOD9354260
Probable space group: C C C 2
;
_chemical_formula_sum "Si O2"
_cell_formula_units_Z 48
_cell_length_a 13.102885
_cell_length_b 8.912562
_cell_length_c 17.669430
_cell_angle_alpha 90.000000
_cell_angle_beta 90.000000
_cell_angle_gamma 90.000000
_cell_volume 2063.440893
_symmetry_space_group_name_H-M "C C C 2"
_symmetry_group_IT_number 37
_symmetry_cell_setting 'orthorhombic'
loop_
_space_group_symop_operation_xyz
x,y,z
-x,-y,z
-x,y,1/2+z
x,-y,1/2+z
1/2+x,1/2+y,z
1/2-x,1/2-y,z
1/2-x,1/2+y,1/2+z
1/2+x,1/2-y,1/2+z
loop_
_atom_site_type_symbol
_atom_site_label
_atom_site_fract_x
_atom_site_fract_y
_atom_site_fract_z
Si Si1 0.027643 0.676387 0.599460
Si Si2 0.663581 0.378451 0.922970
Si Si3 0.527643 0.176387 0.422396
Si Si4 0.210557 0.606138 0.699925
Si Si5 0.336419 0.621549 0.098886
Si Si6 0.710557 0.893862 0.821931
O O1 0.041347 0.704113 0.510928
O O2 0.133365 0.682517 0.642275
O O3 0.000000 0.500000 0.607600
O O4 0.939981 0.793126 0.624273
O O5 0.750000 0.250000 0.926882
O O6 0.560019 0.293126 0.897583
O O7 0.706890 0.506058 0.867288
O O8 0.650384 0.432591 0.010928
O O9 0.633365 0.182517 0.379581
O O10 0.500000 0.000000 0.414256
O O11 0.250000 0.750000 0.745267
O O12 0.293110 0.506058 0.654568
O O13 0.157426 0.500000 0.760928
O O14 0.250000 0.750000 0.094974
O O15 0.750000 0.750000 0.776589
#
# Coordination Sequence:
#
# PCOD9354260 Si02
#       6
#     8   8   8   8   8   8
#     4  10  21  41  74 102 126 178 234 282 346 412
#     4  10  20  41  71 101 132 172 233 289 338 415
#     4  10  21  41  74 102 126 178 234 282 346 412
#     4  12  27  45  63  99 144 185 230 288 355 421
#     4  10  20  41  71 101 132 172 233 289 338 415
#     4  12  27  45  63  99 144 185 230 288 355 421
#
# _framework density 23.262115000000001
#
# number of rings (size 3 to 8) (size 9 to 14) (size 15 to 20)
#    0.000    1.333    3.333    2.000    0.000    4.667 
#    0.000    5.000    0.000    0.000    0.000    0.000 
#    0.000    0.000    0.000    0.000    0.000    0.000 
#
# Total GULP energy -134069.348492 kJ/mol
# GULP energy per Si atom -5586.222854 kJ/mol
# Density = 2.320917 g / cm^3
# Si number density = 23.262115 Si / 1000 Ang^3
#
#
#
# Elastic Constant Matrix: (Units=GPa)
#
#
# Indices 1 2 3 4 5 6 
#
# 1 109.3196 66.3260 31.5880 0.0000 0.0000 0.0000
# 2 66.3260 122.3162 49.3992 0.0000 0.0000 0.0000
# 3 31.5880 49.3992 49.4308 0.0000 0.0000 0.0000
# 4 0.0000 0.0000 0.0000 29.1770 0.0000 0.0000
# 5 0.0000 0.0000 0.0000 0.0000 13.7450 0.0000
# 6 0.0000 0.0000 0.0000 0.0000 0.0000 31.3898
#
#
#
# Elastic Compliance Matrix: (Units=1/GPa)
#
#
# Indices 1 2 3 4 5 6 
#
# 1 0.013779 -0.006565 -0.002244 0.000000 0.000000 0.000000
# 2 -0.006565 0.016837 -0.012630 0.000000 0.000000 0.000000
# 3 -0.002244 -0.012630 0.034287 0.000000 0.000000 0.000000
# 4 0.000000 0.000000 0.000000 0.034274 0.000000 0.000000
# 5 0.000000 0.000000 0.000000 0.000000 0.072754 0.000000
# 6 0.000000 0.000000 0.000000 0.000000 0.000000 0.031857
#
#
# Mechanical properties :
#
#
# Convention : Reuss Voigt Hill
#
# Bulk Modulus (GPa) = 45.40775 63.96588 54.68681
# Shear Modulus (GPa) = 19.68442 23.77926 21.73184
#
# Velocity S-wave (km/s) = 2.91211 3.20070 3.05981
# Velocity P-wave (km/s) = 5.55604 6.42004 6.00360
#
# Compressibility (1/GPa) = 0.02202267
#
# Stress axis : x y z
#
# Youngs Moduli (GPa) = 72.57241 59.39454 29.16595
#
# Poissons Ratio (x) = 0.38995 0.06545
# Poissons Ratio (y) = 0.47647 0.36837
# Poissons Ratio (z) = 0.16287 0.75017
#
# Static dielectric constant tensor:
#      x y z
#    x 2.002250 0.000000 0.000000 
#    y 0.000000 1.917690 0.000000 
#    z 0.000000 0.000000 1.825410 
# 
# From -- ./inp_files/15234.got.cif
#   From: 2010.05.17/outbox.cif.g08.bks.cpg/sg37_8_cif.got.tgz:15234.got - 2010.06.03 17:53:42.
