data_PCOD9354931
_publ_section_title
;
Structure prediction by ZEFSAII (Michael W. Deem and Ramdas Pophale) SiO2 
 PCOD9354931
Probable space group: C C C 2
;
_chemical_formula_sum "Si O2"
_cell_formula_units_Z 64
_cell_length_a 7.584930
_cell_length_b 30.573728
_cell_length_c 10.672048
_cell_angle_alpha 90.000000
_cell_angle_beta 90.000000
_cell_angle_gamma 90.000000
_cell_volume 2474.843521
_symmetry_space_group_name_H-M "C C C 2"
_symmetry_group_IT_number 37
_symmetry_cell_setting 'orthorhombic'
loop_
_space_group_symop_operation_xyz
x,y,z
-x,-y,z
-x,y,1/2+z
x,-y,1/2+z
1/2+x,1/2+y,z
1/2-x,1/2-y,z
1/2-x,1/2+y,1/2+z
1/2+x,1/2-y,1/2+z
loop_
_atom_site_type_symbol
_atom_site_label
_atom_site_fract_x
_atom_site_fract_y
_atom_site_fract_z
Si Si1 0.068060 0.223623 0.946180
Si Si2 0.524514 0.949312 0.052912
Si Si3 0.093631 0.345411 0.350437
Si Si4 0.406765 0.364332 0.525761
Si Si5 0.620161 0.920783 0.807820
Si Si6 0.838728 0.908096 0.184698
Si Si7 0.992481 0.953260 0.884495
Si Si8 0.453068 0.242985 0.198215
O O1 0.250000 0.250000 0.928320
O O2 0.046759 0.174066 0.993328
O O3 0.999502 0.221857 0.803833
O O4 0.966457 0.250428 0.059293
O O5 0.415122 0.924366 0.160007
O O6 0.718361 0.927856 0.073704
O O7 0.500000 0.000000 0.082974
O O8 0.481930 0.943448 0.906031
O O9 0.215890 0.345988 0.477039
O O10 0.214011 0.373862 0.256244
O O11 0.043296 0.301128 0.279344
O O12 0.909309 0.371432 0.356657
O O13 0.479634 0.381217 0.659731
O O14 0.440743 0.410143 0.455367
O O15 0.799352 0.944982 0.832984
O O16 0.883609 0.951281 0.263007
O O17 0.000000 0.000000 0.950799
O O18 0.250000 0.250000 0.168959
#
# Coordination Sequence:
#
# PCOD9354931 Si02
#       8
#     8   8   8   8   8   8   8   8
#     4  11  26  43  74 105 147 193 247 309 380 458
#     4  11  23  43  68  99 143 186 244 305 371 442
#     4  10  24  44  71 103 148 192 248 314 387 451
#     4  11  23  45  71 100 145 198 253 315 381 458
#     4  11  25  44  70 106 142 193 242 311 377 451
#     4  10  22  43  67  99 140 195 246 307 376 452
#     4  11  25  44  70 103 146 198 253 312 382 458
#     4  11  23  47  70 105 147 192 243 309 374 463
#
# _framework density 25.860220999999999
#
# number of rings (size 3 to 8) (size 9 to 14) (size 15 to 20)
#    0.000    1.250    2.500    2.625    5.250    5.000 
#    0.000    0.000    0.000    0.000    0.000    0.000 
#    0.000    0.000    0.000    0.000    0.000    0.000 
#
# Total GULP energy -178295.062554 kJ/mol
# GULP energy per Si atom -5571.720705 kJ/mol
# Density = 2.580136 g / cm^3
# Si number density = 25.860221 Si / 1000 Ang^3
#
#
#
# Elastic Constant Matrix: (Units=GPa)
#
#
# Indices 1 2 3 4 5 6 
#
# 1 67.2713 22.7576 21.6373 0.0000 0.0000 0.0000
# 2 22.7576 125.6734 -8.8204 0.0000 0.0000 0.0000
# 3 21.6373 -8.8204 104.4444 0.0000 0.0000 0.0000
# 4 0.0000 0.0000 0.0000 28.6600 0.0000 0.0000
# 5 0.0000 0.0000 0.0000 0.0000 35.6944 0.0000
# 6 0.0000 0.0000 0.0000 0.0000 0.0000 30.8721
#
#
#
# Elastic Compliance Matrix: (Units=1/GPa)
#
#
# Indices 1 2 3 4 5 6 
#
# 1 0.017256 -0.003396 -0.003862 0.000000 0.000000 0.000000
# 2 -0.003396 0.008673 0.001436 0.000000 0.000000 0.000000
# 3 -0.003862 0.001436 0.010496 0.000000 0.000000 0.000000
# 4 0.000000 0.000000 0.000000 0.034892 0.000000 0.000000
# 5 0.000000 0.000000 0.000000 0.000000 0.028016 0.000000
# 6 0.000000 0.000000 0.000000 0.000000 0.000000 0.032392
#
#
# Mechanical properties :
#
#
# Convention : Reuss Voigt Hill
#
# Bulk Modulus (GPa) = 40.35263 40.94866 40.65065
# Shear Modulus (GPa) = 32.97557 36.49961 34.73759
#
# Velocity S-wave (km/s) = 3.57479 3.76096 3.66906
# Velocity P-wave (km/s) = 5.71637 5.89311 5.80541
#
# Compressibility (1/GPa) = 0.02478153
#
# Stress axis : x y z
#
# Youngs Moduli (GPa) = 57.95071 115.30239 95.27681
#
# Poissons Ratio (x) = 0.39155 0.36792
# Poissons Ratio (y) = 0.19679 -0.13681
# Poissons Ratio (z) = 0.22378 -0.16557
#
# Static dielectric constant tensor:
#      x y z
#    x 2.086100 0.000000 0.000000 
#    y 0.000000 2.305180 0.000000 
#    z 0.000000 0.000000 2.202710 
# 
# From -- ./inp_files/6634.got.cif
#   From: 2010.05.17/outbox.cif.g08.bks.cpg/sg37_4_cif.got.tgz:6634.got - 2010.06.03 17:53:42.
