data_PCOD9354882
_publ_section_title
;
Structure prediction by ZEFSAII (Michael W. Deem and Ramdas Pophale) SiO2 
 PCOD9354882
Probable space group: C C C 2
;
_chemical_formula_sum "Si O2"
_cell_formula_units_Z 56
_cell_length_a 29.782055
_cell_length_b 5.263679
_cell_length_c 14.695743
_cell_angle_alpha 90.000000
_cell_angle_beta 90.000000
_cell_angle_gamma 90.000000
_cell_volume 2303.751368
_symmetry_space_group_name_H-M "C C C 2"
_symmetry_group_IT_number 37
_symmetry_cell_setting 'orthorhombic'
loop_
_space_group_symop_operation_xyz
x,y,z
-x,-y,z
-x,y,1/2+z
x,-y,1/2+z
1/2+x,1/2+y,z
1/2-x,1/2-y,z
1/2-x,1/2+y,1/2+z
1/2+x,1/2-y,1/2+z
loop_
_atom_site_type_symbol
_atom_site_label
_atom_site_fract_x
_atom_site_fract_y
_atom_site_fract_z
Si Si1 0.878764 0.173947 0.606210
Si Si2 0.582084 0.039391 0.325913
Si Si3 0.722650 0.996575 0.414699
Si Si4 0.854290 0.132451 0.419236
Si Si5 0.448263 0.915124 0.013559
Si Si6 0.546563 0.376844 0.184414
Si Si7 0.672802 0.228220 0.769079
O O1 0.863152 0.012116 0.517900
O O2 0.911343 0.396551 0.563282
O O3 0.832653 0.227213 0.662134
O O4 0.908430 0.043452 0.686505
O O5 0.563260 0.875238 0.408113
O O6 0.628184 0.936052 0.287188
O O7 0.597682 0.296201 0.377124
O O8 0.551333 0.122549 0.243092
O O9 0.750000 0.750000 0.451949
O O10 0.713954 0.935234 0.307844
O O11 0.750000 0.250000 0.430747
O O12 0.673004 0.104067 0.442606
O O13 0.829933 0.961859 0.342479
O O14 0.451575 0.672054 0.077037
O O15 0.500000 0.000000 0.016199
O O16 0.500000 0.500000 0.210919
#
# Coordination Sequence:
#
# PCOD9354882 Si02
#       7
#     8   8   8   8   8   8   8
#     4  11  23  41  65  99 132 174 236 283 339 427
#     4  10  23  39  62  94 130 182 238 284 355 429
#     4  11  23  45  75 103 139 179 221 285 358 428
#     4  10  22  42  68 100 129 185 222 281 349 422
#     4  11  23  41  59  89 134 177 230 299 355 401
#     4  12  23  40  65  95 135 186 241 307 359 410
#     4  11  21  42  72  95 137 179 221 282 349 423
#
# _framework density 24.30818
#
# number of rings (size 3 to 8) (size 9 to 14) (size 15 to 20)
#    0.000    1.143    5.714    0.857    0.000    1.714 
#    5.143    1.429    0.000    0.000    0.000    0.000 
#    0.000    0.000    0.000    0.000    0.000    0.000 
#
# Total GULP energy -155880.156248 kJ/mol
# GULP energy per Si atom -5567.148437 kJ/mol
# Density = 2.425285 g / cm^3
# Si number density = 24.308180 Si / 1000 Ang^3
#
#
#
# Elastic Constant Matrix: (Units=GPa)
#
#
# Indices 1 2 3 4 5 6 
#
# 1 57.7562 11.4311 1.0848 0.0000 0.0000 0.0000
# 2 11.4311 72.4563 8.4382 0.0000 0.0000 0.0000
# 3 1.0848 8.4382 112.7844 0.0000 0.0000 0.0000
# 4 0.0000 0.0000 0.0000 29.8175 0.0000 0.0000
# 5 0.0000 0.0000 0.0000 0.0000 6.0269 0.0000
# 6 0.0000 0.0000 0.0000 0.0000 0.0000 48.2532
#
#
#
# Elastic Compliance Matrix: (Units=1/GPa)
#
#
# Indices 1 2 3 4 5 6 
#
# 1 0.017872 -0.002824 0.000039 0.000000 0.000000 0.000000
# 2 -0.002824 0.014369 -0.001048 0.000000 0.000000 0.000000
# 3 0.000039 -0.001048 0.008944 0.000000 0.000000 0.000000
# 4 0.000000 0.000000 0.000000 0.033537 0.000000 0.000000
# 5 0.000000 0.000000 0.000000 0.000000 0.165923 0.000000
# 6 0.000000 0.000000 0.000000 0.000000 0.000000 0.020724
#
#
# Mechanical properties :
#
#
# Convention : Reuss Voigt Hill
#
# Bulk Modulus (GPa) = 29.83250 31.65611 30.74431
# Shear Modulus (GPa) = 17.84383 31.62238 24.73311
#
# Velocity S-wave (km/s) = 2.71231 3.61070 3.19326
# Velocity P-wave (km/s) = 4.70192 5.51670 5.12553
#
# Compressibility (1/GPa) = 0.03352049
#
# Stress axis : x y z
#
# Youngs Moduli (GPa) = 55.95223 69.59415 111.80057
#
# Poissons Ratio (x) = 0.19655 -0.00440
# Poissons Ratio (y) = 0.15802 0.11715
# Poissons Ratio (z) = -0.00220 0.07293
#
# Static dielectric constant tensor:
#      x y z
#    x 2.157910 0.000000 0.000000 
#    y 0.000000 2.140120 0.000000 
#    z 0.000000 0.000000 2.075460 
# 
# From -- ./inp_files/9884.got.cif
#   From: 2010.05.17/outbox.cif.g08.bks.cpg/sg37_5_cif.got.tgz:9884.got - 2010.06.03 17:53:42.
