data_PCOD9354257
_publ_section_title
;
Structure prediction by ZEFSAII (Michael W. Deem and Ramdas Pophale) SiO2 
 PCOD9354257
Probable space group: C C C 2
;
_chemical_formula_sum "Si O2"
_cell_formula_units_Z 48
_cell_length_a 14.640909
_cell_length_b 5.046337
_cell_length_c 26.568951
_cell_angle_alpha 90.000000
_cell_angle_beta 90.000000
_cell_angle_gamma 90.000000
_cell_volume 1962.992765
_symmetry_space_group_name_H-M "C C C 2"
_symmetry_group_IT_number 37
_symmetry_cell_setting 'orthorhombic'
loop_
_space_group_symop_operation_xyz
x,y,z
-x,-y,z
-x,y,1/2+z
x,-y,1/2+z
1/2+x,1/2+y,z
1/2-x,1/2-y,z
1/2-x,1/2+y,1/2+z
1/2+x,1/2-y,1/2+z
loop_
_atom_site_type_symbol
_atom_site_label
_atom_site_fract_x
_atom_site_fract_y
_atom_site_fract_z
Si Si1 0.000000 0.000000 0.984490
Si Si2 0.353587 0.859235 0.123969
Si Si3 0.860248 0.261369 0.797728
Si Si4 0.250000 0.750000 0.982342
Si Si5 0.868999 0.115570 0.558194
Si Si6 0.904209 0.660446 0.412330
Si Si7 0.361604 0.744857 0.235931
O O1 0.923056 0.090346 0.947173
O O2 0.948751 0.794139 0.020391
O O3 0.250000 0.750000 0.127309
O O4 0.350302 0.144183 0.096721
O O5 0.402091 0.636746 0.090763
O O6 0.390911 0.840467 0.180687
O O7 0.750000 0.250000 0.797768
O O8 0.888673 0.247270 0.855569
O O9 0.890859 0.542755 0.776954
O O10 0.890099 0.038593 0.757800
O O11 0.186396 0.574908 0.943499
O O12 0.206210 0.966777 0.022068
O O13 0.000000 0.500000 0.414509
O O14 0.250000 0.750000 0.235112
#
# Coordination Sequence:
#
# PCOD9354257 Si02
#       7
#     4   8   8   4   8   8   8
#     4  10  28  44  66  96 142 184 246 292 352 426
#     4  11  22  38  69 104 134 177 234 287 358 430
#     4  10  20  41  68  99 132 179 229 291 351 424
#     4  10  24  48  66 108 146 188 244 292 358 434
#     4  11  24  42  68  99 139 189 232 294 351 430
#     4  11  25  44  71 102 141 194 236 299 359 433
#     4   9  20  38  66 101 134 170 229 293 350 421
#
# _framework density 24.452456000000002
#
# number of rings (size 3 to 8) (size 9 to 14) (size 15 to 20)
#    0.000    1.667    1.667    1.500    7.000    2.667 
#    0.000    0.000    7.333    0.000    0.000    0.000 
#    0.000    0.000    0.000    0.000    0.000    0.000 
#
# Total GULP energy -133787.492507 kJ/mol
# GULP energy per Si atom -5574.478854 kJ/mol
# Density = 2.439680 g / cm^3
# Si number density = 24.452456 Si / 1000 Ang^3
#
#
#
# Elastic Constant Matrix: (Units=GPa)
#
#
# Indices 1 2 3 4 5 6 
#
# 1 60.0151 12.2909 45.7919 0.0000 0.0000 0.0000
# 2 12.2909 118.4358 46.8129 0.0000 0.0000 0.0000
# 3 45.7919 46.8129 184.4102 0.0000 0.0000 0.0000
# 4 0.0000 0.0000 0.0000 27.8752 0.0000 0.0000
# 5 0.0000 0.0000 0.0000 0.0000 26.3508 0.0000
# 6 0.0000 0.0000 0.0000 0.0000 0.0000 15.0186
#
#
#
# Elastic Compliance Matrix: (Units=1/GPa)
#
#
# Indices 1 2 3 4 5 6 
#
# 1 0.020559 -0.000129 -0.005073 0.000000 0.000000 0.000000
# 2 -0.000129 0.009386 -0.002351 0.000000 0.000000 0.000000
# 3 -0.005073 -0.002351 0.007279 0.000000 0.000000 0.000000
# 4 0.000000 0.000000 0.000000 0.035874 0.000000 0.000000
# 5 0.000000 0.000000 0.000000 0.000000 0.037949 0.000000
# 6 0.000000 0.000000 0.000000 0.000000 0.000000 0.066584
#
#
# Mechanical properties :
#
#
# Convention : Reuss Voigt Hill
#
# Bulk Modulus (GPa) = 45.20708 63.62807 54.41758
# Shear Modulus (GPa) = 24.98640 31.04662 28.01651
#
# Velocity S-wave (km/s) = 3.20008 3.56711 3.38857
# Velocity P-wave (km/s) = 5.67291 6.56074 6.13291
#
# Compressibility (1/GPa) = 0.02212043
#
# Stress axis : x y z
#
# Youngs Moduli (GPa) = 48.64007 106.54313 137.38141
#
# Poissons Ratio (x) = 0.01370 0.69687
# Poissons Ratio (y) = 0.00626 0.32294
# Poissons Ratio (z) = 0.24673 0.25045
#
# Static dielectric constant tensor:
#      x y z
#    x 1.896530 0.000000 0.000000 
#    y 0.000000 1.940030 0.000000 
#    z 0.000000 0.000000 1.893420 
# 
# From -- ./inp_files/18980.got.cif
#   From: 2010.05.17/outbox.cif.g08.bks.cpg/sg37_10_cif.got.tgz:18980.got - 2010.06.03 17:53:42.
