data_PCOD9354307
_publ_section_title
;
Structure prediction by ZEFSAII (Michael W. Deem and Ramdas Pophale) SiO2 
 PCOD9354307
Probable space group: C C C 2
;
_chemical_formula_sum "Si O2"
_cell_formula_units_Z 64
_cell_length_a 26.109111
_cell_length_b 8.891469
_cell_length_c 10.963708
_cell_angle_alpha 90.000000
_cell_angle_beta 90.000000
_cell_angle_gamma 90.000000
_cell_volume 2545.206734
_symmetry_space_group_name_H-M "C C C 2"
_symmetry_group_IT_number 37
_symmetry_cell_setting 'orthorhombic'
loop_
_space_group_symop_operation_xyz
x,y,z
-x,-y,z
-x,y,1/2+z
x,-y,1/2+z
1/2+x,1/2+y,z
1/2-x,1/2-y,z
1/2-x,1/2+y,1/2+z
1/2+x,1/2-y,1/2+z
loop_
_atom_site_type_symbol
_atom_site_label
_atom_site_fract_x
_atom_site_fract_y
_atom_site_fract_z
Si Si1 0.584992 0.437196 0.506210
Si Si2 0.688724 0.588474 0.580656
Si Si3 0.840043 0.584082 0.592059
Si Si4 0.415220 0.770924 0.279411
Si Si5 0.984353 0.204686 0.051787
Si Si6 0.425792 0.076830 0.394222
Si Si7 0.729406 0.525237 0.326245
Si Si8 0.672500 0.165220 0.761352
O O1 0.631974 0.511015 0.580377
O O2 0.599352 0.350093 0.382303
O O3 0.547117 0.575606 0.479400
O O4 0.544226 0.325962 0.570952
O O5 0.688201 0.765581 0.543659
O O6 0.712576 0.500173 0.465107
O O7 0.716657 0.580570 0.711193
O O8 0.865644 0.663977 0.710859
O O9 0.886130 0.546651 0.503031
O O10 0.820237 0.420250 0.632002
O O11 0.455456 0.709990 0.180786
O O12 0.439536 0.922210 0.331947
O O13 0.971229 0.342304 0.964875
O O14 0.386861 0.166053 0.301905
O O15 0.698419 0.673657 0.278452
O O16 0.789917 0.554246 0.336503
#
# Coordination Sequence:
#
# PCOD9354307 Si02
#       8
#     8   8   8   8   8   8   8   8
#     4  11  23  42  68  96 139 179 239 293 358 429
#     4  12  24  46  68 105 144 189 239 303 363 435
#     4  10  21  42  70  97 138 186 233 284 375 428
#     4  10  22  42  64 102 134 179 234 291 358 440
#     4  10  23  45  66 101 133 185 233 296 364 439
#     4  10  20  43  71  93 139 183 230 289 362 434
#     4  11  26  43  71 107 143 186 247 300 366 436
#     4  10  23  43  67 102 139 188 232 299 355 440
#
# _framework density 25.145306999999999
#
# number of rings (size 3 to 8) (size 9 to 14) (size 15 to 20)
#    0.000    1.500    3.750    0.750    3.500    3.000 
#    2.250    2.500    0.000    0.000    0.000    0.000 
#    0.000    0.000    0.000    0.000    0.000    0.000 
#
# Total GULP energy -178500.305364 kJ/mol
# GULP energy per Si atom -5578.134543 kJ/mol
# Density = 2.508807 g / cm^3
# Si number density = 25.145307 Si / 1000 Ang^3
#
#
#
# Elastic Constant Matrix: (Units=GPa)
#
#
# Indices 1 2 3 4 5 6 
#
# 1 89.0109 -2.6094 25.9195 0.0000 0.0000 0.0000
# 2 -2.6094 42.1190 33.4887 0.0000 0.0000 0.0000
# 3 25.9195 33.4887 80.2391 0.0000 0.0000 0.0000
# 4 0.0000 0.0000 0.0000 41.2287 0.0000 0.0000
# 5 0.0000 0.0000 0.0000 0.0000 -156.7158 0.0000
# 6 0.0000 0.0000 0.0000 0.0000 0.0000 33.1113
#
#
#
# Elastic Compliance Matrix: (Units=1/GPa)
#
#
# Indices 1 2 3 4 5 6 
#
# 1 0.013471 0.006427 -0.007034 0.000000 0.000000 0.000000
# 2 0.006427 0.038601 -0.018187 0.000000 0.000000 0.000000
# 3 -0.007034 -0.018187 0.022325 0.000000 0.000000 0.000000
# 4 0.000000 0.000000 0.000000 0.024255 0.000000 0.000000
# 5 0.000000 0.000000 0.000000 0.000000 -0.006381 0.000000
# 6 0.000000 0.000000 0.000000 0.000000 0.000000 0.030201
#
#
# Mechanical properties :
#
#
# Convention : Reuss Voigt Hill
#
# Bulk Modulus (GPa) = 27.16610 36.10739 31.63675
# Shear Modulus (GPa) = 29.01418 -6.17048 11.42185
#
# Velocity S-wave (km/s) = 3.40054 -1.56820 2.13359
# Velocity P-wave (km/s) = 5.12302 3.33342 4.32186
#
# Compressibility (1/GPa) = 0.03681058
#
# Stress axis : x y z
#
# Youngs Moduli (GPa) = 74.23177 25.90632 44.79201
#
# Poissons Ratio (x) = -0.16651 0.31508
# Poissons Ratio (y) = -0.47712 0.81462
# Poissons Ratio (z) = 0.52216 0.47115
#
# Static dielectric constant tensor:
#      x y z
#    x 2.206150 0.000000 0.000000 
#    y 0.000000 2.071580 0.000000 
#    z 0.000000 0.000000 2.045240 
# 
# From -- ./inp_files/9227.got.cif
#   From: 2010.05.17/outbox.cif.g08.bks.cpg/sg37_5_cif.got.tgz:9227.got - 2010.06.03 17:53:42.
