data_PCOD9354301
_publ_section_title
;
Structure prediction by ZEFSAII (Michael W. Deem and Ramdas Pophale) SiO2 
 PCOD9354301
Probable space group: C C C 2
;
_chemical_formula_sum "Si O2"
_cell_formula_units_Z 64
_cell_length_a 22.925492
_cell_length_b 16.632035
_cell_length_c 8.492360
_cell_angle_alpha 90.000000
_cell_angle_beta 90.000000
_cell_angle_gamma 90.000000
_cell_volume 3238.116362
_symmetry_space_group_name_H-M "C C C 2"
_symmetry_group_IT_number 37
_symmetry_cell_setting 'orthorhombic'
loop_
_space_group_symop_operation_xyz
x,y,z
-x,-y,z
-x,y,1/2+z
x,-y,1/2+z
1/2+x,1/2+y,z
1/2-x,1/2-y,z
1/2-x,1/2+y,1/2+z
1/2+x,1/2-y,1/2+z
loop_
_atom_site_type_symbol
_atom_site_label
_atom_site_fract_x
_atom_site_fract_y
_atom_site_fract_z
Si Si1 0.193490 0.301952 0.337170
Si Si2 0.884535 0.078032 0.829038
Si Si3 0.755202 0.883527 0.885472
Si Si4 0.244882 0.045191 0.226531
Si Si5 0.919700 0.240455 0.990180
Si Si6 0.053669 0.060129 0.001483
Si Si7 0.162404 0.743401 0.477381
Si Si8 0.539699 0.730059 0.848225
O O1 0.250000 0.250000 0.391163
O O2 0.209332 0.395471 0.311735
O O3 0.137909 0.290659 0.448633
O O4 0.178015 0.265958 0.162335
O O5 0.817188 0.076649 0.787431
O O6 0.901222 0.149824 0.944374
O O7 0.920448 0.087736 0.667501
O O8 0.900025 0.993373 0.907801
O O9 0.812230 0.827254 0.907861
O O10 0.700061 0.823967 0.887333
O O11 0.753575 0.949719 0.750865
O O12 0.750908 0.935546 0.043545
O O13 0.976053 0.264598 0.886356
O O14 0.941162 0.241094 0.169001
O O15 0.035847 0.136211 0.897642
O O16 0.000000 0.000000 0.029912
O O17 0.093767 0.736826 0.450652
#
# Coordination Sequence:
#
# PCOD9354301 Si02
#       8
#     8   8   8   8   8   8   8   8
#     4  11  20  42  65  88 125 172 214 259 324 384
#     4  12  22  36  55  82 123 166 207 253 311 378
#     4  10  21  38  60  93 123 165 206 258 318 375
#     4  11  21  36  62  89 125 161 205 262 318 372
#     4  12  25  40  60  87 118 167 214 261 317 382
#     4  12  24  36  54  84 123 170 214 260 307 382
#     4  10  20  43  66  86 126 173 216 253 319 391
#     4  12  25  41  60  86 121 165 215 262 317 386
#
# _framework density 19.764578
#
# number of rings (size 3 to 8) (size 9 to 14) (size 15 to 20)
#    0.000    0.750    5.000    5.625    0.000    2.000 
#    2.250    0.000    0.000    0.750    0.000    5.250 
#    0.000    0.000    0.000    0.000    0.000    0.000 
#
# Total GULP energy -179022.332471 kJ/mol
# GULP energy per Si atom -5594.447890 kJ/mol
# Density = 1.971959 g / cm^3
# Si number density = 19.764578 Si / 1000 Ang^3
#
#
#
# Elastic Constant Matrix: (Units=GPa)
#
#
# Indices 1 2 3 4 5 6 
#
# 1 121.0881 17.6565 28.2464 0.0000 0.0000 0.0000
# 2 17.6565 67.2244 19.0791 0.0000 0.0000 0.0000
# 3 28.2464 19.0791 70.8493 0.0000 0.0000 0.0000
# 4 0.0000 0.0000 0.0000 24.7670 0.0000 0.0000
# 5 0.0000 0.0000 0.0000 0.0000 28.0659 0.0000
# 6 0.0000 0.0000 0.0000 0.0000 0.0000 26.8927
#
#
#
# Elastic Compliance Matrix: (Units=1/GPa)
#
#
# Indices 1 2 3 4 5 6 
#
# 1 0.009242 -0.001496 -0.003282 0.000000 0.000000 0.000000
# 2 -0.001496 0.016349 -0.003806 0.000000 0.000000 0.000000
# 3 -0.003282 -0.003806 0.016448 0.000000 0.000000 0.000000
# 4 0.000000 0.000000 0.000000 0.040376 0.000000 0.000000
# 5 0.000000 0.000000 0.000000 0.000000 0.035630 0.000000
# 6 0.000000 0.000000 0.000000 0.000000 0.000000 0.037185
#
#
# Mechanical properties :
#
#
# Convention : Reuss Voigt Hill
#
# Bulk Modulus (GPa) = 40.20789 43.23620 41.72204
# Shear Modulus (GPa) = 27.67193 28.89043 28.28118
#
# Velocity S-wave (km/s) = 3.74582 3.82740 3.78683
# Velocity P-wave (km/s) = 6.25266 6.43856 6.34629
#
# Compressibility (1/GPa) = 0.02487074
#
# Stress axis : x y z
#
# Youngs Moduli (GPa) = 108.19989 61.16691 60.79830
#
# Poissons Ratio (x) = 0.09151 0.19953
# Poissons Ratio (y) = 0.16187 0.23141
# Poissons Ratio (z) = 0.35509 0.23281
#
# Static dielectric constant tensor:
#      x y z
#    x 1.727040 0.000000 0.000000 
#    y 0.000000 1.711180 0.000000 
#    z 0.000000 0.000000 1.722640 
# 
# From -- ./inp_files/4691.got.cif
#   From: 2010.05.17/outbox.cif.g08.bks.cpg/sg37_3_cif.got.tgz:4691.got - 2010.06.03 17:53:42.
