data_PCOD9354572
_publ_section_title
;
Structure prediction by ZEFSAII (Michael W. Deem and Ramdas Pophale) SiO2 
 PCOD9354572
Probable space group: C C C 2
;
_chemical_formula_sum "Si O2"
_cell_formula_units_Z 56
_cell_length_a 13.668989
_cell_length_b 5.436569
_cell_length_c 33.290882
_cell_angle_alpha 90.000000
_cell_angle_beta 90.000000
_cell_angle_gamma 90.000000
_cell_volume 2473.925401
_symmetry_space_group_name_H-M "C C C 2"
_symmetry_group_IT_number 37
_symmetry_cell_setting 'orthorhombic'
loop_
_space_group_symop_operation_xyz
x,y,z
-x,-y,z
-x,y,1/2+z
x,-y,1/2+z
1/2+x,1/2+y,z
1/2-x,1/2-y,z
1/2-x,1/2+y,1/2+z
1/2+x,1/2-y,1/2+z
loop_
_atom_site_type_symbol
_atom_site_label
_atom_site_fract_x
_atom_site_fract_y
_atom_site_fract_z
Si Si1 0.437792 0.248998 0.689380
Si Si2 0.395902 0.630330 0.477977
Si Si3 0.750000 0.750000 0.459970
Si Si4 0.250000 0.750000 0.337480
Si Si5 0.885561 0.472091 0.402772
Si Si6 0.862600 0.775381 0.602370
Si Si7 0.565269 0.252035 0.280294
Si Si8 0.866787 0.719241 0.061827
O O1 0.500000 0.500000 0.690874
O O2 0.371692 0.283466 0.650435
O O3 0.396383 0.221346 0.734514
O O4 0.500000 0.000000 0.682936
O O5 0.500000 0.500000 0.478848
O O6 0.300506 0.461777 0.485534
O O7 0.382904 0.745436 0.433958
O O8 0.397747 0.812703 0.515584
O O9 0.841053 0.681065 0.431256
O O10 0.193818 0.562684 0.367654
O O11 0.342388 0.692639 0.309011
O O12 0.000000 0.500000 0.390498
O O13 0.750000 0.750000 0.591564
O O14 0.900987 0.516774 0.586245
O O15 0.900733 0.023312 0.581574
O O16 0.500000 0.500000 0.282655
O O17 0.500000 0.000000 0.289019
O O18 0.750000 0.750000 0.064154
#
# Coordination Sequence:
#
# PCOD9354572 Si02
#       8
#     8   8   4   4   8   8   8   8
#     4  10  21  41  68  98 140 180 225 287 347 423
#     4  12  26  44  69 100 135 190 241 295 355 428
#     4  12  24  46  74  91 142 186 233 298 356 424
#     4  12  26  46  76 103 138 194 229 312 366 430
#     4  12  26  45  69 105 136 183 242 289 362 432
#     4  10  22  39  65  98 134 180 228 282 342 415
#     4  10  25  48  73 110 147 186 239 294 359 441
#     4  10  23  40  64  96 139 182 231 292 346 410
#
# _framework density 22.636091
#
# number of rings (size 3 to 8) (size 9 to 14) (size 15 to 20)
#    0.000    1.143    2.857    2.143    6.000    5.143 
#    0.000    0.000    0.000    0.000    0.000    0.000 
#    0.000    0.000    0.000    0.000    0.000    0.000 
#
# Total GULP energy -156220.677142 kJ/mol
# GULP energy per Si atom -5579.309898 kJ/mol
# Density = 2.258457 g / cm^3
# Si number density = 22.636091 Si / 1000 Ang^3
#
#
#
# Elastic Constant Matrix: (Units=GPa)
#
#
# Indices 1 2 3 4 5 6 
#
# 1 140.1701 42.1921 38.2034 0.0000 0.0000 0.0000
# 2 42.1921 134.3213 37.5257 0.0000 0.0000 0.0000
# 3 38.2034 37.5257 111.7521 0.0000 0.0000 0.0000
# 4 0.0000 0.0000 0.0000 19.5047 0.0000 0.0000
# 5 0.0000 0.0000 0.0000 0.0000 50.0021 0.0000
# 6 0.0000 0.0000 0.0000 0.0000 0.0000 -4.3698
#
#
#
# Elastic Compliance Matrix: (Units=1/GPa)
#
#
# Indices 1 2 3 4 5 6 
#
# 1 0.008332 -0.002010 -0.002173 0.000000 0.000000 0.000000
# 2 -0.002010 0.008700 -0.002234 0.000000 0.000000 0.000000
# 3 -0.002173 -0.002234 0.010442 0.000000 0.000000 0.000000
# 4 0.000000 0.000000 0.000000 0.051270 0.000000 0.000000
# 5 0.000000 0.000000 0.000000 0.000000 0.019999 0.000000
# 6 0.000000 0.000000 0.000000 0.000000 0.000000 -0.228846
#
#
# Mechanical properties :
#
#
# Convention : Reuss Voigt Hill
#
# Bulk Modulus (GPa) = 68.31383 69.12065 68.71724
# Shear Modulus (GPa) = -44.48846 30.91555 -6.78646
#
# Velocity S-wave (km/s) = -4.43807 3.69963 -1.73337
# Velocity P-wave (km/s) = 1.99568 6.98939 5.13976
#
# Compressibility (1/GPa) = 0.01463832
#
# Stress axis : x y z
#
# Youngs Moduli (GPa) = 120.02628 114.93710 95.77022
#
# Poissons Ratio (x) = 0.23101 0.20814
# Poissons Ratio (y) = 0.24124 0.21399
# Poissons Ratio (z) = 0.26085 0.25682
#
# Static dielectric constant tensor:
#      x y z
#    x 1.817170 0.000000 0.000000 
#    y 0.000000 1.905940 0.000000 
#    z 0.000000 0.000000 1.834270 
# 
# From -- ./inp_files/20208.got.cif
#   From: 2010.05.17/outbox.cif.g08.bks.cpg/sg37_11_cif.got.tgz:20208.got - 2010.06.03 17:53:42.
