data_PCOD9354105
_publ_section_title
;
Structure prediction by ZEFSAII (Michael W. Deem and Ramdas Pophale) SiO2 
 PCOD9354105
Probable space group: C C C 2
;
_chemical_formula_sum "Si O2"
_cell_formula_units_Z 56
_cell_length_a 10.678927
_cell_length_b 15.885805
_cell_length_c 14.331176
_cell_angle_alpha 90.000000
_cell_angle_beta 90.000000
_cell_angle_gamma 90.000000
_cell_volume 2431.188734
_symmetry_space_group_name_H-M "C C C 2"
_symmetry_group_IT_number 37
_symmetry_cell_setting 'orthorhombic'
loop_
_space_group_symop_operation_xyz
x,y,z
-x,-y,z
-x,y,1/2+z
x,-y,1/2+z
1/2+x,1/2+y,z
1/2-x,1/2-y,z
1/2-x,1/2+y,1/2+z
1/2+x,1/2-y,1/2+z
loop_
_atom_site_type_symbol
_atom_site_label
_atom_site_fract_x
_atom_site_fract_y
_atom_site_fract_z
Si Si1 0.000000 0.000000 0.660491
Si Si2 0.019802 0.781601 0.881911
Si Si3 0.057676 0.340552 0.223980
Si Si4 0.186281 0.408310 0.806573
Si Si5 0.821380 0.134638 0.118635
Si Si6 0.750000 0.750000 0.922378
Si Si7 0.079148 0.685792 0.048764
Si Si8 0.306492 0.416662 0.304699
O O1 0.078490 0.064107 0.599562
O O2 0.905931 0.051509 0.727376
O O3 0.016250 0.746492 0.775658
O O4 0.113616 0.860490 0.876775
O O5 0.889095 0.794999 0.937465
O O6 0.075806 0.704025 0.940327
O O7 0.197019 0.363200 0.254654
O O8 0.951687 0.405851 0.260642
O O9 0.040413 0.336231 0.111986
O O10 0.282716 0.373733 0.727374
O O11 0.187741 0.334808 0.881591
O O12 0.236679 0.498362 0.838907
O O13 0.874335 0.225387 0.092584
O O14 0.689801 0.120775 0.067690
#
# Coordination Sequence:
#
# PCOD9354105 Si02
#       8
#     4   8   8   8   8   4   8   8
#     4  10  20  38  58  98 130 174 220 284 346 406
#     4  11  23  39  65  95 128 172 225 280 335 407
#     4  10  21  38  64  95 129 180 218 272 341 410
#     4   9  18  37  65  93 126 172 218 270 341 410
#     4   9  18  34  61  85 125 166 216 261 327 398
#     4  10  20  40  60  86 128 172 216 262 348 408
#     4  10  21  39  64  93 128 175 220 270 337 407
#     4  11  21  35  66  98 132 163 232 287 335 396
#
# _framework density 23.033999000000001
#
# number of rings (size 3 to 8) (size 9 to 14) (size 15 to 20)
#    0.000    2.000    0.000    6.000    4.000    0.000 
#    5.143    2.143    9.429    3.429    0.000    0.000 
#    0.000    0.000    0.000    0.000    0.000    0.000 
#
# Total GULP energy -155902.890792 kJ/mol
# GULP energy per Si atom -5567.960385 kJ/mol
# Density = 2.298157 g / cm^3
# Si number density = 23.033999 Si / 1000 Ang^3
#
#
#
# Elastic Constant Matrix: (Units=GPa)
#
#
# Indices 1 2 3 4 5 6 
#
# 1 130.5725 35.7748 19.2695 0.0000 0.0000 0.0000
# 2 35.7748 71.0718 14.6873 0.0000 0.0000 0.0000
# 3 19.2695 14.6873 55.8253 0.0000 0.0000 0.0000
# 4 0.0000 0.0000 0.0000 190.2309 0.0000 0.0000
# 5 0.0000 0.0000 0.0000 0.0000 13.7801 0.0000
# 6 0.0000 0.0000 0.0000 0.0000 0.0000 50.8500
#
#
#
# Elastic Compliance Matrix: (Units=1/GPa)
#
#
# Indices 1 2 3 4 5 6 
#
# 1 0.009100 -0.004157 -0.002047 0.000000 0.000000 0.000000
# 2 -0.004157 0.016779 -0.002979 0.000000 0.000000 0.000000
# 3 -0.002047 -0.002979 0.019404 0.000000 0.000000 0.000000
# 4 0.000000 0.000000 0.000000 0.005257 0.000000 0.000000
# 5 0.000000 0.000000 0.000000 0.000000 0.072568 0.000000
# 6 0.000000 0.000000 0.000000 0.000000 0.000000 0.019666
#
#
# Mechanical properties :
#
#
# Convention : Reuss Voigt Hill
#
# Bulk Modulus (GPa) = 37.15534 44.10365 40.62950
# Shear Modulus (GPa) = 29.39239 63.48807 46.44023
#
# Velocity S-wave (km/s) = 3.57605 5.25572 4.49504
# Velocity P-wave (km/s) = 5.76338 7.48458 6.67965
#
# Compressibility (1/GPa) = 0.02691403
#
# Stress axis : x y z
#
# Youngs Moduli (GPa) = 109.89285 59.59957 51.53703
#
# Poissons Ratio (x) = 0.24778 0.10551
# Poissons Ratio (y) = 0.45687 0.15354
# Poissons Ratio (z) = 0.22498 0.17757
#
# Static dielectric constant tensor:
#      x y z
#    x 1.954780 0.000000 0.000000 
#    y 0.000000 1.514700 0.000000 
#    z 0.000000 0.000000 1.903200 
# 
# From -- ./inp_files/11636.got.cif
#   From: 2010.05.17/outbox.cif.g08.bks.cpg/sg37_6_cif.got.tgz:11636.got - 2010.06.03 17:53:42.
