data_PCOD9354817
_publ_section_title
;
Structure prediction by ZEFSAII (Michael W. Deem and Ramdas Pophale) SiO2 
 PCOD9354817
Probable space group: C C C 2
;
_chemical_formula_sum "Si O2"
_cell_formula_units_Z 60
_cell_length_a 8.753215
_cell_length_b 11.690382
_cell_length_c 27.264367
_cell_angle_alpha 90.000000
_cell_angle_beta 90.000000
_cell_angle_gamma 90.000000
_cell_volume 2789.919790
_symmetry_space_group_name_H-M "C C C 2"
_symmetry_group_IT_number 37
_symmetry_cell_setting 'orthorhombic'
loop_
_space_group_symop_operation_xyz
x,y,z
-x,-y,z
-x,y,1/2+z
x,-y,1/2+z
1/2+x,1/2+y,z
1/2-x,1/2-y,z
1/2-x,1/2+y,1/2+z
1/2+x,1/2-y,1/2+z
loop_
_atom_site_type_symbol
_atom_site_label
_atom_site_fract_x
_atom_site_fract_y
_atom_site_fract_z
Si Si1 0.135815 0.431120 0.470410
Si Si2 0.153028 0.057978 0.267954
Si Si3 0.750000 0.750000 0.122876
Si Si4 0.075729 0.228369 0.355810
Si Si5 0.634033 0.147065 0.293808
Si Si6 0.793141 0.122503 0.528456
Si Si7 0.070704 0.622285 0.699591
Si Si8 0.049038 0.830717 0.957978
O O1 0.178008 0.520321 0.514425
O O2 0.084528 0.298988 0.477469
O O3 0.302031 0.408834 0.448105
O O4 0.000000 0.500000 0.443680
O O5 0.265031 0.965776 0.292885
O O6 0.092772 0.144014 0.309550
O O7 0.264585 0.109460 0.226799
O O8 0.000000 0.000000 0.246834
O O9 0.798103 0.853211 0.086365
O O10 0.891625 0.706514 0.155310
O O11 0.250000 0.250000 0.371470
O O12 0.983704 0.184616 0.403093
O O13 0.995302 0.341029 0.334750
O O14 0.750000 0.250000 0.301553
O O15 0.547861 0.161011 0.241579
O O16 0.750000 0.250000 0.508558
O O17 0.950729 0.111418 0.499974
O O18 0.000000 0.500000 0.683353
#
# Coordination Sequence:
#
# PCOD9354817 Si02
#       8
#     8   8   4   8   8   8   8   8
#     4  11  21  42  68  90 128 175 222 284 337 403
#     4  11  23  40  63 100 138 182 215 272 338 404
#     4  10  22  42  74  98 124 174 220 282 354 410
#     4  12  23  42  62  96 134 178 232 272 324 397
#     4  11  23  41  65  96 138 177 216 271 340 402
#     4  10  23  43  68  93 132 172 224 284 356 397
#     4  10  22  40  70  96 134 168 220 276 339 412
#     4  11  25  43  65 100 130 185 234 280 342 394
#
# _framework density 21.505994999999999
#
# number of rings (size 3 to 8) (size 9 to 14) (size 15 to 20)
#    0.400    0.800    5.333    1.200    0.000    4.267 
#    0.000    1.333    5.867    0.000    0.000    0.000 
#    0.000    0.000    0.000    0.000    0.000    0.000 
#
# Total GULP energy -167109.145757 kJ/mol
# GULP energy per Si atom -5570.304859 kJ/mol
# Density = 2.145705 g / cm^3
# Si number density = 21.505995 Si / 1000 Ang^3
#
#
#
# Elastic Constant Matrix: (Units=GPa)
#
#
# Indices 1 2 3 4 5 6 
#
# 1 99.0975 26.0859 24.5016 0.0000 0.0000 0.0000
# 2 26.0859 108.7775 36.2360 0.0000 0.0000 0.0000
# 3 24.5016 36.2360 70.9084 0.0000 0.0000 0.0000
# 4 0.0000 0.0000 0.0000 66.5283 0.0000 0.0000
# 5 0.0000 0.0000 0.0000 0.0000 9.1713 0.0000
# 6 0.0000 0.0000 0.0000 0.0000 0.0000 38.4161
#
#
#
# Elastic Compliance Matrix: (Units=1/GPa)
#
#
# Indices 1 2 3 4 5 6 
#
# 1 0.011288 -0.001696 -0.003033 0.000000 0.000000 0.000000
# 2 -0.001696 0.011334 -0.005206 0.000000 0.000000 0.000000
# 3 -0.003033 -0.005206 0.017811 0.000000 0.000000 0.000000
# 4 0.000000 0.000000 0.000000 0.015031 0.000000 0.000000
# 5 0.000000 0.000000 0.000000 0.000000 0.109035 0.000000
# 6 0.000000 0.000000 0.000000 0.000000 0.000000 0.026031
#
#
# Mechanical properties :
#
#
# Convention : Reuss Voigt Hill
#
# Bulk Modulus (GPa) = 48.63433 50.27003 49.45218
# Shear Modulus (GPa) = 23.01440 35.62048 29.31744
#
# Velocity S-wave (km/s) = 3.27485 4.07419 3.69619
# Velocity P-wave (km/s) = 6.07971 6.74964 6.42342
#
# Compressibility (1/GPa) = 0.02056161
#
# Stress axis : x y z
#
# Youngs Moduli (GPa) = 88.59259 88.22975 56.14459
#
# Poissons Ratio (x) = 0.14967 0.17031
# Poissons Ratio (y) = 0.15029 0.29228
# Poissons Ratio (z) = 0.26874 0.45931
#
# Static dielectric constant tensor:
#      x y z
#    x 1.808960 0.000000 0.000000 
#    y 0.000000 1.841000 0.000000 
#    z 0.000000 0.000000 1.757220 
# 
# From -- ./inp_files/20396.got.cif
#   From: 2010.05.17/outbox.cif.g08.bks.cpg/sg37_11_cif.got.tgz:20396.got - 2010.06.03 17:53:42.
