data_PCOD9354602
_publ_section_title
;
Structure prediction by ZEFSAII (Michael W. Deem and Ramdas Pophale) SiO2 
 PCOD9354602
Probable space group: C C C 2
;
_chemical_formula_sum "Si O2"
_cell_formula_units_Z 36
_cell_length_a 14.009661
_cell_length_b 8.305423
_cell_length_c 13.150102
_cell_angle_alpha 90.000000
_cell_angle_beta 90.000000
_cell_angle_gamma 90.000000
_cell_volume 1530.095381
_symmetry_space_group_name_H-M "C C C 2"
_symmetry_group_IT_number 37
_symmetry_cell_setting 'orthorhombic'
loop_
_space_group_symop_operation_xyz
x,y,z
-x,-y,z
-x,y,1/2+z
x,-y,1/2+z
1/2+x,1/2+y,z
1/2-x,1/2-y,z
1/2-x,1/2+y,1/2+z
1/2+x,1/2-y,1/2+z
loop_
_atom_site_type_symbol
_atom_site_label
_atom_site_fract_x
_atom_site_fract_y
_atom_site_fract_z
Si Si1 0.821379 0.895310 0.448450
Si Si2 0.731245 0.579384 0.675815
Si Si3 0.574603 0.637284 0.263039
Si Si4 0.412572 0.899171 0.600530
Si Si5 0.750000 0.750000 0.963057
O O1 0.750000 0.750000 0.422827
O O2 0.827795 0.892623 0.570912
O O3 0.916012 0.853237 0.384855
O O4 0.778347 0.072074 0.421007
O O5 0.750000 0.750000 0.729686
O O6 0.677328 0.434864 0.730687
O O7 0.835084 0.522539 0.643275
O O8 0.500000 0.500000 0.237186
O O9 0.553425 0.792684 0.196379
O O10 0.347292 0.790956 0.526332
O O11 0.500000 0.000000 0.554673
#
# Coordination Sequence:
#
# PCOD9354602 Si02
#       5
#     8   8   8   8   4
#     4  10  22  42  68  95 136 185 228 289 360 418
#     4  10  21  42  69  95 131 181 228 286 360 415
#     4  12  24  41  64 102 140 181 231 293 352 432
#     4  11  21  43  73 101 134 183 242 290 357 431
#     4  10  22  48  70 104 136 192 236 304 356 424
#
# _framework density 23.527944000000002
#
# number of rings (size 3 to 8) (size 9 to 14) (size 15 to 20)
#    0.000    1.333    4.444    2.667    1.556    0.889 
#   16.000    0.000    0.000    0.000    0.000    0.000 
#    0.000    0.000    0.000    0.000    0.000    0.000 
#
# Total GULP energy -100440.272922 kJ/mol
# GULP energy per Si atom -5580.015162 kJ/mol
# Density = 2.347439 g / cm^3
# Si number density = 23.527944 Si / 1000 Ang^3
#
#
#
# Elastic Constant Matrix: (Units=GPa)
#
#
# Indices 1 2 3 4 5 6 
#
# 1 87.6679 11.1940 9.6452 0.0000 0.0000 0.0000
# 2 11.1940 144.8800 26.7441 0.0000 0.0000 0.0000
# 3 9.6452 26.7441 60.1359 0.0000 0.0000 0.0000
# 4 0.0000 0.0000 0.0000 26.6680 0.0000 0.0000
# 5 0.0000 0.0000 0.0000 0.0000 10.0920 0.0000
# 6 0.0000 0.0000 0.0000 0.0000 0.0000 42.1017
#
#
#
# Elastic Compliance Matrix: (Units=1/GPa)
#
#
# Indices 1 2 3 4 5 6 
#
# 1 0.011660 -0.000605 -0.001601 0.000000 0.000000 0.000000
# 2 -0.000605 0.007551 -0.003261 0.000000 0.000000 0.000000
# 3 -0.001601 -0.003261 0.018336 0.000000 0.000000 0.000000
# 4 0.000000 0.000000 0.000000 0.037498 0.000000 0.000000
# 5 0.000000 0.000000 0.000000 0.000000 0.099088 0.000000
# 6 0.000000 0.000000 0.000000 0.000000 0.000000 0.023752
#
#
# Mechanical properties :
#
#
# Convention : Reuss Voigt Hill
#
# Bulk Modulus (GPa) = 37.57637 43.09447 40.33542
# Shear Modulus (GPa) = 22.96835 32.11240 27.54037
#
# Velocity S-wave (km/s) = 3.12783 3.69841 3.42503
# Velocity P-wave (km/s) = 5.38981 6.04927 5.72904
#
# Compressibility (1/GPa) = 0.02661247
#
# Stress axis : x y z
#
# Youngs Moduli (GPa) = 85.76242 132.43261 54.53737
#
# Poissons Ratio (x) = 0.08017 0.08731
# Poissons Ratio (y) = 0.05192 0.17785
# Poissons Ratio (z) = 0.13730 0.43187
#
# Static dielectric constant tensor:
#      x y z
#    x 1.976390 0.000000 0.000000 
#    y 0.000000 1.959820 0.000000 
#    z 0.000000 0.000000 1.988550 
# 
# From -- ./inp_files/10259.got.cif
#   From: 2010.05.17/outbox.cif.g08.bks.cpg/sg37_6_cif.got.tgz:10259.got - 2010.06.03 17:53:42.
