data_PCOD9354400
_publ_section_title
;
Structure prediction by ZEFSAII (Michael W. Deem and Ramdas Pophale) SiO2 
 PCOD9354400
Probable space group: C C C 2
;
_chemical_formula_sum "Si O2"
_cell_formula_units_Z 52
_cell_length_a 13.905559
_cell_length_b 8.913240
_cell_length_c 20.649712
_cell_angle_alpha 90.000000
_cell_angle_beta 90.000000
_cell_angle_gamma 90.000000
_cell_volume 2559.399328
_symmetry_space_group_name_H-M "C C C 2"
_symmetry_group_IT_number 37
_symmetry_cell_setting 'orthorhombic'
loop_
_space_group_symop_operation_xyz
x,y,z
-x,-y,z
-x,y,1/2+z
x,-y,1/2+z
1/2+x,1/2+y,z
1/2-x,1/2-y,z
1/2-x,1/2+y,1/2+z
1/2+x,1/2-y,1/2+z
loop_
_atom_site_type_symbol
_atom_site_label
_atom_site_fract_x
_atom_site_fract_y
_atom_site_fract_z
Si Si1 0.601858 0.545840 0.154370
Si Si2 0.250000 0.750000 0.319650
Si Si3 0.397288 0.567272 0.405385
Si Si4 0.849286 0.652801 0.106932
Si Si5 0.651789 0.652484 0.525048
Si Si6 0.282691 0.907045 0.199164
Si Si7 0.027817 0.654360 0.485412
O O1 0.500000 0.500000 0.180408
O O2 0.587817 0.719782 0.139685
O O3 0.631044 0.457560 0.087151
O O4 0.686570 0.507870 0.203828
O O5 0.314130 0.629714 0.358226
O O6 0.314951 0.848881 0.269222
O O7 0.500000 0.500000 0.379542
O O8 0.356487 0.452687 0.460441
O O9 0.428937 0.718865 0.441030
O O10 0.750000 0.750000 0.100332
O O11 0.845299 0.507510 0.152015
O O12 0.892126 0.612973 0.038316
O O13 0.750000 0.750000 0.525789
O O14 0.563400 0.768392 0.519866
O O15 0.250000 0.750000 0.167114
O O16 0.000000 0.500000 0.451155
#
# Coordination Sequence:
#
# PCOD9354400 Si02
#       7
#     8   4   8   8   8   8   8
#     4  11  19  37  63  92 134 167 207 269 333 404
#     4  10  24  44  74  82 130 182 234 278 334 378
#     4  10  23  46  69  96 132 173 230 278 338 406
#     4  10  21  37  63  93 135 166 205 265 331 397
#     4  11  23  39  63 103 136 168 213 271 345 411
#     4   9  23  40  58  92 119 172 230 261 325 390
#     4  11  24  35  63 104 133 164 212 264 341 410
#
# _framework density 20.317267999999999
#
# number of rings (size 3 to 8) (size 9 to 14) (size 15 to 20)
#    0.462    1.231    3.077    0.923    9.692    0.615 
#    0.000    2.308    3.385    0.000    0.000    0.000 
#    0.000    0.000    0.000    0.000    0.000    0.000 
#
# Total GULP energy -144781.631888 kJ/mol
# GULP energy per Si atom -5568.524303 kJ/mol
# Density = 2.027102 g / cm^3
# Si number density = 20.317268 Si / 1000 Ang^3
#
#
#
# Elastic Constant Matrix: (Units=GPa)
#
#
# Indices 1 2 3 4 5 6 
#
# 1 32.1161 8.7093 24.9186 0.0000 0.0000 0.0000
# 2 8.7093 136.2122 36.0611 0.0000 0.0000 0.0000
# 3 24.9186 36.0611 64.3631 0.0000 0.0000 0.0000
# 4 0.0000 0.0000 0.0000 30.9015 0.0000 0.0000
# 5 0.0000 0.0000 0.0000 0.0000 -55.4212 0.0000
# 6 0.0000 0.0000 0.0000 0.0000 0.0000 27.6951
#
#
#
# Elastic Compliance Matrix: (Units=1/GPa)
#
#
# Indices 1 2 3 4 5 6 
#
# 1 0.044982 0.002036 -0.018556 0.000000 0.000000 0.000000
# 2 0.002036 0.008712 -0.005670 0.000000 0.000000 0.000000
# 3 -0.018556 -0.005670 0.025898 0.000000 0.000000 0.000000
# 4 0.000000 0.000000 0.000000 0.032361 0.000000 0.000000
# 5 0.000000 0.000000 0.000000 0.000000 -0.018044 0.000000
# 6 0.000000 0.000000 0.000000 0.000000 0.000000 0.036108
#
#
# Mechanical properties :
#
#
# Convention : Reuss Voigt Hill
#
# Bulk Modulus (GPa) = 28.39828 41.34104 34.86966
# Shear Modulus (GPa) = 26.86239 11.50190 19.18214
#
# Velocity S-wave (km/s) = 3.64008 2.38190 3.07600
# Velocity P-wave (km/s) = 5.62802 5.28739 5.46036
#
# Compressibility (1/GPa) = 0.03521340
#
# Stress axis : x y z
#
# Youngs Moduli (GPa) = 22.23089 114.78035 38.61358
#
# Poissons Ratio (x) = -0.23375 0.71652
# Poissons Ratio (y) = -0.04527 0.21893
# Poissons Ratio (z) = 0.41252 0.65077
#
# Static dielectric constant tensor:
#      x y z
#    x 1.884870 0.000000 0.000000 
#    y 0.000000 1.750010 0.000000 
#    z 0.000000 0.000000 1.741730 
# 
# From -- ./inp_files/16373.got.cif
#   From: 2010.05.17/outbox.cif.g08.bks.cpg/sg37_9_cif.got.tgz:16373.got - 2010.06.03 17:53:42.
