data_PCOD9354930
_publ_section_title
;
Structure prediction by ZEFSAII (Michael W. Deem and Ramdas Pophale) SiO2 
 PCOD9354930
Probable space group: C C C 2
;
_chemical_formula_sum "Si O2"
_cell_formula_units_Z 56
_cell_length_a 17.356715
_cell_length_b 10.583803
_cell_length_c 13.084035
_cell_angle_alpha 90.000000
_cell_angle_beta 90.000000
_cell_angle_gamma 90.000000
_cell_volume 2403.537914
_symmetry_space_group_name_H-M "C C C 2"
_symmetry_group_IT_number 37
_symmetry_cell_setting 'orthorhombic'
loop_
_space_group_symop_operation_xyz
x,y,z
-x,-y,z
-x,y,1/2+z
x,-y,1/2+z
1/2+x,1/2+y,z
1/2-x,1/2-y,z
1/2-x,1/2+y,1/2+z
1/2+x,1/2-y,1/2+z
loop_
_atom_site_type_symbol
_atom_site_label
_atom_site_fract_x
_atom_site_fract_y
_atom_site_fract_z
Si Si1 0.315288 0.033338 0.756770
Si Si2 0.312329 0.356710 0.235049
Si Si3 0.397504 0.627777 0.938012
Si Si4 0.821137 0.658093 0.963869
Si Si5 0.909964 0.245535 0.156864
Si Si6 0.582515 0.836529 0.157232
Si Si7 0.936841 0.147520 0.367164
O O1 0.298686 0.058882 0.876554
O O2 0.346073 0.157230 0.699069
O O3 0.382811 0.927180 0.745511
O O4 0.234172 0.983730 0.711308
O O5 0.250000 0.250000 0.213550
O O6 0.332484 0.349086 0.354502
O O7 0.386472 0.307523 0.173806
O O8 0.476461 0.685763 0.892885
O O9 0.414568 0.478473 0.927646
O O10 0.387491 0.681242 0.050601
O O11 0.750000 0.750000 0.990978
O O12 0.881595 0.745252 0.905650
O O13 0.869779 0.610071 0.060110
O O14 0.925764 0.141034 0.245317
O O15 0.990916 0.324325 0.146744
#
# Coordination Sequence:
#
# PCOD9354930 Si02
#       7
#     8   8   8   8   8   8   8
#     4  10  24  42  65 100 141 183 234 300 369 431
#     4  10  22  43  67  98 139 184 237 292 359 427
#     4  11  22  41  71  99 136 180 236 295 362 434
#     4  11  22  42  66  96 140 179 236 293 371 438
#     4  11  23  44  69 105 140 183 245 297 363 441
#     4  11  22  43  71  99 136 190 243 297 363 441
#     4  10  23  40  65 101 135 183 227 296 356 432
#
# _framework density 23.298987
#
# number of rings (size 3 to 8) (size 9 to 14) (size 15 to 20)
#    0.000    1.429    2.857    2.571    0.000    5.714 
#    0.000   15.714    0.000    0.000    0.000    0.000 
#    0.000    0.000    0.000    0.000    0.000    0.000 
#
# Total GULP energy -156400.708104 kJ/mol
# GULP energy per Si atom -5585.739575 kJ/mol
# Density = 2.324596 g / cm^3
# Si number density = 23.298987 Si / 1000 Ang^3
#
#
#
# Elastic Constant Matrix: (Units=GPa)
#
#
# Indices 1 2 3 4 5 6 
#
# 1 71.5043 21.2003 21.5353 0.0000 0.0000 0.0000
# 2 21.2003 63.0249 37.5228 0.0000 0.0000 0.0000
# 3 21.5353 37.5228 132.1996 0.0000 0.0000 0.0000
# 4 0.0000 0.0000 0.0000 15.8841 0.0000 0.0000
# 5 0.0000 0.0000 0.0000 0.0000 32.5539 0.0000
# 6 0.0000 0.0000 0.0000 0.0000 0.0000 33.8858
#
#
#
# Elastic Compliance Matrix: (Units=1/GPa)
#
#
# Indices 1 2 3 4 5 6 
#
# 1 0.015711 -0.004526 -0.001275 0.000000 0.000000 0.000000
# 2 -0.004526 0.020397 -0.005052 0.000000 0.000000 0.000000
# 3 -0.001275 -0.005052 0.009206 0.000000 0.000000 0.000000
# 4 0.000000 0.000000 0.000000 0.062956 0.000000 0.000000
# 5 0.000000 0.000000 0.000000 0.000000 0.030718 0.000000
# 6 0.000000 0.000000 0.000000 0.000000 0.000000 0.029511
#
#
# Mechanical properties :
#
#
# Convention : Reuss Voigt Hill
#
# Bulk Modulus (GPa) = 42.35774 47.47174 44.91474
# Shear Modulus (GPa) = 25.24308 28.89613 27.06961
#
# Velocity S-wave (km/s) = 3.29514 3.52551 3.41227
# Velocity P-wave (km/s) = 5.71811 6.08207 5.90290
#
# Compressibility (1/GPa) = 0.02360844
#
# Stress axis : x y z
#
# Youngs Moduli (GPa) = 63.64983 49.02685 108.62574
#
# Poissons Ratio (x) = 0.22189 0.13847
# Poissons Ratio (y) = 0.28807 0.54879
# Poissons Ratio (z) = 0.08113 0.24769
#
# Static dielectric constant tensor:
#      x y z
#    x 1.898870 0.000000 0.000000 
#    y 0.000000 1.944430 0.000000 
#    z 0.000000 0.000000 1.922740 
# 
# From -- ./inp_files/8598.got.cif
#   From: 2010.05.17/outbox.cif.g08.bks.cpg/sg37_5_cif.got.tgz:8598.got - 2010.06.03 17:53:42.
