data_PCOD9354456
_publ_section_title
;
Structure prediction by ZEFSAII (Michael W. Deem and Ramdas Pophale) SiO2 
 PCOD9354456
Probable space group: C C C 2
;
_chemical_formula_sum "Si O2"
_cell_formula_units_Z 56
_cell_length_a 5.076436
_cell_length_b 25.567555
_cell_length_c 22.854235
_cell_angle_alpha 90.000000
_cell_angle_beta 90.000000
_cell_angle_gamma 90.000000
_cell_volume 2966.298163
_symmetry_space_group_name_H-M "C C C 2"
_symmetry_group_IT_number 37
_symmetry_cell_setting 'orthorhombic'
loop_
_space_group_symop_operation_xyz
x,y,z
-x,-y,z
-x,y,1/2+z
x,-y,1/2+z
1/2+x,1/2+y,z
1/2-x,1/2-y,z
1/2-x,1/2+y,1/2+z
1/2+x,1/2-y,1/2+z
loop_
_atom_site_type_symbol
_atom_site_label
_atom_site_fract_x
_atom_site_fract_y
_atom_site_fract_z
Si Si1 0.395759 0.800027 0.826980
Si Si2 0.999548 0.718036 0.692754
Si Si3 0.023611 0.061782 0.953329
Si Si4 0.901172 0.941527 0.726350
Si Si5 0.417025 0.098585 0.159780
Si Si6 0.480152 0.061688 0.531797
Si Si7 0.896615 0.870699 0.839158
O O1 0.250000 0.750000 0.857264
O O2 0.493313 0.781309 0.763471
O O3 0.647834 0.832020 0.851796
O O4 0.152224 0.838954 0.818497
O O5 0.250000 0.750000 0.671314
O O6 0.750000 0.750000 0.671879
O O7 0.006738 0.657908 0.675088
O O8 0.013413 0.096928 0.895849
O O9 0.305553 0.071384 0.982024
O O10 0.000000 0.000000 0.938447
O O11 0.802070 0.072895 0.002518
O O12 0.134269 0.914469 0.688322
O O13 0.636388 0.939090 0.688351
O O14 0.836119 0.909917 0.785668
O O15 0.000000 0.000000 0.739254
O O16 0.440042 0.091332 0.090423
O O17 0.500000 0.000000 0.546176
#
# Coordination Sequence:
#
# PCOD9354456 Si02
#       7
#     8   8   8   8   8   8   8
#     4  11  22  37  60  87 121 155 200 243 297 364
#     4  11  21  37  59  86 118 154 197 243 293 358
#     4  10  22  39  61  86 116 161 207 241 285 356
#     4  12  23  36  56  91 127 156 186 244 316 371
#     4  12  23  39  60  89 122 158 198 250 305 360
#     4  10  21  39  60  84 116 161 208 242 283 355
#     4  12  21  39  59  89 122 156 195 248 302 359
#
# _framework density 18.878748000000002
#
# number of rings (size 3 to 8) (size 9 to 14) (size 15 to 20)
#    0.000    0.857    2.857    6.429    0.000    1.143 
#    0.000    4.286    0.000    8.571    0.000    0.000 
#    0.000    0.000    0.000    0.000    0.000    0.000 
#
# Total GULP energy -156344.149214 kJ/mol
# GULP energy per Si atom -5583.719615 kJ/mol
# Density = 1.883578 g / cm^3
# Si number density = 18.878748 Si / 1000 Ang^3
#
#
#
# Elastic Constant Matrix: (Units=GPa)
#
#
# Indices 1 2 3 4 5 6 
#
# 1 90.7383 25.3767 -5.8987 0.0000 0.0000 0.0000
# 2 25.3767 79.1453 25.0916 0.0000 0.0000 0.0000
# 3 -5.8987 25.0916 51.9088 0.0000 0.0000 0.0000
# 4 0.0000 0.0000 0.0000 -10.8181 0.0000 0.0000
# 5 0.0000 0.0000 0.0000 0.0000 -5.9847 0.0000
# 6 0.0000 0.0000 0.0000 0.0000 0.0000 32.2511
#
#
#
# Elastic Compliance Matrix: (Units=1/GPa)
#
#
# Indices 1 2 3 4 5 6 
#
# 1 0.012791 -0.005388 0.004058 0.000000 0.000000 0.000000
# 2 -0.005388 0.017191 -0.008922 0.000000 0.000000 0.000000
# 3 0.004058 -0.008922 0.024038 0.000000 0.000000 0.000000
# 4 0.000000 0.000000 0.000000 -0.092438 0.000000 0.000000
# 5 0.000000 0.000000 0.000000 0.000000 -0.167093 0.000000
# 6 0.000000 0.000000 0.000000 0.000000 0.000000 0.031007
#
#
# Mechanical properties :
#
#
# Convention : Reuss Voigt Hill
#
# Bulk Modulus (GPa) = 29.83570 34.54794 32.19182
# Shear Modulus (GPa) = -35.00747 14.90452 -10.05148
#
# Velocity S-wave (km/s) = -4.31087 2.81283 -2.30993
# Velocity P-wave (km/s) = 2.98997 5.37485 3.15825
#
# Compressibility (1/GPa) = 0.03351689
#
# Stress axis : x y z
#
# Youngs Moduli (GPa) = 78.17805 58.16969 41.60010
#
# Poissons Ratio (x) = 0.31341 -0.16881
# Poissons Ratio (y) = 0.42121 0.37116
# Poissons Ratio (z) = -0.31724 0.51899
#
# Static dielectric constant tensor:
#      x y z
#    x 1.662510 0.000000 0.000000 
#    y 0.000000 1.730630 0.000000 
#    z 0.000000 0.000000 1.616450 
# 
# From -- ./inp_files/15915.got.cif
#   From: 2010.05.17/outbox.cif.g08.bks.cpg/sg37_8_cif.got.tgz:15915.got - 2010.06.03 17:53:42.
