data_PCOD9354749
_publ_section_title
;
Structure prediction by ZEFSAII (Michael W. Deem and Ramdas Pophale) SiO2 
 PCOD9354749
Probable space group: C C C 2
;
_chemical_formula_sum "Si O2"
_cell_formula_units_Z 64
_cell_length_a 24.523832
_cell_length_b 15.023048
_cell_length_c 8.355340
_cell_angle_alpha 90.000000
_cell_angle_beta 90.000000
_cell_angle_gamma 90.000000
_cell_volume 3078.296966
_symmetry_space_group_name_H-M "C C C 2"
_symmetry_group_IT_number 37
_symmetry_cell_setting 'orthorhombic'
loop_
_space_group_symop_operation_xyz
x,y,z
-x,-y,z
-x,y,1/2+z
x,-y,1/2+z
1/2+x,1/2+y,z
1/2-x,1/2-y,z
1/2-x,1/2+y,1/2+z
1/2+x,1/2-y,1/2+z
loop_
_atom_site_type_symbol
_atom_site_label
_atom_site_fract_x
_atom_site_fract_y
_atom_site_fract_z
Si Si1 0.023255 0.623201 0.852450
Si Si2 0.655923 0.589665 0.121104
Si Si3 0.391329 0.869480 0.328233
Si Si4 0.307610 0.708811 0.318186
Si Si5 0.550686 0.312354 0.984974
Si Si6 0.027803 0.094253 0.181287
Si Si7 0.830669 0.888400 0.503445
Si Si8 0.416155 0.013992 0.087842
O O1 0.049583 0.716350 0.904425
O O2 0.045551 0.580319 0.689230
O O3 0.957954 0.639072 0.839707
O O4 0.047712 0.549088 0.973387
O O5 0.590030 0.598750 0.125309
O O6 0.676551 0.610834 0.306307
O O7 0.676145 0.647739 0.970495
O O8 0.668387 0.488891 0.068564
O O9 0.356084 0.782172 0.304145
O O10 0.376930 0.920571 0.491107
O O11 0.383354 0.943604 0.192883
O O12 0.250000 0.750000 0.363628
O O13 0.297629 0.663425 0.142981
O O14 0.529744 0.390227 0.869509
O O15 0.610461 0.342839 0.028710
O O16 0.507378 0.320930 0.125060
O O17 0.000000 0.000000 0.149347
#
# Coordination Sequence:
#
# PCOD9354749 Si02
#       8
#     8   8   8   8   8   8   8   8
#     4  11  21  36  61  94 136 181 216 263 344 417
#     4  11  24  45  73 105 146 189 230 286 356 429
#     4  11  22  41  65  92 138 172 229 289 340 420
#     4  12  29  51  74 102 131 183 251 311 359 407
#     4  11  25  33  61 100 142 189 226 268 335 426
#     4  11  23  37  59 102 147 186 222 264 333 434
#     4  11  24  45  74 103 143 186 230 288 357 425
#     4  10  22  39  62  96 134 180 216 270 347 425
#
# _framework density 20.790717000000001
#
# number of rings (size 3 to 8) (size 9 to 14) (size 15 to 20)
#    0.000    1.000    2.500    4.875   12.250    0.500 
#    2.250    0.000    0.000    0.000    0.000    0.000 
#    0.000    0.000    0.000    0.000    0.000    0.000 
#
# Total GULP energy -178365.946534 kJ/mol
# GULP energy per Si atom -5573.935829 kJ/mol
# Density = 2.074340 g / cm^3
# Si number density = 20.790717 Si / 1000 Ang^3
#
#
#
# Elastic Constant Matrix: (Units=GPa)
#
#
# Indices 1 2 3 4 5 6 
#
# 1 33.9386 35.7160 21.5511 0.0000 0.0000 0.0000
# 2 35.7160 140.1017 45.2967 0.0000 0.0000 0.0000
# 3 21.5511 45.2967 98.6801 0.0000 0.0000 0.0000
# 4 0.0000 0.0000 0.0000 11.1406 0.0000 0.0000
# 5 0.0000 0.0000 0.0000 0.0000 11.9745 0.0000
# 6 0.0000 0.0000 0.0000 0.0000 0.0000 24.8543
#
#
#
# Elastic Compliance Matrix: (Units=1/GPa)
#
#
# Indices 1 2 3 4 5 6 
#
# 1 0.042296 -0.009155 -0.005035 0.000000 0.000000 0.000000
# 2 -0.009155 0.010363 -0.002758 0.000000 0.000000 0.000000
# 3 -0.005035 -0.002758 0.012499 0.000000 0.000000 0.000000
# 4 0.000000 0.000000 0.000000 0.089762 0.000000 0.000000
# 5 0.000000 0.000000 0.000000 0.000000 0.083511 0.000000
# 6 0.000000 0.000000 0.000000 0.000000 0.000000 0.040234
#
#
# Mechanical properties :
#
#
# Convention : Reuss Voigt Hill
#
# Bulk Modulus (GPa) = 31.98564 53.09422 42.53993
# Shear Modulus (GPa) = 15.48075 20.93765 18.20920
#
# Velocity S-wave (km/s) = 2.73169 3.17687 2.96266
# Velocity P-wave (km/s) = 5.03662 6.24897 5.67526
#
# Compressibility (1/GPa) = 0.03126403
#
# Stress axis : x y z
#
# Youngs Moduli (GPa) = 23.64269 96.49684 80.00537
#
# Poissons Ratio (x) = 0.88340 0.40283
# Poissons Ratio (y) = 0.21644 0.22062
# Poissons Ratio (z) = 0.11904 0.26610
#
# Static dielectric constant tensor:
#      x y z
#    x 1.655920 0.000000 0.000000 
#    y 0.000000 1.749230 0.000000 
#    z 0.000000 0.000000 1.840850 
# 
# From -- ./inp_files/4668.got.cif
#   From: 2010.05.17/outbox.cif.g08.bks.cpg/sg37_3_cif.got.tgz:4668.got - 2010.06.03 17:53:42.
