data_PCOD9354504
_publ_section_title
;
Structure prediction by ZEFSAII (Michael W. Deem and Ramdas Pophale) SiO2 
 PCOD9354504
Probable space group: C C C 2
;
_chemical_formula_sum "Si O2"
_cell_formula_units_Z 64
_cell_length_a 9.518000
_cell_length_b 33.808802
_cell_length_c 8.365710
_cell_angle_alpha 90.000000
_cell_angle_beta 90.000000
_cell_angle_gamma 90.000000
_cell_volume 2692.020037
_symmetry_space_group_name_H-M "C C C 2"
_symmetry_group_IT_number 37
_symmetry_cell_setting 'orthorhombic'
loop_
_space_group_symop_operation_xyz
x,y,z
-x,-y,z
-x,y,1/2+z
x,-y,1/2+z
1/2+x,1/2+y,z
1/2-x,1/2-y,z
1/2-x,1/2+y,1/2+z
1/2+x,1/2-y,1/2+z
loop_
_atom_site_type_symbol
_atom_site_label
_atom_site_fract_x
_atom_site_fract_y
_atom_site_fract_z
Si Si1 0.594140 0.463907 0.168190
Si Si2 0.120284 0.533224 0.342015
Si Si3 0.122786 0.087918 0.366158
Si Si4 0.598928 0.081140 0.653784
Si Si5 0.145748 0.334534 0.056863
Si Si6 0.586767 0.326710 0.748013
Si Si7 0.939519 0.285828 0.274055
Si Si8 0.410994 0.270897 0.517916
O O1 0.500000 0.500000 0.100494
O O2 0.733964 0.478896 0.259379
O O3 0.510478 0.559094 0.284923
O O4 0.639462 0.430814 0.040362
O O5 0.146533 0.550618 0.517204
O O6 0.000000 0.500000 0.354758
O O7 0.042301 0.566110 0.235739
O O8 0.274152 0.086041 0.279456
O O9 0.061820 0.132455 0.343721
O O10 0.573252 0.123260 0.571713
O O11 0.304731 0.338224 0.110509
O O12 0.072794 0.305806 0.187516
O O13 0.137822 0.318168 0.878769
O O14 0.470041 0.302123 0.648670
O O15 0.657194 0.296846 0.877658
O O16 0.862840 0.267053 0.121908
O O17 0.972866 0.251860 0.405093
#
# Coordination Sequence:
#
# PCOD9354504 Si02
#       8
#     8   8   8   8   8   8   8   8
#     4  12  26  45  70  99 133 172 218 271 329 394
#     4  12  26  45  70  99 133 172 218 271 329 394
#     4  11  24  43  68  98 133 174 220 272 330 393
#     4  11  24  43  68  98 133 174 220 272 330 393
#     4  10  21  40  63  89 126 168 212 265 323 385
#     4  10  21  40  63  89 126 168 212 265 323 385
#     4   9  19  36  59  90 125 162 210 262 314 380
#     4   9  19  36  59  90 125 162 210 262 314 380
#
# _framework density 23.773966999999999
#
# number of rings (size 3 to 8) (size 9 to 14) (size 15 to 20)
#    0.000    1.500    0.000    4.500    0.000    9.500 
#    0.000   10.000    0.000    0.000    0.000    0.000 
#    0.000    0.000    0.000    0.000    0.000    0.000 
#
# Total GULP energy -178690.886928 kJ/mol
# GULP energy per Si atom -5584.090216 kJ/mol
# Density = 2.371986 g / cm^3
# Si number density = 23.773967 Si / 1000 Ang^3
#
#
#
# Elastic Constant Matrix: (Units=GPa)
#
#
# Indices 1 2 3 4 5 6 
#
# 1 65.6339 6.8505 8.1995 0.0000 0.0000 0.0000
# 2 6.8505 83.5101 5.4985 0.0000 0.0000 0.0000
# 3 8.1995 5.4985 98.1413 0.0000 0.0000 0.0000
# 4 0.0000 0.0000 0.0000 32.6621 0.0000 0.0000
# 5 0.0000 0.0000 0.0000 0.0000 10.3702 0.0000
# 6 0.0000 0.0000 0.0000 0.0000 0.0000 11.4205
#
#
#
# Elastic Compliance Matrix: (Units=1/GPa)
#
#
# Indices 1 2 3 4 5 6 
#
# 1 0.015514 -0.001192 -0.001229 0.000000 0.000000 0.000000
# 2 -0.001192 0.012110 -0.000579 0.000000 0.000000 0.000000
# 3 -0.001229 -0.000579 0.010325 0.000000 0.000000 0.000000
# 4 0.000000 0.000000 0.000000 0.030617 0.000000 0.000000
# 5 0.000000 0.000000 0.000000 0.000000 0.096430 0.000000
# 6 0.000000 0.000000 0.000000 0.000000 0.000000 0.087562
#
#
# Mechanical properties :
#
#
# Convention : Reuss Voigt Hill
#
# Bulk Modulus (GPa) = 31.29995 32.04249 31.67122
# Shear Modulus (GPa) = 18.57304 26.00634 22.28969
#
# Velocity S-wave (km/s) = 2.79809 3.31100 3.06529
# Velocity P-wave (km/s) = 4.86141 5.30323 5.08712
#
# Compressibility (1/GPa) = 0.03194893
#
# Stress axis : x y z
#
# Youngs Moduli (GPa) = 64.45788 82.57316 96.85658
#
# Poissons Ratio (x) = 0.09840 0.11908
# Poissons Ratio (y) = 0.07681 0.05607
# Poissons Ratio (z) = 0.07924 0.04781
#
# Static dielectric constant tensor:
#      x y z
#    x 2.005410 0.000000 0.000000 
#    y 0.000000 1.959030 0.000000 
#    z 0.000000 0.000000 1.869600 
# 
# From -- ./inp_files/3133.got.cif
#   From: 2010.05.17/outbox.cif.g08.bks.cpg/sg37_2_cif.got.tgz:3133.got - 2010.06.03 17:53:42.
