data_PCOD9354793
_publ_section_title
;
Structure prediction by ZEFSAII (Michael W. Deem and Ramdas Pophale) SiO2 
 PCOD9354793
Probable space group: C C C 2
;
_chemical_formula_sum "Si O2"
_cell_formula_units_Z 64
_cell_length_a 17.007334
_cell_length_b 8.851537
_cell_length_c 19.961872
_cell_angle_alpha 90.000000
_cell_angle_beta 90.000000
_cell_angle_gamma 90.000000
_cell_volume 3005.081094
_symmetry_space_group_name_H-M "C C C 2"
_symmetry_group_IT_number 37
_symmetry_cell_setting 'orthorhombic'
loop_
_space_group_symop_operation_xyz
x,y,z
-x,-y,z
-x,y,1/2+z
x,-y,1/2+z
1/2+x,1/2+y,z
1/2-x,1/2-y,z
1/2-x,1/2+y,1/2+z
1/2+x,1/2-y,1/2+z
loop_
_atom_site_type_symbol
_atom_site_label
_atom_site_fract_x
_atom_site_fract_y
_atom_site_fract_z
Si Si1 0.500866 0.677966 0.393780
Si Si2 0.836058 0.711492 0.409985
Si Si3 0.192716 0.127425 0.552670
Si Si4 0.910040 0.558116 0.854055
Si Si5 0.305642 0.882053 0.590781
Si Si6 0.908738 0.445380 0.203851
Si Si7 0.467522 0.172196 0.035098
Si Si8 0.947524 0.137373 0.148522
O O1 0.500000 0.500000 0.391570
O O2 0.588845 0.723245 0.370375
O O3 0.427280 0.763387 0.359746
O O4 0.494353 0.741249 0.469222
O O5 0.750000 0.750000 0.382230
O O6 0.834331 0.790180 0.484031
O O7 0.855593 0.532400 0.406199
O O8 0.250000 0.250000 0.587376
O O9 0.121830 0.080103 0.600215
O O10 0.249134 0.985785 0.545795
O O11 0.883594 0.517233 0.779347
O O12 0.000000 0.500000 0.864611
O O13 0.250000 0.750000 0.619137
O O14 0.374584 0.823876 0.543278
O O15 0.352888 0.976751 0.648279
O O16 0.911591 0.263577 0.196954
O O17 0.000000 0.500000 0.196897
O O18 0.500000 0.000000 0.033830
O O19 0.500505 0.260978 0.098602
O O20 0.000000 0.000000 0.175988
#
# Coordination Sequence:
#
# PCOD9354793 Si02
#       8
#     8   8   8   8   8   8   8   8
#     4  11  24  40  65  98 129 165 217 269 323 393
#     4  10  22  40  65  96 125 169 213 268 330 390
#     4  11  22  37  59  97 136 162 204 266 342 398
#     4   9  22  43  69  88 122 177 228 264 316 388
#     4  12  25  38  62  99 133 167 213 273 339 398
#     4  11  22  44  66  91 123 175 229 267 312 400
#     4  12  21  40  64  92 130 170 211 263 327 399
#     4  12  22  37  63  94 128 166 211 264 335 394
#
# _framework density 21.297263000000001
#
# number of rings (size 3 to 8) (size 9 to 14) (size 15 to 20)
#    0.000    1.000    5.000    2.250    7.000    1.000 
#    0.000    0.625    5.500    0.000    0.000    0.000 
#    0.000    0.000    0.000    0.000    0.000    0.000 
#
# Total GULP energy -178463.888823 kJ/mol
# GULP energy per Si atom -5576.996526 kJ/mol
# Density = 2.124879 g / cm^3
# Si number density = 21.297263 Si / 1000 Ang^3
#
#
#
# Elastic Constant Matrix: (Units=GPa)
#
#
# Indices 1 2 3 4 5 6 
#
# 1 126.2793 47.9019 14.7863 0.0000 0.0000 0.0000
# 2 47.9019 115.9383 24.5260 0.0000 0.0000 0.0000
# 3 14.7863 24.5260 73.6575 0.0000 0.0000 0.0000
# 4 0.0000 0.0000 0.0000 6.4606 0.0000 0.0000
# 5 0.0000 0.0000 0.0000 0.0000 13.0852 0.0000
# 6 0.0000 0.0000 0.0000 0.0000 0.0000 44.3994
#
#
#
# Elastic Compliance Matrix: (Units=1/GPa)
#
#
# Indices 1 2 3 4 5 6 
#
# 1 0.009419 -0.003756 -0.000640 0.000000 0.000000 0.000000
# 2 -0.003756 0.010777 -0.002834 0.000000 0.000000 0.000000
# 3 -0.000640 -0.002834 0.014649 0.000000 0.000000 0.000000
# 4 0.000000 0.000000 0.000000 0.154784 0.000000 0.000000
# 5 0.000000 0.000000 0.000000 0.000000 0.076422 0.000000
# 6 0.000000 0.000000 0.000000 0.000000 0.000000 0.022523
#
#
# Mechanical properties :
#
#
# Convention : Reuss Voigt Hill
#
# Bulk Modulus (GPa) = 49.06043 54.47815 51.76929
# Shear Modulus (GPa) = 16.13799 28.03311 22.08555
#
# Velocity S-wave (km/s) = 2.75571 3.63199 3.22376
# Velocity P-wave (km/s) = 5.76292 6.57449 6.18204
#
# Compressibility (1/GPa) = 0.02038303
#
# Stress axis : x y z
#
# Youngs Moduli (GPa) = 106.17162 92.79228 68.26590
#
# Poissons Ratio (x) = 0.34854 0.04369
# Poissons Ratio (y) = 0.39879 0.19349
# Poissons Ratio (z) = 0.06796 0.26301
#
# Static dielectric constant tensor:
#      x y z
#    x 1.796110 0.000000 0.000000 
#    y 0.000000 1.874070 0.000000 
#    z 0.000000 0.000000 1.788810 
# 
# From -- ./inp_files/17341.got.cif
#   From: 2010.05.17/outbox.cif.g08.bks.cpg/sg37_9_cif.got.tgz:17341.got - 2010.06.03 17:53:42.
