data_PCOD9354885
_publ_section_title
;
Structure prediction by ZEFSAII (Michael W. Deem and Ramdas Pophale) SiO2 
 PCOD9354885
Probable space group: C C C 2
;
_chemical_formula_sum "Si O2"
_cell_formula_units_Z 36
_cell_length_a 9.942560
_cell_length_b 12.924855
_cell_length_c 11.169462
_cell_angle_alpha 90.000000
_cell_angle_beta 90.000000
_cell_angle_gamma 90.000000
_cell_volume 1435.344518
_symmetry_space_group_name_H-M "C C C 2"
_symmetry_group_IT_number 37
_symmetry_cell_setting 'orthorhombic'
loop_
_space_group_symop_operation_xyz
x,y,z
-x,-y,z
-x,y,1/2+z
x,-y,1/2+z
1/2+x,1/2+y,z
1/2-x,1/2-y,z
1/2-x,1/2+y,1/2+z
1/2+x,1/2-y,1/2+z
loop_
_atom_site_type_symbol
_atom_site_label
_atom_site_fract_x
_atom_site_fract_y
_atom_site_fract_z
Si Si1 0.452993 0.722519 0.802630
Si Si2 0.250000 0.250000 0.521066
Si Si3 0.323236 0.844620 0.431764
Si Si4 0.883199 0.576665 0.165430
Si Si5 0.170338 0.919414 0.215425
O O1 0.368891 0.717242 0.926921
O O2 0.588830 0.782699 0.837776
O O3 0.383472 0.811669 0.725496
O O4 0.517230 0.623091 0.733161
O O5 0.243472 0.155190 0.616539
O O6 0.250000 0.750000 0.498207
O O7 0.410002 0.906188 0.525576
O O8 0.224956 0.912915 0.352395
O O9 0.735248 0.527943 0.176025
O O10 0.000000 0.500000 0.214368
#
# Coordination Sequence:
#
# PCOD9354885 Si02
#       5
#     8   4   8   8   8
#     4  11  24  44  72 105 151 205 249 321 398 452
#     4  12  24  46  76 100 156 212 242 316 416 444
#     4  10  22  42  68 101 149 191 242 318 382 443
#     4  12  24  39  77 111 144 196 262 308 382 472
#     4  11  23  46  70 114 152 186 266 328 366 470
#
# _framework density 25.081087
#
# number of rings (size 3 to 8) (size 9 to 14) (size 15 to 20)
#    0.000    0.889    5.556    2.667    7.778    0.000 
#    0.000    1.111    0.000    0.000    0.000    0.000 
#    0.000    0.000    0.000    0.000    0.000    0.000 
#
# Total GULP energy -100220.306071 kJ/mol
# GULP energy per Si atom -5567.794782 kJ/mol
# Density = 2.502400 g / cm^3
# Si number density = 25.081087 Si / 1000 Ang^3
#
#
#
# Elastic Constant Matrix: (Units=GPa)
#
#
# Indices 1 2 3 4 5 6 
#
# 1 93.5585 49.0550 14.8182 0.0000 0.0000 0.0000
# 2 49.0550 66.0360 23.7159 0.0000 0.0000 0.0000
# 3 14.8182 23.7159 109.6650 0.0000 0.0000 0.0000
# 4 0.0000 0.0000 0.0000 69.5009 0.0000 0.0000
# 5 0.0000 0.0000 0.0000 0.0000 -1.3121 0.0000
# 6 0.0000 0.0000 0.0000 0.0000 0.0000 33.2959
#
#
#
# Elastic Compliance Matrix: (Units=1/GPa)
#
#
# Indices 1 2 3 4 5 6 
#
# 1 0.017531 -0.013198 0.000485 0.000000 0.000000 0.000000
# 2 -0.013198 0.026353 -0.003916 0.000000 0.000000 0.000000
# 3 0.000485 -0.003916 0.009900 0.000000 0.000000 0.000000
# 4 0.000000 0.000000 0.000000 0.014388 0.000000 0.000000
# 5 0.000000 0.000000 0.000000 0.000000 -0.762138 0.000000
# 6 0.000000 0.000000 0.000000 0.000000 0.000000 0.030034
#
#
# Mechanical properties :
#
#
# Convention : Reuss Voigt Hill
#
# Bulk Modulus (GPa) = 48.71298 49.38197 49.04748
# Shear Modulus (GPa) = -8.01498 32.40831 12.19667
#
# Velocity S-wave (km/s) = -1.78957 3.59854 2.20759
# Velocity P-wave (km/s) = 3.89798 6.08257 5.10842
#
# Compressibility (1/GPa) = 0.02052841
#
# Stress axis : x y z
#
# Youngs Moduli (GPa) = 57.04043 37.94580 101.01062
#
# Poissons Ratio (x) = 0.50079 -0.04901
# Poissons Ratio (y) = 0.75279 0.39554
# Poissons Ratio (z) = -0.02767 0.14859
#
# Static dielectric constant tensor:
#      x y z
#    x 2.215830 0.000000 0.000000 
#    y 0.000000 2.014300 0.000000 
#    z 0.000000 0.000000 1.904510 
# 
# From -- ./inp_files/6877.got.cif
#   From: 2010.05.17/outbox.cif.g08.bks.cpg/sg37_4_cif.got.tgz:6877.got - 2010.06.03 17:53:42.
