data_PCOD9354899
_publ_section_title
;
Structure prediction by ZEFSAII (Michael W. Deem and Ramdas Pophale) SiO2 
 PCOD9354899
Probable space group: C C C 2
;
_chemical_formula_sum "Si O2"
_cell_formula_units_Z 48
_cell_length_a 14.536788
_cell_length_b 5.950239
_cell_length_c 25.862111
_cell_angle_alpha 90.000000
_cell_angle_beta 90.000000
_cell_angle_gamma 90.000000
_cell_volume 2237.004400
_symmetry_space_group_name_H-M "C C C 2"
_symmetry_group_IT_number 37
_symmetry_cell_setting 'orthorhombic'
loop_
_space_group_symop_operation_xyz
x,y,z
-x,-y,z
-x,y,1/2+z
x,-y,1/2+z
1/2+x,1/2+y,z
1/2-x,1/2-y,z
1/2-x,1/2+y,1/2+z
1/2+x,1/2-y,1/2+z
loop_
_atom_site_type_symbol
_atom_site_label
_atom_site_fract_x
_atom_site_fract_y
_atom_site_fract_z
Si Si1 0.000000 0.000000 0.854041
Si Si2 0.146178 0.329356 0.982564
Si Si3 0.896481 0.579654 0.679455
Si Si4 0.839101 0.869010 0.777914
Si Si5 0.854322 0.682125 0.567739
Si Si6 0.000000 0.500000 0.908540
Si Si7 0.500000 0.500000 0.013758
Si Si8 0.250000 0.750000 0.708484
O O1 0.089105 0.034111 0.817949
O O2 0.994884 0.254275 0.879778
O O3 0.250000 0.250000 0.971817
O O4 0.093969 0.495056 0.943005
O O5 0.138762 0.438346 0.040032
O O6 0.078043 0.119408 0.980671
O O7 0.882851 0.701920 0.734618
O O8 0.865430 0.714878 0.629106
O O9 0.828883 0.368292 0.676576
O O10 0.000000 0.500000 0.673886
O O11 0.750000 0.750000 0.803011
O O12 0.798458 0.068536 0.744084
O O13 0.750000 0.750000 0.552998
O O14 0.939544 0.823679 0.545695
#
# Coordination Sequence:
#
# PCOD9354899 Si02
#       8
#     4   8   8   8   8   4   4   4
#     4  12  29  51  82 106 152 194 259 321 404 450
#     4  12  26  48  75 104 148 196 244 319 385 452
#     4  11  24  40  67 107 146 197 243 302 368 459
#     4  10  24  45  73 106 142 194 240 315 377 462
#     4  12  25  41  72 107 147 199 249 301 380 456
#     4  12  30  52  80 116 146 200 264 334 382 474
#     4  12  23  45  70 100 146 194 243 299 372 456
#     4  10  22  42  70  98 152 178 256 296 376 452
#
# _framework density 21.457267000000002
#
# number of rings (size 3 to 8) (size 9 to 14) (size 15 to 20)
#    0.000    0.667    3.333    4.000    7.000    5.333 
#    0.000    1.667    0.000    0.000    0.000    0.000 
#    0.000    0.000    0.000    0.000    0.000    0.000 
#
# Total GULP energy -133852.024690 kJ/mol
# GULP energy per Si atom -5577.167695 kJ/mol
# Density = 2.140843 g / cm^3
# Si number density = 21.457267 Si / 1000 Ang^3
#
#
#
# Elastic Constant Matrix: (Units=GPa)
#
#
# Indices 1 2 3 4 5 6 
#
# 1 190.0264 44.1336 41.3086 0.0000 0.0000 0.0000
# 2 44.1336 72.5760 16.8824 0.0000 0.0000 0.0000
# 3 41.3086 16.8824 57.7049 0.0000 0.0000 0.0000
# 4 0.0000 0.0000 0.0000 15.6404 0.0000 0.0000
# 5 0.0000 0.0000 0.0000 0.0000 30.2352 0.0000
# 6 0.0000 0.0000 0.0000 0.0000 0.0000 36.3104
#
#
#
# Elastic Compliance Matrix: (Units=1/GPa)
#
#
# Indices 1 2 3 4 5 6 
#
# 1 0.006884 -0.003262 -0.003974 0.000000 0.000000 0.000000
# 2 -0.003262 0.016330 -0.002443 0.000000 0.000000 0.000000
# 3 -0.003974 -0.002443 0.020889 0.000000 0.000000 0.000000
# 4 0.000000 0.000000 0.000000 0.063937 0.000000 0.000000
# 5 0.000000 0.000000 0.000000 0.000000 0.033074 0.000000
# 6 0.000000 0.000000 0.000000 0.000000 0.000000 0.027540
#
#
# Mechanical properties :
#
#
# Convention : Reuss Voigt Hill
#
# Bulk Modulus (GPa) = 40.40924 58.32849 49.36886
# Shear Modulus (GPa) = 25.47654 30.96939 28.22296
#
# Velocity S-wave (km/s) = 3.44948 3.80321 3.63066
# Velocity P-wave (km/s) = 5.89394 6.82117 6.37444
#
# Compressibility (1/GPa) = 0.02474682
#
# Stress axis : x y z
#
# Youngs Moduli (GPa) = 145.26995 61.23579 47.87275
#
# Poissons Ratio (x) = 0.19973 0.19022
# Poissons Ratio (y) = 0.47383 0.11694
# Poissons Ratio (z) = 0.57724 0.14958
#
# Static dielectric constant tensor:
#      x y z
#    x 1.793570 0.000000 0.000000 
#    y 0.000000 1.983320 0.000000 
#    z 0.000000 0.000000 1.797210 
# 
# From -- ./inp_files/19915.got.cif
#   From: 2010.05.17/outbox.cif.g08.bks.cpg/sg37_10_cif.got.tgz:19915.got - 2010.06.03 17:53:42.
