data_PCOD9354388
_publ_section_title
;
Structure prediction by ZEFSAII (Michael W. Deem and Ramdas Pophale) SiO2 
 PCOD9354388
Probable space group: C C C 2
;
_chemical_formula_sum "Si O2"
_cell_formula_units_Z 48
_cell_length_a 16.796187
_cell_length_b 5.055092
_cell_length_c 28.072908
_cell_angle_alpha 90.000000
_cell_angle_beta 90.000000
_cell_angle_gamma 90.000000
_cell_volume 2383.565921
_symmetry_space_group_name_H-M "C C C 2"
_symmetry_group_IT_number 37
_symmetry_cell_setting 'orthorhombic'
loop_
_space_group_symop_operation_xyz
x,y,z
-x,-y,z
-x,y,1/2+z
x,-y,1/2+z
1/2+x,1/2+y,z
1/2-x,1/2-y,z
1/2-x,1/2+y,1/2+z
1/2+x,1/2-y,1/2+z
loop_
_atom_site_type_symbol
_atom_site_label
_atom_site_fract_x
_atom_site_fract_y
_atom_site_fract_z
Si Si1 0.192388 0.998774 0.438680
Si Si2 0.088512 0.112449 0.635405
Si Si3 0.406370 0.531655 0.843212
Si Si4 0.095179 0.531777 0.279964
Si Si5 0.339668 0.855659 0.681958
Si Si6 0.192384 0.000141 0.543184
O O1 0.250000 0.750000 0.437318
O O2 0.250000 0.250000 0.436207
O O3 0.136828 0.993159 0.393050
O O4 0.151685 0.993266 0.491000
O O5 0.117589 0.413605 0.649020
O O6 0.135679 0.030238 0.588006
O O7 0.113521 0.920047 0.678475
O O8 0.000000 0.000000 0.626487
O O9 0.500000 0.500000 0.851648
O O10 0.387143 0.314328 0.803047
O O11 0.389539 0.816814 0.820969
O O12 0.149440 0.470852 0.234594
O O13 0.000000 0.500000 0.267021
O O14 0.250000 0.750000 0.670442
O O15 0.250000 0.250000 0.543118
O O16 0.250000 0.750000 0.548364
#
# Coordination Sequence:
#
# PCOD9354388 Si02
#       6
#     8   8   8   8   8   8
#     4  10  21  37  59  86 116 152 191 238 292 346
#     4  12  24  40  63  90 120 157 198 248 303 362
#     4  10  21  37  59  84 116 154 193 240 293 347
#     4  10  21  38  58  84 117 155 196 243 295 348
#     4  12  25  41  62  89 120 158 202 249 301 362
#     4  10  21  39  61  85 117 154 193 240 295 353
#
# _framework density 20.137895
#
# number of rings (size 3 to 8) (size 9 to 14) (size 15 to 20)
#    0.000    1.333    0.000    6.500    0.000    4.000 
#    0.000    0.000    0.000   10.000    0.000    0.000 
#    0.000    0.000    0.000    0.000    0.000    0.000 
#
# Total GULP energy -133874.198774 kJ/mol
# GULP energy per Si atom -5578.091616 kJ/mol
# Density = 2.009206 g / cm^3
# Si number density = 20.137895 Si / 1000 Ang^3
#
#
#
# Elastic Constant Matrix: (Units=GPa)
#
#
# Indices 1 2 3 4 5 6 
#
# 1 62.8679 23.6490 42.0100 0.0000 0.0000 0.0000
# 2 23.6490 114.5045 0.1556 0.0000 0.0000 0.0000
# 3 42.0100 0.1556 107.5117 0.0000 0.0000 0.0000
# 4 0.0000 0.0000 0.0000 -73.6968 0.0000 0.0000
# 5 0.0000 0.0000 0.0000 0.0000 -7.2235 0.0000
# 6 0.0000 0.0000 0.0000 0.0000 0.0000 20.0587
#
#
#
# Elastic Compliance Matrix: (Units=1/GPa)
#
#
# Indices 1 2 3 4 5 6 
#
# 1 0.024042 -0.004953 -0.009387 0.000000 0.000000 0.000000
# 2 -0.004953 0.009754 0.001921 0.000000 0.000000 0.000000
# 3 -0.009387 0.001921 0.012967 0.000000 0.000000 0.000000
# 4 0.000000 0.000000 0.000000 -0.013569 0.000000 0.000000
# 5 0.000000 0.000000 0.000000 0.000000 -0.138436 0.000000
# 6 0.000000 0.000000 0.000000 0.000000 0.000000 0.049854
#
#
# Mechanical properties :
#
#
# Convention : Reuss Voigt Hill
#
# Bulk Modulus (GPa) = 45.61075 46.27923 45.94499
# Shear Modulus (GPa) = -215.11613 2.43232 -106.34190
#
# Velocity S-wave (km/s) = -10.34666 1.10021 -7.27472
# Velocity P-wave (km/s) = 10.95626 4.96437 6.90632
#
# Compressibility (1/GPa) = 0.02192466
#
# Stress axis : x y z
#
# Youngs Moduli (GPa) = 41.59332 102.52633 77.12111
#
# Poissons Ratio (x) = 0.50779 0.72396
# Poissons Ratio (y) = 0.20600 -0.14816
# Poissons Ratio (z) = 0.39045 -0.19697
#
# Static dielectric constant tensor:
#      x y z
#    x 1.768000 0.000000 0.000000 
#    y 0.000000 1.758170 0.000000 
#    z 0.000000 0.000000 1.714060 
# 
# From -- ./inp_files/19319.got.cif
#   From: 2010.05.17/outbox.cif.g08.bks.cpg/sg37_10_cif.got.tgz:19319.got - 2010.06.03 17:53:42.
