data_PCOD9354806
_publ_section_title
;
Structure prediction by ZEFSAII (Michael W. Deem and Ramdas Pophale) SiO2 
 PCOD9354806
Probable space group: C C C 2
;
_chemical_formula_sum "Si O2"
_cell_formula_units_Z 32
_cell_length_a 17.341513
_cell_length_b 12.829317
_cell_length_c 5.406662
_cell_angle_alpha 90.000000
_cell_angle_beta 90.000000
_cell_angle_gamma 90.000000
_cell_volume 1202.872905
_symmetry_space_group_name_H-M "C C C 2"
_symmetry_group_IT_number 37
_symmetry_cell_setting 'orthorhombic'
loop_
_space_group_symop_operation_xyz
x,y,z
-x,-y,z
-x,y,1/2+z
x,-y,1/2+z
1/2+x,1/2+y,z
1/2-x,1/2-y,z
1/2-x,1/2+y,1/2+z
1/2+x,1/2-y,1/2+z
loop_
_atom_site_type_symbol
_atom_site_label
_atom_site_fract_x
_atom_site_fract_y
_atom_site_fract_z
Si Si1 0.467202 0.878857 0.476190
Si Si2 0.165578 0.737971 0.761922
Si Si3 0.303161 0.954275 0.054538
Si Si4 0.622659 0.457573 0.983286
O O1 0.522840 0.838393 0.698078
O O2 0.389608 0.827722 0.586162
O O3 0.500000 0.000000 0.460663
O O4 0.250000 0.750000 0.636915
O O5 0.186678 0.665725 0.996332
O O6 0.127794 0.844133 0.857074
O O7 0.338095 0.989706 0.312161
O O8 0.213141 0.984140 0.042413
O O9 0.589734 0.469243 0.262114
#
# Coordination Sequence:
#
# PCOD9354806 Si02
#       4
#     8   8   8   8
#     4  10  24  43  66  99 146 190 227 289 376 438
#     4  10  22  40  68 100 137 190 244 289 347 427
#     4   9  19  31  53  86 127 166 212 283 343 396
#     4   9  19  36  54  86 125 162 222 285 332 381
#
# _framework density 26.602979000000001
#
# number of rings (size 3 to 8) (size 9 to 14) (size 15 to 20)
#    0.000    2.500    0.000    0.000    7.000    4.000 
#    0.000   13.750    0.000    4.500    0.000    0.000 
#    0.000    0.000    0.000    0.000    0.000    0.000 
#
# Total GULP energy -89247.257301 kJ/mol
# GULP energy per Si atom -5577.953581 kJ/mol
# Density = 2.654243 g / cm^3
# Si number density = 26.602979 Si / 1000 Ang^3
#
#
#
# Elastic Constant Matrix: (Units=GPa)
#
#
# Indices 1 2 3 4 5 6 
#
# 1 128.4368 10.6866 -2.3909 0.0000 0.0000 0.0000
# 2 10.6866 104.4624 24.3396 0.0000 0.0000 0.0000
# 3 -2.3909 24.3396 148.2869 0.0000 0.0000 0.0000
# 4 0.0000 0.0000 0.0000 40.7941 0.0000 0.0000
# 5 0.0000 0.0000 0.0000 0.0000 6.2341 0.0000
# 6 0.0000 0.0000 0.0000 0.0000 0.0000 30.6798
#
#
#
# Elastic Compliance Matrix: (Units=1/GPa)
#
#
# Indices 1 2 3 4 5 6 
#
# 1 0.007863 -0.000867 0.000269 0.000000 0.000000 0.000000
# 2 -0.000867 0.010049 -0.001663 0.000000 0.000000 0.000000
# 3 0.000269 -0.001663 0.007021 0.000000 0.000000 0.000000
# 4 0.000000 0.000000 0.000000 0.024513 0.000000 0.000000
# 5 0.000000 0.000000 0.000000 0.000000 0.160409 0.000000
# 6 0.000000 0.000000 0.000000 0.000000 0.000000 0.032595
#
#
# Mechanical properties :
#
#
# Convention : Reuss Voigt Hill
#
# Bulk Modulus (GPa) = 48.99462 49.60629 49.30046
# Shear Modulus (GPa) = 19.70235 38.77829 29.24032
#
# Velocity S-wave (km/s) = 2.72436 3.82208 3.31892
# Velocity P-wave (km/s) = 5.32477 6.17779 5.76707
#
# Compressibility (1/GPa) = 0.02041040
#
# Stress axis : x y z
#
# Youngs Moduli (GPa) = 127.17649 99.51132 142.42871
#
# Poissons Ratio (x) = 0.08629 -0.03833
# Poissons Ratio (y) = 0.11027 0.23692
# Poissons Ratio (z) = -0.03422 0.16553
#
# Static dielectric constant tensor:
#      x y z
#    x 2.300980 0.000000 0.000000 
#    y 0.000000 2.006810 0.000000 
#    z 0.000000 0.000000 2.102620 
# 
# From -- ./inp_files/1146.got.cif
#   From: 2010.05.17/outbox.cif.g08.bks.cpg/sg37_1_cif.got.tgz:1146.got - 2010.06.03 17:53:42.
