data_PCOD9354982
_publ_section_title
;
Structure prediction by ZEFSAII (Michael W. Deem and Ramdas Pophale) SiO2 
 PCOD9354982
Probable space group: C C C 2
;
_chemical_formula_sum "Si O2"
_cell_formula_units_Z 56
_cell_length_a 13.610407
_cell_length_b 5.444720
_cell_length_c 29.111570
_cell_angle_alpha 90.000000
_cell_angle_beta 90.000000
_cell_angle_gamma 90.000000
_cell_volume 2157.308680
_symmetry_space_group_name_H-M "C C C 2"
_symmetry_group_IT_number 37
_symmetry_cell_setting 'orthorhombic'
loop_
_space_group_symop_operation_xyz
x,y,z
-x,-y,z
-x,y,1/2+z
x,-y,1/2+z
1/2+x,1/2+y,z
1/2-x,1/2-y,z
1/2-x,1/2+y,1/2+z
1/2+x,1/2-y,1/2+z
loop_
_atom_site_type_symbol
_atom_site_label
_atom_site_fract_x
_atom_site_fract_y
_atom_site_fract_z
Si Si1 0.598821 0.665991 0.588520
Si Si2 0.500000 0.000000 0.020800
Si Si3 0.612299 0.964597 0.779223
Si Si4 0.801191 0.544919 0.878300
Si Si5 0.345825 0.603183 0.504364
Si Si6 0.391255 0.390429 0.412382
Si Si7 0.607421 0.372432 0.189643
Si Si8 0.250000 0.250000 0.220125
O O1 0.500000 0.500000 0.590993
O O2 0.580792 0.891533 0.555314
O O3 0.666629 0.495143 0.556334
O O4 0.614516 0.757677 0.640163
O O5 0.558205 0.775702 0.998402
O O6 0.616989 0.773581 0.737152
O O7 0.500000 0.000000 0.791838
O O8 0.673301 0.918231 0.824577
O O9 0.660032 0.196436 0.754195
O O10 0.750000 0.250000 0.879394
O O11 0.818189 0.868133 0.892770
O O12 0.893127 0.403460 0.901824
O O13 0.250000 0.750000 0.491013
O O14 0.360114 0.397007 0.465861
O O15 0.500000 0.500000 0.402570
O O16 0.500000 0.500000 0.191008
O O17 0.701999 0.546619 0.188597
#
# Coordination Sequence:
#
# PCOD9354982 Si02
#       8
#     8   4   8   8   8   8   8   4
#     4   9  22  42  72 111 151 198 258 307 375 463
#     4  10  22  44  74 106 156 202 250 316 382 470
#     4  12  27  50  79 108 152 205 256 327 398 464
#     4  11  27  49  73 108 146 195 263 325 391 478
#     4  11  25  46  74 111 153 204 256 310 391 473
#     4  11  26  48  76 108 151 197 262 334 400 475
#     4  11  24  46  76 114 157 207 258 324 389 463
#     4  12  24  46  72 106 148 196 258 310 386 458
#
# _framework density 25.958269000000001
#
# number of rings (size 3 to 8) (size 9 to 14) (size 15 to 20)
#    0.000    1.143    1.429    3.857    4.000    8.571 
#    2.571    0.000    0.000    0.000    0.000    0.000 
#    0.000    0.000    0.000    0.000    0.000    0.000 
#
# Total GULP energy -156071.066580 kJ/mol
# GULP energy per Si atom -5573.966664 kJ/mol
# Density = 2.589919 g / cm^3
# Si number density = 25.958269 Si / 1000 Ang^3
#
#
#
# Elastic Constant Matrix: (Units=GPa)
#
#
# Indices 1 2 3 4 5 6 
#
# 1 117.9465 41.6657 -9.4215 0.0000 0.0000 0.0000
# 2 41.6657 131.3208 40.8117 0.0000 0.0000 0.0000
# 3 -9.4215 40.8117 130.3677 0.0000 0.0000 0.0000
# 4 0.0000 0.0000 0.0000 41.0087 0.0000 0.0000
# 5 0.0000 0.0000 0.0000 0.0000 21.2365 0.0000
# 6 0.0000 0.0000 0.0000 0.0000 0.0000 50.2144
#
#
#
# Elastic Compliance Matrix: (Units=1/GPa)
#
#
# Indices 1 2 3 4 5 6 
#
# 1 0.009953 -0.003746 0.001892 0.000000 0.000000 0.000000
# 2 -0.003746 0.009845 -0.003353 0.000000 0.000000 0.000000
# 3 0.001892 -0.003353 0.008857 0.000000 0.000000 0.000000
# 4 0.000000 0.000000 0.000000 0.024385 0.000000 0.000000
# 5 0.000000 0.000000 0.000000 0.000000 0.047089 0.000000
# 6 0.000000 0.000000 0.000000 0.000000 0.000000 0.019915
#
#
# Mechanical properties :
#
#
# Convention : Reuss Voigt Hill
#
# Bulk Modulus (GPa) = 54.81947 58.41632 56.61790
# Shear Modulus (GPa) = 36.61994 42.93052 39.77523
#
# Velocity S-wave (km/s) = 3.76003 4.07114 3.91868
# Velocity P-wave (km/s) = 6.32571 6.68219 6.50639
#
# Compressibility (1/GPa) = 0.01824169
#
# Stress axis : x y z
#
# Youngs Moduli (GPa) = 100.47438 101.57026 112.90582
#
# Poissons Ratio (x) = 0.38046 -0.21361
# Poissons Ratio (y) = 0.37636 0.37855
# Poissons Ratio (z) = -0.19009 0.34055
#
# Static dielectric constant tensor:
#      x y z
#    x 1.788910 0.000000 0.000000 
#    y 0.000000 2.157360 0.000000 
#    z 0.000000 0.000000 2.008620 
# 
# From -- ./inp_files/20567.got.cif
#   From: 2010.05.17/outbox.cif.g08.bks.cpg/sg37_11_cif.got.tgz:20567.got - 2010.06.03 17:53:42.
