data_PCOD9354606
_publ_section_title
;
Structure prediction by ZEFSAII (Michael W. Deem and Ramdas Pophale) SiO2 
 PCOD9354606
Probable space group: C C C 2
;
_chemical_formula_sum "Si O2"
_cell_formula_units_Z 52
_cell_length_a 12.555882
_cell_length_b 8.530632
_cell_length_c 22.094905
_cell_angle_alpha 90.000000
_cell_angle_beta 90.000000
_cell_angle_gamma 90.000000
_cell_volume 2366.576631
_symmetry_space_group_name_H-M "C C C 2"
_symmetry_group_IT_number 37
_symmetry_cell_setting 'orthorhombic'
loop_
_space_group_symop_operation_xyz
x,y,z
-x,-y,z
-x,y,1/2+z
x,-y,1/2+z
1/2+x,1/2+y,z
1/2-x,1/2-y,z
1/2-x,1/2+y,1/2+z
1/2+x,1/2-y,1/2+z
loop_
_atom_site_type_symbol
_atom_site_label
_atom_site_fract_x
_atom_site_fract_y
_atom_site_fract_z
Si Si1 0.613654 0.412677 0.028040
Si Si2 0.438005 0.836460 0.251027
Si Si3 0.201042 0.073954 0.393748
Si Si4 0.338015 0.383380 0.134726
Si Si5 0.352933 0.367724 0.263039
Si Si6 0.453416 0.830446 0.115220
Si Si7 0.250000 0.250000 0.844634
O O1 0.500000 0.500000 0.028409
O O2 0.681582 0.506377 0.077962
O O3 0.606603 0.240658 0.057640
O O4 0.648952 0.419688 0.959273
O O5 0.535754 0.717346 0.254475
O O6 0.398460 0.845904 0.181178
O O7 0.347948 0.787994 0.298512
O O8 0.500000 0.000000 0.265107
O O9 0.250000 0.250000 0.389186
O O10 0.140463 0.059358 0.329256
O O11 0.257169 0.903800 0.388253
O O12 0.250000 0.250000 0.136059
O O13 0.338517 0.465126 0.200902
O O14 0.449981 0.293083 0.125992
O O15 0.250000 0.250000 0.263389
O O16 0.500000 0.000000 0.101090
#
# Coordination Sequence:
#
# PCOD9354606 Si02
#       7
#     8   8   8   8   8   8   4
#     4  10  23  42  62  94 133 180 229 281 351 431
#     4  10  21  42  70 107 142 178 237 301 362 433
#     4  11  26  47  63  97 139 177 239 286 350 430
#     4   9  19  37  67  93 126 171 219 280 346 416
#     4   9  19  39  69  96 131 177 225 290 348 413
#     4   9  20  41  63  97 136 168 227 291 350 422
#     4  12  28  44  72 104 144 192 234 304 362 436
#
# _framework density 21.972667999999999
#
# number of rings (size 3 to 8) (size 9 to 14) (size 15 to 20)
#    0.000    2.154    0.000    1.846    5.385    2.462 
#    4.154    0.769    0.000    0.000    0.000    0.000 
#    0.000    0.000    0.000    0.000    0.000    0.000 
#
# Total GULP energy -144823.376550 kJ/mol
# GULP energy per Si atom -5570.129867 kJ/mol
# Density = 2.192266 g / cm^3
# Si number density = 21.972668 Si / 1000 Ang^3
#
#
#
# Elastic Constant Matrix: (Units=GPa)
#
#
# Indices 1 2 3 4 5 6 
#
# 1 66.4023 21.1085 43.5086 0.0000 0.0000 0.0000
# 2 21.1085 132.4552 71.3628 0.0000 0.0000 0.0000
# 3 43.5086 71.3628 210.2883 0.0000 0.0000 0.0000
# 4 0.0000 0.0000 0.0000 0.1556 0.0000 0.0000
# 5 0.0000 0.0000 0.0000 0.0000 35.1765 0.0000
# 6 0.0000 0.0000 0.0000 0.0000 0.0000 23.2071
#
#
#
# Elastic Compliance Matrix: (Units=1/GPa)
#
#
# Indices 1 2 3 4 5 6 
#
# 1 0.017535 -0.001028 -0.003279 0.000000 0.000000 0.000000
# 2 -0.001028 0.009299 -0.002943 0.000000 0.000000 0.000000
# 3 -0.003279 -0.002943 0.006433 0.000000 0.000000 0.000000
# 4 0.000000 0.000000 0.000000 6.428539 0.000000 0.000000
# 5 0.000000 0.000000 0.000000 0.000000 0.028428 0.000000
# 6 0.000000 0.000000 0.000000 0.000000 0.000000 0.043090
#
#
# Mechanical properties :
#
#
# Convention : Reuss Voigt Hill
#
# Bulk Modulus (GPa) = 53.28571 75.67839 64.48205
# Shear Modulus (GPa) = 0.76288 29.91890 15.34089
#
# Velocity S-wave (km/s) = 0.58987 3.69405 2.64518
# Velocity P-wave (km/s) = 4.97669 7.26027 6.22410
#
# Compressibility (1/GPa) = 0.01876676
#
# Stress axis : x y z
#
# Youngs Moduli (GPa) = 57.02861 107.53671 155.45778
#
# Poissons Ratio (x) = 0.11051 0.50978
# Poissons Ratio (y) = 0.05861 0.45753
# Poissons Ratio (z) = 0.18701 0.31649
#
# Static dielectric constant tensor:
#      x y z
#    x 1.821070 0.000000 0.000000 
#    y 0.000000 2.067940 0.000000 
#    z 0.000000 0.000000 1.823380 
# 
# From -- ./inp_files/17111.got.cif
#   From: 2010.05.17/outbox.cif.g08.bks.cpg/sg37_9_cif.got.tgz:17111.got - 2010.06.03 17:53:42.
