data_PCOD9354425
_publ_section_title
;
Structure prediction by ZEFSAII (Michael W. Deem and Ramdas Pophale) SiO2 
 PCOD9354425
Probable space group: C C C 2
;
_chemical_formula_sum "Si O2"
_cell_formula_units_Z 48
_cell_length_a 17.134567
_cell_length_b 8.939608
_cell_length_c 15.215930
_cell_angle_alpha 90.000000
_cell_angle_beta 90.000000
_cell_angle_gamma 90.000000
_cell_volume 2330.720045
_symmetry_space_group_name_H-M "C C C 2"
_symmetry_group_IT_number 37
_symmetry_cell_setting 'orthorhombic'
loop_
_space_group_symop_operation_xyz
x,y,z
-x,-y,z
-x,y,1/2+z
x,-y,1/2+z
1/2+x,1/2+y,z
1/2-x,1/2-y,z
1/2-x,1/2+y,1/2+z
1/2+x,1/2-y,1/2+z
loop_
_atom_site_type_symbol
_atom_site_label
_atom_site_fract_x
_atom_site_fract_y
_atom_site_fract_z
Si Si1 0.482075 0.176151 0.321340
Si Si2 0.268389 0.426477 0.626112
Si Si3 0.449503 0.144546 0.516139
Si Si4 0.810196 0.384163 0.760588
Si Si5 0.563233 0.369763 0.179087
Si Si6 0.221833 0.420512 0.447138
O O1 0.481741 0.214854 0.424843
O O2 0.394842 0.185364 0.280761
O O3 0.542145 0.272311 0.264772
O O4 0.500000 0.000000 0.316556
O O5 0.250000 0.250000 0.620855
O O6 0.199247 0.508345 0.677732
O O7 0.350090 0.438580 0.676537
O O8 0.274315 0.485296 0.525539
O O9 0.444004 0.261620 0.594562
O O10 0.364114 0.087019 0.488223
O O11 0.500000 0.000000 0.541336
O O12 0.750000 0.250000 0.744985
O O13 0.785251 0.477966 0.848100
O O14 0.500000 0.500000 0.173289
O O15 0.250000 0.250000 0.433222
#
# Coordination Sequence:
#
# PCOD9354425 Si02
#       6
#     8   8   8   8   8   8
#     4  10  22  40  63  89 115 155 205 249 289 348
#     4  11  21  39  62  85 116 157 195 235 297 356
#     4  10  21  39  63  87 115 159 206 243 288 354
#     4  10  21  38  62  86 115 152 197 241 290 349
#     4  12  24  38  58  93 125 154 192 246 308 354
#     4   9  18  38  62  82 112 158 196 228 295 356
#
# _framework density 20.594493
#
# number of rings (size 3 to 8) (size 9 to 14) (size 15 to 20)
#    0.000    1.667    3.333    2.500    2.333    0.667 
#    3.000    0.833    0.000    0.000    0.000    0.000 
#    0.000    0.000    0.000    0.000    0.000    0.000 
#
# Total GULP energy -133958.827156 kJ/mol
# GULP energy per Si atom -5581.617798 kJ/mol
# Density = 2.054762 g / cm^3
# Si number density = 20.594493 Si / 1000 Ang^3
#
#
#
# Elastic Constant Matrix: (Units=GPa)
#
#
# Indices 1 2 3 4 5 6 
#
# 1 49.2567 -11.5932 -17.9608 0.0000 0.0000 0.0000
# 2 -11.5932 25.6716 9.5100 0.0000 0.0000 0.0000
# 3 -17.9608 9.5100 114.9096 0.0000 0.0000 0.0000
# 4 0.0000 0.0000 0.0000 7.6374 0.0000 0.0000
# 5 0.0000 0.0000 0.0000 0.0000 29.8318 0.0000
# 6 0.0000 0.0000 0.0000 0.0000 0.0000 27.7326
#
#
#
# Elastic Compliance Matrix: (Units=1/GPa)
#
#
# Indices 1 2 3 4 5 6 
#
# 1 0.023616 0.009591 0.002897 0.000000 0.000000 0.000000
# 2 0.009591 0.044081 -0.002149 0.000000 0.000000 0.000000
# 3 0.002897 -0.002149 0.009333 0.000000 0.000000 0.000000
# 4 0.000000 0.000000 0.000000 0.130935 0.000000 0.000000
# 5 0.000000 0.000000 0.000000 0.000000 0.033521 0.000000
# 6 0.000000 0.000000 0.000000 0.000000 0.000000 0.036059
#
#
# Mechanical properties :
#
#
# Convention : Reuss Voigt Hill
#
# Bulk Modulus (GPa) = 10.23437 16.63887 13.43662
# Shear Modulus (GPa) = 17.27502 27.03248 22.15375
#
# Velocity S-wave (km/s) = 2.89938 3.62692 3.28336
# Velocity P-wave (km/s) = 4.02353 5.06322 4.57302
#
# Compressibility (1/GPa) = 0.09770999
#
# Stress axis : x y z
#
# Youngs Moduli (GPa) = 42.34450 22.68543 107.14399
#
# Poissons Ratio (x) = -0.21759 -0.31044
# Poissons Ratio (y) = -0.40615 0.23025
# Poissons Ratio (z) = -0.12269 0.04875
#
# Static dielectric constant tensor:
#      x y z
#    x 1.721630 0.000000 0.000000 
#    y 0.000000 1.616140 0.000000 
#    z 0.000000 0.000000 1.782580 
# 
# From -- ./inp_files/10583.got.cif
#   From: 2010.05.17/outbox.cif.g08.bks.cpg/sg37_6_cif.got.tgz:10583.got - 2010.06.03 17:53:42.
