data_PCOD9354954
_publ_section_title
;
Structure prediction by ZEFSAII (Michael W. Deem and Ramdas Pophale) SiO2 
 PCOD9354954
Probable space group: C C C 2
;
_chemical_formula_sum "Si O2"
_cell_formula_units_Z 60
_cell_length_a 11.329943
_cell_length_b 19.833495
_cell_length_c 13.236791
_cell_angle_alpha 90.000000
_cell_angle_beta 90.000000
_cell_angle_gamma 90.000000
_cell_volume 2974.470648
_symmetry_space_group_name_H-M "C C C 2"
_symmetry_group_IT_number 37
_symmetry_cell_setting 'orthorhombic'
loop_
_space_group_symop_operation_xyz
x,y,z
-x,-y,z
-x,y,1/2+z
x,-y,1/2+z
1/2+x,1/2+y,z
1/2-x,1/2-y,z
1/2-x,1/2+y,1/2+z
1/2+x,1/2-y,1/2+z
loop_
_atom_site_type_symbol
_atom_site_label
_atom_site_fract_x
_atom_site_fract_y
_atom_site_fract_z
Si Si1 0.143736 0.610162 0.077630
Si Si2 0.856264 0.610161 0.335988
Si Si3 0.141468 0.079429 0.217074
Si Si4 0.000000 0.500000 0.706809
Si Si5 0.654178 0.308976 0.567402
Si Si6 0.641468 0.420571 0.196543
Si Si7 0.500001 0.781104 0.206809
Si Si8 0.654177 0.691024 0.846216
O O1 0.284315 0.603860 0.099438
O O2 0.089705 0.672604 0.141889
O O3 0.079624 0.546687 0.132897
O O4 0.120418 0.613756 0.956809
O O5 0.715684 0.603860 0.314180
O O6 0.920375 0.546687 0.280721
O O7 0.910293 0.672603 0.271729
O O8 0.195167 0.125248 0.127730
O O9 0.000000 0.088896 0.206808
O O10 0.161679 1.000000 0.206808
O O11 0.750000 0.250000 0.560380
O O12 0.555119 0.269640 0.626983
O O13 0.616292 0.330431 0.456809
O O14 0.695166 0.374752 0.285887
O O15 0.444883 0.730360 0.286637
O O16 0.750000 0.750000 0.853237
#
# Coordination Sequence:
#
# PCOD9354954 Si02
#       8
#     8   8   8   4   8   8   8   8
#     4  11  23  41  69  99 130 172 219 278 339 388
#     4  11  23  41  69  99 130 172 219 278 339 388
#     4  11  24  44  64  94 139 175 220 271 321 401
#     4  10  22  44  66  94 138 168 216 274 326 410
#     4  11  23  42  68  94 130 178 218 268 335 391
#     4  11  24  44  64  94 139 175 220 271 321 401
#     4  11  22  43  67 100 131 162 224 292 327 398
#     4  11  23  42  68  94 130 178 218 268 335 391
#
# _framework density 20.171655999999999
#
# number of rings (size 3 to 8) (size 9 to 14) (size 15 to 20)
#    0.000    1.067    5.333    1.200    0.000    2.133 
#    0.000    4.000    0.000    0.000    0.000    0.000 
#    0.000    0.000    0.000    0.000    0.000    0.000 
#
# Total GULP energy -167177.339755 kJ/mol
# GULP energy per Si atom -5572.577992 kJ/mol
# Density = 2.012574 g / cm^3
# Si number density = 20.171656 Si / 1000 Ang^3
#
#
#
# Elastic Constant Matrix: (Units=GPa)
#
#
# Indices 1 2 3 4 5 6 
#
# 1 75.8276 15.9604 30.4820 0.0000 0.0000 0.0000
# 2 15.9604 137.7674 53.6856 0.0000 0.0000 0.0000
# 3 30.4820 53.6856 154.0505 0.0000 0.0000 0.0000
# 4 0.0000 0.0000 0.0000 18.2646 0.0000 0.0000
# 5 0.0000 0.0000 0.0000 0.0000 30.1785 0.0000
# 6 0.0000 0.0000 0.0000 0.0000 0.0000 30.5136
#
#
#
# Elastic Compliance Matrix: (Units=1/GPa)
#
#
# Indices 1 2 3 4 5 6 
#
# 1 0.014377 -0.000645 -0.002620 0.000000 0.000000 0.000000
# 2 -0.000645 0.008428 -0.002810 0.000000 0.000000 0.000000
# 3 -0.002620 -0.002810 0.007989 0.000000 0.000000 0.000000
# 4 0.000000 0.000000 0.000000 0.054751 0.000000 0.000000
# 5 0.000000 0.000000 0.000000 0.000000 0.033136 0.000000
# 6 0.000000 0.000000 0.000000 0.000000 0.000000 0.032772
#
#
# Mechanical properties :
#
#
# Convention : Reuss Voigt Hill
#
# Bulk Modulus (GPa) = 53.63283 63.10018 58.36651
# Shear Modulus (GPa) = 29.44352 33.62583 31.53467
#
# Velocity S-wave (km/s) = 3.82468 4.08730 3.95817
# Velocity P-wave (km/s) = 6.79339 7.32286 7.06309
#
# Compressibility (1/GPa) = 0.01864530
#
# Stress axis : x y z
#
# Youngs Moduli (GPa) = 69.55679 118.65009 125.17277
#
# Poissons Ratio (x) = 0.07647 0.32797
# Poissons Ratio (y) = 0.04483 0.35169
# Poissons Ratio (z) = 0.18225 0.33336
#
# Static dielectric constant tensor:
#      x y z
#    x 1.725440 0.000000 0.000000 
#    y 0.000000 1.715830 0.000000 
#    z 0.000000 0.000000 1.728560 
# 
# From -- ./inp_files/7347.got.cif
#   From: 2010.05.17/outbox.cif.g08.bks.cpg/sg37_4_cif.got.tgz:7347.got - 2010.06.03 17:53:42.
