data_PCOD9354991
_publ_section_title
;
Structure prediction by ZEFSAII (Michael W. Deem and Ramdas Pophale) SiO2 
 PCOD9354991
Probable space group: C C C 2
;
_chemical_formula_sum "Si O2"
_cell_formula_units_Z 40
_cell_length_a 5.011284
_cell_length_b 13.549665
_cell_length_c 29.994644
_cell_angle_alpha 90.000000
_cell_angle_beta 90.000000
_cell_angle_gamma 90.000000
_cell_volume 2036.672904
_symmetry_space_group_name_H-M "C C C 2"
_symmetry_group_IT_number 37
_symmetry_cell_setting 'orthorhombic'
loop_
_space_group_symop_operation_xyz
x,y,z
-x,-y,z
-x,y,1/2+z
x,-y,1/2+z
1/2+x,1/2+y,z
1/2-x,1/2-y,z
1/2-x,1/2+y,1/2+z
1/2+x,1/2-y,1/2+z
loop_
_atom_site_type_symbol
_atom_site_label
_atom_site_fract_x
_atom_site_fract_y
_atom_site_fract_z
Si Si1 0.500000 0.500000 0.360471
Si Si2 0.750000 0.250000 0.572807
Si Si3 0.769344 0.063669 0.945398
Si Si4 0.500000 0.000000 0.795796
Si Si5 0.261099 0.931424 0.639183
Si Si6 0.750000 0.750000 0.507839
Si Si7 0.510309 0.179643 0.726906
O O1 0.594952 0.582405 0.396761
O O2 0.251777 0.511288 0.328194
O O3 0.794516 0.154997 0.604210
O O4 0.499594 0.244480 0.540481
O O5 0.500000 0.000000 0.939296
O O6 0.726516 0.157746 0.974950
O O7 0.000000 0.000000 0.969288
O O8 0.520064 0.904869 0.763789
O O9 0.384305 0.876963 0.682707
O O10 0.500000 0.000000 0.621602
O O11 0.000000 0.000000 0.648552
O O12 0.750000 0.250000 0.741604
O O13 0.250000 0.250000 0.719512
#
# Coordination Sequence:
#
# PCOD9354991 Si02
#       7
#     4   4   8   4   8   4   8
#     4  10  22  46  68  96 136 170 222 288 330 418
#     4  12  28  42  68 103 140 167 246 272 320 430
#     4  10  22  45  68  94 133 174 212 285 343 400
#     4  12  24  44  68 100 136 174 228 276 338 402
#     4  12  26  45  70  98 138 188 220 281 345 388
#     4  12  26  44  70 101 128 185 220 286 340 404
#     4  12  26  44  70 100 137 183 228 277 338 403
#
# _framework density 19.639876000000001
#
# number of rings (size 3 to 8) (size 9 to 14) (size 15 to 20)
#    0.600    0.000    3.000    4.800    2.800    4.800 
#    5.400    0.000    0.000    0.000    0.000    0.000 
#    0.000    0.000    0.000    0.000    0.000    0.000 
#
# Total GULP energy -111565.756171 kJ/mol
# GULP energy per Si atom -5578.287809 kJ/mol
# Density = 1.959517 g / cm^3
# Si number density = 19.639876 Si / 1000 Ang^3
#
#
#
# Elastic Constant Matrix: (Units=GPa)
#
#
# Indices 1 2 3 4 5 6 
#
# 1 186.7243 73.3986 75.7140 0.0000 0.0000 0.0000
# 2 73.3986 144.0944 90.0557 0.0000 0.0000 0.0000
# 3 75.7140 90.0557 173.6558 0.0000 0.0000 0.0000
# 4 0.0000 0.0000 0.0000 41.7726 0.0000 0.0000
# 5 0.0000 0.0000 0.0000 0.0000 17.5764 0.0000
# 6 0.0000 0.0000 0.0000 0.0000 0.0000 28.5718
#
#
#
# Elastic Compliance Matrix: (Units=1/GPa)
#
#
# Indices 1 2 3 4 5 6 
#
# 1 0.007055 -0.002473 -0.001794 0.000000 0.000000 0.000000
# 2 -0.002473 0.011134 -0.004696 0.000000 0.000000 0.000000
# 3 -0.001794 -0.004696 0.008976 0.000000 0.000000 0.000000
# 4 0.000000 0.000000 0.000000 0.023939 0.000000 0.000000
# 5 0.000000 0.000000 0.000000 0.000000 0.056894 0.000000
# 6 0.000000 0.000000 0.000000 0.000000 0.000000 0.034999
#
#
# Mechanical properties :
#
#
# Convention : Reuss Voigt Hill
#
# Bulk Modulus (GPa) = 108.22068 109.20123 108.71096
# Shear Modulus (GPa) = 30.48736 35.27126 32.87931
#
# Velocity S-wave (km/s) = 3.94422 4.24240 4.09603
# Velocity P-wave (km/s) = 8.71577 8.92860 8.82283
#
# Compressibility (1/GPa) = 0.00924038
#
# Stress axis : x y z
#
# Youngs Moduli (GPa) = 141.74947 89.81266 111.40990
#
# Poissons Ratio (x) = 0.22207 0.19983
# Poissons Ratio (y) = 0.35048 0.52319
# Poissons Ratio (z) = 0.25425 0.42177
#
# Static dielectric constant tensor:
#      x y z
#    x 1.687740 0.000000 0.000000 
#    y 0.000000 1.743370 0.000000 
#    z 0.000000 0.000000 1.676980 
# 
# From -- ./inp_files/19228.got.cif
#   From: 2010.05.17/outbox.cif.g08.bks.cpg/sg37_10_cif.got.tgz:19228.got - 2010.06.03 17:53:42.
