data_PCOD9354632
_publ_section_title
;
Structure prediction by ZEFSAII (Michael W. Deem and Ramdas Pophale) SiO2 
 PCOD9354632
Probable space group: C C C 2
;
_chemical_formula_sum "Si O2"
_cell_formula_units_Z 64
_cell_length_a 18.179865
_cell_length_b 18.227030
_cell_length_c 8.835806
_cell_angle_alpha 90.000000
_cell_angle_beta 90.000000
_cell_angle_gamma 90.000000
_cell_volume 2927.876367
_symmetry_space_group_name_H-M "C C C 2"
_symmetry_group_IT_number 37
_symmetry_cell_setting 'orthorhombic'
loop_
_space_group_symop_operation_xyz
x,y,z
-x,-y,z
-x,y,1/2+z
x,-y,1/2+z
1/2+x,1/2+y,z
1/2-x,1/2-y,z
1/2-x,1/2+y,1/2+z
1/2+x,1/2-y,1/2+z
loop_
_atom_site_type_symbol
_atom_site_label
_atom_site_fract_x
_atom_site_fract_y
_atom_site_fract_z
Si Si1 0.852863 0.889286 0.548770
Si Si2 0.927319 0.421916 0.568209
Si Si3 0.778259 0.671437 0.396754
Si Si4 0.874166 0.832933 0.857385
Si Si5 0.851656 0.276570 0.606318
Si Si6 0.543650 0.669601 0.300934
Si Si7 0.925629 0.039504 0.565830
Si Si8 0.088572 0.428673 0.429993
O O1 0.786879 0.884978 0.429803
O O2 0.834399 0.844922 0.699669
O O3 0.920712 0.849772 0.462856
O O4 0.873518 0.970947 0.599488
O O5 0.890612 0.345255 0.529371
O O6 0.888242 0.491090 0.489205
O O7 0.011168 0.417182 0.512721
O O8 0.923991 0.431290 0.749541
O O9 0.750000 0.750000 0.457017
O O10 0.792926 0.687018 0.219588
O O11 0.852609 0.635458 0.460086
O O12 0.958805 0.808248 0.822055
O O13 0.833782 0.780293 0.974704
O O14 0.888203 0.910145 0.940530
O O15 0.908207 0.231900 0.717037
O O16 0.552645 0.595075 0.201261
O O17 0.000000 0.000000 0.510425
#
# Coordination Sequence:
#
# PCOD9354632 Si02
#       8
#     8   8   8   8   8   8   8   8
#     4  12  23  40  69  98 143 197 239 281 359 438
#     4  10  21  43  73 104 131 170 230 308 355 402
#     4  11  25  48  68  94 145 200 225 286 370 448
#     4  11  23  39  68 113 132 187 244 299 351 421
#     4  10  24  43  68  97 142 187 231 300 353 435
#     4  11  21  39  68 103 145 183 239 293 363 423
#     4  11  21  39  65 103 154 189 228 295 349 435
#     4  10  22  44  74 102 133 173 231 299 365 416
#
# _framework density 21.858847000000001
#
# number of rings (size 3 to 8) (size 9 to 14) (size 15 to 20)
#    0.000    1.250    3.750    3.000    3.500    1.000 
#   11.250    0.625    2.750    0.000    0.000    0.000 
#    0.000    0.000    0.000    0.000    0.000    0.000 
#
# Total GULP energy -178803.174882 kJ/mol
# GULP energy per Si atom -5587.599215 kJ/mol
# Density = 2.180909 g / cm^3
# Si number density = 21.858847 Si / 1000 Ang^3
#
#
#
# Elastic Constant Matrix: (Units=GPa)
#
#
# Indices 1 2 3 4 5 6 
#
# 1 66.8982 35.0144 29.2662 0.0000 0.0000 0.0000
# 2 35.0144 126.4979 45.5755 0.0000 0.0000 0.0000
# 3 29.2662 45.5755 91.2217 0.0000 0.0000 0.0000
# 4 0.0000 0.0000 0.0000 24.2116 0.0000 0.0000
# 5 0.0000 0.0000 0.0000 0.0000 18.3578 0.0000
# 6 0.0000 0.0000 0.0000 0.0000 0.0000 36.9860
#
#
#
# Elastic Compliance Matrix: (Units=1/GPa)
#
#
# Indices 1 2 3 4 5 6 
#
# 1 0.018692 -0.003675 -0.004161 0.000000 0.000000 0.000000
# 2 -0.003675 0.010363 -0.003999 0.000000 0.000000 0.000000
# 3 -0.004161 -0.003999 0.014295 0.000000 0.000000 0.000000
# 4 0.000000 0.000000 0.000000 0.041302 0.000000 0.000000
# 5 0.000000 0.000000 0.000000 0.000000 0.054473 0.000000
# 6 0.000000 0.000000 0.000000 0.000000 0.000000 0.027037
#
#
# Mechanical properties :
#
#
# Convention : Reuss Voigt Hill
#
# Bulk Modulus (GPa) = 50.80933 56.03669 53.42301
# Shear Modulus (GPa) = 25.45942 27.56186 26.51064
#
# Velocity S-wave (km/s) = 3.41650 3.55477 3.48632
# Velocity P-wave (km/s) = 6.23362 6.52226 6.37957
#
# Compressibility (1/GPa) = 0.01968143
#
# Stress axis : x y z
#
# Youngs Moduli (GPa) = 53.49975 96.49664 69.95486
#
# Poissons Ratio (x) = 0.35460 0.29107
# Poissons Ratio (y) = 0.19660 0.27972
# Poissons Ratio (z) = 0.22260 0.38585
#
# Static dielectric constant tensor:
#      x y z
#    x 1.869270 0.000000 0.000000 
#    y 0.000000 1.809200 0.000000 
#    z 0.000000 0.000000 1.790050 
# 
# From -- ./inp_files/4455.got.cif
#   From: 2010.05.17/outbox.cif.g08.bks.cpg/sg37_3_cif.got.tgz:4455.got - 2010.06.03 17:53:42.
