data_PCOD9354751
_publ_section_title
;
Structure prediction by ZEFSAII (Michael W. Deem and Ramdas Pophale) SiO2 
 PCOD9354751
Probable space group: C C C 2
;
_chemical_formula_sum "Si O2"
_cell_formula_units_Z 48
_cell_length_a 8.429965
_cell_length_b 30.161835
_cell_length_c 8.406189
_cell_angle_alpha 90.000000
_cell_angle_beta 90.000000
_cell_angle_gamma 90.000000
_cell_volume 2137.384627
_symmetry_space_group_name_H-M "C C C 2"
_symmetry_group_IT_number 37
_symmetry_cell_setting 'orthorhombic'
loop_
_space_group_symop_operation_xyz
x,y,z
-x,-y,z
-x,y,1/2+z
x,-y,1/2+z
1/2+x,1/2+y,z
1/2-x,1/2-y,z
1/2-x,1/2+y,1/2+z
1/2+x,1/2-y,1/2+z
loop_
_atom_site_type_symbol
_atom_site_label
_atom_site_fract_x
_atom_site_fract_y
_atom_site_fract_z
Si Si1 0.986272 0.148739 0.138270
Si Si2 0.191143 0.510049 0.896606
Si Si3 0.725115 0.565717 0.702378
Si Si4 0.931834 0.375242 0.432806
Si Si5 0.272472 0.102510 0.267020
Si Si6 0.711518 0.698619 0.880962
O O1 0.120559 0.133494 0.264547
O O2 0.901186 0.099901 0.124110
O O3 0.862161 0.183255 0.212809
O O4 0.089141 0.174443 0.004391
O O5 0.301767 0.468164 0.851856
O O6 0.248187 0.550386 0.785469
O O7 0.000000 0.500000 0.875983
O O8 0.211830 0.531373 0.070837
O O9 0.850969 0.597434 0.789698
O O10 0.860323 0.390462 0.599076
O O11 0.879011 0.325367 0.407205
O O12 0.115681 0.382721 0.411257
O O13 0.750000 0.750000 0.898406
#
# Coordination Sequence:
#
# PCOD9354751 Si02
#       6
#     8   8   8   8   8   8
#     4  10  24  46  69  98 140 180 214 287 353 406
#     4  12  23  36  65  96 129 179 237 279 314 405
#     4  11  23  41  63  94 138 176 231 278 339 392
#     4  10  22  39  63  95 131 175 216 279 342 403
#     4  11  22  40  65  93 131 175 228 273 335 393
#     4  10  23  45  71 101 134 170 226 282 347 427
#
# _framework density 22.457353999999999
#
# number of rings (size 3 to 8) (size 9 to 14) (size 15 to 20)
#    0.000    1.333    1.667    3.500    0.000    4.667 
#    0.000    2.500    0.000    0.000    0.000    0.000 
#    0.000    0.000    0.000    0.000    0.000    0.000 
#
# Total GULP energy -133820.850102 kJ/mol
# GULP energy per Si atom -5575.868754 kJ/mol
# Density = 2.240624 g / cm^3
# Si number density = 22.457354 Si / 1000 Ang^3
#
#
#
# Elastic Constant Matrix: (Units=GPa)
#
#
# Indices 1 2 3 4 5 6 
#
# 1 51.3241 39.7461 3.4852 0.0000 0.0000 0.0000
# 2 39.7461 188.4200 32.0910 0.0000 0.0000 0.0000
# 3 3.4852 32.0910 61.1879 0.0000 0.0000 0.0000
# 4 0.0000 0.0000 0.0000 24.7682 0.0000 0.0000
# 5 0.0000 0.0000 0.0000 0.0000 23.2552 0.0000
# 6 0.0000 0.0000 0.0000 0.0000 0.0000 29.8587
#
#
#
# Elastic Compliance Matrix: (Units=1/GPa)
#
#
# Indices 1 2 3 4 5 6 
#
# 1 0.023394 -0.005170 0.001379 0.000000 0.000000 0.000000
# 2 -0.005170 0.006970 -0.003361 0.000000 0.000000 0.000000
# 3 0.001379 -0.003361 0.018027 0.000000 0.000000 0.000000
# 4 0.000000 0.000000 0.000000 0.040374 0.000000 0.000000
# 5 0.000000 0.000000 0.000000 0.000000 0.043001 0.000000
# 6 0.000000 0.000000 0.000000 0.000000 0.000000 0.033491
#
#
# Mechanical properties :
#
#
# Convention : Reuss Voigt Hill
#
# Bulk Modulus (GPa) = 29.33633 50.17518 39.75575
# Shear Modulus (GPa) = 26.18835 30.61706 28.40271
#
# Velocity S-wave (km/s) = 3.41858 3.69635 3.56018
# Velocity P-wave (km/s) = 5.35479 6.37246 5.88566
#
# Compressibility (1/GPa) = 0.03408743
#
# Stress axis : x y z
#
# Youngs Moduli (GPa) = 42.74627 143.46655 55.47109
#
# Poissons Ratio (x) = 0.74167 -0.07648
# Poissons Ratio (y) = 0.22098 0.18645
# Poissons Ratio (z) = -0.05894 0.48222
#
# Static dielectric constant tensor:
#      x y z
#    x 1.885350 0.000000 0.000000 
#    y 0.000000 1.796550 0.000000 
#    z 0.000000 0.000000 1.919250 
# 
# From -- ./inp_files/2413.got.cif
#   From: 2010.05.17/outbox.cif.g08.bks.cpg/sg37_2_cif.got.tgz:2413.got - 2010.06.03 17:53:42.
