data_PCOD9354979
_publ_section_title
;
Structure prediction by ZEFSAII (Michael W. Deem and Ramdas Pophale) SiO2 
 PCOD9354979
Probable space group: C C C 2
;
_chemical_formula_sum "Si O2"
_cell_formula_units_Z 28
_cell_length_a 7.331390
_cell_length_b 12.751371
_cell_length_c 11.359340
_cell_angle_alpha 90.000000
_cell_angle_beta 90.000000
_cell_angle_gamma 90.000000
_cell_volume 1061.931010
_symmetry_space_group_name_H-M "C C C 2"
_symmetry_group_IT_number 37
_symmetry_cell_setting 'orthorhombic'
loop_
_space_group_symop_operation_xyz
x,y,z
-x,-y,z
-x,y,1/2+z
x,-y,1/2+z
1/2+x,1/2+y,z
1/2-x,1/2-y,z
1/2-x,1/2+y,1/2+z
1/2+x,1/2-y,1/2+z
loop_
_atom_site_type_symbol
_atom_site_label
_atom_site_fract_x
_atom_site_fract_y
_atom_site_fract_z
Si Si1 0.457926 0.236164 0.904000
Si Si2 0.783455 0.513656 0.646659
Si Si3 0.750000 0.750000 0.685111
Si Si4 0.730774 0.571229 0.410227
O O1 0.250000 0.250000 0.951290
O O2 0.426631 0.231466 0.764569
O O3 0.580510 0.337779 0.921355
O O4 0.574907 0.132175 0.929141
O O5 0.724988 0.635222 0.636297
O O6 0.719042 0.483278 0.513565
O O7 0.718682 0.471874 0.775065
O O8 0.000000 0.500000 0.651589
#
# Coordination Sequence:
#
# PCOD9354979 Si02
#       4
#     8   8   4   8
#     4   9  21  47  76 109 151 197 263 324 383 463
#     4  12  24  46  76 113 156 207 258 323 387 467
#     4  10  22  44  72 112 150 188 260 318 384 442
#     4  11  24  47  78 110 154 203 255 323 394 456
#
# _framework density 26.367061
#
# number of rings (size 3 to 8) (size 9 to 14) (size 15 to 20)
#    0.857    0.571    2.857    2.571    0.000    1.143 
#    0.000   22.857    0.000    0.000    0.000    2.000 
#    0.000    0.000    0.000    0.000    0.000    0.000 
#
# Total GULP energy -78004.983279 kJ/mol
# GULP energy per Si atom -5571.784520 kJ/mol
# Density = 2.630705 g / cm^3
# Si number density = 26.367061 Si / 1000 Ang^3
#
#
#
# Elastic Constant Matrix: (Units=GPa)
#
#
# Indices 1 2 3 4 5 6 
#
# 1 131.8437 46.3483 49.9372 0.0000 0.0000 0.0000
# 2 46.3483 135.6281 74.2176 0.0000 0.0000 0.0000
# 3 49.9372 74.2176 203.5086 0.0000 0.0000 0.0000
# 4 0.0000 0.0000 0.0000 30.6863 0.0000 0.0000
# 5 0.0000 0.0000 0.0000 0.0000 -1.9690 0.0000
# 6 0.0000 0.0000 0.0000 0.0000 0.0000 49.2723
#
#
#
# Elastic Compliance Matrix: (Units=1/GPa)
#
#
# Indices 1 2 3 4 5 6 
#
# 1 0.008905 -0.002308 -0.001343 0.000000 0.000000 0.000000
# 2 -0.002308 0.009810 -0.003011 0.000000 0.000000 0.000000
# 3 -0.001343 -0.003011 0.006342 0.000000 0.000000 0.000000
# 4 0.000000 0.000000 0.000000 0.032588 0.000000 0.000000
# 5 0.000000 0.000000 0.000000 0.000000 -0.507884 0.000000
# 6 0.000000 0.000000 0.000000 0.000000 0.000000 0.020295
#
#
# Mechanical properties :
#
#
# Convention : Reuss Voigt Hill
#
# Bulk Modulus (GPa) = 85.24380 90.22073 87.73226
# Shear Modulus (GPa) = -12.11506 35.62974 11.75734
#
# Velocity S-wave (km/s) = -2.14587 3.67999 2.11395
# Velocity P-wave (km/s) = 5.12447 7.23519 6.26929
#
# Compressibility (1/GPa) = 0.01173106
#
# Stress axis : x y z
#
# Youngs Moduli (GPa) = 112.29763 101.94176 157.68967
#
# Poissons Ratio (x) = 0.23528 0.21184
# Poissons Ratio (y) = 0.25918 0.47482
# Poissons Ratio (z) = 0.15086 0.30696
#
# Static dielectric constant tensor:
#      x y z
#    x 2.090340 0.000000 0.000000 
#    y 0.000000 2.117270 0.000000 
#    z 0.000000 0.000000 2.382180 
# 
# From -- ./inp_files/5872.got.cif
#   From: 2010.05.17/outbox.cif.g08.bks.cpg/sg37_3_cif.got.tgz:5872.got - 2010.06.03 17:53:42.
