data_PCOD9354002
_publ_section_title
;
Structure prediction by ZEFSAII (Michael W. Deem and Ramdas Pophale) SiO2 
 PCOD9354002
Probable space group: C C C 2
;
_chemical_formula_sum "Si O2"
_cell_formula_units_Z 52
_cell_length_a 20.220443
_cell_length_b 5.121519
_cell_length_c 26.070949
_cell_angle_alpha 90.000000
_cell_angle_beta 90.000000
_cell_angle_gamma 90.000000
_cell_volume 2699.891393
_symmetry_space_group_name_H-M "C C C 2"
_symmetry_group_IT_number 37
_symmetry_cell_setting 'orthorhombic'
loop_
_space_group_symop_operation_xyz
x,y,z
-x,-y,z
-x,y,1/2+z
x,-y,1/2+z
1/2+x,1/2+y,z
1/2-x,1/2-y,z
1/2-x,1/2+y,1/2+z
1/2+x,1/2-y,1/2+z
loop_
_atom_site_type_symbol
_atom_site_label
_atom_site_fract_x
_atom_site_fract_y
_atom_site_fract_z
Si Si1 0.546732 0.250981 0.432970
Si Si2 0.547264 0.747071 0.042872
Si Si3 0.817862 0.363608 0.800377
Si Si4 0.500000 0.500000 0.239979
Si Si5 0.068631 0.343134 0.154697
Si Si6 0.792317 0.515756 0.183381
Si Si7 0.102870 0.859415 0.321836
O O1 0.500000 0.500000 0.436510
O O2 0.584634 0.237185 0.487917
O O3 0.583452 0.291104 0.379639
O O4 0.500000 0.000000 0.428784
O O5 0.500000 0.500000 0.040970
O O6 0.581314 0.723931 0.098220
O O7 0.500000 0.000000 0.043534
O O8 0.750000 0.250000 0.823469
O O9 0.808167 0.370834 0.739580
O O10 0.837707 0.660043 0.811271
O O11 0.874540 0.159496 0.816258
O O12 0.551678 0.645172 0.201544
O O13 0.544425 0.325363 0.279295
O O14 0.133325 0.519598 0.162853
O O15 0.000000 0.500000 0.152050
O O16 0.750000 0.750000 0.157258
O O17 0.750000 0.250000 0.184892
#
# Coordination Sequence:
#
# PCOD9354002 Si02
#       7
#     8   8   8   4   8   8   8
#     4  10  20  36  56  86 122 157 194 243 317 374
#     4   9  19  35  58  85 117 157 200 250 303 367
#     4  11  23  40  57  80 114 166 207 238 289 370
#     4  12  24  34  58 100 126 156 188 264 320 374
#     4  11  23  38  63  91 127 158 208 259 312 363
#     4  11  24  40  58  84 125 171 203 241 303 382
#     4  12  23  36  58  87 125 151 193 254 310 361
#
# _framework density 19.260033
#
# number of rings (size 3 to 8) (size 9 to 14) (size 15 to 20)
#    0.000    1.231    3.077    4.154    2.154    0.000 
#    0.000    0.000    0.000    2.769    0.000    0.000 
#    0.000    0.000    0.000    0.000    0.000    0.000 
#
# Total GULP energy -144767.312205 kJ/mol
# GULP energy per Si atom -5567.973546 kJ/mol
# Density = 1.921620 g / cm^3
# Si number density = 19.260033 Si / 1000 Ang^3
#
#
#
# Elastic Constant Matrix: (Units=GPa)
#
#
# Indices 1 2 3 4 5 6 
#
# 1 84.1499 12.8419 29.1940 0.0000 0.0000 0.0000
# 2 12.8419 78.7750 -4.6617 0.0000 0.0000 0.0000
# 3 29.1940 -4.6617 138.8857 0.0000 0.0000 0.0000
# 4 0.0000 0.0000 0.0000 82.0989 0.0000 0.0000
# 5 0.0000 0.0000 0.0000 0.0000 -10.0268 0.0000
# 6 0.0000 0.0000 0.0000 0.0000 0.0000 39.3987
#
#
#
# Elastic Compliance Matrix: (Units=1/GPa)
#
#
# Indices 1 2 3 4 5 6 
#
# 1 0.013230 -0.002326 -0.002859 0.000000 0.000000 0.000000
# 2 -0.002326 0.013129 0.000930 0.000000 0.000000 0.000000
# 3 -0.002859 0.000930 0.007832 0.000000 0.000000 0.000000
# 4 0.000000 0.000000 0.000000 0.012180 0.000000 0.000000
# 5 0.000000 0.000000 0.000000 0.000000 -0.099732 0.000000
# 6 0.000000 0.000000 0.000000 0.000000 0.000000 0.025382
#
#
# Mechanical properties :
#
#
# Convention : Reuss Voigt Hill
#
# Bulk Modulus (GPa) = 38.94041 41.83988 40.39015
# Shear Modulus (GPa) = -458.39261 39.92325 -209.23468
#
# Velocity S-wave (km/s) = -15.44405 4.55780 -10.43420
# Velocity P-wave (km/s) = 17.25580 7.03341 11.14212
#
# Compressibility (1/GPa) = 0.02568027
#
# Stress axis : x y z
#
# Youngs Moduli (GPa) = 75.58328 76.16966 127.67546
#
# Poissons Ratio (x) = 0.17717 0.36504
# Poissons Ratio (y) = 0.17581 -0.11869
# Poissons Ratio (z) = 0.21610 -0.07081
#
# Static dielectric constant tensor:
#      x y z
#    x 1.739750 0.000000 0.000000 
#    y 0.000000 1.183980 0.000000 
#    z 0.000000 0.000000 1.793350 
# 
# From -- ./inp_files/19971.got.cif
#   From: 2010.05.17/outbox.cif.g08.bks.cpg/sg37_10_cif.got.tgz:19971.got - 2010.06.03 17:53:42.
