data_PCOD9354051
_publ_section_title
;
Structure prediction by ZEFSAII (Michael W. Deem and Ramdas Pophale) SiO2 
 PCOD9354051
Probable space group: C C C 2
;
_chemical_formula_sum "Si O2"
_cell_formula_units_Z 52
_cell_length_a 8.739853
_cell_length_b 19.875474
_cell_length_c 15.635307
_cell_angle_alpha 90.000000
_cell_angle_beta 90.000000
_cell_angle_gamma 90.000000
_cell_volume 2715.989182
_symmetry_space_group_name_H-M "C C C 2"
_symmetry_group_IT_number 37
_symmetry_cell_setting 'orthorhombic'
loop_
_space_group_symop_operation_xyz
x,y,z
-x,-y,z
-x,y,1/2+z
x,-y,1/2+z
1/2+x,1/2+y,z
1/2-x,1/2-y,z
1/2-x,1/2+y,1/2+z
1/2+x,1/2-y,1/2+z
loop_
_atom_site_type_symbol
_atom_site_label
_atom_site_fract_x
_atom_site_fract_y
_atom_site_fract_z
Si Si1 0.043889 0.927125 0.482130
Si Si2 0.768492 0.605860 0.831099
Si Si3 0.497447 0.783107 0.901535
Si Si4 0.091211 0.210806 0.072200
Si Si5 0.251336 0.607981 0.869604
Si Si6 0.485362 0.670437 0.755769
Si Si7 0.500000 0.000000 0.825522
O O1 0.172314 0.930150 0.407276
O O2 0.098193 0.867579 0.544044
O O3 0.888078 0.904478 0.435225
O O4 0.000000 0.000000 0.519718
O O5 0.641691 0.629458 0.764637
O O6 0.860626 0.667621 0.875653
O O7 0.890078 0.556633 0.785931
O O8 0.345658 0.826845 0.893588
O O9 0.493066 0.724214 0.832239
O O10 0.510620 0.750455 0.994819
O O11 0.250000 0.250000 0.080165
O O12 0.021360 0.208219 0.166312
O O13 0.338605 0.623439 0.779365
O O14 0.126862 0.547911 0.870505
#
# Coordination Sequence:
#
# PCOD9354051 Si02
#       7
#     8   8   8   8   8   8   4
#     4  11  21  39  62  93 123 166 216 253 313 388
#     4  10  20  39  65  93 122 167 210 263 311 382
#     4  11  20  40  64  96 125 157 211 264 319 369
#     4  12  23  40  67  94 127 172 208 265 325 377
#     4  10  21  36  64  92 124 162 210 262 311 383
#     4  11  23  39  63  94 125 164 214 260 316 382
#     4  10  20  36  68  90 120 172 210 256 334 368
#
# _framework density 19.145880999999999
#
# number of rings (size 3 to 8) (size 9 to 14) (size 15 to 20)
#    0.000    1.231    6.154    1.846    0.000    0.000 
#    8.308    0.000    0.000    1.846    0.000    0.000 
#    0.000    0.000    0.000    0.000    0.000    0.000 
#
# Total GULP energy -144874.478093 kJ/mol
# GULP energy per Si atom -5572.095311 kJ/mol
# Density = 1.910230 g / cm^3
# Si number density = 19.145881 Si / 1000 Ang^3
#
#
#
# Elastic Constant Matrix: (Units=GPa)
#
#
# Indices 1 2 3 4 5 6 
#
# 1 124.5606 61.5464 42.2751 0.0000 0.0000 0.0000
# 2 61.5464 107.1422 19.5637 0.0000 0.0000 0.0000
# 3 42.2751 19.5637 92.8533 0.0000 0.0000 0.0000
# 4 0.0000 0.0000 0.0000 -3.6716 0.0000 0.0000
# 5 0.0000 0.0000 0.0000 0.0000 11.1360 0.0000
# 6 0.0000 0.0000 0.0000 0.0000 0.0000 37.7769
#
#
#
# Elastic Compliance Matrix: (Units=1/GPa)
#
#
# Indices 1 2 3 4 5 6 
#
# 1 0.012752 -0.006516 -0.004433 0.000000 0.000000 0.000000
# 2 -0.006516 0.013036 0.000220 0.000000 0.000000 0.000000
# 3 -0.004433 0.000220 0.012742 0.000000 0.000000 0.000000
# 4 0.000000 0.000000 0.000000 -0.272357 0.000000 0.000000
# 5 0.000000 0.000000 0.000000 0.000000 0.089799 0.000000
# 6 0.000000 0.000000 0.000000 0.000000 0.000000 0.026471
#
#
# Mechanical properties :
#
#
# Convention : Reuss Voigt Hill
#
# Bulk Modulus (GPa) = 58.57527 63.48074 61.02800
# Shear Modulus (GPa) = -55.30475 22.45966 -16.42255
#
# Velocity S-wave (km/s) = -5.38040 3.42874 -2.93193
# Velocity P-wave (km/s) = 2.81738 6.99309 4.52580
#
# Compressibility (1/GPa) = 0.01707205
#
# Stress axis : x y z
#
# Youngs Moduli (GPa) = 78.41660 76.70928 78.48253
#
# Poissons Ratio (x) = 0.49984 0.34793
# Poissons Ratio (y) = 0.51096 -0.01727
# Poissons Ratio (z) = 0.34763 -0.01688
#
# Static dielectric constant tensor:
#      x y z
#    x 1.691940 0.000000 0.000000 
#    y 0.000000 1.736820 0.000000 
#    z 0.000000 0.000000 1.640390 
# 
# From -- ./inp_files/10758.got.cif
#   From: 2010.05.17/outbox.cif.g08.bks.cpg/sg37_6_cif.got.tgz:10758.got - 2010.06.03 17:53:42.
