data_PCOD9354540
_publ_section_title
;
Structure prediction by ZEFSAII (Michael W. Deem and Ramdas Pophale) SiO2 
 PCOD9354540
Probable space group: C C C 2
;
_chemical_formula_sum "Si O2"
_cell_formula_units_Z 48
_cell_length_a 4.960552
_cell_length_b 22.585896
_cell_length_c 19.320703
_cell_angle_alpha 90.000000
_cell_angle_beta 90.000000
_cell_angle_gamma 90.000000
_cell_volume 2164.662807
_symmetry_space_group_name_H-M "C C C 2"
_symmetry_group_IT_number 37
_symmetry_cell_setting 'orthorhombic'
loop_
_space_group_symop_operation_xyz
x,y,z
-x,-y,z
-x,y,1/2+z
x,-y,1/2+z
1/2+x,1/2+y,z
1/2-x,1/2-y,z
1/2-x,1/2+y,1/2+z
1/2+x,1/2-y,1/2+z
loop_
_atom_site_type_symbol
_atom_site_label
_atom_site_fract_x
_atom_site_fract_y
_atom_site_fract_z
Si Si1 0.750000 0.750000 0.691471
Si Si2 0.609261 0.067045 0.991517
Si Si3 0.500000 0.500000 0.297119
Si Si4 0.825992 0.403352 0.717965
Si Si5 0.117171 0.804691 0.811165
Si Si6 0.307454 0.375930 0.633622
Si Si7 0.374851 0.404253 0.900506
O O1 0.527728 0.726272 0.745715
O O2 0.787925 0.692266 0.643638
O O3 0.853147 0.072708 0.937402
O O4 0.358252 0.100470 0.956756
O O5 0.500000 0.000000 0.003116
O O6 0.725905 0.096474 0.060764
O O7 0.303777 0.460271 0.251789
O O8 0.676454 0.455305 0.344175
O O9 0.817534 0.352209 0.776370
O O10 0.618537 0.383958 0.656197
O O11 0.123796 0.409961 0.689588
O O12 0.250000 0.750000 0.850613
O O13 0.927748 0.843477 0.859949
#
# Coordination Sequence:
#
# PCOD9354540 Si02
#       7
#     4   8   4   8   8   8   8
#     4  10  22  44  66  98 134 168 216 292 336 386
#     4  12  25  45  65  93 138 182 223 270 320 407
#     4  10  22  40  64  96 132 162 216 282 328 398
#     4  10  23  37  66  99 126 163 217 271 343 386
#     4  10  21  40  69  95 131 166 216 280 340 395
#     4  11  24  42  66  95 130 176 217 271 333 395
#     4  11  25  43  66  95 131 180 219 269 339 388
#
# _framework density 22.174351999999999
#
# number of rings (size 3 to 8) (size 9 to 14) (size 15 to 20)
#    0.000    1.333    3.333    1.000    4.667    5.333 
#    1.500    0.000    0.000    0.000    0.000    0.000 
#    0.000    0.000    0.000    0.000    0.000    0.000 
#
# Total GULP energy -134235.283234 kJ/mol
# GULP energy per Si atom -5593.136801 kJ/mol
# Density = 2.212388 g / cm^3
# Si number density = 22.174352 Si / 1000 Ang^3
#
#
#
# Elastic Constant Matrix: (Units=GPa)
#
#
# Indices 1 2 3 4 5 6 
#
# 1 79.2665 18.8513 18.1539 0.0000 0.0000 0.0000
# 2 18.8513 154.4912 56.9716 0.0000 0.0000 0.0000
# 3 18.1539 56.9716 84.1413 0.0000 0.0000 0.0000
# 4 0.0000 0.0000 0.0000 -45.7693 0.0000 0.0000
# 5 0.0000 0.0000 0.0000 0.0000 37.7030 0.0000
# 6 0.0000 0.0000 0.0000 0.0000 0.0000 25.5552
#
#
#
# Elastic Compliance Matrix: (Units=1/GPa)
#
#
# Indices 1 2 3 4 5 6 
#
# 1 0.013337 -0.000755 -0.002367 0.000000 0.000000 0.000000
# 2 -0.000755 0.008670 -0.005707 0.000000 0.000000 0.000000
# 3 -0.002367 -0.005707 0.016260 0.000000 0.000000 0.000000
# 4 0.000000 0.000000 0.000000 -0.021849 0.000000 0.000000
# 5 0.000000 0.000000 0.000000 0.000000 0.026523 0.000000
# 6 0.000000 0.000000 0.000000 0.000000 0.000000 0.039131
#
#
# Mechanical properties :
#
#
# Convention : Reuss Voigt Hill
#
# Bulk Modulus (GPa) = 48.52158 56.20582 52.36370
# Shear Modulus (GPa) = 46.90486 18.42595 32.66540
#
# Velocity S-wave (km/s) = 4.60420 2.88576 3.84228
# Velocity P-wave (km/s) = 7.08479 6.04200 6.58407
#
# Compressibility (1/GPa) = 0.02060939
#
# Stress axis : x y z
#
# Youngs Moduli (GPa) = 74.97854 115.34508 61.50155
#
# Poissons Ratio (x) = 0.08705 0.14555
# Poissons Ratio (y) = 0.05659 0.35101
# Poissons Ratio (z) = 0.17744 0.65831
#
# Static dielectric constant tensor:
#      x y z
#    x 1.847950 0.000000 0.000000 
#    y 0.000000 1.945060 0.000000 
#    z 0.000000 0.000000 1.830630 
# 
# From -- ./inp_files/13917.got.cif
#   From: 2010.05.17/outbox.cif.g08.bks.cpg/sg37_7_cif.got.tgz:13917.got - 2010.06.03 17:53:42.
