data_PCOD9354334
_publ_section_title
;
Structure prediction by ZEFSAII (Michael W. Deem and Ramdas Pophale) SiO2 
 PCOD9354334
Probable space group: C C C 2
;
_chemical_formula_sum "Si O2"
_cell_formula_units_Z 48
_cell_length_a 19.442131
_cell_length_b 14.985559
_cell_length_c 8.517881
_cell_angle_alpha 90.000000
_cell_angle_beta 90.000000
_cell_angle_gamma 90.000000
_cell_volume 2481.694861
_symmetry_space_group_name_H-M "C C C 2"
_symmetry_group_IT_number 37
_symmetry_cell_setting 'orthorhombic'
loop_
_space_group_symop_operation_xyz
x,y,z
-x,-y,z
-x,y,1/2+z
x,-y,1/2+z
1/2+x,1/2+y,z
1/2-x,1/2-y,z
1/2-x,1/2+y,1/2+z
1/2+x,1/2-y,1/2+z
loop_
_atom_site_type_symbol
_atom_site_label
_atom_site_fract_x
_atom_site_fract_y
_atom_site_fract_z
Si Si1 0.575316 0.959013 0.714440
Si Si2 0.168725 0.770164 0.737606
Si Si3 0.643231 0.101128 0.899748
Si Si4 0.194141 0.123193 0.788116
Si Si5 0.195253 0.937624 0.933275
Si Si6 0.152134 0.307351 0.890723
O O1 0.594456 0.925363 0.542367
O O2 0.596249 0.880113 0.835882
O O3 0.500000 0.000000 0.728605
O O4 0.623904 0.042791 0.749842
O O5 0.250000 0.750000 0.737898
O O6 0.136429 0.705097 0.866404
O O7 0.163188 0.871099 0.801301
O O8 0.146627 0.730144 0.568794
O O9 0.722150 0.075606 0.927244
O O10 0.182896 0.090205 0.611649
O O11 0.151194 0.213928 0.799370
O O12 0.272864 0.149772 0.842647
O O13 0.176059 0.039595 0.898282
#
# Coordination Sequence:
#
# PCOD9354334 Si02
#       6
#     8   8   8   8   8   8
#     4  12  24  38  55  78 117 165 210 251 299 354
#     4  10  21  33  57  79 116 152 199 249 321 377
#     4  11  21  35  52  78 111 156 203 252 295 371
#     4  11  21  32  56  82 118 153 195 242 317 377
#     4  11  20  34  54  85 115 157 189 250 313 386
#     4  11  21  36  53  83 113 160 199 251 304 376
#
# _framework density 19.341621
#
# number of rings (size 3 to 8) (size 9 to 14) (size 15 to 20)
#    0.000    1.000    5.000    3.500    7.000    0.000 
#    0.000    0.833    0.000    0.000    0.000    1.167 
#    0.000    8.000    0.000    0.167    0.000    0.000 
#
# Total GULP energy -133783.494890 kJ/mol
# GULP energy per Si atom -5574.312287 kJ/mol
# Density = 1.929760 g / cm^3
# Si number density = 19.341621 Si / 1000 Ang^3
#
#
#
# Elastic Constant Matrix: (Units=GPa)
#
#
# Indices 1 2 3 4 5 6 
#
# 1 42.7897 34.8209 25.9559 0.0000 0.0000 0.0000
# 2 34.8209 147.0757 34.3154 0.0000 0.0000 0.0000
# 3 25.9559 34.3154 94.3415 0.0000 0.0000 0.0000
# 4 0.0000 0.0000 0.0000 51.1771 0.0000 0.0000
# 5 0.0000 0.0000 0.0000 0.0000 22.3404 0.0000
# 6 0.0000 0.0000 0.0000 0.0000 0.0000 25.1588
#
#
#
# Elastic Compliance Matrix: (Units=1/GPa)
#
#
# Indices 1 2 3 4 5 6 
#
# 1 0.032401 -0.006110 -0.006692 0.000000 0.000000 0.000000
# 2 -0.006110 0.008582 -0.001441 0.000000 0.000000 0.000000
# 3 -0.006692 -0.001441 0.012965 0.000000 0.000000 0.000000
# 4 0.000000 0.000000 0.000000 0.019540 0.000000 0.000000
# 5 0.000000 0.000000 0.000000 0.000000 0.044762 0.000000
# 6 0.000000 0.000000 0.000000 0.000000 0.000000 0.039748
#
#
# Mechanical properties :
#
#
# Convention : Reuss Voigt Hill
#
# Bulk Modulus (GPa) = 39.27229 52.71013 45.99121
# Shear Modulus (GPa) = 25.64490 32.34292 28.99391
#
# Velocity S-wave (km/s) = 3.64523 4.09368 3.87595
# Velocity P-wave (km/s) = 6.16973 7.04668 6.62273
#
# Compressibility (1/GPa) = 0.02546325
#
# Stress axis : x y z
#
# Youngs Moduli (GPa) = 30.86277 116.52499 77.13089
#
# Poissons Ratio (x) = 0.71195 0.51617
# Poissons Ratio (y) = 0.18857 0.11111
# Poissons Ratio (z) = 0.20654 0.16786
#
# Static dielectric constant tensor:
#      x y z
#    x 1.451630 0.000000 0.000000 
#    y 0.000000 1.694110 0.000000 
#    z 0.000000 0.000000 1.763920 
# 
# From -- ./inp_files/3512.got.cif
#   From: 2010.05.17/outbox.cif.g08.bks.cpg/sg37_2_cif.got.tgz:3512.got - 2010.06.03 17:53:42.
