data_PCOD9354215
_publ_section_title
;
Structure prediction by ZEFSAII (Michael W. Deem and Ramdas Pophale) SiO2 
 PCOD9354215
Probable space group: C C C 2
;
_chemical_formula_sum "Si O2"
_cell_formula_units_Z 64
_cell_length_a 8.619960
_cell_length_b 13.469888
_cell_length_c 28.042160
_cell_angle_alpha 90.000000
_cell_angle_beta 90.000000
_cell_angle_gamma 90.000000
_cell_volume 3255.972275
_symmetry_space_group_name_H-M "C C C 2"
_symmetry_group_IT_number 37
_symmetry_cell_setting 'orthorhombic'
loop_
_space_group_symop_operation_xyz
x,y,z
-x,-y,z
-x,y,1/2+z
x,-y,1/2+z
1/2+x,1/2+y,z
1/2-x,1/2-y,z
1/2-x,1/2+y,1/2+z
1/2+x,1/2-y,1/2+z
loop_
_atom_site_type_symbol
_atom_site_label
_atom_site_fract_x
_atom_site_fract_y
_atom_site_fract_z
Si Si1 0.877439 0.076743 0.519400
Si Si2 0.119956 0.335437 0.254448
Si Si3 0.918148 0.391513 0.340921
Si Si4 0.337113 0.051826 0.588792
Si Si5 0.096573 0.603438 0.449483
Si Si6 0.816772 0.645131 0.688359
Si Si7 0.324315 0.532670 0.272333
Si Si8 0.084689 0.265808 0.523498
O O1 0.761011 0.095255 0.475931
O O2 0.976993 0.171984 0.537164
O O3 0.787669 0.017476 0.561748
O O4 0.000000 0.000000 0.499514
O O5 0.250000 0.250000 0.247944
O O6 0.215341 0.438308 0.259305
O O7 0.021057 0.326670 0.303982
O O8 0.987581 0.344197 0.213114
O O9 0.901689 0.358761 0.395282
O O10 0.751534 0.412244 0.317364
O O11 0.000000 0.500000 0.342139
O O12 0.313172 0.068647 0.644678
O O13 0.362752 0.160445 0.565788
O O14 0.500000 0.000000 0.580486
O O15 0.000000 0.500000 0.450605
O O16 0.011432 0.676905 0.484562
O O17 0.750000 0.750000 0.671341
O O18 0.698754 0.607413 0.728666
O O19 0.500000 0.500000 0.279282
O O20 0.250000 0.250000 0.498967
#
# Coordination Sequence:
#
# PCOD9354215 Si02
#       8
#     8   8   8   8   8   8   8   8
#     4  12  24  41  65  90 125 171 212 272 323 385
#     4  10  20  41  64  96 131 170 210 259 324 381
#     4   8  19  36  64  91 129 169 209 262 313 380
#     4  12  24  45  65  92 127 168 212 269 328 386
#     4  11  20  41  64  95 128 170 217 263 327 382
#     4  11  24  42  64  93 125 165 210 265 318 386
#     4  10  20  40  64  94 130 167 208 262 318 375
#     4  12  23  42  63  91 127 165 216 266 323 382
#
# _framework density 19.656188
#
# number of rings (size 3 to 8) (size 9 to 14) (size 15 to 20)
#    0.000    1.250    3.750    3.375    0.000    1.500 
#    4.500   10.000    0.000    0.000    0.000    0.000 
#    0.000    0.000    0.000    0.000    0.000    0.000 
#
# Total GULP energy -178467.271823 kJ/mol
# GULP energy per Si atom -5577.102244 kJ/mol
# Density = 1.961145 g / cm^3
# Si number density = 19.656188 Si / 1000 Ang^3
#
#
#
# Elastic Constant Matrix: (Units=GPa)
#
#
# Indices 1 2 3 4 5 6 
#
# 1 136.9507 19.5970 36.3106 0.0000 0.0000 0.0000
# 2 19.5970 61.3988 10.9006 0.0000 0.0000 0.0000
# 3 36.3106 10.9006 110.0331 0.0000 0.0000 0.0000
# 4 0.0000 0.0000 0.0000 21.7367 0.0000 0.0000
# 5 0.0000 0.0000 0.0000 0.0000 30.0429 0.0000
# 6 0.0000 0.0000 0.0000 0.0000 0.0000 46.8233
#
#
#
# Elastic Compliance Matrix: (Units=1/GPa)
#
#
# Indices 1 2 3 4 5 6 
#
# 1 0.008283 -0.002197 -0.002516 0.000000 0.000000 0.000000
# 2 -0.002197 0.017161 -0.000975 0.000000 0.000000 0.000000
# 3 -0.002516 -0.000975 0.010015 0.000000 0.000000 0.000000
# 4 0.000000 0.000000 0.000000 0.046005 0.000000 0.000000
# 5 0.000000 0.000000 0.000000 0.000000 0.033286 0.000000
# 6 0.000000 0.000000 0.000000 0.000000 0.000000 0.021357
#
#
# Mechanical properties :
#
#
# Convention : Reuss Voigt Hill
#
# Bulk Modulus (GPa) = 41.52205 49.11099 45.31652
# Shear Modulus (GPa) = 32.15198 35.82555 33.98877
#
# Velocity S-wave (km/s) = 4.04879 4.27383 4.16283
# Velocity P-wave (km/s) = 6.55949 7.02805 6.79781
#
# Compressibility (1/GPa) = 0.02408359
#
# Stress axis : x y z
#
# Youngs Moduli (GPa) = 120.72427 58.27044 99.85038
#
# Poissons Ratio (x) = 0.12803 0.25120
# Poissons Ratio (y) = 0.26525 0.09736
# Poissons Ratio (z) = 0.30372 0.05682
#
# Static dielectric constant tensor:
#      x y z
#    x 1.593770 0.000000 0.000000 
#    y 0.000000 1.758250 0.000000 
#    z 0.000000 0.000000 1.677760 
# 
# From -- ./inp_files/20441.got.cif
#   From: 2010.05.17/outbox.cif.g08.bks.cpg/sg37_11_cif.got.tgz:20441.got - 2010.06.03 17:53:42.
