data_PCOD9354695
_publ_section_title
;
Structure prediction by ZEFSAII (Michael W. Deem and Ramdas Pophale) SiO2 
 PCOD9354695
Probable space group: C C C 2
;
_chemical_formula_sum "Si O2"
_cell_formula_units_Z 40
_cell_length_a 16.112308
_cell_length_b 9.441746
_cell_length_c 10.036369
_cell_angle_alpha 90.000000
_cell_angle_beta 90.000000
_cell_angle_gamma 90.000000
_cell_volume 1526.815951
_symmetry_space_group_name_H-M "C C C 2"
_symmetry_group_IT_number 37
_symmetry_cell_setting 'orthorhombic'
loop_
_space_group_symop_operation_xyz
x,y,z
-x,-y,z
-x,y,1/2+z
x,-y,1/2+z
1/2+x,1/2+y,z
1/2-x,1/2-y,z
1/2-x,1/2+y,1/2+z
1/2+x,1/2-y,1/2+z
loop_
_atom_site_type_symbol
_atom_site_label
_atom_site_fract_x
_atom_site_fract_y
_atom_site_fract_z
Si Si1 0.392831 0.319341 0.991900
Si Si2 0.374041 0.210373 0.486587
Si Si3 0.500000 0.000000 0.139220
Si Si4 0.750000 0.250000 0.192019
Si Si5 0.718150 0.940089 0.932177
Si Si6 0.025818 0.790355 0.764672
O O1 0.353796 0.158787 0.998488
O O2 0.307893 0.407050 0.992784
O O3 0.444100 0.327059 0.852402
O O4 0.450985 0.350971 0.119680
O O5 0.444547 0.105166 0.547256
O O6 0.330709 0.287063 0.608434
O O7 0.403755 0.316518 0.374409
O O8 0.305681 0.101406 0.434759
O O9 0.466136 0.120354 0.240031
O O10 0.723770 0.119810 0.283417
#
# Coordination Sequence:
#
# PCOD9354695 Si02
#       6
#     8   8   4   4   8   8
#     4  10  22  37  64  92 139 165 223 273 348 388
#     4  12  22  39  67  98 135 172 223 276 346 396
#     4  12  20  36  62 104 124 174 218 290 336 402
#     4  10  24  40  62 100 140 172 228 280 338 406
#     4  10  22  42  60  96 140 180 206 292 337 405
#     4  12  21  36  62 102 128 168 222 282 330 410
#
# _framework density 26.198311
#
# number of rings (size 3 to 8) (size 9 to 14) (size 15 to 20)
#    0.000    1.200    4.000    5.400    0.000    1.600 
#    0.000    0.000    0.000    1.200   10.400    0.000 
#    0.000    0.000    0.000    0.000    0.000    0.000 
#
# Total GULP energy -111802.258859 kJ/mol
# GULP energy per Si atom -5590.112943 kJ/mol
# Density = 2.613868 g / cm^3
# Si number density = 26.198311 Si / 1000 Ang^3
#
#
#
# Elastic Constant Matrix: (Units=GPa)
#
#
# Indices 1 2 3 4 5 6 
#
# 1 132.8267 19.9125 78.0600 0.0000 0.0000 0.0000
# 2 19.9125 57.1494 7.0868 0.0000 0.0000 0.0000
# 3 78.0600 7.0868 181.1480 0.0000 0.0000 0.0000
# 4 0.0000 0.0000 0.0000 7.7368 0.0000 0.0000
# 5 0.0000 0.0000 0.0000 0.0000 62.4062 0.0000
# 6 0.0000 0.0000 0.0000 0.0000 0.0000 36.3338
#
#
#
# Elastic Compliance Matrix: (Units=1/GPa)
#
#
# Indices 1 2 3 4 5 6 
#
# 1 0.010617 -0.003147 -0.004452 0.000000 0.000000 0.000000
# 2 -0.003147 0.018516 0.000632 0.000000 0.000000 0.000000
# 3 -0.004452 0.000632 0.007414 0.000000 0.000000 0.000000
# 4 0.000000 0.000000 0.000000 0.129253 0.000000 0.000000
# 5 0.000000 0.000000 0.000000 0.000000 0.016024 0.000000
# 6 0.000000 0.000000 0.000000 0.000000 0.000000 0.027523
#
#
# Mechanical properties :
#
#
# Convention : Reuss Voigt Hill
#
# Bulk Modulus (GPa) = 44.22319 64.58251 54.40285
# Shear Modulus (GPa) = 21.66211 39.03304 30.34757
#
# Velocity S-wave (km/s) = 2.87862 3.86412 3.40719
# Velocity P-wave (km/s) = 5.28824 6.67933 6.02407
#
# Compressibility (1/GPa) = 0.02261257
#
# Stress axis : x y z
#
# Youngs Moduli (GPa) = 94.19184 54.00682 134.88021
#
# Poissons Ratio (x) = 0.16996 0.60046
# Poissons Ratio (y) = 0.29643 -0.08521
# Poissons Ratio (z) = 0.41932 -0.03412
#
# Static dielectric constant tensor:
#      x y z
#    x 2.134480 0.000000 0.000000 
#    y 0.000000 2.064560 0.000000 
#    z 0.000000 0.000000 2.092640 
# 
# From -- ./inp_files/3353.got.cif
#   From: 2010.05.17/outbox.cif.g08.bks.cpg/sg37_2_cif.got.tgz:3353.got - 2010.06.03 17:53:42.
