data_PCOD9354119
_publ_section_title
;
Structure prediction by ZEFSAII (Michael W. Deem and Ramdas Pophale) SiO2 
 PCOD9354119
Probable space group: C C C 2
;
_chemical_formula_sum "Si O2"
_cell_formula_units_Z 56
_cell_length_a 15.101470
_cell_length_b 5.082583
_cell_length_c 35.235749
_cell_angle_alpha 90.000000
_cell_angle_beta 90.000000
_cell_angle_gamma 90.000000
_cell_volume 2704.501405
_symmetry_space_group_name_H-M "C C C 2"
_symmetry_group_IT_number 37
_symmetry_cell_setting 'orthorhombic'
loop_
_space_group_symop_operation_xyz
x,y,z
-x,-y,z
-x,y,1/2+z
x,-y,1/2+z
1/2+x,1/2+y,z
1/2-x,1/2-y,z
1/2-x,1/2+y,1/2+z
1/2+x,1/2-y,1/2+z
loop_
_atom_site_type_symbol
_atom_site_label
_atom_site_fract_x
_atom_site_fract_y
_atom_site_fract_z
Si Si1 0.685703 0.997279 0.651610
Si Si2 0.643559 0.255109 0.424856
Si Si3 0.184814 0.496569 0.234557
Si Si4 0.643559 0.255109 0.878364
Si Si5 0.441705 0.760507 0.798973
Si Si6 0.558295 0.239493 0.504247
Si Si7 0.315186 0.996569 0.568663
O O1 0.750000 0.750000 0.651610
O O2 0.750000 0.250000 0.651610
O O3 0.639860 0.978922 0.692736
O O4 0.639860 0.978922 0.610484
O O5 0.750000 0.250000 0.423077
O O6 0.608410 0.500000 0.401610
O O7 0.620254 0.301568 0.468703
O O8 0.612568 0.000000 0.401610
O O9 0.250000 0.250000 0.232308
O O10 0.113200 0.403249 0.265328
O O11 0.250000 0.750000 0.242415
O O12 0.750000 0.250000 0.880143
O O13 0.620254 0.301568 0.834517
O O14 0.500000 0.500000 0.788457
O O15 0.500000 0.000000 0.814240
O O16 0.500000 0.500000 0.514763
O O17 0.613200 0.096751 0.537892
O O18 0.500000 0.000000 0.488980
O O19 0.250000 0.750000 0.570912
O O20 0.250000 0.250000 0.560805
#
# Coordination Sequence:
#
# PCOD9354119 Si02
#       7
#     8   8   8   8   8   8   8
#     4   8  16  32  58  86 108 144 198 244 280 330
#     4  10  22  40  61  82 107 147 197 241 285 344
#     4  10  20  38  62  85 114 154 199 241 284 343
#     4  10  22  40  61  82 107 147 197 241 285 344
#     4  12  25  38  56  87 122 152 187 236 299 356
#     4  12  25  38  56  87 122 152 187 236 299 356
#     4  10  20  38  62  85 114 154 199 241 284 343
#
# _framework density 20.706222
#
# number of rings (size 3 to 8) (size 9 to 14) (size 15 to 20)
#    0.000    1.714    0.000    4.286    0.000    6.857 
#    0.000    1.429    0.000    0.000    0.000    0.000 
#    0.000    0.000    0.000    0.000    0.000    0.000 
#
# Total GULP energy -155913.346297 kJ/mol
# GULP energy per Si atom -5568.333796 kJ/mol
# Density = 2.065909 g / cm^3
# Si number density = 20.706222 Si / 1000 Ang^3
#
#
#
# Elastic Constant Matrix: (Units=GPa)
#
#
# Indices 1 2 3 4 5 6 
#
# 1 46.9831 29.9154 31.5136 0.0000 0.0000 0.0000
# 2 29.9154 178.3678 40.8627 0.0000 0.0000 0.0000
# 3 31.5136 40.8627 172.3450 0.0000 0.0000 0.0000
# 4 0.0000 0.0000 0.0000 28.6482 0.0000 0.0000
# 5 0.0000 0.0000 0.0000 0.0000 -2.4584 0.0000
# 6 0.0000 0.0000 0.0000 0.0000 0.0000 -2.9756
#
#
#
# Elastic Compliance Matrix: (Units=1/GPa)
#
#
# Indices 1 2 3 4 5 6 
#
# 1 0.026154 -0.003480 -0.003957 0.000000 0.000000 0.000000
# 2 -0.003480 0.006391 -0.000879 0.000000 0.000000 0.000000
# 3 -0.003957 -0.000879 0.006734 0.000000 0.000000 0.000000
# 4 0.000000 0.000000 0.000000 0.034906 0.000000 0.000000
# 5 0.000000 0.000000 0.000000 0.000000 -0.406775 0.000000
# 6 0.000000 0.000000 0.000000 0.000000 0.000000 -0.336063
#
#
# Mechanical properties :
#
#
# Convention : Reuss Voigt Hill
#
# Bulk Modulus (GPa) = 44.15499 66.91990 55.53745
# Shear Modulus (GPa) = -7.75832 24.33645 8.28907
#
# Velocity S-wave (km/s) = -1.93778 3.43201 2.00296
# Velocity P-wave (km/s) = 4.04526 6.93497 5.67706
#
# Compressibility (1/GPa) = 0.02264750
#
# Stress axis : x y z
#
# Youngs Moduli (GPa) = 38.23452 156.45942 148.49261
#
# Poissons Ratio (x) = 0.54447 0.58763
# Poissons Ratio (y) = 0.13305 0.13054
# Poissons Ratio (z) = 0.15130 0.13754
#
# Static dielectric constant tensor:
#      x y z
#    x 1.786310 0.000000 0.000000 
#    y 0.000000 1.653200 0.000000 
#    z 0.000000 0.000000 1.823250 
# 
# From -- ./inp_files/20540.got.cif
#   From: 2010.05.17/outbox.cif.g08.bks.cpg/sg37_11_cif.got.tgz:20540.got - 2010.06.03 17:53:42.
