data_PCOD9354191
_publ_section_title
;
Structure prediction by ZEFSAII (Michael W. Deem and Ramdas Pophale) SiO2 
 PCOD9354191
Probable space group: C C C 2
;
_chemical_formula_sum "Si O2"
_cell_formula_units_Z 64
_cell_length_a 13.406607
_cell_length_b 16.602286
_cell_length_c 14.886833
_cell_angle_alpha 90.000000
_cell_angle_beta 90.000000
_cell_angle_gamma 90.000000
_cell_volume 3313.516108
_symmetry_space_group_name_H-M "C C C 2"
_symmetry_group_IT_number 37
_symmetry_cell_setting 'orthorhombic'
loop_
_space_group_symop_operation_xyz
x,y,z
-x,-y,z
-x,y,1/2+z
x,-y,1/2+z
1/2+x,1/2+y,z
1/2-x,1/2-y,z
1/2-x,1/2+y,1/2+z
1/2+x,1/2-y,1/2+z
loop_
_atom_site_type_symbol
_atom_site_label
_atom_site_fract_x
_atom_site_fract_y
_atom_site_fract_z
Si Si1 0.425571 0.066330 0.975960
Si Si2 0.911869 0.684821 0.425055
Si Si3 0.814918 0.322533 0.619096
Si Si4 0.741890 0.046861 0.906457
Si Si5 0.464643 0.725709 0.748643
Si Si6 0.899376 0.953913 0.564414
Si Si7 0.153999 0.069692 0.223090
Si Si8 0.131653 0.231940 0.612602
O O1 0.497484 0.122197 0.917777
O O2 0.500000 0.000000 0.019825
O O3 0.346046 0.017778 0.917196
O O4 0.370537 0.122004 0.047765
O O5 0.810143 0.635316 0.406617
O O6 0.936583 0.751701 0.350833
O O7 0.905770 0.714916 0.527799
O O8 0.750000 0.250000 0.576065
O O9 0.891182 0.278897 0.686299
O O10 0.740993 0.378019 0.676397
O O11 0.805630 0.038595 0.817195
O O12 0.812908 0.035038 0.991459
O O13 0.436675 0.632134 0.735790
O O14 0.572870 0.744899 0.706376
O O15 0.898866 0.858584 0.582830
O O16 0.872599 0.998479 0.656504
O O17 0.000000 0.000000 0.533025
O O18 0.250000 0.250000 0.621173
#
# Coordination Sequence:
#
# PCOD9354191 Si02
#       8
#     8   8   8   8   8   8   8   8
#     4  10  22  41  62 100 133 166 215 279 343 393
#     4  11  23  43  70 100 130 172 231 279 334 410
#     4  10  20  39  68  91 120 168 219 271 323 392
#     4  11  23  43  70  98 131 176 223 275 339 410
#     4  11  23  42  69  96 130 175 229 277 332 398
#     4  12  25  43  64  96 137 174 220 276 337 405
#     4  11  23  42  67  95 130 173 223 269 330 408
#     4  12  25  43  70  98 136 179 231 285 337 404
#
# _framework density 19.314830000000001
#
# number of rings (size 3 to 8) (size 9 to 14) (size 15 to 20)
#    0.000    1.000    6.250    0.750    0.000    1.500 
#    4.500    0.625    0.000    0.000    0.000    0.000 
#    0.000    0.000    0.000    0.000    0.000    0.000 
#
# Total GULP energy -178642.077487 kJ/mol
# GULP energy per Si atom -5582.564921 kJ/mol
# Density = 1.927087 g / cm^3
# Si number density = 19.314830 Si / 1000 Ang^3
#
#
#
# Elastic Constant Matrix: (Units=GPa)
#
#
# Indices 1 2 3 4 5 6 
#
# 1 102.6251 20.4657 29.7793 0.0000 0.0000 0.0000
# 2 20.4657 65.3185 11.7785 0.0000 0.0000 0.0000
# 3 29.7793 11.7785 88.3018 0.0000 0.0000 0.0000
# 4 0.0000 0.0000 0.0000 -2.7636 0.0000 0.0000
# 5 0.0000 0.0000 0.0000 0.0000 11.9603 0.0000
# 6 0.0000 0.0000 0.0000 0.0000 0.0000 29.2168
#
#
#
# Elastic Compliance Matrix: (Units=1/GPa)
#
#
# Indices 1 2 3 4 5 6 
#
# 1 0.011323 -0.002930 -0.003428 0.000000 0.000000 0.000000
# 2 -0.002930 0.016445 -0.001206 0.000000 0.000000 0.000000
# 3 -0.003428 -0.001206 0.012642 0.000000 0.000000 0.000000
# 4 0.000000 0.000000 0.000000 -0.361844 0.000000 0.000000
# 5 0.000000 0.000000 0.000000 0.000000 0.083610 0.000000
# 6 0.000000 0.000000 0.000000 0.000000 0.000000 0.034227
#
#
# Mechanical properties :
#
#
# Convention : Reuss Voigt Hill
#
# Bulk Modulus (GPa) = 39.55150 42.25470 40.90310
# Shear Modulus (GPa) = -27.77097 20.63085 -3.57006
#
# Velocity S-wave (km/s) = -3.79595 3.27178 -1.36102
# Velocity P-wave (km/s) = 1.14428 6.01640 4.33050
#
# Compressibility (1/GPa) = 0.02528349
#
# Stress axis : x y z
#
# Youngs Moduli (GPa) = 88.31486 60.80913 79.10369
#
# Poissons Ratio (x) = 0.17815 0.27116
# Poissons Ratio (y) = 0.25873 0.09536
# Poissons Ratio (z) = 0.30273 0.07331
#
# Static dielectric constant tensor:
#      x y z
#    x 1.695900 0.000000 0.000000 
#    y 0.000000 1.755140 0.000000 
#    z 0.000000 0.000000 1.634320 
# 
# From -- ./inp_files/11794.got.cif
#   From: 2010.05.17/outbox.cif.g08.bks.cpg/sg37_6_cif.got.tgz:11794.got - 2010.06.03 17:53:42.
