data_PCOD9354486
_publ_section_title
;
Structure prediction by ZEFSAII (Michael W. Deem and Ramdas Pophale) SiO2 
 PCOD9354486
Probable space group: C C C 2
;
_chemical_formula_sum "Si O2"
_cell_formula_units_Z 56
_cell_length_a 11.765442
_cell_length_b 10.632938
_cell_length_c 19.924098
_cell_angle_alpha 90.000000
_cell_angle_beta 90.000000
_cell_angle_gamma 90.000000
_cell_volume 2492.528874
_symmetry_space_group_name_H-M "C C C 2"
_symmetry_group_IT_number 37
_symmetry_cell_setting 'orthorhombic'
loop_
_space_group_symop_operation_xyz
x,y,z
-x,-y,z
-x,y,1/2+z
x,-y,1/2+z
1/2+x,1/2+y,z
1/2-x,1/2-y,z
1/2-x,1/2+y,1/2+z
1/2+x,1/2-y,1/2+z
loop_
_atom_site_type_symbol
_atom_site_label
_atom_site_fract_x
_atom_site_fract_y
_atom_site_fract_z
Si Si1 0.283466 0.986475 0.924340
Si Si2 0.000000 0.500000 0.491702
Si Si3 0.320672 0.049546 0.271850
Si Si4 0.550397 0.786171 0.076888
Si Si5 0.250000 0.250000 0.992058
Si Si6 0.388189 0.410692 0.537230
Si Si7 0.972048 0.306701 0.229647
Si Si8 0.371912 0.551127 0.187994
O O1 0.280449 0.135119 0.943024
O O2 0.408663 0.937222 0.943504
O O3 0.270275 0.966797 0.845842
O O4 0.191630 0.926675 0.973791
O O5 0.072754 0.580962 0.543446
O O6 0.411746 0.164016 0.270901
O O7 0.391623 0.925361 0.247358
O O8 0.213131 0.047192 0.222070
O O9 0.438445 0.728938 0.043658
O O10 0.524469 0.800650 0.154339
O O11 0.653299 0.707151 0.045214
O O12 0.500000 0.500000 0.531239
O O13 0.332737 0.428857 0.611067
O O14 0.893542 0.180695 0.230093
O O15 0.500000 0.500000 0.182317
#
# Coordination Sequence:
#
# PCOD9354486 Si02
#       8
#     8   4   8   8   4   8   8   8
#     4  11  24  41  64  95 134 178 225 278 352 420
#     4  10  22  38  58  96 126 168 220 272 336 396
#     4  11  24  43  66  97 136 183 226 279 352 427
#     4  10  21  39  66  99 127 172 224 286 336 395
#     4  10  22  38  68  92 130 176 224 282 344 420
#     4  10  21  41  64  94 129 171 228 285 333 398
#     4  10  23  41  68  97 136 176 228 289 341 411
#     4  10  24  42  65  97 131 177 230 286 344 407
#
# _framework density 22.467141999999999
#
# number of rings (size 3 to 8) (size 9 to 14) (size 15 to 20)
#    0.000    1.714    1.429    2.143    8.000    1.714 
#    0.000    1.429    0.000    0.000    0.000    0.000 
#    0.000    0.000    0.000    0.000    0.000    0.000 
#
# Total GULP energy -156011.985026 kJ/mol
# GULP energy per Si atom -5571.856608 kJ/mol
# Density = 2.241601 g / cm^3
# Si number density = 22.467142 Si / 1000 Ang^3
#
#
#
# Elastic Constant Matrix: (Units=GPa)
#
#
# Indices 1 2 3 4 5 6 
#
# 1 86.5659 -9.8959 52.6309 0.0000 0.0000 0.0000
# 2 -9.8959 33.0852 13.0000 0.0000 0.0000 0.0000
# 3 52.6309 13.0000 132.4117 0.0000 0.0000 0.0000
# 4 0.0000 0.0000 0.0000 22.1350 0.0000 0.0000
# 5 0.0000 0.0000 0.0000 0.0000 40.9744 0.0000
# 6 0.0000 0.0000 0.0000 0.0000 0.0000 26.8830
#
#
#
# Elastic Compliance Matrix: (Units=1/GPa)
#
#
# Indices 1 2 3 4 5 6 
#
# 1 0.017090 0.008093 -0.007588 0.000000 0.000000 0.000000
# 2 0.008093 0.035270 -0.006680 0.000000 0.000000 0.000000
# 3 -0.007588 -0.006680 0.011224 0.000000 0.000000 0.000000
# 4 0.000000 0.000000 0.000000 0.045177 0.000000 0.000000
# 5 0.000000 0.000000 0.000000 0.000000 0.024405 0.000000
# 6 0.000000 0.000000 0.000000 0.000000 0.000000 0.037198
#
#
# Mechanical properties :
#
#
# Convention : Reuss Voigt Hill
#
# Bulk Modulus (GPa) = 19.51746 40.39254 29.95500
# Shear Modulus (GPa) = 25.02597 31.08699 28.05648
#
# Velocity S-wave (km/s) = 3.34112 3.72380 3.53764
# Velocity P-wave (km/s) = 4.85697 6.04206 5.48163
#
# Compressibility (1/GPa) = 0.05123616
#
# Stress axis : x y z
#
# Youngs Moduli (GPa) = 58.51295 28.35251 89.09550
#
# Poissons Ratio (x) = -0.22946 0.67602
# Poissons Ratio (y) = -0.47355 0.59513
# Poissons Ratio (z) = 0.44397 0.18938
#
# Static dielectric constant tensor:
#      x y z
#    x 1.928640 0.000000 0.000000 
#    y 0.000000 2.004820 0.000000 
#    z 0.000000 0.000000 1.799380 
# 
# From -- ./inp_files/16919.got.cif
#   From: 2010.05.17/outbox.cif.g08.bks.cpg/sg37_9_cif.got.tgz:16919.got - 2010.06.03 17:53:42.
