data_PCOD9354809
_publ_section_title
;
Structure prediction by ZEFSAII (Michael W. Deem and Ramdas Pophale) SiO2 
 PCOD9354809
Probable space group: C C C 2
;
_chemical_formula_sum "Si O2"
_cell_formula_units_Z 32
_cell_length_a 15.501763
_cell_length_b 4.867585
_cell_length_c 16.202692
_cell_angle_alpha 90.000000
_cell_angle_beta 90.000000
_cell_angle_gamma 90.000000
_cell_volume 1222.592743
_symmetry_space_group_name_H-M "C C C 2"
_symmetry_group_IT_number 37
_symmetry_cell_setting 'orthorhombic'
loop_
_space_group_symop_operation_xyz
x,y,z
-x,-y,z
-x,y,1/2+z
x,-y,1/2+z
1/2+x,1/2+y,z
1/2-x,1/2-y,z
1/2-x,1/2+y,1/2+z
1/2+x,1/2-y,1/2+z
loop_
_atom_site_type_symbol
_atom_site_label
_atom_site_fract_x
_atom_site_fract_y
_atom_site_fract_z
Si Si1 0.100771 0.908739 0.851300
Si Si2 0.374924 0.863401 0.567080
Si Si3 0.500000 0.000000 0.930022
Si Si4 0.750000 0.750000 0.465123
Si Si5 0.902691 0.885063 0.671885
O O1 0.076695 0.588058 0.867867
O O2 0.182081 0.929584 0.911265
O O3 0.125090 0.035356 0.763885
O O4 0.000000 0.000000 0.867461
O O5 0.451186 0.814868 0.499944
O O6 0.305961 0.038028 0.517446
O O7 0.399600 0.072114 0.642261
O O8 0.351136 0.576598 0.608132
O O9 0.000000 0.000000 0.665965
#
# Coordination Sequence:
#
# PCOD9354809 Si02
#       5
#     8   8   4   4   8
#     4  10  25  44  74 103 150 197 249 312 387 452
#     4  11  24  43  70 104 145 187 248 302 372 447
#     4  10  22  40  68 104 140 188 246 300 368 456
#     4  10  26  48  68 114 142 204 248 316 374 464
#     4  11  23  44  74 105 143 194 244 309 376 451
#
# _framework density 26.173887000000001
#
# number of rings (size 3 to 8) (size 9 to 14) (size 15 to 20)
#    0.000    1.500    2.500    0.000   14.000    3.000 
#    4.500    0.000    0.000    0.000    0.000    0.000 
#    0.000    0.000    0.000    0.000    0.000    0.000 
#
# Total GULP energy -89281.085764 kJ/mol
# GULP energy per Si atom -5580.067860 kJ/mol
# Density = 2.611431 g / cm^3
# Si number density = 26.173887 Si / 1000 Ang^3
#
#
#
# Elastic Constant Matrix: (Units=GPa)
#
#
# Indices 1 2 3 4 5 6 
#
# 1 84.3254 0.6918 42.2767 0.0000 0.0000 0.0000
# 2 0.6918 100.8436 42.5488 0.0000 0.0000 0.0000
# 3 42.2767 42.5488 161.3055 0.0000 0.0000 0.0000
# 4 0.0000 0.0000 0.0000 24.9820 0.0000 0.0000
# 5 0.0000 0.0000 0.0000 0.0000 42.5881 0.0000
# 6 0.0000 0.0000 0.0000 0.0000 0.0000 44.8190
#
#
#
# Elastic Compliance Matrix: (Units=1/GPa)
#
#
# Indices 1 2 3 4 5 6 
#
# 1 0.013884 0.001620 -0.004066 0.000000 0.000000 0.000000
# 2 0.001620 0.011347 -0.003418 0.000000 0.000000 0.000000
# 3 -0.004066 -0.003418 0.008167 0.000000 0.000000 0.000000
# 4 0.000000 0.000000 0.000000 0.040029 0.000000 0.000000
# 5 0.000000 0.000000 0.000000 0.000000 0.023481 0.000000
# 6 0.000000 0.000000 0.000000 0.000000 0.000000 0.022312
#
#
# Mechanical properties :
#
#
# Convention : Reuss Voigt Hill
#
# Bulk Modulus (GPa) = 46.14524 57.50101 51.82312
# Shear Modulus (GPa) = 36.18708 39.87498 38.03103
#
# Velocity S-wave (km/s) = 3.72232 3.90739 3.81598
# Velocity P-wave (km/s) = 6.01188 6.50949 6.26563
#
# Compressibility (1/GPa) = 0.02167071
#
# Stress axis : x y z
#
# Youngs Moduli (GPa) = 72.02427 88.12648 122.44803
#
# Poissons Ratio (x) = -0.14281 0.49792
# Poissons Ratio (y) = -0.11671 0.41851
# Poissons Ratio (z) = 0.29288 0.30121
#
# Static dielectric constant tensor:
#      x y z
#    x 2.189580 0.000000 0.000000 
#    y 0.000000 3.251390 0.000000 
#    z 0.000000 0.000000 2.045730 
# 
# From -- ./inp_files/10227.got.cif
#   From: 2010.05.17/outbox.cif.g08.bks.cpg/sg37_6_cif.got.tgz:10227.got - 2010.06.03 17:53:42.
