data_PCOD9354907
_publ_section_title
;
Structure prediction by ZEFSAII (Michael W. Deem and Ramdas Pophale) SiO2 
 PCOD9354907
Probable space group: C C C 2
;
_chemical_formula_sum "Si O2"
_cell_formula_units_Z 40
_cell_length_a 11.176546
_cell_length_b 15.252625
_cell_length_c 8.964075
_cell_angle_alpha 90.000000
_cell_angle_beta 90.000000
_cell_angle_gamma 90.000000
_cell_volume 1528.120790
_symmetry_space_group_name_H-M "C C C 2"
_symmetry_group_IT_number 37
_symmetry_cell_setting 'orthorhombic'
loop_
_space_group_symop_operation_xyz
x,y,z
-x,-y,z
-x,y,1/2+z
x,-y,1/2+z
1/2+x,1/2+y,z
1/2-x,1/2-y,z
1/2-x,1/2+y,1/2+z
1/2+x,1/2-y,1/2+z
loop_
_atom_site_type_symbol
_atom_site_label
_atom_site_fract_x
_atom_site_fract_y
_atom_site_fract_z
Si Si1 0.250000 0.250000 0.133760
Si Si2 0.255083 0.937771 0.510439
Si Si3 0.385983 0.322801 0.565901
Si Si4 0.163521 0.587185 0.189863
Si Si5 0.491864 0.768058 0.809323
Si Si6 0.000000 0.000000 0.030313
O O1 0.269374 0.164564 0.036334
O O2 0.363743 0.251734 0.239071
O O3 0.262204 0.948461 0.333097
O O4 0.126707 0.960585 0.586072
O O5 0.351319 0.001945 0.586629
O O6 0.246066 0.346492 0.588972
O O7 0.423600 0.306178 0.737245
O O8 0.460134 0.246119 0.481839
O O9 0.440369 0.407841 0.480610
O O10 0.052905 0.640250 0.261874
#
# Coordination Sequence:
#
# PCOD9354907 Si02
#       6
#     4   8   8   8   8   4
#     4  12  28  48  80 118 162 218 284 348 426 516
#     4  11  26  49  79 118 162 215 275 347 432 501
#     4  11  25  44  78 116 164 216 276 353 426 503
#     4  11  28  48  81 119 168 219 274 355 427 511
#     4  12  27  48  75 117 164 219 280 340 428 521
#     4  10  22  42  74 110 150 192 270 334 400 494
#
# _framework density 26.175941000000002
#
# number of rings (size 3 to 8) (size 9 to 14) (size 15 to 20)
#    0.000    0.800    2.000    3.000   11.200    4.800 
#    0.000    2.000    0.000    0.000    0.000    0.000 
#    0.000    0.000    0.000    0.000    0.000    0.000 
#
# Total GULP energy -111447.533433 kJ/mol
# GULP energy per Si atom -5572.376672 kJ/mol
# Density = 2.611636 g / cm^3
# Si number density = 26.175941 Si / 1000 Ang^3
#
#
#
# Elastic Constant Matrix: (Units=GPa)
#
#
# Indices 1 2 3 4 5 6 
#
# 1 116.9485 35.9665 7.4082 0.0000 0.0000 0.0000
# 2 35.9665 142.2946 37.8801 0.0000 0.0000 0.0000
# 3 7.4082 37.8801 95.3559 0.0000 0.0000 0.0000
# 4 0.0000 0.0000 0.0000 26.2454 0.0000 0.0000
# 5 0.0000 0.0000 0.0000 0.0000 21.1350 0.0000
# 6 0.0000 0.0000 0.0000 0.0000 0.0000 36.0936
#
#
#
# Elastic Compliance Matrix: (Units=1/GPa)
#
#
# Indices 1 2 3 4 5 6 
#
# 1 0.009276 -0.002407 0.000236 0.000000 0.000000 0.000000
# 2 -0.002407 0.008484 -0.003183 0.000000 0.000000 0.000000
# 3 0.000236 -0.003183 0.011733 0.000000 0.000000 0.000000
# 4 0.000000 0.000000 0.000000 0.038102 0.000000 0.000000
# 5 0.000000 0.000000 0.000000 0.000000 0.047315 0.000000
# 6 0.000000 0.000000 0.000000 0.000000 0.000000 0.027706
#
#
# Mechanical properties :
#
#
# Convention : Reuss Voigt Hill
#
# Bulk Modulus (GPa) = 53.23861 57.45653 55.34757
# Shear Modulus (GPa) = 31.33105 34.91775 33.12440
#
# Velocity S-wave (km/s) = 3.46344 3.65631 3.56118
# Velocity P-wave (km/s) = 6.03132 6.31051 6.17249
#
# Compressibility (1/GPa) = 0.01878336
#
# Stress axis : x y z
#
# Youngs Moduli (GPa) = 107.80259 117.87553 85.22838
#
# Poissons Ratio (x) = 0.28377 -0.02009
# Poissons Ratio (y) = 0.25952 0.27129
# Poissons Ratio (z) = -0.02541 0.37520
#
# Static dielectric constant tensor:
#      x y z
#    x 2.097140 0.000000 0.000000 
#    y 0.000000 2.121840 0.000000 
#    z 0.000000 0.000000 2.209770 
# 
# From -- ./inp_files/2766.got.cif
#   From: 2010.05.17/outbox.cif.g08.bks.cpg/sg37_2_cif.got.tgz:2766.got - 2010.06.03 17:53:42.
