data_PCOD9354438
_publ_section_title
;
Structure prediction by ZEFSAII (Michael W. Deem and Ramdas Pophale) SiO2 
 PCOD9354438
Probable space group: C C C 2
;
_chemical_formula_sum "Si O2"
_cell_formula_units_Z 64
_cell_length_a 18.360696
_cell_length_b 6.705789
_cell_length_c 27.154422
_cell_angle_alpha 90.000000
_cell_angle_beta 90.000000
_cell_angle_gamma 90.000000
_cell_volume 3343.332631
_symmetry_space_group_name_H-M "C C C 2"
_symmetry_group_IT_number 37
_symmetry_cell_setting 'orthorhombic'
loop_
_space_group_symop_operation_xyz
x,y,z
-x,-y,z
-x,y,1/2+z
x,-y,1/2+z
1/2+x,1/2+y,z
1/2-x,1/2-y,z
1/2-x,1/2+y,1/2+z
1/2+x,1/2-y,1/2+z
loop_
_atom_site_type_symbol
_atom_site_label
_atom_site_fract_x
_atom_site_fract_y
_atom_site_fract_z
Si Si1 0.418938 0.913261 0.238100
Si Si2 0.835304 0.290510 0.674421
Si Si3 0.912314 0.460514 0.087384
Si Si4 0.824373 0.658960 0.409634
Si Si5 0.425295 0.870998 0.349164
Si Si6 0.080617 0.953497 0.433895
Si Si7 0.078347 0.900753 0.149500
Si Si8 0.175182 0.646017 0.497503
O O1 0.406735 0.826866 0.292459
O O2 0.420674 0.750800 0.195171
O O3 0.500000 0.000000 0.238460
O O4 0.363543 0.089341 0.222425
O O5 0.750000 0.250000 0.674115
O O6 0.869288 0.420194 0.629901
O O7 0.869366 0.075754 0.665463
O O8 0.901930 0.228100 0.101264
O O9 0.000000 0.500000 0.088973
O O10 0.874893 0.537524 0.037861
O O11 0.750000 0.750000 0.389608
O O12 0.864043 0.514189 0.371680
O O13 0.805756 0.521684 0.456874
O O14 0.877539 0.840673 0.423845
O O15 0.429540 0.676463 0.383761
O O16 0.500000 0.000000 0.351722
O O17 0.127003 0.815176 0.470576
O O18 0.000000 0.000000 0.453631
O O19 0.000000 0.000000 0.142166
O O20 0.250000 0.750000 0.515953
#
# Coordination Sequence:
#
# PCOD9354438 Si02
#       8
#     8   8   8   8   8   8   8   8
#     4  10  21  38  64  97 126 168 216 261 307 378
#     4  11  23  42  64  92 131 165 207 265 316 372
#     4  11  24  41  64  95 123 159 214 264 313 378
#     4  11  23  43  63  90 127 169 204 261 329 380
#     4  10  22  38  63  97 130 162 218 268 309 376
#     4  11  23  41  65  91 125 168 213 261 319 381
#     4  11  20  42  67  89 125 172 206 253 320 374
#     4  11  25  44  63  91 126 162 211 267 320 386
#
# _framework density 19.142576999999999
#
# number of rings (size 3 to 8) (size 9 to 14) (size 15 to 20)
#    0.000    1.250    5.000    1.125    1.750    5.000 
#    2.250    1.250    0.000    0.000    0.000    0.000 
#    0.000    0.000    0.000    0.000    0.000    0.000 
#
# Total GULP energy -178646.093580 kJ/mol
# GULP energy per Si atom -5582.690424 kJ/mol
# Density = 1.909901 g / cm^3
# Si number density = 19.142577 Si / 1000 Ang^3
#
#
#
# Elastic Constant Matrix: (Units=GPa)
#
#
# Indices 1 2 3 4 5 6 
#
# 1 128.7379 28.4976 18.3981 0.0000 0.0000 0.0000
# 2 28.4976 100.9519 15.6017 0.0000 0.0000 0.0000
# 3 18.3981 15.6017 70.7786 0.0000 0.0000 0.0000
# 4 0.0000 0.0000 0.0000 20.3149 0.0000 0.0000
# 5 0.0000 0.0000 0.0000 0.0000 113.5358 0.0000
# 6 0.0000 0.0000 0.0000 0.0000 0.0000 29.8197
#
#
#
# Elastic Compliance Matrix: (Units=1/GPa)
#
#
# Indices 1 2 3 4 5 6 
#
# 1 0.008487 -0.002127 -0.001737 0.000000 0.000000 0.000000
# 2 -0.002127 0.010788 -0.001825 0.000000 0.000000 0.000000
# 3 -0.001737 -0.001825 0.014982 0.000000 0.000000 0.000000
# 4 0.000000 0.000000 0.000000 0.049225 0.000000 0.000000
# 5 0.000000 0.000000 0.000000 0.000000 0.008808 0.000000
# 6 0.000000 0.000000 0.000000 0.000000 0.000000 0.033535
#
#
# Mechanical properties :
#
#
# Convention : Reuss Voigt Hill
#
# Bulk Modulus (GPa) = 43.70915 47.27371 45.49143
# Shear Modulus (GPa) = 34.52314 48.59882 41.56098
#
# Velocity S-wave (km/s) = 4.25134 5.04410 4.66459
# Velocity P-wave (km/s) = 6.85431 7.65984 7.26824
#
# Compressibility (1/GPa) = 0.02287851
#
# Stress axis : x y z
#
# Youngs Moduli (GPa) = 117.82893 92.69315 66.74491
#
# Poissons Ratio (x) = 0.19718 0.11595
# Poissons Ratio (y) = 0.25066 0.12182
# Poissons Ratio (z) = 0.20469 0.16917
#
# Static dielectric constant tensor:
#      x y z
#    x 1.559110 0.000000 0.000000 
#    y 0.000000 1.592180 0.000000 
#    z 0.000000 0.000000 1.676370 
# 
# From -- ./inp_files/20275.got.cif
#   From: 2010.05.17/outbox.cif.g08.bks.cpg/sg37_11_cif.got.tgz:20275.got - 2010.06.03 17:53:42.
