data_PCOD9354102
_publ_section_title
;
Structure prediction by ZEFSAII (Michael W. Deem and Ramdas Pophale) SiO2 
 PCOD9354102
Probable space group: C C C 2
;
_chemical_formula_sum "Si O2"
_cell_formula_units_Z 48
_cell_length_a 15.244870
_cell_length_b 13.557428
_cell_length_c 8.953268
_cell_angle_alpha 90.000000
_cell_angle_beta 90.000000
_cell_angle_gamma 90.000000
_cell_volume 1850.472419
_symmetry_space_group_name_H-M "C C C 2"
_symmetry_group_IT_number 37
_symmetry_cell_setting 'orthorhombic'
loop_
_space_group_symop_operation_xyz
x,y,z
-x,-y,z
-x,y,1/2+z
x,-y,1/2+z
1/2+x,1/2+y,z
1/2-x,1/2-y,z
1/2-x,1/2+y,1/2+z
1/2+x,1/2-y,1/2+z
loop_
_atom_site_type_symbol
_atom_site_label
_atom_site_fract_x
_atom_site_fract_y
_atom_site_fract_z
Si Si1 0.403251 0.377722 0.507960
Si Si2 0.988389 0.190479 0.749880
Si Si3 0.889347 0.617891 0.252115
Si Si4 0.250000 0.750000 0.569969
Si Si5 0.154092 0.074878 0.056231
Si Si6 0.170952 0.560186 0.088091
Si Si7 0.750000 0.250000 0.081470
O O1 0.426678 0.357855 0.679334
O O2 0.482921 0.324982 0.425732
O O3 0.400434 0.492028 0.472035
O O4 0.316059 0.315024 0.480526
O O5 0.970450 0.306721 0.731089
O O6 0.905984 0.123540 0.686642
O O7 0.812404 0.683148 0.174223
O O8 0.895311 0.514310 0.166633
O O9 0.862510 0.589307 0.421908
O O10 0.194750 0.829648 0.478829
O O11 0.237428 0.003106 0.096350
O O12 0.193405 0.665670 0.162176
#
# Coordination Sequence:
#
# PCOD9354102 Si02
#       7
#     8   8   8   4   8   8   4
#     4  11  24  43  74 101 142 191 249 298 382 445
#     4  11  24  45  67  99 149 188 235 309 388 445
#     4  10  20  39  65  94 138 186 236 296 361 437
#     4   8  17  36  61  98 141 182 229 280 355 422
#     4   9  21  34  68 103 137 182 232 286 354 451
#     4  10  20  37  68 101 130 183 242 286 360 441
#     4  10  21  44  71  94 131 190 239 298 361 462
#
# _framework density 25.939322000000001
#
# number of rings (size 3 to 8) (size 9 to 14) (size 15 to 20)
#    0.000    2.000    1.667    1.000   11.667    2.667 
#    6.000    4.167    0.000    1.000    0.000    0.000 
#    0.000    0.000    0.000    0.000    0.000    0.000 
#
# Total GULP energy -133915.148566 kJ/mol
# GULP energy per Si atom -5579.797857 kJ/mol
# Density = 2.588028 g / cm^3
# Si number density = 25.939322 Si / 1000 Ang^3
#
#
#
# Elastic Constant Matrix: (Units=GPa)
#
#
# Indices 1 2 3 4 5 6 
#
# 1 77.2514 41.3252 18.2652 0.0000 0.0000 0.0000
# 2 41.3252 275.6296 45.6667 0.0000 0.0000 0.0000
# 3 18.2652 45.6667 65.0076 0.0000 0.0000 0.0000
# 4 0.0000 0.0000 0.0000 38.1194 0.0000 0.0000
# 5 0.0000 0.0000 0.0000 0.0000 -1.7803 0.0000
# 6 0.0000 0.0000 0.0000 0.0000 0.0000 29.0676
#
#
#
# Elastic Compliance Matrix: (Units=1/GPa)
#
#
# Indices 1 2 3 4 5 6 
#
# 1 0.014538 -0.001701 -0.002890 0.000000 0.000000 0.000000
# 2 -0.001701 0.004305 -0.002546 0.000000 0.000000 0.000000
# 3 -0.002890 -0.002546 0.017983 0.000000 0.000000 0.000000
# 4 0.000000 0.000000 0.000000 0.026233 0.000000 0.000000
# 5 0.000000 0.000000 0.000000 0.000000 -0.561717 0.000000
# 6 0.000000 0.000000 0.000000 0.000000 0.000000 0.034403
#
#
# Mechanical properties :
#
#
# Convention : Reuss Voigt Hill
#
# Bulk Modulus (GPa) = 44.34139 69.82256 57.08197
# Shear Modulus (GPa) = -11.30037 33.92346 11.31155
#
# Velocity S-wave (km/s) = -2.08948 3.62028 2.09051
# Velocity P-wave (km/s) = 3.36306 6.66718 5.28022
#
# Compressibility (1/GPa) = 0.02255229
#
# Stress axis : x y z
#
# Youngs Moduli (GPa) = 68.78574 232.29153 55.60662
#
# Poissons Ratio (x) = 0.39510 0.16070
# Poissons Ratio (y) = 0.11700 0.14159
# Poissons Ratio (z) = 0.19878 0.59147
#
# Static dielectric constant tensor:
#      x y z
#    x 2.237890 0.000000 0.000000 
#    y 0.000000 1.990040 0.000000 
#    z 0.000000 0.000000 2.047210 
# 
# From -- ./inp_files/3986.got.cif
#   From: 2010.05.17/outbox.cif.g08.bks.cpg/sg37_2_cif.got.tgz:3986.got - 2010.06.03 17:53:42.
