data_PCOD9354006
_publ_section_title
;
Structure prediction by ZEFSAII (Michael W. Deem and Ramdas Pophale) SiO2 
 PCOD9354006
Probable space group: C C C 2
;
_chemical_formula_sum "Si O2"
_cell_formula_units_Z 60
_cell_length_a 23.525856
_cell_length_b 13.725311
_cell_length_c 9.213878
_cell_angle_alpha 90.000000
_cell_angle_beta 90.000000
_cell_angle_gamma 90.000000
_cell_volume 2975.158351
_symmetry_space_group_name_H-M "C C C 2"
_symmetry_group_IT_number 37
_symmetry_cell_setting 'orthorhombic'
loop_
_space_group_symop_operation_xyz
x,y,z
-x,-y,z
-x,y,1/2+z
x,-y,1/2+z
1/2+x,1/2+y,z
1/2-x,1/2-y,z
1/2-x,1/2+y,1/2+z
1/2+x,1/2-y,1/2+z
loop_
_atom_site_type_symbol
_atom_site_label
_atom_site_fract_x
_atom_site_fract_y
_atom_site_fract_z
Si Si1 0.647976 0.746035 0.327590
Si Si2 0.935830 0.391709 0.969737
Si Si3 0.000000 0.000000 0.952663
Si Si4 0.294040 0.999414 0.118804
Si Si5 0.747252 0.614766 0.348950
Si Si6 0.131734 0.416676 0.883131
Si Si7 0.535566 0.814442 0.770081
Si Si8 0.043300 0.862585 0.703422
O O1 0.611789 0.809168 0.440968
O O2 0.686062 0.657736 0.384123
O O3 0.701284 0.816490 0.287800
O O4 0.600880 0.702028 0.217487
O O5 0.955040 0.385358 0.134279
O O6 0.910987 0.494785 0.922336
O O7 0.988094 0.359794 0.872134
O O8 0.964705 0.928218 0.059921
O O9 0.037610 0.932824 0.844527
O O10 0.243305 0.038532 0.218268
O O11 0.335782 0.949243 0.236308
O O12 0.326238 0.080408 0.020363
O O13 0.272320 0.926565 0.997023
O O14 0.095222 0.319896 0.855554
O O15 0.510224 0.712382 0.714642
#
# Coordination Sequence:
#
# PCOD9354006 Si02
#       8
#     8   8   4   8   8   8   8   8
#     4  10  20  38  61  84 113 159 209 246 303 361
#     4  11  22  36  56  89 125 169 198 240 299 365
#     4  10  22  42  60  84 112 156 198 260 308 348
#     4  10  20  36  57  87 119 160 201 250 306 352
#     4  10  21  37  61  83 115 158 204 258 303 361
#     4  11  20  35  58  87 129 164 193 236 299 373
#     4  11  23  35  57  91 124 159 203 239 294 383
#     4  10  22  39  62  83 116 153 203 252 305 360
#
# _framework density 20.166993000000002
#
# number of rings (size 3 to 8) (size 9 to 14) (size 15 to 20)
#    0.000    1.600    4.000    2.000    1.867    3.200 
#    0.000    0.000    0.000   25.600    0.000    0.000 
#    0.000    0.000    0.000    0.000    0.000    0.000 
#
# Total GULP energy -167159.519124 kJ/mol
# GULP energy per Si atom -5571.983971 kJ/mol
# Density = 2.012109 g / cm^3
# Si number density = 20.166993 Si / 1000 Ang^3
#
#
#
# Elastic Constant Matrix: (Units=GPa)
#
#
# Indices 1 2 3 4 5 6 
#
# 1 79.9410 19.8145 30.4384 0.0000 0.0000 0.0000
# 2 19.8145 51.7541 19.9401 0.0000 0.0000 0.0000
# 3 30.4384 19.9401 108.2905 0.0000 0.0000 0.0000
# 4 0.0000 0.0000 0.0000 11.9028 0.0000 0.0000
# 5 0.0000 0.0000 0.0000 0.0000 -4.3040 0.0000
# 6 0.0000 0.0000 0.0000 0.0000 0.0000 32.7972
#
#
#
# Elastic Compliance Matrix: (Units=1/GPa)
#
#
# Indices 1 2 3 4 5 6 
#
# 1 0.014884 -0.004399 -0.003374 0.000000 0.000000 0.000000
# 2 -0.004399 0.022098 -0.002833 0.000000 0.000000 0.000000
# 3 -0.003374 -0.002833 0.010704 0.000000 0.000000 0.000000
# 4 0.000000 0.000000 0.000000 0.084014 0.000000 0.000000
# 5 0.000000 0.000000 0.000000 0.000000 -0.232343 0.000000
# 6 0.000000 0.000000 0.000000 0.000000 0.000000 0.030490
#
#
# Mechanical properties :
#
#
# Convention : Reuss Voigt Hill
#
# Bulk Modulus (GPa) = 37.76991 42.26349 40.01670
# Shear Modulus (GPa) = -124.63230 19.39871 -52.61679
#
# Velocity S-wave (km/s) = -7.86984 3.10482 -5.11343
# Velocity P-wave (km/s) = 7.98811 5.81855 3.87004
#
# Compressibility (1/GPa) = 0.02647610
#
# Stress axis : x y z
#
# Youngs Moduli (GPa) = 67.18601 45.25388 93.42064
#
# Poissons Ratio (x) = 0.19906 0.31517
# Poissons Ratio (y) = 0.29553 0.26462
# Poissons Ratio (z) = 0.22666 0.12818
#
# Static dielectric constant tensor:
#      x y z
#    x 1.730200 0.000000 0.000000 
#    y 0.000000 1.809250 0.000000 
#    z 0.000000 0.000000 1.692480 
# 
# From -- ./inp_files/4632.got.cif
#   From: 2010.05.17/outbox.cif.g08.bks.cpg/sg37_3_cif.got.tgz:4632.got - 2010.06.03 17:53:42.
