data_PCOD9354274
_publ_section_title
;
Structure prediction by ZEFSAII (Michael W. Deem and Ramdas Pophale) SiO2 
 PCOD9354274
Probable space group: C C C 2
;
_chemical_formula_sum "Si O2"
_cell_formula_units_Z 56
_cell_length_a 10.971229
_cell_length_b 11.895300
_cell_length_c 19.180645
_cell_angle_alpha 90.000000
_cell_angle_beta 90.000000
_cell_angle_gamma 90.000000
_cell_volume 2503.190413
_symmetry_space_group_name_H-M "C C C 2"
_symmetry_group_IT_number 37
_symmetry_cell_setting 'orthorhombic'
loop_
_space_group_symop_operation_xyz
x,y,z
-x,-y,z
-x,y,1/2+z
x,-y,1/2+z
1/2+x,1/2+y,z
1/2-x,1/2-y,z
1/2-x,1/2+y,1/2+z
1/2+x,1/2-y,1/2+z
loop_
_atom_site_type_symbol
_atom_site_label
_atom_site_fract_x
_atom_site_fract_y
_atom_site_fract_z
Si Si1 0.284382 0.001125 0.945120
Si Si2 0.000000 0.500000 0.555574
Si Si3 0.307306 0.080131 0.292943
Si Si4 0.547804 0.760623 0.086540
Si Si5 0.250000 0.250000 0.969106
Si Si6 0.380127 0.425183 0.564901
Si Si7 0.067654 0.203402 0.239862
Si Si8 0.204198 0.877398 0.212436
O O1 0.317036 0.936672 0.875475
O O2 0.170585 0.957844 0.989918
O O3 0.388398 0.986717 0.002791
O O4 0.264522 0.133501 0.928723
O O5 0.973902 0.390635 0.599732
O O6 0.174677 0.134695 0.276874
O O7 0.410516 0.168141 0.266775
O O8 0.292095 0.957875 0.257171
O O9 0.636658 0.741799 0.022029
O O10 0.421407 0.703719 0.066117
O O11 0.595817 0.706581 0.157232
O O12 0.500000 0.500000 0.576377
O O13 0.301951 0.434683 0.635539
O O14 0.934427 0.143325 0.243036
O O15 0.250000 0.750000 0.206149
#
# Coordination Sequence:
#
# PCOD9354274 Si02
#       8
#     8   4   8   8   4   8   8   8
#     4  11  26  43  70 102 140 185 226 288 358 429
#     4  10  26  42  66 106 138 174 216 296 350 426
#     4  11  25  46  70  98 141 191 236 286 363 435
#     4  10  21  40  70  98 134 173 228 287 344 402
#     4  10  20  42  64  98 130 176 226 278 348 412
#     4  11  23  42  68 102 131 180 235 292 338 413
#     4  10  24  44  69 100 135 185 236 294 349 424
#     4  11  26  43  69 104 139 181 240 301 352 426
#
# _framework density 22.371449999999999
#
# number of rings (size 3 to 8) (size 9 to 14) (size 15 to 20)
#    0.000    1.429    1.429    3.000    9.000    5.143 
#    2.571    0.000    0.000    0.000    0.000    0.000 
#    0.000    0.000    0.000    0.000    0.000    0.000 
#
# Total GULP energy -156409.695665 kJ/mol
# GULP energy per Si atom -5586.060559 kJ/mol
# Density = 2.232053 g / cm^3
# Si number density = 22.371450 Si / 1000 Ang^3
#
#
#
# Elastic Constant Matrix: (Units=GPa)
#
#
# Indices 1 2 3 4 5 6 
#
# 1 28.1380 0.1295 -9.3443 0.0000 0.0000 0.0000
# 2 0.1295 78.7145 32.9869 0.0000 0.0000 0.0000
# 3 -9.3443 32.9869 71.7152 0.0000 0.0000 0.0000
# 4 0.0000 0.0000 0.0000 31.6490 0.0000 0.0000
# 5 0.0000 0.0000 0.0000 0.0000 7.2532 0.0000
# 6 0.0000 0.0000 0.0000 0.0000 0.0000 38.4454
#
#
#
# Elastic Compliance Matrix: (Units=1/GPa)
#
#
# Indices 1 2 3 4 5 6 
#
# 1 0.037577 -0.002618 0.006101 0.000000 0.000000 0.000000
# 2 -0.002618 0.015920 -0.007664 0.000000 0.000000 0.000000
# 3 0.006101 -0.007664 0.018264 0.000000 0.000000 0.000000
# 4 0.000000 0.000000 0.000000 0.031597 0.000000 0.000000
# 5 0.000000 0.000000 0.000000 0.000000 0.137869 0.000000
# 6 0.000000 0.000000 0.000000 0.000000 0.000000 0.026011
#
#
# Mechanical properties :
#
#
# Convention : Reuss Voigt Hill
#
# Bulk Modulus (GPa) = 15.77343 25.12354 20.44848
# Shear Modulus (GPa) = 16.85009 25.78924 21.31966
#
# Velocity S-wave (km/s) = 2.74742 3.39894 3.09039
# Velocity P-wave (km/s) = 4.13889 5.16316 4.67914
#
# Compressibility (1/GPa) = 0.06339777
#
# Stress axis : x y z
#
# Youngs Moduli (GPa) = 26.61199 62.81326 54.75206
#
# Poissons Ratio (x) = 0.16447 -0.33402
# Poissons Ratio (y) = 0.06968 0.41962
# Poissons Ratio (z) = -0.16235 0.48140
#
# Static dielectric constant tensor:
#      x y z
#    x 1.963660 0.000000 0.000000 
#    y 0.000000 1.915570 0.000000 
#    z 0.000000 0.000000 1.755140 
# 
# From -- ./inp_files/16915.got.cif
#   From: 2010.05.17/outbox.cif.g08.bks.cpg/sg37_9_cif.got.tgz:16915.got - 2010.06.03 17:53:42.
