data_PCOD9354725
_publ_section_title
;
Structure prediction by ZEFSAII (Michael W. Deem and Ramdas Pophale) SiO2 
 PCOD9354725
Probable space group: C C C 2
;
_chemical_formula_sum "Si O2"
_cell_formula_units_Z 48
_cell_length_a 6.133131
_cell_length_b 12.982581
_cell_length_c 24.660354
_cell_angle_alpha 90.000000
_cell_angle_beta 90.000000
_cell_angle_gamma 90.000000
_cell_volume 1963.552821
_symmetry_space_group_name_H-M "C C C 2"
_symmetry_group_IT_number 37
_symmetry_cell_setting 'orthorhombic'
loop_
_space_group_symop_operation_xyz
x,y,z
-x,-y,z
-x,y,1/2+z
x,-y,1/2+z
1/2+x,1/2+y,z
1/2-x,1/2-y,z
1/2-x,1/2+y,1/2+z
1/2+x,1/2-y,1/2+z
loop_
_atom_site_type_symbol
_atom_site_label
_atom_site_fract_x
_atom_site_fract_y
_atom_site_fract_z
Si Si1 0.861796 0.361210 0.809680
Si Si2 0.381692 0.390234 0.942509
Si Si3 0.000000 0.500000 0.899744
Si Si4 0.296940 0.128318 0.190316
Si Si5 0.622848 0.143692 0.101227
Si Si6 0.750000 0.250000 0.533241
Si Si7 0.500000 0.500000 0.612341
Si Si8 0.750000 0.750000 0.850039
O O1 0.750000 0.250000 0.814657
O O2 0.800159 0.409051 0.752175
O O3 0.836663 0.438968 0.859777
O O4 0.116608 0.329699 0.813906
O O5 0.500000 0.500000 0.944659
O O6 0.126674 0.419891 0.936406
O O7 0.406655 0.316228 0.890114
O O8 0.403597 0.320329 0.995256
O O9 0.250000 0.250000 0.193105
O O10 0.526711 0.112650 0.159783
O O11 0.111472 0.081542 0.152450
O O12 0.750000 0.250000 0.105783
O O13 0.408192 0.173977 0.066585
O O14 0.797795 0.057260 0.082493
#
# Coordination Sequence:
#
# PCOD9354725 Si02
#       8
#     8   8   4   8   8   4   4   4
#     4  10  22  38  65 102 142 186 229 285 356 423
#     4  10  22  45  72 103 134 185 238 298 367 438
#     4  10  22  42  64 106 142 176 238 294 356 454
#     4  11  24  46  69 106 146 196 244 290 357 434
#     4  12  25  50  72 104 147 189 246 309 363 442
#     4  11  26  50  72 106 144 184 248 313 380 430
#     4  12  26  46  74  98 152 194 238 306 362 432
#     4   9  20  40  70  98 146 182 226 301 356 422
#
# _framework density 24.445481999999998
#
# number of rings (size 3 to 8) (size 9 to 14) (size 15 to 20)
#    0.000    1.333    2.500    1.500    3.500    1.333 
#   22.500    1.667    0.000    0.000    0.000    0.000 
#    0.000    0.000    0.000    0.000    0.000    0.000 
#
# Total GULP energy -134148.819126 kJ/mol
# GULP energy per Si atom -5589.534130 kJ/mol
# Density = 2.438984 g / cm^3
# Si number density = 24.445482 Si / 1000 Ang^3
#
#
#
# Elastic Constant Matrix: (Units=GPa)
#
#
# Indices 1 2 3 4 5 6 
#
# 1 77.3804 28.1241 34.8585 0.0000 0.0000 0.0000
# 2 28.1241 124.6357 23.7059 0.0000 0.0000 0.0000
# 3 34.8585 23.7059 83.7069 0.0000 0.0000 0.0000
# 4 0.0000 0.0000 0.0000 28.8703 0.0000 0.0000
# 5 0.0000 0.0000 0.0000 0.0000 9.1170 0.0000
# 6 0.0000 0.0000 0.0000 0.0000 0.0000 69.9246
#
#
#
# Elastic Compliance Matrix: (Units=1/GPa)
#
#
# Indices 1 2 3 4 5 6 
#
# 1 0.016656 -0.002578 -0.006206 0.000000 0.000000 0.000000
# 2 -0.002578 0.008879 -0.001441 0.000000 0.000000 0.000000
# 3 -0.006206 -0.001441 0.014939 0.000000 0.000000 0.000000
# 4 0.000000 0.000000 0.000000 0.034638 0.000000 0.000000
# 5 0.000000 0.000000 0.000000 0.000000 0.109686 0.000000
# 6 0.000000 0.000000 0.000000 0.000000 0.000000 0.014301
#
#
# Mechanical properties :
#
#
# Convention : Reuss Voigt Hill
#
# Bulk Modulus (GPa) = 49.94022 51.01111 50.47566
# Shear Modulus (GPa) = 22.10209 34.85134 28.47671
#
# Velocity S-wave (km/s) = 3.01015 3.77991 3.41678
# Velocity P-wave (km/s) = 5.70569 6.32162 6.02154
#
# Compressibility (1/GPa) = 0.02002394
#
# Stress axis : x y z
#
# Youngs Moduli (GPa) = 60.03898 112.62282 66.93912
#
# Poissons Ratio (x) = 0.29034 0.41542
# Poissons Ratio (y) = 0.15478 0.09646
# Poissons Ratio (z) = 0.37260 0.16229
#
# Static dielectric constant tensor:
#      x y z
#    x 1.990650 0.000000 0.000000 
#    y 0.000000 1.963510 0.000000 
#    z 0.000000 0.000000 1.919890 
# 
# From -- ./inp_files/20142.got.cif
#   From: 2010.05.17/outbox.cif.g08.bks.cpg/sg37_11_cif.got.tgz:20142.got - 2010.06.03 17:53:42.
