data_PCOD9354320
_publ_section_title
;
Structure prediction by ZEFSAII (Michael W. Deem and Ramdas Pophale) SiO2 
 PCOD9354320
Probable space group: C C C 2
;
_chemical_formula_sum "Si O2"
_cell_formula_units_Z 48
_cell_length_a 26.961123
_cell_length_b 9.281522
_cell_length_c 9.794947
_cell_angle_alpha 90.000000
_cell_angle_beta 90.000000
_cell_angle_gamma 90.000000
_cell_volume 2451.090047
_symmetry_space_group_name_H-M "C C C 2"
_symmetry_group_IT_number 37
_symmetry_cell_setting 'orthorhombic'
loop_
_space_group_symop_operation_xyz
x,y,z
-x,-y,z
-x,y,1/2+z
x,-y,1/2+z
1/2+x,1/2+y,z
1/2-x,1/2-y,z
1/2-x,1/2+y,1/2+z
1/2+x,1/2-y,1/2+z
loop_
_atom_site_type_symbol
_atom_site_label
_atom_site_fract_x
_atom_site_fract_y
_atom_site_fract_z
Si Si1 0.000000 0.500000 0.603240
Si Si2 0.064967 0.576895 0.354323
Si Si3 0.750000 0.250000 0.101546
Si Si4 0.134398 0.679924 0.793622
Si Si5 0.718950 0.050521 0.321580
Si Si6 0.181240 0.051102 0.417445
Si Si7 0.650429 0.237387 0.483741
O O1 0.967692 0.410738 0.492287
O O2 0.965499 0.586571 0.712383
O O3 0.089868 0.416996 0.351739
O O4 0.110545 0.686355 0.370967
O O5 0.713030 0.153422 0.192067
O O6 0.784314 0.143624 0.017059
O O7 0.184584 0.589086 0.822671
O O8 0.141950 0.838539 0.854108
O O9 0.131287 0.689733 0.630933
O O10 0.700819 0.149278 0.448054
O O11 0.776483 0.008104 0.315262
O O12 0.158436 0.907530 0.480700
#
# Coordination Sequence:
#
# PCOD9354320 Si02
#       7
#     4   8   4   8   8   8   8
#     4  10  20  44  74  98 118 154 206 258 334 408
#     4  10  22  41  72 100 120 156 202 267 320 400
#     4  12  22  36  56  84 116 188 228 260 302 358
#     4  11  23  39  59  92 127 161 219 261 313 377
#     4  11  22  38  57  84 123 179 222 257 300 364
#     4  12  23  38  58  85 133 178 216 260 314 358
#     4  11  23  39  59  93 129 165 214 271 314 374
#
# _framework density 19.583123000000001
#
# number of rings (size 3 to 8) (size 9 to 14) (size 15 to 20)
#    0.000    1.000    5.000    2.000    2.333    1.333 
#    0.000    0.000    0.000    6.000    0.000    0.000 
#    0.000    0.000    0.000    0.000    0.000    0.000 
#
# Total GULP energy -133873.051379 kJ/mol
# GULP energy per Si atom -5578.043807 kJ/mol
# Density = 1.953855 g / cm^3
# Si number density = 19.583123 Si / 1000 Ang^3
#
#
#
# Elastic Constant Matrix: (Units=GPa)
#
#
# Indices 1 2 3 4 5 6 
#
# 1 65.4700 19.0814 18.2795 0.0000 0.0000 0.0000
# 2 19.0814 111.7742 23.9449 0.0000 0.0000 0.0000
# 3 18.2795 23.9449 89.2330 0.0000 0.0000 0.0000
# 4 0.0000 0.0000 0.0000 23.3790 0.0000 0.0000
# 5 0.0000 0.0000 0.0000 0.0000 36.1574 0.0000
# 6 0.0000 0.0000 0.0000 0.0000 0.0000 9.2834
#
#
#
# Elastic Compliance Matrix: (Units=1/GPa)
#
#
# Indices 1 2 3 4 5 6 
#
# 1 0.016717 -0.002250 -0.002821 0.000000 0.000000 0.000000
# 2 -0.002250 0.009795 -0.002168 0.000000 0.000000 0.000000
# 3 -0.002821 -0.002168 0.012366 0.000000 0.000000 0.000000
# 4 0.000000 0.000000 0.000000 0.042773 0.000000 0.000000
# 5 0.000000 0.000000 0.000000 0.000000 0.027657 0.000000
# 6 0.000000 0.000000 0.000000 0.000000 0.000000 0.107719
#
#
# Mechanical properties :
#
#
# Convention : Reuss Voigt Hill
#
# Bulk Modulus (GPa) = 40.97957 43.23207 42.10582
# Shear Modulus (GPa) = 20.86483 27.44208 24.15345
#
# Velocity S-wave (km/s) = 3.26766 3.74747 3.51576
# Velocity P-wave (km/s) = 5.93365 6.39131 6.16673
#
# Compressibility (1/GPa) = 0.02440240
#
# Stress axis : x y z
#
# Youngs Moduli (GPa) = 59.81779 102.09300 80.86597
#
# Poissons Ratio (x) = 0.22967 0.22812
# Poissons Ratio (y) = 0.13456 0.17528
# Poissons Ratio (z) = 0.16874 0.22129
#
# Static dielectric constant tensor:
#      x y z
#    x 1.737680 0.000000 0.000000 
#    y 0.000000 1.692460 0.000000 
#    z 0.000000 0.000000 1.722960 
# 
# From -- ./inp_files/2446.got.cif
#   From: 2010.05.17/outbox.cif.g08.bks.cpg/sg37_2_cif.got.tgz:2446.got - 2010.06.03 17:53:42.
