data_PCOD9354229
_publ_section_title
;
Structure prediction by ZEFSAII (Michael W. Deem and Ramdas Pophale) SiO2 
 PCOD9354229
Probable space group: C C C 2
;
_chemical_formula_sum "Si O2"
_cell_formula_units_Z 64
_cell_length_a 14.879263
_cell_length_b 9.096075
_cell_length_c 21.047470
_cell_angle_alpha 90.000000
_cell_angle_beta 90.000000
_cell_angle_gamma 90.000000
_cell_volume 2848.625463
_symmetry_space_group_name_H-M "C C C 2"
_symmetry_group_IT_number 37
_symmetry_cell_setting 'orthorhombic'
loop_
_space_group_symop_operation_xyz
x,y,z
-x,-y,z
-x,y,1/2+z
x,-y,1/2+z
1/2+x,1/2+y,z
1/2-x,1/2-y,z
1/2-x,1/2+y,1/2+z
1/2+x,1/2-y,1/2+z
loop_
_atom_site_type_symbol
_atom_site_label
_atom_site_fract_x
_atom_site_fract_y
_atom_site_fract_z
Si Si1 0.113358 0.715284 0.522460
Si Si2 0.578559 0.264336 0.061323
Si Si3 0.658496 0.342054 0.928704
Si Si4 0.343186 0.678903 0.381678
Si Si5 0.109055 0.965312 0.628043
Si Si6 0.518469 0.170803 0.843531
Si Si7 0.144474 0.277583 0.224486
Si Si8 0.311421 0.994844 0.115191
O O1 0.136627 0.750542 0.450782
O O2 0.122734 0.855482 0.568386
O O3 0.176069 0.589368 0.550629
O O4 0.007837 0.683237 0.531919
O O5 0.549988 0.392516 0.110094
O O6 0.635167 0.150516 0.100880
O O7 0.632495 0.340641 0.003449
O O8 0.750000 0.250000 0.920788
O O9 0.662854 0.503769 0.896295
O O10 0.578276 0.252344 0.896076
O O11 0.250000 0.750000 0.358458
O O12 0.426370 0.734933 0.339008
O O13 0.104352 0.868431 0.691512
O O14 0.209661 0.034815 0.632813
O O15 0.580584 0.175748 0.781226
O O16 0.500000 0.000000 0.859400
O O17 0.250000 0.250000 0.242432
O O18 0.147342 0.402433 0.170116
#
# Coordination Sequence:
#
# PCOD9354229 Si02
#       8
#     8   8   8   8   8   8   8   8
#     4  11  22  37  60  95 146 183 227 279 359 428
#     4  12  23  36  65 109 150 181 229 291 356 440
#     4  12  26  45  70 106 153 193 239 300 372 445
#     4  12  26  46  71 103 149 195 247 310 372 441
#     4  10  20  40  68 101 138 185 228 282 355 431
#     4  12  27  47  75 103 141 192 261 307 370 439
#     4   9  22  47  74 100 144 195 240 298 363 435
#     4  10  22  40  65 103 138 184 233 285 356 433
#
# _framework density 22.466975000000001
#
# number of rings (size 3 to 8) (size 9 to 14) (size 15 to 20)
#    0.000    1.000    2.500    5.250    3.500    2.000 
#    0.000    7.500    0.000    3.000    0.000    0.000 
#    0.000    0.000    0.000    0.000    0.000    0.000 
#
# Total GULP energy -178941.918543 kJ/mol
# GULP energy per Si atom -5591.934954 kJ/mol
# Density = 2.241584 g / cm^3
# Si number density = 22.466975 Si / 1000 Ang^3
#
#
#
# Elastic Constant Matrix: (Units=GPa)
#
#
# Indices 1 2 3 4 5 6 
#
# 1 33.1657 19.0743 3.4402 0.0000 0.0000 0.0000
# 2 19.0743 128.1016 16.3928 0.0000 0.0000 0.0000
# 3 3.4402 16.3928 54.3949 0.0000 0.0000 0.0000
# 4 0.0000 0.0000 0.0000 17.2066 0.0000 0.0000
# 5 0.0000 0.0000 0.0000 0.0000 22.1293 0.0000
# 6 0.0000 0.0000 0.0000 0.0000 0.0000 41.2593
#
#
#
# Elastic Compliance Matrix: (Units=1/GPa)
#
#
# Indices 1 2 3 4 5 6 
#
# 1 0.032996 -0.004832 -0.000630 0.000000 0.000000 0.000000
# 2 -0.004832 0.008827 -0.002355 0.000000 0.000000 0.000000
# 3 -0.000630 -0.002355 0.019134 0.000000 0.000000 0.000000
# 4 0.000000 0.000000 0.000000 0.058117 0.000000 0.000000
# 5 0.000000 0.000000 0.000000 0.000000 0.045189 0.000000
# 6 0.000000 0.000000 0.000000 0.000000 0.000000 0.024237
#
#
# Mechanical properties :
#
#
# Convention : Reuss Voigt Hill
#
# Bulk Modulus (GPa) = 22.06438 32.60852 27.33645
# Shear Modulus (GPa) = 22.80581 27.90271 25.35426
#
# Velocity S-wave (km/s) = 3.18949 3.52794 3.36298
# Velocity P-wave (km/s) = 4.83797 5.58038 5.22239
#
# Compressibility (1/GPa) = 0.04532192
#
# Stress axis : x y z
#
# Youngs Moduli (GPa) = 30.30648 113.28671 52.26419
#
# Poissons Ratio (x) = 0.54745 0.03295
# Poissons Ratio (y) = 0.14645 0.12306
# Poissons Ratio (z) = 0.01911 0.26674
#
# Static dielectric constant tensor:
#      x y z
#    x 2.215920 0.000000 0.000000 
#    y 0.000000 1.823670 0.000000 
#    z 0.000000 0.000000 1.808300 
# 
# From -- ./inp_files/18930.got.cif
#   From: 2010.05.17/outbox.cif.g08.bks.cpg/sg37_10_cif.got.tgz:18930.got - 2010.06.03 17:53:42.
