data_PCOD9354371
_publ_section_title
;
Structure prediction by ZEFSAII (Michael W. Deem and Ramdas Pophale) SiO2 
 PCOD9354371
Probable space group: C C C 2
;
_chemical_formula_sum "Si O2"
_cell_formula_units_Z 44
_cell_length_a 12.367404
_cell_length_b 18.984778
_cell_length_c 8.910425
_cell_angle_alpha 90.000000
_cell_angle_beta 90.000000
_cell_angle_gamma 90.000000
_cell_volume 2092.100243
_symmetry_space_group_name_H-M "C C C 2"
_symmetry_group_IT_number 37
_symmetry_cell_setting 'orthorhombic'
loop_
_space_group_symop_operation_xyz
x,y,z
-x,-y,z
-x,y,1/2+z
x,-y,1/2+z
1/2+x,1/2+y,z
1/2-x,1/2-y,z
1/2-x,1/2+y,1/2+z
1/2+x,1/2-y,1/2+z
loop_
_atom_site_type_symbol
_atom_site_label
_atom_site_fract_x
_atom_site_fract_y
_atom_site_fract_z
Si Si1 0.399355 0.447857 0.812110
Si Si2 0.616321 0.919124 0.295403
Si Si3 0.685149 0.441296 0.017269
Si Si4 0.980800 0.821122 0.437900
Si Si5 0.375248 0.762657 0.674634
Si Si6 0.000000 0.500000 0.545055
O O1 0.500000 0.500000 0.763993
O O2 0.301030 0.447915 0.694690
O O3 0.436754 0.369023 0.843044
O O4 0.359703 0.483594 0.964377
O O5 0.726575 0.922075 0.392424
O O6 0.605498 0.843853 0.216185
O O7 0.532401 0.937959 0.429736
O O8 0.593274 0.973681 0.158821
O O9 0.592558 0.381679 0.011819
O O10 0.903827 0.778652 0.326886
O O11 0.045356 0.769950 0.549080
O O12 0.250000 0.750000 0.633115
#
# Coordination Sequence:
#
# PCOD9354371 Si02
#       6
#     8   8   8   8   8   4
#     4  10  21  36  64 101 138 168 211 281 349 404
#     4  11  23  43  68  97 134 180 236 286 353 410
#     4  11  21  37  65 100 134 176 224 281 343 411
#     4  11  23  42  64  96 140 178 226 282 340 418
#     4  12  25  44  69  98 139 186 228 286 352 419
#     4  10  24  44  68  96 136 182 234 304 336 414
#
# _framework density 21.031497999999999
#
# number of rings (size 3 to 8) (size 9 to 14) (size 15 to 20)
#    0.000    1.091    3.636    3.818    2.545    1.455 
#    0.000    4.545    0.000    0.000    0.000    0.000 
#    0.000    0.000    0.000    0.000    0.000    0.000 
#
# Total GULP energy -122640.641705 kJ/mol
# GULP energy per Si atom -5574.574623 kJ/mol
# Density = 2.098363 g / cm^3
# Si number density = 21.031498 Si / 1000 Ang^3
#
#
#
# Elastic Constant Matrix: (Units=GPa)
#
#
# Indices 1 2 3 4 5 6 
#
# 1 70.3551 13.4152 17.8659 0.0000 0.0000 0.0000
# 2 13.4152 83.8368 12.9127 0.0000 0.0000 0.0000
# 3 17.8659 12.9127 88.6264 0.0000 0.0000 0.0000
# 4 0.0000 0.0000 0.0000 20.9970 0.0000 0.0000
# 5 0.0000 0.0000 0.0000 0.0000 19.8735 0.0000
# 6 0.0000 0.0000 0.0000 0.0000 0.0000 24.1969
#
#
#
# Elastic Compliance Matrix: (Units=1/GPa)
#
#
# Indices 1 2 3 4 5 6 
#
# 1 0.015308 -0.002019 -0.002792 0.000000 0.000000 0.000000
# 2 -0.002019 0.012468 -0.001409 0.000000 0.000000 0.000000
# 3 -0.002792 -0.001409 0.012051 0.000000 0.000000 0.000000
# 4 0.000000 0.000000 0.000000 0.047626 0.000000 0.000000
# 5 0.000000 0.000000 0.000000 0.000000 0.050318 0.000000
# 6 0.000000 0.000000 0.000000 0.000000 0.000000 0.041328
#
#
# Mechanical properties :
#
#
# Convention : Reuss Voigt Hill
#
# Bulk Modulus (GPa) = 36.51489 36.80064 36.65776
# Shear Modulus (GPa) = 24.91669 26.25511 25.58590
#
# Velocity S-wave (km/s) = 3.44573 3.53706 3.49169
# Velocity P-wave (km/s) = 5.76458 5.84952 5.80721
#
# Compressibility (1/GPa) = 0.02738609
#
# Stress axis : x y z
#
# Youngs Moduli (GPa) = 65.32720 80.20416 82.97777
#
# Poissons Ratio (x) = 0.16197 0.23164
# Poissons Ratio (y) = 0.13193 0.11696
# Poissons Ratio (z) = 0.18237 0.11305
#
# Static dielectric constant tensor:
#      x y z
#    x 1.826340 0.000000 0.000000 
#    y 0.000000 1.729400 0.000000 
#    z 0.000000 0.000000 1.752020 
# 
# From -- ./inp_files/3437.got.cif
#   From: 2010.05.17/outbox.cif.g08.bks.cpg/sg37_2_cif.got.tgz:3437.got - 2010.06.03 17:53:42.
