data_PCOD9354843
_publ_section_title
;
Structure prediction by ZEFSAII (Michael W. Deem and Ramdas Pophale) SiO2 
 PCOD9354843
Probable space group: C C C 2
;
_chemical_formula_sum "Si O2"
_cell_formula_units_Z 56
_cell_length_a 19.714314
_cell_length_b 15.473188
_cell_length_c 8.418123
_cell_angle_alpha 90.000000
_cell_angle_beta 90.000000
_cell_angle_gamma 90.000000
_cell_volume 2567.891909
_symmetry_space_group_name_H-M "C C C 2"
_symmetry_group_IT_number 37
_symmetry_cell_setting 'orthorhombic'
loop_
_space_group_symop_operation_xyz
x,y,z
-x,-y,z
-x,y,1/2+z
x,-y,1/2+z
1/2+x,1/2+y,z
1/2-x,1/2-y,z
1/2-x,1/2+y,1/2+z
1/2+x,1/2-y,1/2+z
loop_
_atom_site_type_symbol
_atom_site_label
_atom_site_fract_x
_atom_site_fract_y
_atom_site_fract_z
Si Si1 0.522187 0.245122 0.297150
Si Si2 0.435823 0.932477 0.120411
Si Si3 0.441636 0.429597 0.736320
Si Si4 0.286640 0.383534 0.212997
Si Si5 0.153097 0.004206 0.970505
Si Si6 0.637141 0.923062 0.282232
Si Si7 0.895276 0.740469 0.126064
O O1 0.543296 0.156534 0.208159
O O2 0.538198 0.332619 0.201180
O O3 0.440691 0.252153 0.285632
O O4 0.559770 0.251987 0.466790
O O5 0.500000 0.000000 0.116328
O O6 0.376755 0.980287 0.220941
O O7 0.406796 0.915647 0.943596
O O8 0.500000 0.500000 0.775498
O O9 0.387907 0.423083 0.877927
O O10 0.400476 0.468075 0.592706
O O11 0.331690 0.429763 0.346284
O O12 0.213720 0.387294 0.297953
O O13 0.327399 0.298840 0.149980
O O14 0.285701 0.450915 0.064594
O O15 0.616623 0.861859 0.134770
#
# Coordination Sequence:
#
# PCOD9354843 Si02
#       7
#     8   8   8   8   8   8   8
#     4  12  26  44  74 108 147 186 245 309 380 432
#     4  12  26  48  77 114 143 189 250 324 378 453
#     4  11  23  39  66 103 144 182 236 289 361 431
#     4  11  24  46  71 101 148 195 244 291 369 449
#     4  10  22  41  65  98 139 186 232 289 347 429
#     4  12  26  47  75 102 144 193 244 303 382 437
#     4  12  26  44  69 107 145 193 242 311 363 451
#
# _framework density 21.807772
#
# number of rings (size 3 to 8) (size 9 to 14) (size 15 to 20)
#    0.000    0.571    2.857    5.571    6.000    0.000 
#    0.000    0.000    0.000    0.000    0.000    0.000 
#    0.000    0.000    0.000    0.000    0.000    0.000 
#
# Total GULP energy -155957.412905 kJ/mol
# GULP energy per Si atom -5569.907604 kJ/mol
# Density = 2.175814 g / cm^3
# Si number density = 21.807772 Si / 1000 Ang^3
#
#
#
# Elastic Constant Matrix: (Units=GPa)
#
#
# Indices 1 2 3 4 5 6 
#
# 1 89.7615 32.9765 25.7337 0.0000 0.0000 0.0000
# 2 32.9765 158.9481 35.3785 0.0000 0.0000 0.0000
# 3 25.7337 35.3785 97.6365 0.0000 0.0000 0.0000
# 4 0.0000 0.0000 0.0000 26.6003 0.0000 0.0000
# 5 0.0000 0.0000 0.0000 0.0000 21.4633 0.0000
# 6 0.0000 0.0000 0.0000 0.0000 0.0000 25.7477
#
#
#
# Elastic Compliance Matrix: (Units=1/GPa)
#
#
# Indices 1 2 3 4 5 6 
#
# 1 0.012634 -0.002045 -0.002589 0.000000 0.000000 0.000000
# 2 -0.002045 0.007174 -0.002061 0.000000 0.000000 0.000000
# 3 -0.002589 -0.002061 0.011671 0.000000 0.000000 0.000000
# 4 0.000000 0.000000 0.000000 0.037594 0.000000 0.000000
# 5 0.000000 0.000000 0.000000 0.000000 0.046591 0.000000
# 6 0.000000 0.000000 0.000000 0.000000 0.000000 0.038838
#
#
# Mechanical properties :
#
#
# Convention : Reuss Voigt Hill
#
# Bulk Modulus (GPa) = 55.27764 59.39151 57.33457
# Shear Modulus (GPa) = 28.74854 31.57941 30.16397
#
# Velocity S-wave (km/s) = 3.63474 3.80949 3.72314
# Velocity P-wave (km/s) = 6.55880 6.82956 6.69555
#
# Compressibility (1/GPa) = 0.01809050
#
# Stress axis : x y z
#
# Youngs Moduli (GPa) = 79.15069 139.38716 85.68179
#
# Poissons Ratio (x) = 0.28504 0.22183
# Poissons Ratio (y) = 0.16186 0.17656
# Poissons Ratio (z) = 0.20492 0.28722
#
# Static dielectric constant tensor:
#      x y z
#    x 1.925830 0.000000 0.000000 
#    y 0.000000 1.966360 0.000000 
#    z 0.000000 0.000000 1.786390 
# 
# From -- ./inp_files/3646.got.cif
#   From: 2010.05.17/outbox.cif.g08.bks.cpg/sg37_2_cif.got.tgz:3646.got - 2010.06.03 17:53:42.
