data_PCOD9354928
_publ_section_title
;
Structure prediction by ZEFSAII (Michael W. Deem and Ramdas Pophale) SiO2 
 PCOD9354928
Probable space group: C C C 2
;
_chemical_formula_sum "Si O2"
_cell_formula_units_Z 56
_cell_length_a 14.677871
_cell_length_b 14.136000
_cell_length_c 13.560988
_cell_angle_alpha 90.000000
_cell_angle_beta 90.000000
_cell_angle_gamma 90.000000
_cell_volume 2813.720370
_symmetry_space_group_name_H-M "C C C 2"
_symmetry_group_IT_number 37
_symmetry_cell_setting 'orthorhombic'
loop_
_space_group_symop_operation_xyz
x,y,z
-x,-y,z
-x,y,1/2+z
x,-y,1/2+z
1/2+x,1/2+y,z
1/2-x,1/2-y,z
1/2-x,1/2+y,1/2+z
1/2+x,1/2-y,1/2+z
loop_
_atom_site_type_symbol
_atom_site_label
_atom_site_fract_x
_atom_site_fract_y
_atom_site_fract_z
Si Si1 0.788624 0.464575 0.569020
Si Si2 0.283623 0.943659 0.345956
Si Si3 0.322110 0.831763 0.146034
Si Si4 0.923806 0.078078 0.356843
Si Si5 0.082550 0.424318 0.245347
Si Si6 0.006223 0.763264 0.215991
Si Si7 0.421168 0.578416 0.588261
O O1 0.798591 0.420060 0.460550
O O2 0.810131 0.576741 0.577250
O O3 0.859512 0.418326 0.644583
O O4 0.682787 0.455869 0.601439
O O5 0.307734 0.869189 0.259348
O O6 0.176277 0.963056 0.336822
O O7 0.347079 0.032758 0.323014
O O8 0.250000 0.750000 0.124538
O O9 0.421991 0.787029 0.143308
O O10 0.939303 0.169733 0.290662
O O11 0.930435 0.102044 0.472402
O O12 0.000000 0.000000 0.335284
O O13 0.000000 0.500000 0.234616
O O14 0.044225 0.322034 0.270365
O O15 0.940232 0.831476 0.155515
O O16 0.500000 0.500000 0.608625
#
# Coordination Sequence:
#
# PCOD9354928 Si02
#       7
#     8   8   8   8   8   8   8
#     4  10  23  43  65  92 130 171 211 266 323 379
#     4  10  22  43  67  87 129 173 211 255 326 382
#     4  11  21  39  67  95 123 169 223 254 316 387
#     4  10  23  42  66  97 126 166 214 262 324 384
#     4  11  24  43  59  97 131 170 215 258 319 376
#     4  12  23  38  65  95 130 166 210 269 312 378
#     4  10  23  42  66  97 129 164 211 265 327 379
#
# _framework density 19.902474000000002
#
# number of rings (size 3 to 8) (size 9 to 14) (size 15 to 20)
#    0.000    1.429    4.286    1.286    6.000    3.429 
#    0.000    0.000    0.000    0.000    0.000    0.000 
#    0.000    0.000    0.000    0.000    0.000    0.000 
#
# Total GULP energy -156352.737743 kJ/mol
# GULP energy per Si atom -5584.026348 kJ/mol
# Density = 1.985718 g / cm^3
# Si number density = 19.902474 Si / 1000 Ang^3
#
#
#
# Elastic Constant Matrix: (Units=GPa)
#
#
# Indices 1 2 3 4 5 6 
#
# 1 117.6729 32.8019 16.4925 0.0000 0.0000 0.0000
# 2 32.8019 74.6900 -7.7317 0.0000 0.0000 0.0000
# 3 16.4925 -7.7317 63.9796 0.0000 0.0000 0.0000
# 4 0.0000 0.0000 0.0000 11.6768 0.0000 0.0000
# 5 0.0000 0.0000 0.0000 0.0000 24.8303 0.0000
# 6 0.0000 0.0000 0.0000 0.0000 0.0000 39.6745
#
#
#
# Elastic Compliance Matrix: (Units=1/GPa)
#
#
# Indices 1 2 3 4 5 6 
#
# 1 0.010309 -0.004863 -0.003245 0.000000 0.000000 0.000000
# 2 -0.004863 0.015853 0.003169 0.000000 0.000000 0.000000
# 3 -0.003245 0.003169 0.016849 0.000000 0.000000 0.000000
# 4 0.000000 0.000000 0.000000 0.085640 0.000000 0.000000
# 5 0.000000 0.000000 0.000000 0.000000 0.040273 0.000000
# 6 0.000000 0.000000 0.000000 0.000000 0.000000 0.025205
#
#
# Mechanical properties :
#
#
# Convention : Reuss Voigt Hill
#
# Bulk Modulus (GPa) = 30.18153 37.71868 33.95010
# Shear Modulus (GPa) = 23.25033 29.55497 26.40265
#
# Velocity S-wave (km/s) = 3.42162 3.85774 3.64621
# Velocity P-wave (km/s) = 5.55046 6.23183 5.90099
#
# Compressibility (1/GPa) = 0.03313285
#
# Stress axis : x y z
#
# Youngs Moduli (GPa) = 97.00669 63.08146 59.34909
#
# Poissons Ratio (x) = 0.30678 0.19259
# Poissons Ratio (y) = 0.47176 -0.18810
# Poissons Ratio (z) = 0.31479 -0.19993
#
# Static dielectric constant tensor:
#      x y z
#    x 1.702420 0.000000 0.000000 
#    y 0.000000 1.683780 0.000000 
#    z 0.000000 0.000000 1.700750 
# 
# From -- ./inp_files/12224.got.cif
#   From: 2010.05.17/outbox.cif.g08.bks.cpg/sg37_7_cif.got.tgz:12224.got - 2010.06.03 17:53:42.
