data_PCOD9354535
_publ_section_title
;
Structure prediction by ZEFSAII (Michael W. Deem and Ramdas Pophale) SiO2 
 PCOD9354535
Probable space group: C C C 2
;
_chemical_formula_sum "Si O2"
_cell_formula_units_Z 64
_cell_length_a 7.574853
_cell_length_b 24.067195
_cell_length_c 13.944814
_cell_angle_alpha 90.000000
_cell_angle_beta 90.000000
_cell_angle_gamma 90.000000
_cell_volume 2542.215790
_symmetry_space_group_name_H-M "C C C 2"
_symmetry_group_IT_number 37
_symmetry_cell_setting 'orthorhombic'
loop_
_space_group_symop_operation_xyz
x,y,z
-x,-y,z
-x,y,1/2+z
x,-y,1/2+z
1/2+x,1/2+y,z
1/2-x,1/2-y,z
1/2-x,1/2+y,1/2+z
1/2+x,1/2-y,1/2+z
loop_
_atom_site_type_symbol
_atom_site_label
_atom_site_fract_x
_atom_site_fract_y
_atom_site_fract_z
Si Si1 0.259383 0.120591 0.314710
Si Si2 0.788256 0.837706 0.692861
Si Si3 0.306486 0.975815 0.504311
Si Si4 0.293640 0.993059 0.307528
Si Si5 0.904632 0.327169 0.395395
Si Si6 0.440439 0.723521 0.793268
Si Si7 0.377222 0.550509 0.137545
Si Si8 0.904713 0.362548 0.604037
O O1 0.217195 0.055507 0.310078
O O2 0.425335 0.131646 0.384865
O O3 0.104060 0.163395 0.338745
O O4 0.321702 0.141448 0.209500
O O5 0.718311 0.842096 0.803560
O O6 0.919680 0.886042 0.652231
O O7 0.612345 0.846106 0.626326
O O8 0.921593 0.785215 0.705576
O O9 0.335801 0.924846 0.575373
O O10 0.500000 0.000000 0.497870
O O11 0.232990 0.959373 0.400861
O O12 0.187309 0.027643 0.537269
O O13 0.500000 0.000000 0.315547
O O14 0.279368 0.957842 0.212046
O O15 0.848282 0.330604 0.506420
O O16 0.972749 0.265687 0.368386
O O17 0.250000 0.750000 0.767701
O O18 0.500000 0.500000 0.171134
#
# Coordination Sequence:
#
# PCOD9354535 Si02
#       8
#     8   8   8   8   8   8   8   8
#     4  10  21  40  67  97 136 184 230 290 363 423
#     4  11  23  42  71 101 142 188 237 295 371 440
#     4  11  21  38  64 101 144 181 236 277 346 441
#     4  11  21  38  68  95 139 189 225 280 352 429
#     4  10  22  43  69 102 132 175 241 311 353 425
#     4  10  23  47  69  93 139 184 242 309 361 419
#     4  12  24  38  62 103 147 184 230 282 355 438
#     4  11  21  41  73 105 135 182 240 294 363 435
#
# _framework density 25.174890000000001
#
# number of rings (size 3 to 8) (size 9 to 14) (size 15 to 20)
#    0.000    1.250    2.500    5.250    0.000    0.500 
#    0.000   21.250    0.000    0.000    0.000    0.000 
#    0.000    0.000    0.000    0.000    0.000    0.000 
#
# Total GULP energy -178360.772961 kJ/mol
# GULP energy per Si atom -5573.774155 kJ/mol
# Density = 2.511759 g / cm^3
# Si number density = 25.174890 Si / 1000 Ang^3
#
#
#
# Elastic Constant Matrix: (Units=GPa)
#
#
# Indices 1 2 3 4 5 6 
#
# 1 66.1325 10.3987 4.4226 0.0000 0.0000 0.0000
# 2 10.3987 86.2573 18.9042 0.0000 0.0000 0.0000
# 3 4.4226 18.9042 114.5380 0.0000 0.0000 0.0000
# 4 0.0000 0.0000 0.0000 42.7731 0.0000 0.0000
# 5 0.0000 0.0000 0.0000 0.0000 4.7808 0.0000
# 6 0.0000 0.0000 0.0000 0.0000 0.0000 30.3039
#
#
#
# Elastic Compliance Matrix: (Units=1/GPa)
#
#
# Indices 1 2 3 4 5 6 
#
# 1 0.015423 -0.001794 -0.000299 0.000000 0.000000 0.000000
# 2 -0.001794 0.012237 -0.001950 0.000000 0.000000 0.000000
# 3 -0.000299 -0.001950 0.009064 0.000000 0.000000 0.000000
# 4 0.000000 0.000000 0.000000 0.023379 0.000000 0.000000
# 5 0.000000 0.000000 0.000000 0.000000 0.209170 0.000000
# 6 0.000000 0.000000 0.000000 0.000000 0.000000 0.032999
#
#
# Mechanical properties :
#
#
# Convention : Reuss Voigt Hill
#
# Bulk Modulus (GPa) = 34.91966 37.15319 36.03642
# Shear Modulus (GPa) = 15.62961 31.11840 23.37400
#
# Velocity S-wave (km/s) = 2.49437 3.51962 3.05038
# Velocity P-wave (km/s) = 4.71135 5.59527 5.17223
#
# Compressibility (1/GPa) = 0.02863716
#
# Stress axis : x y z
#
# Youngs Moduli (GPa) = 64.83724 81.71997 110.32413
#
# Poissons Ratio (x) = 0.14658 0.03304
# Poissons Ratio (y) = 0.11630 0.21518
# Poissons Ratio (z) = 0.01942 0.15939
#
# Static dielectric constant tensor:
#      x y z
#    x 2.123020 0.000000 0.000000 
#    y 0.000000 2.080830 0.000000 
#    z 0.000000 0.000000 2.055950 
# 
# From -- ./inp_files/10986.got.cif
#   From: 2010.05.17/outbox.cif.g08.bks.cpg/sg37_6_cif.got.tgz:10986.got - 2010.06.03 17:53:42.
