data_PCOD9354608
_publ_section_title
;
Structure prediction by ZEFSAII (Michael W. Deem and Ramdas Pophale) SiO2 
 PCOD9354608
Probable space group: C C C 2
;
_chemical_formula_sum "Si O2"
_cell_formula_units_Z 64
_cell_length_a 24.455880
_cell_length_b 8.607236
_cell_length_c 11.875955
_cell_angle_alpha 90.000000
_cell_angle_beta 90.000000
_cell_angle_gamma 90.000000
_cell_volume 2499.859203
_symmetry_space_group_name_H-M "C C C 2"
_symmetry_group_IT_number 37
_symmetry_cell_setting 'orthorhombic'
loop_
_space_group_symop_operation_xyz
x,y,z
-x,-y,z
-x,y,1/2+z
x,-y,1/2+z
1/2+x,1/2+y,z
1/2-x,1/2-y,z
1/2-x,1/2+y,1/2+z
1/2+x,1/2-y,1/2+z
loop_
_atom_site_type_symbol
_atom_site_label
_atom_site_fract_x
_atom_site_fract_y
_atom_site_fract_z
Si Si1 0.200140 0.913570 0.004690
Si Si2 0.384110 0.800063 0.930136
Si Si3 0.209573 0.391576 0.107732
Si Si4 0.612592 0.663670 0.045562
Si Si5 0.543515 0.377049 0.747231
Si Si6 0.593028 0.139956 0.356576
Si Si7 0.534907 0.859650 0.628505
Si Si8 0.195385 0.289586 0.732729
O O1 0.198352 0.825923 0.125798
O O2 0.256247 0.012576 0.011149
O O3 0.151981 0.037112 0.991504
O O4 0.176431 0.776150 0.925923
O O5 0.424435 0.713261 0.843917
O O6 0.382898 0.981165 0.903538
O O7 0.415607 0.800451 0.050939
O O8 0.250000 0.250000 0.143509
O O9 0.152746 0.305253 0.081730
O O10 0.196716 0.530629 0.194251
O O11 0.588294 0.576561 0.154221
O O12 0.572265 0.745682 0.955056
O O13 0.500000 0.500000 0.793368
O O14 0.506476 0.271800 0.665891
O O15 0.556488 0.089141 0.251476
O O16 0.641612 0.237953 0.301878
O O17 0.500000 0.000000 0.574399
O O18 0.250000 0.250000 0.800797
#
# Coordination Sequence:
#
# PCOD9354608 Si02
#       8
#     8   8   8   8   8   8   8   8
#     4  10  22  43  72 106 150 191 242 310 383 456
#     4  12  26  45  75 106 148 196 253 320 379 460
#     4   9  20  42  72 108 147 194 250 306 380 467
#     4  11  25  45  73 106 150 192 244 315 380 458
#     4  12  29  46  73 110 150 194 253 317 390 454
#     4  12  26  45  74 103 146 199 248 317 382 461
#     4  12  27  48  70 102 140 195 260 307 375 456
#     4  10  21  42  71 105 145 195 243 312 383 461
#
# _framework density 25.601444000000001
#
# number of rings (size 3 to 8) (size 9 to 14) (size 15 to 20)
#    0.000    1.000    2.500    3.000    5.250    2.000 
#    0.000    5.000    0.000    3.750    0.000    0.000 
#    0.000    0.000    0.000    0.000    0.000    0.000 
#
# Total GULP energy -178812.840601 kJ/mol
# GULP energy per Si atom -5587.901269 kJ/mol
# Density = 2.554317 g / cm^3
# Si number density = 25.601444 Si / 1000 Ang^3
#
#
#
# Elastic Constant Matrix: (Units=GPa)
#
#
# Indices 1 2 3 4 5 6 
#
# 1 65.7089 2.9007 15.7363 0.0000 0.0000 0.0000
# 2 2.9007 101.8527 25.4594 0.0000 0.0000 0.0000
# 3 15.7363 25.4594 84.4747 0.0000 0.0000 0.0000
# 4 0.0000 0.0000 0.0000 4.8207 0.0000 0.0000
# 5 0.0000 0.0000 0.0000 0.0000 0.2755 0.0000
# 6 0.0000 0.0000 0.0000 0.0000 0.0000 41.6362
#
#
#
# Elastic Compliance Matrix: (Units=1/GPa)
#
#
# Indices 1 2 3 4 5 6 
#
# 1 0.015938 0.000312 -0.003063 0.000000 0.000000 0.000000
# 2 0.000312 0.010624 -0.003260 0.000000 0.000000 0.000000
# 3 -0.003063 -0.003260 0.013391 0.000000 0.000000 0.000000
# 4 0.000000 0.000000 0.000000 0.207438 0.000000 0.000000
# 5 0.000000 0.000000 0.000000 0.000000 3.629422 0.000000
# 6 0.000000 0.000000 0.000000 0.000000 0.000000 0.024018
#
#
# Mechanical properties :
#
#
# Convention : Reuss Voigt Hill
#
# Bulk Modulus (GPa) = 35.80268 37.80325 36.80297
# Shear Modulus (GPa) = 1.27481 23.20915 12.24198
#
# Velocity S-wave (km/s) = 0.70642 3.01417 2.18909
# Velocity P-wave (km/s) = 3.83150 5.18766 4.56027
#
# Compressibility (1/GPa) = 0.02793087
#
# Stress axis : x y z
#
# Youngs Moduli (GPa) = 62.74146 94.12557 74.67716
#
# Poissons Ratio (x) = -0.02934 0.22874
# Poissons Ratio (y) = -0.01956 0.24345
# Poissons Ratio (z) = 0.19218 0.30685
#
# Static dielectric constant tensor:
#      x y z
#    x 2.196940 0.000000 0.000000 
#    y 0.000000 2.007730 0.000000 
#    z 0.000000 0.000000 2.077380 
# 
# From -- ./inp_files/9224.got.cif
#   From: 2010.05.17/outbox.cif.g08.bks.cpg/sg37_5_cif.got.tgz:9224.got - 2010.06.03 17:53:42.
