data_PCOD9354282
_publ_section_title
;
Structure prediction by ZEFSAII (Michael W. Deem and Ramdas Pophale) SiO2 
 PCOD9354282
Probable space group: C C C 2
;
_chemical_formula_sum "Si O2"
_cell_formula_units_Z 40
_cell_length_a 12.404544
_cell_length_b 7.907909
_cell_length_c 14.078567
_cell_angle_alpha 90.000000
_cell_angle_beta 90.000000
_cell_angle_gamma 90.000000
_cell_volume 1381.023024
_symmetry_space_group_name_H-M "C C C 2"
_symmetry_group_IT_number 37
_symmetry_cell_setting 'orthorhombic'
loop_
_space_group_symop_operation_xyz
x,y,z
-x,-y,z
-x,y,1/2+z
x,-y,1/2+z
1/2+x,1/2+y,z
1/2-x,1/2-y,z
1/2-x,1/2+y,1/2+z
1/2+x,1/2-y,1/2+z
loop_
_atom_site_type_symbol
_atom_site_label
_atom_site_fract_x
_atom_site_fract_y
_atom_site_fract_z
Si Si1 0.620891 0.546345 0.820130
Si Si2 0.905256 0.253501 0.056775
Si Si3 0.500000 0.000000 0.198423
Si Si4 0.750000 0.250000 0.186904
Si Si5 0.367049 0.252671 0.001727
Si Si6 0.849936 0.419922 0.864538
O O1 0.500000 0.500000 0.790595
O O2 0.656399 0.715673 0.764533
O O3 0.619665 0.592933 0.930052
O O4 0.731199 0.435840 0.816829
O O5 0.814882 0.140118 0.105626
O O6 0.908156 0.420264 0.127380
O O7 0.876173 0.285420 0.947761
O O8 0.030934 0.220262 0.067509
O O9 0.429936 0.104617 0.275877
O O10 0.250000 0.250000 0.046500
O O11 0.373230 0.087594 0.931443
#
# Coordination Sequence:
#
# PCOD9354282 Si02
#       6
#     8   8   4   4   8   8
#     4  11  24  46  70  94 138 188 227 295 367 417
#     4  12  24  40  67 100 130 180 227 284 351 425
#     4  12  18  38  72  88 124 168 228 270 340 422
#     4  12  26  46  66  98 148 176 238 304 352 418
#     4  10  20  42  67  93 135 172 220 285 350 417
#     4  11  21  42  69  96 129 177 231 282 356 422
#
# _framework density 28.964037999999999
#
# number of rings (size 3 to 8) (size 9 to 14) (size 15 to 20)
#    0.000    0.800    9.000    0.000    2.800    0.000 
#   10.800    0.000    0.000    0.000    0.000    0.000 
#    0.000    0.000    0.000    0.000    0.000    0.000 
#
# Total GULP energy -111415.965162 kJ/mol
# GULP energy per Si atom -5570.798258 kJ/mol
# Density = 2.889811 g / cm^3
# Si number density = 28.964038 Si / 1000 Ang^3
#
#
#
# Elastic Constant Matrix: (Units=GPa)
#
#
# Indices 1 2 3 4 5 6 
#
# 1 332.0769 33.5221 73.1599 0.0000 0.0000 0.0000
# 2 33.5221 77.2340 -2.3934 0.0000 0.0000 0.0000
# 3 73.1599 -2.3934 158.7856 0.0000 0.0000 0.0000
# 4 0.0000 0.0000 0.0000 13.5896 0.0000 0.0000
# 5 0.0000 0.0000 0.0000 0.0000 84.3635 0.0000
# 6 0.0000 0.0000 0.0000 0.0000 0.0000 45.6112
#
#
#
# Elastic Compliance Matrix: (Units=1/GPa)
#
#
# Indices 1 2 3 4 5 6 
#
# 1 0.003536 -0.001586 -0.001653 0.000000 0.000000 0.000000
# 2 -0.001586 0.013665 0.000937 0.000000 0.000000 0.000000
# 3 -0.001653 0.000937 0.007073 0.000000 0.000000 0.000000
# 4 0.000000 0.000000 0.000000 0.073585 0.000000 0.000000
# 5 0.000000 0.000000 0.000000 0.000000 0.011853 0.000000
# 6 0.000000 0.000000 0.000000 0.000000 0.000000 0.021924
#
#
# Mechanical properties :
#
#
# Convention : Reuss Voigt Hill
#
# Bulk Modulus (GPa) = 50.83910 86.29708 68.56809
# Shear Modulus (GPa) = 35.01446 59.63340 47.32393
#
# Velocity S-wave (km/s) = 3.48069 4.54241 4.04652
# Velocity P-wave (km/s) = 5.80897 7.57433 6.74962
#
# Compressibility (1/GPa) = 0.01966990
#
# Stress axis : x y z
#
# Youngs Moduli (GPa) = 282.83876 73.17979 141.37290
#
# Poissons Ratio (x) = 0.11605 0.23368
# Poissons Ratio (y) = 0.44852 -0.13241
# Poissons Ratio (z) = 0.46751 -0.06854
#
# Static dielectric constant tensor:
#      x y z
#    x 1.692540 0.000000 0.000000 
#    y 0.000000 2.407300 0.000000 
#    z 0.000000 0.000000 2.155100 
# 
# From -- ./inp_files/11356.got.cif
#   From: 2010.05.17/outbox.cif.g08.bks.cpg/sg37_6_cif.got.tgz:11356.got - 2010.06.03 17:53:42.
