data_PCOD9354881
_publ_section_title
;
Structure prediction by ZEFSAII (Michael W. Deem and Ramdas Pophale) SiO2 
 PCOD9354881
Probable space group: C C C 2
;
_chemical_formula_sum "Si O2"
_cell_formula_units_Z 48
_cell_length_a 18.647007
_cell_length_b 5.489056
_cell_length_c 20.506871
_cell_angle_alpha 90.000000
_cell_angle_beta 90.000000
_cell_angle_gamma 90.000000
_cell_volume 2098.969823
_symmetry_space_group_name_H-M "C C C 2"
_symmetry_group_IT_number 37
_symmetry_cell_setting 'orthorhombic'
loop_
_space_group_symop_operation_xyz
x,y,z
-x,-y,z
-x,y,1/2+z
x,-y,1/2+z
1/2+x,1/2+y,z
1/2-x,1/2-y,z
1/2-x,1/2+y,1/2+z
1/2+x,1/2-y,1/2+z
loop_
_atom_site_type_symbol
_atom_site_label
_atom_site_fract_x
_atom_site_fract_y
_atom_site_fract_z
Si Si1 0.176616 0.381549 0.621380
Si Si2 0.823000 0.329758 0.754752
Si Si3 0.074622 0.008357 0.183852
Si Si4 0.066186 0.317885 0.056763
Si Si5 0.087214 0.499133 0.870157
Si Si6 0.082316 0.004285 0.933184
O O1 0.250000 0.250000 0.601916
O O2 0.194473 0.534395 0.686825
O O3 0.111207 0.208396 0.644126
O O4 0.141273 0.540835 0.564424
O O5 0.750000 0.250000 0.788677
O O6 0.876981 0.475931 0.799819
O O7 0.865123 0.091010 0.733164
O O8 0.054935 0.212220 0.129279
O O9 0.000000 0.000000 0.221740
O O10 0.000000 0.500000 0.037746
O O11 0.076620 0.090082 0.008461
O O12 0.114357 0.244463 0.899741
O O13 0.000000 0.500000 0.867252
O O14 0.109657 0.737558 0.913231
O O15 0.000000 0.000000 0.910112
#
# Coordination Sequence:
#
# PCOD9354881 Si02
#       6
#     8   8   8   8   8   8
#     4  11  24  42  64  99 141 181 221 279 355 415
#     4  11  25  42  65  94 136 183 223 282 351 414
#     4  11  23  38  66 100 132 168 226 279 336 415
#     4  11  22  38  68 100 132 177 225 280 342 412
#     4  10  24  41  68  98 129 174 232 285 333 398
#     4  10  22  42  67  99 132 172 226 286 340 392
#
# _framework density 22.868361
#
# number of rings (size 3 to 8) (size 9 to 14) (size 15 to 20)
#    0.000    1.333    3.333    2.000    7.000    0.667 
#    0.000    0.833    3.667    0.000    0.000    0.000 
#    0.000    0.000    0.000    0.000    0.000    0.000 
#
# Total GULP energy -133973.978219 kJ/mol
# GULP energy per Si atom -5582.249092 kJ/mol
# Density = 2.281631 g / cm^3
# Si number density = 22.868361 Si / 1000 Ang^3
#
#
#
# Elastic Constant Matrix: (Units=GPa)
#
#
# Indices 1 2 3 4 5 6 
#
# 1 109.0663 36.7425 7.8125 0.0000 0.0000 0.0000
# 2 36.7425 112.6600 24.7210 0.0000 0.0000 0.0000
# 3 7.8125 24.7210 66.5522 0.0000 0.0000 0.0000
# 4 0.0000 0.0000 0.0000 8.7267 0.0000 0.0000
# 5 0.0000 0.0000 0.0000 0.0000 20.0447 0.0000
# 6 0.0000 0.0000 0.0000 0.0000 0.0000 29.8113
#
#
#
# Elastic Compliance Matrix: (Units=1/GPa)
#
#
# Indices 1 2 3 4 5 6 
#
# 1 0.010301 -0.003369 0.000042 0.000000 0.000000 0.000000
# 2 -0.003369 0.010766 -0.003603 0.000000 0.000000 0.000000
# 3 0.000042 -0.003603 0.016359 0.000000 0.000000 0.000000
# 4 0.000000 0.000000 0.000000 0.114591 0.000000 0.000000
# 5 0.000000 0.000000 0.000000 0.000000 0.049889 0.000000
# 6 0.000000 0.000000 0.000000 0.000000 0.000000 0.033544
#
#
# Mechanical properties :
#
#
# Convention : Reuss Voigt Hill
#
# Bulk Modulus (GPa) = 42.43480 47.42561 44.93020
# Shear Modulus (GPa) = 19.44282 26.31670 22.87976
#
# Velocity S-wave (km/s) = 2.91899 3.39601 3.16650
# Velocity P-wave (km/s) = 5.47331 6.01338 5.74969
#
# Compressibility (1/GPa) = 0.02356556
#
# Stress axis : x y z
#
# Youngs Moduli (GPa) = 97.08225 92.88843 61.12701
#
# Poissons Ratio (x) = 0.31291 -0.00257
# Poissons Ratio (y) = 0.32703 0.22027
# Poissons Ratio (z) = -0.00409 0.33472
#
# Static dielectric constant tensor:
#      x y z
#    x 1.555290 0.000000 0.000000 
#    y 0.000000 1.959460 0.000000 
#    z 0.000000 0.000000 1.883790 
# 
# From -- ./inp_files/17414.got.cif
#   From: 2010.05.17/outbox.cif.g08.bks.cpg/sg37_9_cif.got.tgz:17414.got - 2010.06.03 17:53:42.
