data_PCOD9354521
_publ_section_title
;
Structure prediction by ZEFSAII (Michael W. Deem and Ramdas Pophale) SiO2 
 PCOD9354521
Probable space group: C C C 2
;
_chemical_formula_sum "Si O2"
_cell_formula_units_Z 64
_cell_length_a 15.709911
_cell_length_b 12.435198
_cell_length_c 15.289370
_cell_angle_alpha 90.000000
_cell_angle_beta 90.000000
_cell_angle_gamma 90.000000
_cell_volume 2986.867931
_symmetry_space_group_name_H-M "C C C 2"
_symmetry_group_IT_number 37
_symmetry_cell_setting 'orthorhombic'
loop_
_space_group_symop_operation_xyz
x,y,z
-x,-y,z
-x,y,1/2+z
x,-y,1/2+z
1/2+x,1/2+y,z
1/2-x,1/2-y,z
1/2-x,1/2+y,1/2+z
1/2+x,1/2-y,1/2+z
loop_
_atom_site_type_symbol
_atom_site_label
_atom_site_fract_x
_atom_site_fract_y
_atom_site_fract_z
Si Si1 0.851858 0.871829 0.841980
Si Si2 0.651223 0.250000 0.909955
Si Si3 0.848340 0.250000 0.700278
Si Si4 0.350210 0.015534 0.181986
Si Si5 0.850210 0.015534 0.681986
Si Si6 0.596990 0.030238 0.993990
Si Si7 0.903010 0.030238 0.993990
Si Si8 0.351858 0.128171 0.841980
O O1 0.750000 0.863553 0.830286
O O2 0.886489 0.750000 0.844106
O O3 0.885986 0.942581 0.760428
O O4 0.866741 0.937325 0.930876
O O5 0.750000 0.250000 0.939072
O O6 0.652395 0.250000 0.805215
O O7 0.607414 0.142603 0.944390
O O8 0.607414 0.357397 0.944390
O O9 0.750000 0.250000 0.666579
O O10 0.888151 0.364080 0.673967
O O11 0.888151 0.135920 0.673967
O O12 0.250000 0.031200 0.203565
O O13 0.385986 0.942581 0.260428
O O14 0.357983 0.962586 0.087580
O O15 0.857983 0.962586 0.587580
O O16 0.500000 0.000000 0.010167
O O17 0.633259 0.937325 0.930876
O O18 0.000000 0.000000 0.010167
#
# Coordination Sequence:
#
# PCOD9354521 Si02
#       8
#     8   8   8   8   8   8   8   8
#     4  10  22  42  67  93 125 167 218 272 323 382
#     4  11  22  45  72  93 124 179 233 266 306 390
#     4   9  18  37  66  91 117 157 219 274 309 364
#     4  10  21  40  65  94 122 166 220 268 318 385
#     4  10  21  40  65  94 122 166 220 268 318 385
#     4  12  27  41  62  97 137 170 209 266 331 392
#     4  12  27  41  62  97 137 170 209 266 331 392
#     4  10  22  42  67  93 125 167 218 272 323 382
#
# _framework density 21.427126999999999
#
# number of rings (size 3 to 8) (size 9 to 14) (size 15 to 20)
#    0.000    1.500    2.500    2.250    5.250    1.000 
#    0.000    0.000    0.000    0.000    0.000    0.000 
#    0.000    0.000    0.000    0.000    0.000    0.000 
#
# Total GULP energy -178769.236942 kJ/mol
# GULP energy per Si atom -5586.538654 kJ/mol
# Density = 2.137836 g / cm^3
# Si number density = 21.427127 Si / 1000 Ang^3
#
#
#
# Elastic Constant Matrix: (Units=GPa)
#
#
# Indices 1 2 3 4 5 6 
#
# 1 24.4230 4.5818 -18.7316 0.0000 0.0000 0.0000
# 2 4.5818 104.3236 -0.2659 0.0000 0.0000 0.0000
# 3 -18.7316 -0.2659 74.0878 0.0000 0.0000 0.0000
# 4 0.0000 0.0000 0.0000 -20.3861 0.0000 0.0000
# 5 0.0000 0.0000 0.0000 0.0000 403.3846 0.0000
# 6 0.0000 0.0000 0.0000 0.0000 0.0000 7.1570
#
#
#
# Elastic Compliance Matrix: (Units=1/GPa)
#
#
# Indices 1 2 3 4 5 6 
#
# 1 0.051304 -0.002220 0.012963 0.000000 0.000000 0.000000
# 2 -0.002220 0.009682 -0.000527 0.000000 0.000000 0.000000
# 3 0.012963 -0.000527 0.016773 0.000000 0.000000 0.000000
# 4 0.000000 0.000000 0.000000 -0.049053 0.000000 0.000000
# 5 0.000000 0.000000 0.000000 0.000000 0.002479 0.000000
# 6 0.000000 0.000000 0.000000 0.000000 0.000000 0.139723
#
#
# Mechanical properties :
#
#
# Convention : Reuss Voigt Hill
#
# Bulk Modulus (GPa) = 10.18418 19.33365 14.75892
# Shear Modulus (GPa) = 27.29185 92.51445 59.90315
#
# Velocity S-wave (km/s) = 3.57277 6.57800 5.29314
# Velocity P-wave (km/s) = 4.66721 8.16921 6.65278
#
# Compressibility (1/GPa) = 0.09819150
#
# Stress axis : x y z
#
# Youngs Moduli (GPa) = 19.49174 103.28742 59.61931
#
# Poissons Ratio (x) = 0.22931 -0.77286
# Poissons Ratio (y) = 0.04327 0.03139
# Poissons Ratio (z) = -0.25267 0.05439
#
# Static dielectric constant tensor:
#      x y z
#    x 1.222230 0.000000 0.000000 
#    y 0.000000 1.899520 0.000000 
#    z 0.000000 0.000000 1.720270 
# 
# From -- ./inp_files/11774.got.cif
#   From: 2010.05.17/outbox.cif.g08.bks.cpg/sg37_6_cif.got.tgz:11774.got - 2010.06.03 17:53:42.
