data_PCOD9354561
_publ_section_title
;
Structure prediction by ZEFSAII (Michael W. Deem and Ramdas Pophale) SiO2 
 PCOD9354561
Probable space group: C C C 2
;
_chemical_formula_sum "Si O2"
_cell_formula_units_Z 64
_cell_length_a 23.758968
_cell_length_b 12.191381
_cell_length_c 10.634288
_cell_angle_alpha 90.000000
_cell_angle_beta 90.000000
_cell_angle_gamma 90.000000
_cell_volume 3080.270767
_symmetry_space_group_name_H-M "C C C 2"
_symmetry_group_IT_number 37
_symmetry_cell_setting 'orthorhombic'
loop_
_space_group_symop_operation_xyz
x,y,z
-x,-y,z
-x,y,1/2+z
x,-y,1/2+z
1/2+x,1/2+y,z
1/2-x,1/2-y,z
1/2-x,1/2+y,1/2+z
1/2+x,1/2-y,1/2+z
loop_
_atom_site_type_symbol
_atom_site_label
_atom_site_fract_x
_atom_site_fract_y
_atom_site_fract_z
Si Si1 0.564362 0.536640 0.645340
Si Si2 0.437721 0.997182 0.274551
Si Si3 0.808480 0.751335 0.314648
Si Si4 0.684704 0.717870 0.886997
Si Si5 0.896522 0.274342 0.175263
Si Si6 0.863708 0.977460 0.389601
Si Si7 0.129654 0.633702 0.598717
Si Si8 0.347308 0.921774 0.975398
O O1 0.500000 0.500000 0.636642
O O2 0.567316 0.666146 0.670165
O O3 0.598081 0.519796 0.514990
O O4 0.597410 0.484789 0.764245
O O5 0.428556 0.871551 0.242035
O O6 0.500000 0.000000 0.327883
O O7 0.427642 0.073891 0.149871
O O8 0.388467 0.026610 0.371659
O O9 0.750000 0.750000 0.240190
O O10 0.828572 0.864918 0.374853
O O11 0.853979 0.708224 0.216604
O O12 0.799032 0.649818 0.411561
O O13 0.750000 0.750000 0.904574
O O14 0.643441 0.785888 0.981970
O O15 0.661457 0.750159 0.749157
O O16 0.674421 0.587331 0.897567
O O17 0.882074 0.325726 0.041956
O O18 0.166148 0.522478 0.568611
#
# Coordination Sequence:
#
# PCOD9354561 Si02
#       8
#     8   8   8   8   8   8   8   8
#     4  11  24  46  70  95 135 184 225 282 343 393
#     4  10  22  40  66  98 131 173 215 273 343 395
#     4  11  24  42  67  99 132 178 218 279 340 392
#     4  11  24  42  68  97 135 178 217 276 343 400
#     4  10  22  43  62  97 131 170 222 273 323 409
#     4  11  25  45  67 103 137 172 240 277 330 425
#     4  10  22  41  65  97 135 167 222 270 327 414
#     4  10  21  41  66  92 139 164 220 274 324 401
#
# _framework density 20.777394000000001
#
# number of rings (size 3 to 8) (size 9 to 14) (size 15 to 20)
#    0.000    1.500    2.500    1.500    1.750    5.500 
#    4.500    0.000    0.000    0.000    0.000    0.000 
#    0.000    0.000    0.000    0.000    0.000    0.000 
#
# Total GULP energy -178223.969613 kJ/mol
# GULP energy per Si atom -5569.499050 kJ/mol
# Density = 2.073010 g / cm^3
# Si number density = 20.777394 Si / 1000 Ang^3
#
#
#
# Elastic Constant Matrix: (Units=GPa)
#
#
# Indices 1 2 3 4 5 6 
#
# 1 88.5914 51.4335 25.9105 0.0000 0.0000 0.0000
# 2 51.4335 142.9857 35.5839 0.0000 0.0000 0.0000
# 3 25.9105 35.5839 77.0881 0.0000 0.0000 0.0000
# 4 0.0000 0.0000 0.0000 39.2559 0.0000 0.0000
# 5 0.0000 0.0000 0.0000 0.0000 -0.7743 0.0000
# 6 0.0000 0.0000 0.0000 0.0000 0.0000 8.4820
#
#
#
# Elastic Compliance Matrix: (Units=1/GPa)
#
#
# Indices 1 2 3 4 5 6 
#
# 1 0.014799 -0.004616 -0.002844 0.000000 0.000000 0.000000
# 2 -0.004616 0.009341 -0.002760 0.000000 0.000000 0.000000
# 3 -0.002844 -0.002760 0.015202 0.000000 0.000000 0.000000
# 4 0.000000 0.000000 0.000000 0.025474 0.000000 0.000000
# 5 0.000000 0.000000 0.000000 0.000000 -1.291553 0.000000
# 6 0.000000 0.000000 0.000000 0.000000 0.000000 0.117897
#
#
# Mechanical properties :
#
#
# Convention : Reuss Voigt Hill
#
# Bulk Modulus (GPa) = 52.90205 59.39124 56.14664
# Shear Modulus (GPa) = -4.62065 22.44187 8.91061
#
# Velocity S-wave (km/s) = -1.49289 3.29007 2.07314
# Velocity P-wave (km/s) = 4.74816 6.56348 5.72819
#
# Compressibility (1/GPa) = 0.01890286
#
# Stress axis : x y z
#
# Youngs Moduli (GPa) = 67.57112 107.05482 65.78019
#
# Poissons Ratio (x) = 0.49414 0.18705
# Poissons Ratio (y) = 0.31189 0.18158
# Poissons Ratio (z) = 0.19215 0.29551
#
# Static dielectric constant tensor:
#      x y z
#    x 1.829180 0.000000 0.000000 
#    y 0.000000 1.760020 0.000000 
#    z 0.000000 0.000000 1.839020 
# 
# From -- ./inp_files/8932.got.cif
#   From: 2010.05.17/outbox.cif.g08.bks.cpg/sg37_5_cif.got.tgz:8932.got - 2010.06.03 17:53:42.
