data_PCOD9354698
_publ_section_title
;
Structure prediction by ZEFSAII (Michael W. Deem and Ramdas Pophale) SiO2 
 PCOD9354698
Probable space group: C C C 2
;
_chemical_formula_sum "Si O2"
_cell_formula_units_Z 56
_cell_length_a 5.824354
_cell_length_b 14.570499
_cell_length_c 29.108060
_cell_angle_alpha 90.000000
_cell_angle_beta 90.000000
_cell_angle_gamma 90.000000
_cell_volume 2470.218956
_symmetry_space_group_name_H-M "C C C 2"
_symmetry_group_IT_number 37
_symmetry_cell_setting 'orthorhombic'
loop_
_space_group_symop_operation_xyz
x,y,z
-x,-y,z
-x,y,1/2+z
x,-y,1/2+z
1/2+x,1/2+y,z
1/2-x,1/2-y,z
1/2-x,1/2+y,1/2+z
1/2+x,1/2-y,1/2+z
loop_
_atom_site_type_symbol
_atom_site_label
_atom_site_fract_x
_atom_site_fract_y
_atom_site_fract_z
Si Si1 0.400409 0.399168 0.586380
Si Si2 0.014468 0.395096 0.397207
Si Si3 0.603302 0.601261 0.263798
Si Si4 0.250000 0.250000 0.059005
Si Si5 0.000000 0.500000 0.742358
Si Si6 0.485904 0.613239 0.360083
Si Si7 0.381378 0.844709 0.998834
Si Si8 0.196936 0.855763 0.186199
O O1 0.500000 0.500000 0.592160
O O2 0.585162 0.316966 0.586602
O O3 0.272849 0.395108 0.537301
O O4 0.264424 0.376419 0.632631
O O5 0.263449 0.357444 0.379989
O O6 0.047652 0.393166 0.452275
O O7 0.000000 0.500000 0.380894
O O8 0.757399 0.358692 0.383695
O O9 0.500000 0.500000 0.265812
O O10 0.490069 0.649251 0.307325
O O11 0.550366 0.634913 0.212400
O O12 0.867661 0.576861 0.271757
O O13 0.394682 0.183843 0.026600
O O14 0.843739 0.565349 0.711056
O O15 0.500000 0.500000 0.362147
O O16 0.250000 0.750000 0.987083
O O17 0.250000 0.750000 0.194828
#
# Coordination Sequence:
#
# PCOD9354698 Si02
#       8
#     8   8   8   4   4   8   8   8
#     4  11  25  42  68  98 131 175 231 283 347 428
#     4  10  22  37  65  97 132 175 230 286 344 416
#     4   9  20  37  64  94 128 179 226 278 339 411
#     4  10  24  44  66  88 136 176 220 284 354 406
#     4  10  22  40  70  90 134 180 226 280 350 406
#     4   9  20  36  63  99 133 173 230 285 345 411
#     4  10  24  42  62  92 128 178 220 281 347 414
#     4  11  24  42  64  99 137 173 228 281 345 422
#
# _framework density 22.670055000000001
#
# number of rings (size 3 to 8) (size 9 to 14) (size 15 to 20)
#    0.000    2.000    0.000    2.571   13.000    5.714 
#    0.000    1.429    0.000    0.000    0.000    0.000 
#    0.000    0.000    0.000    0.000    0.000    0.000 
#
# Total GULP energy -155899.419910 kJ/mol
# GULP energy per Si atom -5567.836425 kJ/mol
# Density = 2.261846 g / cm^3
# Si number density = 22.670055 Si / 1000 Ang^3
#
#
#
# Elastic Constant Matrix: (Units=GPa)
#
#
# Indices 1 2 3 4 5 6 
#
# 1 110.6833 16.2694 36.9835 0.0000 0.0000 0.0000
# 2 16.2694 61.2229 24.6624 0.0000 0.0000 0.0000
# 3 36.9835 24.6624 89.6127 0.0000 0.0000 0.0000
# 4 0.0000 0.0000 0.0000 181.6583 0.0000 0.0000
# 5 0.0000 0.0000 0.0000 0.0000 -13.1040 0.0000
# 6 0.0000 0.0000 0.0000 0.0000 0.0000 -0.9130
#
#
#
# Elastic Compliance Matrix: (Units=1/GPa)
#
#
# Indices 1 2 3 4 5 6 
#
# 1 0.010555 -0.001181 -0.004031 0.000000 0.000000 0.000000
# 2 -0.001181 0.018503 -0.004605 0.000000 0.000000 0.000000
# 3 -0.004031 -0.004605 0.014090 0.000000 0.000000 0.000000
# 4 0.000000 0.000000 0.000000 0.005505 0.000000 0.000000
# 5 0.000000 0.000000 0.000000 0.000000 -0.076313 0.000000
# 6 0.000000 0.000000 0.000000 0.000000 0.000000 -1.095255
#
#
# Mechanical properties :
#
#
# Convention : Reuss Voigt Hill
#
# Bulk Modulus (GPa) = 42.52774 46.37216 44.44995
# Shear Modulus (GPa) = -4.56436 45.76851 20.60208
#
# Velocity S-wave (km/s) = -1.42048 4.49809 3.01787
# Velocity P-wave (km/s) = 4.01370 6.89034 5.63855
#
# Compressibility (1/GPa) = 0.02351407
#
# Stress axis : x y z
#
# Youngs Moduli (GPa) = 94.73848 54.04674 70.97194
#
# Poissons Ratio (x) = 0.06383 0.28610
# Poissons Ratio (y) = 0.11190 0.32680
# Poissons Ratio (z) = 0.38191 0.24887
#
# Static dielectric constant tensor:
#      x y z
#    x 2.085600 0.000000 0.000000 
#    y 0.000000 1.824020 0.000000 
#    z 0.000000 0.000000 1.843020 
# 
# From -- ./inp_files/20200.got.cif
#   From: 2010.05.17/outbox.cif.g08.bks.cpg/sg37_11_cif.got.tgz:20200.got - 2010.06.03 17:53:42.
