data_PCOD9354689
_publ_section_title
;
Structure prediction by ZEFSAII (Michael W. Deem and Ramdas Pophale) SiO2 
 PCOD9354689
Probable space group: C C C 2
;
_chemical_formula_sum "Si O2"
_cell_formula_units_Z 56
_cell_length_a 16.306314
_cell_length_b 19.715145
_cell_length_c 9.743178
_cell_angle_alpha 90.000000
_cell_angle_beta 90.000000
_cell_angle_gamma 90.000000
_cell_volume 3132.249967
_symmetry_space_group_name_H-M "C C C 2"
_symmetry_group_IT_number 37
_symmetry_cell_setting 'orthorhombic'
loop_
_space_group_symop_operation_xyz
x,y,z
-x,-y,z
-x,y,1/2+z
x,-y,1/2+z
1/2+x,1/2+y,z
1/2-x,1/2-y,z
1/2-x,1/2+y,1/2+z
1/2+x,1/2-y,1/2+z
loop_
_atom_site_type_symbol
_atom_site_label
_atom_site_fract_x
_atom_site_fract_y
_atom_site_fract_z
Si Si1 0.093638 0.886564 0.447230
Si Si2 0.955028 0.430449 0.222662
Si Si3 0.315576 0.478207 0.346421
Si Si4 0.202108 0.496793 0.587083
Si Si5 0.842213 0.234285 0.605301
Si Si6 0.444532 0.370085 0.249403
Si Si7 0.088946 0.377108 0.011285
O O1 0.154123 0.824930 0.489215
O O2 0.047064 0.898693 0.593211
O O3 0.028388 0.865602 0.332102
O O4 0.141441 0.952610 0.396931
O O5 0.869907 0.452091 0.152674
O O6 0.939015 0.384951 0.354784
O O7 0.000000 0.500000 0.270547
O O8 0.014421 0.396958 0.111530
O O9 0.246114 0.462028 0.458408
O O10 0.270096 0.488324 0.201918
O O11 0.383547 0.420661 0.328225
O O12 0.159749 0.566802 0.538220
O O13 0.750000 0.250000 0.649448
O O14 0.898375 0.201313 0.724301
O O15 0.880450 0.302725 0.547483
#
# Coordination Sequence:
#
# PCOD9354689 Si02
#       7
#     8   8   8   8   8   8   8
#     4  10  24  40  62  89 120 161 205 256 304 374
#     4  10  22  37  59  96 126 158 204 252 307 371
#     4  12  21  39  62  92 122 163 203 263 320 345
#     4  11  22  36  62  96 123 156 211 253 310 368
#     4  10  23  44  63  87 125 165 210 246 325 372
#     4  10  24  40  61  91 121 159 208 254 308 365
#     4  11  22  38  64  86 127 166 199 253 311 377
#
# _framework density 17.878522
#
# number of rings (size 3 to 8) (size 9 to 14) (size 15 to 20)
#    0.857    0.571    2.857    3.429    6.000    1.143 
#    0.000    0.000    0.000    0.857    0.000    0.000 
#    0.000    0.000    0.000    0.000    0.000    0.000 
#
# Total GULP energy -156230.711073 kJ/mol
# GULP energy per Si atom -5579.668253 kJ/mol
# Density = 1.783783 g / cm^3
# Si number density = 17.878522 Si / 1000 Ang^3
#
#
#
# Elastic Constant Matrix: (Units=GPa)
#
#
# Indices 1 2 3 4 5 6 
#
# 1 66.1063 12.3542 21.4455 0.0000 0.0000 0.0000
# 2 12.3542 60.2064 13.8570 0.0000 0.0000 0.0000
# 3 21.4455 13.8570 76.3645 0.0000 0.0000 0.0000
# 4 0.0000 0.0000 0.0000 18.7488 0.0000 0.0000
# 5 0.0000 0.0000 0.0000 0.0000 37.6257 0.0000
# 6 0.0000 0.0000 0.0000 0.0000 0.0000 22.1106
#
#
#
# Elastic Compliance Matrix: (Units=1/GPa)
#
#
# Indices 1 2 3 4 5 6 
#
# 1 0.016995 -0.002493 -0.004320 0.000000 0.000000 0.000000
# 2 -0.002493 0.017699 -0.002512 0.000000 0.000000 0.000000
# 3 -0.004320 -0.002512 0.014764 0.000000 0.000000 0.000000
# 4 0.000000 0.000000 0.000000 0.053337 0.000000 0.000000
# 5 0.000000 0.000000 0.000000 0.000000 0.026578 0.000000
# 6 0.000000 0.000000 0.000000 0.000000 0.000000 0.045227
#
#
# Mechanical properties :
#
#
# Convention : Reuss Voigt Hill
#
# Bulk Modulus (GPa) = 32.45875 33.11008 32.78441
# Shear Modulus (GPa) = 24.56784 26.03172 25.29978
#
# Velocity S-wave (km/s) = 3.71098 3.81994 3.76585
# Velocity P-wave (km/s) = 6.04619 6.16568 6.10623
#
# Compressibility (1/GPa) = 0.03080834
#
# Stress axis : x y z
#
# Youngs Moduli (GPa) = 58.84235 56.49995 67.73188
#
# Poissons Ratio (x) = 0.14085 0.29262
# Poissons Ratio (y) = 0.14669 0.17011
# Poissons Ratio (z) = 0.25421 0.14190
#
# Static dielectric constant tensor:
#      x y z
#    x 1.605580 0.000000 0.000000 
#    y 0.000000 1.595910 0.000000 
#    z 0.000000 0.000000 1.604190 
# 
# From -- ./inp_files/4130.got.cif
#   From: 2010.05.17/outbox.cif.g08.bks.cpg/sg37_3_cif.got.tgz:4130.got - 2010.06.03 17:53:42.
