data_PCOD9354062
_publ_section_title
;
Structure prediction by ZEFSAII (Michael W. Deem and Ramdas Pophale) SiO2 
 PCOD9354062
Probable space group: C C C 2
;
_chemical_formula_sum "Si O2"
_cell_formula_units_Z 60
_cell_length_a 7.539650
_cell_length_b 23.476442
_cell_length_c 15.669044
_cell_angle_alpha 90.000000
_cell_angle_beta 90.000000
_cell_angle_gamma 90.000000
_cell_volume 2773.485907
_symmetry_space_group_name_H-M "C C C 2"
_symmetry_group_IT_number 37
_symmetry_cell_setting 'orthorhombic'
loop_
_space_group_symop_operation_xyz
x,y,z
-x,-y,z
-x,y,1/2+z
x,-y,1/2+z
1/2+x,1/2+y,z
1/2-x,1/2-y,z
1/2-x,1/2+y,1/2+z
1/2+x,1/2-y,1/2+z
loop_
_atom_site_type_symbol
_atom_site_label
_atom_site_fract_x
_atom_site_fract_y
_atom_site_fract_z
Si Si1 0.378777 0.869722 0.693900
Si Si2 0.750000 0.250000 0.763178
Si Si3 0.036004 0.747345 0.410629
Si Si4 0.962622 0.366516 0.511161
Si Si5 0.469532 0.361407 0.997531
Si Si6 0.439733 0.434995 0.844211
Si Si7 0.965231 0.933616 0.153488
Si Si8 0.974907 0.434266 0.357289
O O1 0.284478 0.808168 0.709434
O O2 0.507085 0.864638 0.611475
O O3 0.241863 0.919190 0.665428
O O4 0.454444 0.892183 0.783845
O O5 0.578927 0.256173 0.825314
O O6 0.250000 0.750000 0.393734
O O7 0.986575 0.688543 0.456036
O O8 0.990786 0.796424 0.478639
O O9 0.745524 0.364784 0.508618
O O10 0.034919 0.418402 0.453433
O O11 0.531483 0.395288 0.913436
O O12 0.540966 0.393199 0.080298
O O13 0.500000 0.500000 0.854808
O O14 0.464423 0.418828 0.746657
O O15 0.234515 0.428017 0.860937
O O16 0.000000 0.000000 0.134917
O O17 0.000000 0.500000 0.334262
#
# Coordination Sequence:
#
# PCOD9354062 Si02
#       8
#     8   4   8   8   8   8   8   8
#     4  11  24  41  66  99 131 176 224 283 348 402
#     4  12  24  42  74 100 134 180 238 278 340 424
#     4  10  21  42  67  95 135 175 225 280 335 402
#     4   9  21  41  63  90 131 174 213 275 346 396
#     4   9  19  35  63  86 122 170 207 265 335 387
#     4  10  20  37  58  89 122 162 212 267 326 398
#     4  10  20  37  60  92 126 164 218 269 331 406
#     4  11  22  41  64  91 130 173 218 275 339 412
#
# _framework density 21.633424999999999
#
# number of rings (size 3 to 8) (size 9 to 14) (size 15 to 20)
#    0.000    1.867    1.333    2.800    4.667    0.533 
#    2.400    2.667    1.467    0.000    0.000    0.000 
#    0.000    0.000    0.000    0.000    0.000    0.000 
#
# Total GULP energy -167366.297747 kJ/mol
# GULP energy per Si atom -5578.876592 kJ/mol
# Density = 2.158419 g / cm^3
# Si number density = 21.633425 Si / 1000 Ang^3
#
#
#
# Elastic Constant Matrix: (Units=GPa)
#
#
# Indices 1 2 3 4 5 6 
#
# 1 46.6427 10.2161 3.3074 0.0000 0.0000 0.0000
# 2 10.2161 78.5140 45.9863 0.0000 0.0000 0.0000
# 3 3.3074 45.9863 118.2945 0.0000 0.0000 0.0000
# 4 0.0000 0.0000 0.0000 -28.6403 0.0000 0.0000
# 5 0.0000 0.0000 0.0000 0.0000 10.0461 0.0000
# 6 0.0000 0.0000 0.0000 0.0000 0.0000 5.5986
#
#
#
# Elastic Compliance Matrix: (Units=1/GPa)
#
#
# Indices 1 2 3 4 5 6 
#
# 1 0.022107 -0.003256 0.000648 0.000000 0.000000 0.000000
# 2 -0.003256 0.016971 -0.006506 0.000000 0.000000 0.000000
# 3 0.000648 -0.006506 0.010965 0.000000 0.000000 0.000000
# 4 0.000000 0.000000 0.000000 -0.034916 0.000000 0.000000
# 5 0.000000 0.000000 0.000000 0.000000 0.099541 0.000000
# 6 0.000000 0.000000 0.000000 0.000000 0.000000 0.178618
#
#
# Mechanical properties :
#
#
# Convention : Reuss Voigt Hill
#
# Bulk Modulus (GPa) = 31.43332 40.27454 35.85393
# Shear Modulus (GPa) = 15.52223 9.66363 12.59293
#
# Velocity S-wave (km/s) = 2.68155 2.11582 2.41530
# Velocity P-wave (km/s) = 4.91417 4.96247 4.93838
#
# Compressibility (1/GPa) = 0.03181337
#
# Stress axis : x y z
#
# Youngs Moduli (GPa) = 45.23496 58.92383 91.20184
#
# Poissons Ratio (x) = 0.19184 -0.05906
# Poissons Ratio (y) = 0.14728 0.59339
# Poissons Ratio (z) = -0.02929 0.38338
#
# Static dielectric constant tensor:
#      x y z
#    x 1.838790 0.000000 0.000000 
#    y 0.000000 1.823340 0.000000 
#    z 0.000000 0.000000 1.902700 
# 
# From -- ./inp_files/10935.got.cif
#   From: 2010.05.17/outbox.cif.g08.bks.cpg/sg37_6_cif.got.tgz:10935.got - 2010.06.03 17:53:42.
