data_PCOD9354130
_publ_section_title
;
Structure prediction by ZEFSAII (Michael W. Deem and Ramdas Pophale) SiO2 
 PCOD9354130
Probable space group: C C C 2
;
_chemical_formula_sum "Si O2"
_cell_formula_units_Z 32
_cell_length_a 7.846267
_cell_length_b 14.099136
_cell_length_c 12.828798
_cell_angle_alpha 90.000000
_cell_angle_beta 90.000000
_cell_angle_gamma 90.000000
_cell_volume 1419.193290
_symmetry_space_group_name_H-M "C C C 2"
_symmetry_group_IT_number 37
_symmetry_cell_setting 'orthorhombic'
loop_
_space_group_symop_operation_xyz
x,y,z
-x,-y,z
-x,y,1/2+z
x,-y,1/2+z
1/2+x,1/2+y,z
1/2-x,1/2-y,z
1/2-x,1/2+y,1/2+z
1/2+x,1/2-y,1/2+z
loop_
_atom_site_type_symbol
_atom_site_label
_atom_site_fract_x
_atom_site_fract_y
_atom_site_fract_z
Si Si1 0.597472 0.865931 0.599740
Si Si2 0.752633 0.962989 0.178972
Si Si3 0.578269 0.685998 0.042551
Si Si4 0.295435 0.355230 0.386748
O O1 0.421456 0.915585 0.633993
O O2 0.553154 0.755044 0.604128
O O3 0.662958 0.878610 0.480529
O O4 0.732963 0.924752 0.666917
O O5 0.885502 0.908211 0.106918
O O6 0.781034 0.931061 0.296517
O O7 0.750000 0.750000 0.026069
O O8 0.481091 0.656079 0.937866
O O9 0.250000 0.250000 0.344184
#
# Coordination Sequence:
#
# PCOD9354130 Si02
#       4
#     8   8   8   8
#     4   9  20  36  59  90 121 160 210 263 322 387
#     4  10  20  38  63  90 126 166 211 268 327 394
#     4   9  19  39  61  88 127 167 214 270 326 395
#     4  10  20  38  63  89 125 170 212 266 335 397
#
# _framework density 22.548019
#
# number of rings (size 3 to 8) (size 9 to 14) (size 15 to 20)
#    0.000    2.500    0.000    2.250    0.000    5.000 
#    0.000   18.750    0.000    3.000    0.000    0.000 
#    0.000    0.000    0.000    0.000    0.000    0.000 
#
# Total GULP energy -89258.945506 kJ/mol
# GULP energy per Si atom -5578.684094 kJ/mol
# Density = 2.249670 g / cm^3
# Si number density = 22.548019 Si / 1000 Ang^3
#
#
#
# Elastic Constant Matrix: (Units=GPa)
#
#
# Indices 1 2 3 4 5 6 
#
# 1 128.7366 52.0845 39.0691 0.0000 0.0000 0.0000
# 2 52.0845 139.7782 73.4539 0.0000 0.0000 0.0000
# 3 39.0691 73.4539 76.7319 0.0000 0.0000 0.0000
# 4 0.0000 0.0000 0.0000 9.3857 0.0000 0.0000
# 5 0.0000 0.0000 0.0000 0.0000 -62.9778 0.0000
# 6 0.0000 0.0000 0.0000 0.0000 0.0000 42.7040
#
#
#
# Elastic Compliance Matrix: (Units=1/GPa)
#
#
# Indices 1 2 3 4 5 6 
#
# 1 0.009457 -0.001999 -0.002901 0.000000 0.000000 0.000000
# 2 -0.001999 0.014819 -0.013168 0.000000 0.000000 0.000000
# 3 -0.002901 -0.013168 0.027115 0.000000 0.000000 0.000000
# 4 0.000000 0.000000 0.000000 0.106545 0.000000 0.000000
# 5 0.000000 0.000000 0.000000 0.000000 -0.015879 0.000000
# 6 0.000000 0.000000 0.000000 0.000000 0.000000 0.023417
#
#
# Mechanical properties :
#
#
# Convention : Reuss Voigt Hill
#
# Bulk Modulus (GPa) = 65.55651 74.94018 70.24834
# Shear Modulus (GPa) = 24.19012 9.86502 17.02757
#
# Velocity S-wave (km/s) = 3.27896 2.09395 2.75102
# Velocity P-wave (km/s) = 6.59338 6.25733 6.42755
#
# Compressibility (1/GPa) = 0.01525402
#
# Stress axis : x y z
#
# Youngs Moduli (GPa) = 105.73977 67.48127 36.87992
#
# Poissons Ratio (x) = 0.13491 0.10700
# Poissons Ratio (y) = 0.21140 0.48563
# Poissons Ratio (z) = 0.30679 0.88859
#
# Static dielectric constant tensor:
#      x y z
#    x 2.053510 0.000000 0.000000 
#    y 0.000000 2.043110 0.000000 
#    z 0.000000 0.000000 1.773710 
# 
# From -- ./inp_files/5913.got.cif
#   From: 2010.05.17/outbox.cif.g08.bks.cpg/sg37_3_cif.got.tgz:5913.got - 2010.06.03 17:53:42.
