data_PCOD9354382
_publ_section_title
;
Structure prediction by ZEFSAII (Michael W. Deem and Ramdas Pophale) SiO2 
 PCOD9354382
Probable space group: C C C 2
;
_chemical_formula_sum "Si O2"
_cell_formula_units_Z 64
_cell_length_a 14.220354
_cell_length_b 38.245052
_cell_length_c 5.224485
_cell_angle_alpha 90.000000
_cell_angle_beta 90.000000
_cell_angle_gamma 90.000000
_cell_volume 2841.378894
_symmetry_space_group_name_H-M "C C C 2"
_symmetry_group_IT_number 37
_symmetry_cell_setting 'orthorhombic'
loop_
_space_group_symop_operation_xyz
x,y,z
-x,-y,z
-x,y,1/2+z
x,-y,1/2+z
1/2+x,1/2+y,z
1/2-x,1/2-y,z
1/2-x,1/2+y,1/2+z
1/2+x,1/2-y,1/2+z
loop_
_atom_site_type_symbol
_atom_site_label
_atom_site_fract_x
_atom_site_fract_y
_atom_site_fract_z
Si Si1 0.644613 0.735220 0.936660
Si Si2 0.563159 0.086347 0.034209
Si Si3 0.360635 0.483810 0.243840
Si Si4 0.437909 0.587224 0.554774
Si Si5 0.355716 0.235759 0.434222
Si Si6 0.858514 0.515981 0.345703
Si Si7 0.935495 0.335818 0.051383
Si Si8 0.435973 0.334901 0.103759
O O1 0.750000 0.750000 0.898284
O O2 0.601198 0.740284 0.657178
O O3 0.599661 0.759297 0.155865
O O4 0.636334 0.696055 0.040922
O O5 0.483272 0.083978 0.813830
O O6 0.629993 0.054232 0.965823
O O7 0.606515 0.125238 0.021356
O O8 0.400690 0.489859 0.528415
O O9 0.373203 0.445389 0.127317
O O10 0.250985 0.491072 0.293156
O O11 0.479417 0.585268 0.268960
O O12 0.394652 0.625946 0.584065
O O13 0.250000 0.250000 0.396258
O O14 0.363205 0.195850 0.519352
O O15 0.899112 0.489743 0.561116
O O16 0.012350 0.332956 0.823769
O O17 0.484391 0.331929 0.381502
#
# Coordination Sequence:
#
# PCOD9354382 Si02
#       8
#     8   8   8   8   8   8   8   8
#     4  10  21  37  56  81 114 143 185 238 275 340
#     4  10  21  37  58  85 116 147 191 236 281 336
#     4  10  21  37  57  83 118 153 192 233 280 334
#     4  10  21  37  58  85 116 147 191 236 281 336
#     4  10  21  37  56  81 114 143 185 238 275 340
#     4  10  21  37  57  83 118 153 192 233 280 334
#     4  10  21  37  58  83 114 149 186 233 287 339
#     4  10  21  37  58  83 114 149 186 233 287 339
#
# _framework density 22.524273000000001
#
# number of rings (size 3 to 8) (size 9 to 14) (size 15 to 20)
#    0.000    2.000    0.000    3.000    0.000    6.000 
#    4.500    0.000   11.000    0.000    0.000    0.000 
#    0.000    0.000    0.000    0.000    0.000    0.000 
#
# Total GULP energy -178596.135278 kJ/mol
# GULP energy per Si atom -5581.129227 kJ/mol
# Density = 2.247301 g / cm^3
# Si number density = 22.524273 Si / 1000 Ang^3
#
#
#
# Elastic Constant Matrix: (Units=GPa)
#
#
# Indices 1 2 3 4 5 6 
#
# 1 44.7710 -1.3982 -2.5257 0.0000 0.0000 0.0000
# 2 -1.3982 139.6694 26.4159 0.0000 0.0000 0.0000
# 3 -2.5257 26.4159 122.0014 0.0000 0.0000 0.0000
# 4 0.0000 0.0000 0.0000 36.6099 0.0000 0.0000
# 5 0.0000 0.0000 0.0000 0.0000 14.7221 0.0000
# 6 0.0000 0.0000 0.0000 0.0000 0.0000 34.5537
#
#
#
# Elastic Compliance Matrix: (Units=1/GPa)
#
#
# Indices 1 2 3 4 5 6 
#
# 1 0.022365 0.000142 0.000432 0.000000 0.000000 0.000000
# 2 0.000142 0.007466 -0.001614 0.000000 0.000000 0.000000
# 3 0.000432 -0.001614 0.008555 0.000000 0.000000 0.000000
# 4 0.000000 0.000000 0.000000 0.027315 0.000000 0.000000
# 5 0.000000 0.000000 0.000000 0.000000 0.067925 0.000000
# 6 0.000000 0.000000 0.000000 0.000000 0.000000 0.028940
#
#
# Mechanical properties :
#
#
# Convention : Reuss Voigt Hill
#
# Bulk Modulus (GPa) = 27.54259 39.04731 33.29495
# Shear Modulus (GPa) = 28.28889 36.10712 32.19801
#
# Velocity S-wave (km/s) = 3.54775 4.00813 3.78495
# Velocity P-wave (km/s) = 5.38856 6.22844 5.82366
#
# Compressibility (1/GPa) = 0.03630741
#
# Stress axis : x y z
#
# Youngs Moduli (GPa) = 44.71329 133.93358 116.89107
#
# Poissons Ratio (x) = -0.01904 -0.05052
# Poissons Ratio (y) = -0.00636 0.18863
# Poissons Ratio (z) = -0.01933 0.21613
#
# Static dielectric constant tensor:
#      x y z
#    x 1.610040 0.000000 0.000000 
#    y 0.000000 1.850340 0.000000 
#    z 0.000000 0.000000 1.903910 
# 
# From -- ./inp_files/898.got.cif
#   From: 2010.05.17/outbox.cif.g08.bks.cpg/sg37_1_cif.got.tgz:898.got - 2010.06.03 17:53:42.
