data_PCOD9354708
_publ_section_title
;
Structure prediction by ZEFSAII (Michael W. Deem and Ramdas Pophale) SiO2 
 PCOD9354708
Probable space group: C C C 2
;
_chemical_formula_sum "Si O2"
_cell_formula_units_Z 48
_cell_length_a 21.507237
_cell_length_b 10.851056
_cell_length_c 9.105443
_cell_angle_alpha 90.000000
_cell_angle_beta 90.000000
_cell_angle_gamma 90.000000
_cell_volume 2124.993988
_symmetry_space_group_name_H-M "C C C 2"
_symmetry_group_IT_number 37
_symmetry_cell_setting 'orthorhombic'
loop_
_space_group_symop_operation_xyz
x,y,z
-x,-y,z
-x,y,1/2+z
x,-y,1/2+z
1/2+x,1/2+y,z
1/2-x,1/2-y,z
1/2-x,1/2+y,1/2+z
1/2+x,1/2-y,1/2+z
loop_
_atom_site_type_symbol
_atom_site_label
_atom_site_fract_x
_atom_site_fract_y
_atom_site_fract_z
Si Si1 0.750000 0.750000 0.632290
Si Si2 0.250000 0.250000 0.127449
Si Si3 0.000000 0.500000 0.129870
Si Si4 0.500000 0.500000 0.629870
Si Si5 0.961494 0.166085 0.879870
Si Si6 0.660553 0.803411 0.379870
Si Si7 0.705173 0.086311 0.379870
Si Si8 0.432591 0.845993 0.379870
O O1 0.691267 0.743737 0.523760
O O2 0.742062 0.868066 0.737231
O O3 0.308733 0.256263 0.235980
O O4 0.257938 0.131934 0.022509
O O5 0.043399 0.581124 0.235986
O O6 0.043399 0.418876 0.023753
O O7 0.457645 0.583635 0.735323
O O8 0.542355 0.583634 0.524417
O O9 0.912665 0.277915 0.879870
O O10 0.031095 0.218791 0.879870
O O11 0.682773 0.945404 0.379870
O O12 0.640847 0.162882 0.379869
#
# Coordination Sequence:
#
# PCOD9354708 Si02
#       8
#     4   4   4   4   8   8   8   8
#     4  10  26  46  64 106 142 190 228 290 348 404
#     4  10  26  46  64 106 142 190 228 290 348 404
#     4  10  22  38  60 122 136 170 206 282 382 396
#     4  10  26  50  64 106 144 182 226 282 364 434
#     4  11  25  47  73 102 139 183 231 285 359 422
#     4  11  24  49  74  99 141 181 239 290 341 423
#     4  11  25  45  73 103 143 177 237 293 343 413
#     4  11  24  38  74 104 141 171 223 287 352 418
#
# _framework density 22.588298999999999
#
# number of rings (size 3 to 8) (size 9 to 14) (size 15 to 20)
#    0.000    1.333    0.000    4.000   14.000    0.000 
#   12.000    0.000    0.000    0.000    0.000    0.000 
#    0.000    0.000    0.000    0.000    0.000    0.000 
#
# Total GULP energy -134342.420519 kJ/mol
# GULP energy per Si atom -5597.600855 kJ/mol
# Density = 2.253689 g / cm^3
# Si number density = 22.588299 Si / 1000 Ang^3
#
#
#
# Elastic Constant Matrix: (Units=GPa)
#
#
# Indices 1 2 3 4 5 6 
#
# 1 77.4616 40.2608 26.9283 0.0000 0.0000 0.0000
# 2 40.2608 121.2620 57.4928 0.0000 0.0000 0.0000
# 3 26.9283 57.4928 169.3691 0.0000 0.0000 0.0000
# 4 0.0000 0.0000 0.0000 14.7367 0.0000 0.0000
# 5 0.0000 0.0000 0.0000 0.0000 18.7225 0.0000
# 6 0.0000 0.0000 0.0000 0.0000 0.0000 36.4213
#
#
#
# Elastic Compliance Matrix: (Units=1/GPa)
#
#
# Indices 1 2 3 4 5 6 
#
# 1 0.015708 -0.004804 -0.000867 0.000000 0.000000 0.000000
# 2 -0.004804 0.011298 -0.003071 0.000000 0.000000 0.000000
# 3 -0.000867 -0.003071 0.007085 0.000000 0.000000 0.000000
# 4 0.000000 0.000000 0.000000 0.067858 0.000000 0.000000
# 5 0.000000 0.000000 0.000000 0.000000 0.053412 0.000000
# 6 0.000000 0.000000 0.000000 0.000000 0.000000 0.027456
#
#
# Mechanical properties :
#
#
# Convention : Reuss Voigt Hill
#
# Bulk Modulus (GPa) = 60.21923 68.60628 64.41275
# Shear Modulus (GPa) = 24.29119 30.20349 27.24734
#
# Velocity S-wave (km/s) = 3.28287 3.66065 3.47689
# Velocity P-wave (km/s) = 6.40991 6.95022 6.68553
#
# Compressibility (1/GPa) = 0.01660599
#
# Stress axis : x y z
#
# Youngs Moduli (GPa) = 63.66189 88.51212 141.15169
#
# Poissons Ratio (x) = 0.42525 0.12232
# Poissons Ratio (y) = 0.30586 0.43351
# Poissons Ratio (z) = 0.05517 0.27184
#
# Static dielectric constant tensor:
#      x y z
#    x 1.796550 0.000000 0.000000 
#    y 0.000000 1.863490 0.000000 
#    z 0.000000 0.000000 1.851680 
# 
# From -- ./inp_files/2959.got.cif
#   From: 2010.05.17/outbox.cif.g08.bks.cpg/sg37_2_cif.got.tgz:2959.got - 2010.06.03 17:53:42.
