data_PCOD9354414
_publ_section_title
;
Structure prediction by ZEFSAII (Michael W. Deem and Ramdas Pophale) SiO2 
 PCOD9354414
Probable space group: C C C 2
;
_chemical_formula_sum "Si O2"
_cell_formula_units_Z 64
_cell_length_a 15.471199
_cell_length_b 9.643429
_cell_length_c 19.644693
_cell_angle_alpha 90.000000
_cell_angle_beta 90.000000
_cell_angle_gamma 90.000000
_cell_volume 2930.898009
_symmetry_space_group_name_H-M "C C C 2"
_symmetry_group_IT_number 37
_symmetry_cell_setting 'orthorhombic'
loop_
_space_group_symop_operation_xyz
x,y,z
-x,-y,z
-x,y,1/2+z
x,-y,1/2+z
1/2+x,1/2+y,z
1/2-x,1/2-y,z
1/2-x,1/2+y,1/2+z
1/2+x,1/2-y,1/2+z
loop_
_atom_site_type_symbol
_atom_site_label
_atom_site_fract_x
_atom_site_fract_y
_atom_site_fract_z
Si Si1 0.726009 0.912555 0.174310
Si Si2 0.407404 0.419899 0.661023
Si Si3 0.923013 0.771588 0.519018
Si Si4 0.371198 0.983357 0.545569
Si Si5 0.416379 0.401981 0.812809
Si Si6 0.756294 0.584822 0.321780
Si Si7 0.721996 0.448901 0.964997
Si Si8 0.101642 0.787702 0.455851
O O1 0.750000 0.750000 0.170966
O O2 0.646815 0.937399 0.122521
O O3 0.698290 0.954041 0.251271
O O4 0.818984 0.988573 0.161231
O O5 0.500000 0.500000 0.656617
O O6 0.403884 0.326140 0.594404
O O7 0.412099 0.347191 0.735435
O O8 0.936179 0.606827 0.527760
O O9 0.011480 0.831619 0.489455
O O10 0.848522 0.827056 0.468330
O O11 0.281714 0.063425 0.529696
O O12 0.374131 0.853054 0.494772
O O13 0.500000 0.500000 0.821471
O O14 0.336008 0.507566 0.819437
O O15 0.409923 0.290757 0.873811
O O16 0.750000 0.750000 0.319816
O O17 0.782976 0.549839 0.398428
O O18 0.671514 0.593540 0.969777
#
# Coordination Sequence:
#
# PCOD9354414 Si02
#       8
#     8   8   8   8   8   8   8   8
#     4  10  21  38  59  89 128 166 203 256 312 375
#     4  10  21  38  65  96 122 165 217 261 313 378
#     4  12  24  39  63  91 126 162 209 263 312 370
#     4  12  25  39  58  90 131 161 202 259 318 369
#     4   9  19  38  63  93 124 160 214 266 307 376
#     4   9  18  34  58  90 122 157 200 250 313 366
#     4  11  21  39  66  91 115 161 214 256 297 375
#     4  11  23  41  63  90 121 164 209 257 315 373
#
# _framework density 21.836310999999998
#
# number of rings (size 3 to 8) (size 9 to 14) (size 15 to 20)
#    0.000    1.500    1.250    5.250    1.750    0.000 
#    2.250    0.000    0.000    1.500    0.000    0.000 
#    0.000    0.000    0.000    0.000    0.000    0.000 
#
# Total GULP energy -178405.306616 kJ/mol
# GULP energy per Si atom -5575.165832 kJ/mol
# Density = 2.178661 g / cm^3
# Si number density = 21.836311 Si / 1000 Ang^3
#
#
#
# Elastic Constant Matrix: (Units=GPa)
#
#
# Indices 1 2 3 4 5 6 
#
# 1 25.0792 9.4616 21.4060 0.0000 0.0000 0.0000
# 2 9.4616 100.7234 51.0489 0.0000 0.0000 0.0000
# 3 21.4060 51.0489 169.0136 0.0000 0.0000 0.0000
# 4 0.0000 0.0000 0.0000 44.2365 0.0000 0.0000
# 5 0.0000 0.0000 0.0000 0.0000 26.7378 0.0000
# 6 0.0000 0.0000 0.0000 0.0000 0.0000 25.4926
#
#
#
# Elastic Compliance Matrix: (Units=1/GPa)
#
#
# Indices 1 2 3 4 5 6 
#
# 1 0.044918 -0.001578 -0.005212 0.000000 0.000000 0.000000
# 2 -0.001578 0.011778 -0.003358 0.000000 0.000000 0.000000
# 3 -0.005212 -0.003358 0.007591 0.000000 0.000000 0.000000
# 4 0.000000 0.000000 0.000000 0.022606 0.000000 0.000000
# 5 0.000000 0.000000 0.000000 0.000000 0.037400 0.000000
# 6 0.000000 0.000000 0.000000 0.000000 0.000000 0.039227
#
#
# Mechanical properties :
#
#
# Convention : Reuss Voigt Hill
#
# Bulk Modulus (GPa) = 22.73164 50.96101 36.84632
# Shear Modulus (GPa) = 25.19153 33.48670 29.33912
#
# Velocity S-wave (km/s) = 3.40023 3.92028 3.66948
# Velocity P-wave (km/s) = 5.08410 6.62419 5.90457
#
# Compressibility (1/GPa) = 0.04399155
#
# Stress axis : x y z
#
# Youngs Moduli (GPa) = 22.26283 84.90323 131.73494
#
# Poissons Ratio (x) = 0.13395 0.68666
# Poissons Ratio (y) = 0.03512 0.44232
# Poissons Ratio (z) = 0.11604 0.28508
#
# Static dielectric constant tensor:
#      x y z
#    x 1.820390 0.000000 0.000000 
#    y 0.000000 1.801390 0.000000 
#    z 0.000000 0.000000 1.849380 
# 
# From -- ./inp_files/17362.got.cif
#   From: 2010.05.17/outbox.cif.g08.bks.cpg/sg37_9_cif.got.tgz:17362.got - 2010.06.03 17:53:42.
