data_PCOD9354709
_publ_section_title
;
Structure prediction by ZEFSAII (Michael W. Deem and Ramdas Pophale) SiO2 
 PCOD9354709
Probable space group: C C C 2
;
_chemical_formula_sum "Si O2"
_cell_formula_units_Z 48
_cell_length_a 29.834687
_cell_length_b 8.360971
_cell_length_c 10.365594
_cell_angle_alpha 90.000000
_cell_angle_beta 90.000000
_cell_angle_gamma 90.000000
_cell_volume 2585.665837
_symmetry_space_group_name_H-M "C C C 2"
_symmetry_group_IT_number 37
_symmetry_cell_setting 'orthorhombic'
loop_
_space_group_symop_operation_xyz
x,y,z
-x,-y,z
-x,y,1/2+z
x,-y,1/2+z
1/2+x,1/2+y,z
1/2-x,1/2-y,z
1/2-x,1/2+y,1/2+z
1/2+x,1/2-y,1/2+z
loop_
_atom_site_type_symbol
_atom_site_label
_atom_site_fract_x
_atom_site_fract_y
_atom_site_fract_z
Si Si1 0.292490 0.869026 0.447950
Si Si2 0.017719 0.173035 0.209051
Si Si3 0.380726 0.392475 0.219874
Si Si4 0.296279 0.845613 0.744639
Si Si5 0.523589 0.833024 0.947396
Si Si6 0.618272 0.329108 0.428752
O O1 0.250000 0.750000 0.432197
O O2 0.295983 0.916312 0.599074
O O3 0.336265 0.767300 0.417185
O O4 0.293873 0.019266 0.353207
O O5 0.070522 0.185706 0.236071
O O6 0.007851 0.291566 0.091555
O O7 0.993823 0.209211 0.342017
O O8 0.000000 0.000000 0.164856
O O9 0.339202 0.274512 0.253527
O O10 0.383258 0.548277 0.309938
O O11 0.379071 0.424051 0.065466
O O12 0.250000 0.750000 0.755925
O O13 0.500000 0.000000 0.912023
O O14 0.577064 0.797567 0.940207
#
# Coordination Sequence:
#
# PCOD9354709 Si02
#       6
#     8   8   8   8   8   8
#     4  10  22  40  61  89 124 154 197 248 303 363
#     4  11  22  40  61  86 118 162 206 249 301 365
#     4  10  22  38  60  88 117 154 203 246 296 361
#     4  10  22  40  62  89 121 156 198 249 299 363
#     4  11  24  39  59  87 123 159 202 254 306 359
#     4  10  22  40  59  89 119 156 200 250 300 363
#
# _framework density 18.563884000000002
#
# number of rings (size 3 to 8) (size 9 to 14) (size 15 to 20)
#    0.000    1.667    1.667    2.000    4.667    2.000 
#    3.000    0.000    0.000    0.000    0.000    0.000 
#    0.000    0.000    0.000    0.000    0.000    0.000 
#
# Total GULP energy -133759.766522 kJ/mol
# GULP energy per Si atom -5573.323605 kJ/mol
# Density = 1.852163 g / cm^3
# Si number density = 18.563884 Si / 1000 Ang^3
#
#
#
# Elastic Constant Matrix: (Units=GPa)
#
#
# Indices 1 2 3 4 5 6 
#
# 1 118.1165 25.5480 33.5959 0.0000 0.0000 0.0000
# 2 25.5480 71.7891 43.0939 0.0000 0.0000 0.0000
# 3 33.5959 43.0939 88.0409 0.0000 0.0000 0.0000
# 4 0.0000 0.0000 0.0000 38.3542 0.0000 0.0000
# 5 0.0000 0.0000 0.0000 0.0000 26.9032 0.0000
# 6 0.0000 0.0000 0.0000 0.0000 0.0000 17.2175
#
#
#
# Elastic Compliance Matrix: (Units=1/GPa)
#
#
# Indices 1 2 3 4 5 6 
#
# 1 0.009647 -0.001732 -0.002833 0.000000 0.000000 0.000000
# 2 -0.001732 0.020037 -0.009146 0.000000 0.000000 0.000000
# 3 -0.002833 -0.009146 0.016916 0.000000 0.000000 0.000000
# 4 0.000000 0.000000 0.000000 0.026073 0.000000 0.000000
# 5 0.000000 0.000000 0.000000 0.000000 0.037170 0.000000
# 6 0.000000 0.000000 0.000000 0.000000 0.000000 0.058081
#
#
# Mechanical properties :
#
#
# Convention : Reuss Voigt Hill
#
# Bulk Modulus (GPa) = 52.14864 53.60245 52.87555
# Shear Modulus (GPa) = 24.78445 28.20888 26.49667
#
# Velocity S-wave (km/s) = 3.65785 3.90238 3.78209
# Velocity P-wave (km/s) = 6.78176 7.01727 6.90052
#
# Compressibility (1/GPa) = 0.01917595
#
# Stress axis : x y z
#
# Youngs Moduli (GPa) = 103.66174 49.90860 59.11409
#
# Poissons Ratio (x) = 0.08646 0.16748
# Poissons Ratio (y) = 0.17957 0.54068
# Poissons Ratio (z) = 0.29370 0.45648
#
# Static dielectric constant tensor:
#      x y z
#    x 1.605550 0.000000 0.000000 
#    y 0.000000 1.636890 0.000000 
#    z 0.000000 0.000000 1.649450 
# 
# From -- ./inp_files/2380.got.cif
#   From: 2010.05.17/outbox.cif.g08.bks.cpg/sg37_2_cif.got.tgz:2380.got - 2010.06.03 17:53:42.
