data_PCOD9354603
_publ_section_title
;
Structure prediction by ZEFSAII (Michael W. Deem and Ramdas Pophale) SiO2 
 PCOD9354603
Probable space group: C C C 2
;
_chemical_formula_sum "Si O2"
_cell_formula_units_Z 64
_cell_length_a 20.151401
_cell_length_b 14.859064
_cell_length_c 9.376982
_cell_angle_alpha 90.000000
_cell_angle_beta 90.000000
_cell_angle_gamma 90.000000
_cell_volume 2807.758695
_symmetry_space_group_name_H-M "C C C 2"
_symmetry_group_IT_number 37
_symmetry_cell_setting 'orthorhombic'
loop_
_space_group_symop_operation_xyz
x,y,z
-x,-y,z
-x,y,1/2+z
x,-y,1/2+z
1/2+x,1/2+y,z
1/2-x,1/2-y,z
1/2-x,1/2+y,1/2+z
1/2+x,1/2-y,1/2+z
loop_
_atom_site_type_symbol
_atom_site_label
_atom_site_fract_x
_atom_site_fract_y
_atom_site_fract_z
Si Si1 0.128928 0.243292 0.113370
Si Si2 0.854520 0.446793 0.571832
Si Si3 0.548213 0.607508 0.272104
Si Si4 0.436433 0.936413 0.279565
Si Si5 0.717882 0.394921 0.460058
Si Si6 0.066985 0.762320 0.308175
Si Si7 0.392310 0.526250 0.037529
Si Si8 0.700032 0.320083 0.166798
O O1 0.139522 0.347917 0.143385
O O2 0.099588 0.188809 0.244894
O O3 0.193142 0.188892 0.056061
O O4 0.077625 0.235432 0.979074
O O5 0.899400 0.441875 0.430639
O O6 0.883526 0.526768 0.665661
O O7 0.777462 0.450691 0.529088
O O8 0.476979 0.654267 0.256680
O O9 0.443872 0.571166 0.930824
O O10 0.572179 0.530687 0.162199
O O11 0.460805 0.834076 0.261161
O O12 0.500000 0.000000 0.274258
O O13 0.651921 0.454953 0.448565
O O14 0.738079 0.361901 0.303593
O O15 0.139352 0.766534 0.239060
O O16 0.338269 0.600524 0.085786
O O17 0.750000 0.250000 0.091926
#
# Coordination Sequence:
#
# PCOD9354603 Si02
#       8
#     8   8   8   8   8   8   8   8
#     4   9  21  43  66 102 135 184 231 288 350 419
#     4  11  23  40  73  99 134 190 230 292 354 431
#     4  11  24  47  69 102 148 179 241 287 370 424
#     4  11  24  44  66 101 137 179 240 292 361 421
#     4  10  21  42  70 100 137 182 239 279 356 434
#     4  10  24  44  70  98 135 194 226 291 353 430
#     4  11  25  45  69 107 143 185 229 302 353 435
#     4  11  23  45  70 100 141 184 236 289 353 422
#
# _framework density 22.793980999999999
#
# number of rings (size 3 to 8) (size 9 to 14) (size 15 to 20)
#    0.000    1.500    1.250    3.750    5.250    1.500 
#    6.750    2.500    0.000    0.000    0.000    0.000 
#    0.000    0.000    0.000    0.000    0.000    0.000 
#
# Total GULP energy -178976.632810 kJ/mol
# GULP energy per Si atom -5593.019775 kJ/mol
# Density = 2.274210 g / cm^3
# Si number density = 22.793981 Si / 1000 Ang^3
#
#
#
# Elastic Constant Matrix: (Units=GPa)
#
#
# Indices 1 2 3 4 5 6 
#
# 1 118.6747 50.8695 20.1750 0.0000 0.0000 0.0000
# 2 50.8695 126.2553 35.3675 0.0000 0.0000 0.0000
# 3 20.1750 35.3675 56.0527 0.0000 0.0000 0.0000
# 4 0.0000 0.0000 0.0000 23.9761 0.0000 0.0000
# 5 0.0000 0.0000 0.0000 0.0000 17.9992 0.0000
# 6 0.0000 0.0000 0.0000 0.0000 0.0000 53.8800
#
#
#
# Elastic Compliance Matrix: (Units=1/GPa)
#
#
# Indices 1 2 3 4 5 6 
#
# 1 0.010265 -0.003767 -0.001318 0.000000 0.000000 0.000000
# 2 -0.003767 0.011003 -0.005587 0.000000 0.000000 0.000000
# 3 -0.001318 -0.005587 0.021840 0.000000 0.000000 0.000000
# 4 0.000000 0.000000 0.000000 0.041708 0.000000 0.000000
# 5 0.000000 0.000000 0.000000 0.000000 0.055558 0.000000
# 6 0.000000 0.000000 0.000000 0.000000 0.000000 0.018560
#
#
# Mechanical properties :
#
#
# Convention : Reuss Voigt Hill
#
# Bulk Modulus (GPa) = 45.94562 57.08965 51.51763
# Shear Modulus (GPa) = 26.66210 32.14245 29.40227
#
# Velocity S-wave (km/s) = 3.42380 3.75924 3.59543
# Velocity P-wave (km/s) = 5.98586 6.62894 6.31559
#
# Compressibility (1/GPa) = 0.02176486
#
# Stress axis : x y z
#
# Youngs Moduli (GPa) = 97.41809 90.88321 45.78773
#
# Poissons Ratio (x) = 0.34233 0.06035
# Poissons Ratio (y) = 0.36694 0.25581
# Poissons Ratio (z) = 0.12840 0.50776
#
# Static dielectric constant tensor:
#      x y z
#    x 1.847470 0.000000 0.000000 
#    y 0.000000 1.889800 0.000000 
#    z 0.000000 0.000000 1.825730 
# 
# From -- ./inp_files/8371.got.cif
#   From: 2010.05.17/outbox.cif.g08.bks.cpg/sg37_5_cif.got.tgz:8371.got - 2010.06.03 17:53:42.
