data_PCOD9354900
_publ_section_title
;
Structure prediction by ZEFSAII (Michael W. Deem and Ramdas Pophale) SiO2 
 PCOD9354900
Probable space group: C C C 2
;
_chemical_formula_sum "Si O2"
_cell_formula_units_Z 60
_cell_length_a 9.269024
_cell_length_b 11.870296
_cell_length_c 23.921324
_cell_angle_alpha 90.000000
_cell_angle_beta 90.000000
_cell_angle_gamma 90.000000
_cell_volume 2631.968994
_symmetry_space_group_name_H-M "C C C 2"
_symmetry_group_IT_number 37
_symmetry_cell_setting 'orthorhombic'
loop_
_space_group_symop_operation_xyz
x,y,z
-x,-y,z
-x,y,1/2+z
x,-y,1/2+z
1/2+x,1/2+y,z
1/2-x,1/2-y,z
1/2-x,1/2+y,1/2+z
1/2+x,1/2-y,1/2+z
loop_
_atom_site_type_symbol
_atom_site_label
_atom_site_fract_x
_atom_site_fract_y
_atom_site_fract_z
Si Si1 0.611288 0.681130 0.159180
Si Si2 0.594071 0.610202 0.393013
Si Si3 0.838381 0.458367 0.420270
Si Si4 0.553220 0.121520 0.218409
Si Si5 0.750000 0.750000 0.483669
Si Si6 0.833349 0.522197 0.538859
Si Si7 0.821854 0.942456 0.651464
Si Si8 0.402140 0.216481 0.830552
O O1 0.750000 0.750000 0.133135
O O2 0.547446 0.776126 0.199400
O O3 0.654771 0.559971 0.185817
O O4 0.460792 0.631951 0.132347
O O5 0.500000 0.500000 0.407118
O O6 0.749560 0.550643 0.384333
O O7 0.628560 0.694902 0.443702
O O8 0.511461 0.682624 0.345937
O O9 0.780855 0.453694 0.483875
O O10 0.852075 0.344064 0.387155
O O11 0.000000 0.500000 0.427744
O O12 0.708215 0.127808 0.187602
O O13 0.542105 0.128607 0.285370
O O14 0.500000 0.000000 0.198901
O O15 0.816314 0.651497 0.520172
O O16 0.742730 0.507297 0.594327
O O17 0.000000 0.500000 0.551035
O O18 0.250000 0.250000 0.803311
#
# Coordination Sequence:
#
# PCOD9354900 Si02
#       8
#     8   8   8   8   4   8   8   8
#     4  11  25  48  70 106 144 187 246 306 366 446
#     4  11  22  44  68  99 142 186 240 302 359 441
#     4  10  22  45  69  99 142 186 245 295 364 443
#     4  12  26  48  75 103 144 194 249 304 377 443
#     4  10  24  42  70 100 142 192 240 300 376 432
#     4  10  22  42  72 105 140 191 240 304 371 441
#     4  11  25  47  75 104 148 189 245 310 370 452
#     4  12  24  42  69 106 141 192 238 303 364 440
#
# _framework density 22.796620999999998
#
# number of rings (size 3 to 8) (size 9 to 14) (size 15 to 20)
#    0.000    1.067    2.667    4.400    1.867    1.067 
#   15.600    0.667    0.000    0.000    0.000    0.000 
#    0.000    0.000    0.000    0.000    0.000    0.000 
#
# Total GULP energy -167109.016366 kJ/mol
# GULP energy per Si atom -5570.300546 kJ/mol
# Density = 2.274474 g / cm^3
# Si number density = 22.796621 Si / 1000 Ang^3
#
#
#
# Elastic Constant Matrix: (Units=GPa)
#
#
# Indices 1 2 3 4 5 6 
#
# 1 114.4232 36.9391 36.1054 0.0000 0.0000 0.0000
# 2 36.9391 124.3724 38.6835 0.0000 0.0000 0.0000
# 3 36.1054 38.6835 77.1490 0.0000 0.0000 0.0000
# 4 0.0000 0.0000 0.0000 -10.5210 0.0000 0.0000
# 5 0.0000 0.0000 0.0000 0.0000 23.9385 0.0000
# 6 0.0000 0.0000 0.0000 0.0000 0.0000 52.3055
#
#
#
# Elastic Compliance Matrix: (Units=1/GPa)
#
#
# Indices 1 2 3 4 5 6 
#
# 1 0.010622 -0.001906 -0.004015 0.000000 0.000000 0.000000
# 2 -0.001906 0.009868 -0.004056 0.000000 0.000000 0.000000
# 3 -0.004015 -0.004056 0.016875 0.000000 0.000000 0.000000
# 4 0.000000 0.000000 0.000000 -0.095048 0.000000 0.000000
# 5 0.000000 0.000000 0.000000 0.000000 0.041774 0.000000
# 6 0.000000 0.000000 0.000000 0.000000 0.000000 0.019118
#
#
# Mechanical properties :
#
#
# Convention : Reuss Voigt Hill
#
# Bulk Modulus (GPa) = 57.43752 59.93338 58.68545
# Shear Modulus (GPa) = 172.61692 26.75906 99.68799
#
# Velocity S-wave (km/s) = 8.71119 3.42982 6.61999
# Velocity P-wave (km/s) = 11.24411 6.48324 9.17776
#
# Compressibility (1/GPa) = 0.01741022
#
# Stress axis : x y z
#
# Youngs Moduli (GPa) = 94.14645 101.33826 59.25989
#
# Poissons Ratio (x) = 0.19313 0.23795
# Poissons Ratio (y) = 0.17943 0.24036
# Poissons Ratio (z) = 0.37803 0.41103
#
# Static dielectric constant tensor:
#      x y z
#    x 1.971320 0.000000 0.000000 
#    y 0.000000 1.901380 0.000000 
#    z 0.000000 0.000000 1.844150 
# 
# From -- ./inp_files/19688.got.cif
#   From: 2010.05.17/outbox.cif.g08.bks.cpg/sg37_10_cif.got.tgz:19688.got - 2010.06.03 17:53:42.
