data_PCOD9354552
_publ_section_title
;
Structure prediction by ZEFSAII (Michael W. Deem and Ramdas Pophale) SiO2 
 PCOD9354552
Probable space group: C C C 2
;
_chemical_formula_sum "Si O2"
_cell_formula_units_Z 64
_cell_length_a 23.898593
_cell_length_b 11.451516
_cell_length_c 10.940876
_cell_angle_alpha 90.000000
_cell_angle_beta 90.000000
_cell_angle_gamma 90.000000
_cell_volume 2994.245553
_symmetry_space_group_name_H-M "C C C 2"
_symmetry_group_IT_number 37
_symmetry_cell_setting 'orthorhombic'
loop_
_space_group_symop_operation_xyz
x,y,z
-x,-y,z
-x,y,1/2+z
x,-y,1/2+z
1/2+x,1/2+y,z
1/2-x,1/2-y,z
1/2-x,1/2+y,1/2+z
1/2+x,1/2-y,1/2+z
loop_
_atom_site_type_symbol
_atom_site_label
_atom_site_fract_x
_atom_site_fract_y
_atom_site_fract_z
Si Si1 0.049604 0.223245 0.629180
Si Si2 0.613293 0.040301 0.058840
Si Si3 0.072923 0.295736 0.076850
Si Si4 0.630485 0.425977 0.994211
Si Si5 0.798944 0.040004 0.211285
Si Si6 0.842021 0.218485 0.775848
Si Si7 0.817015 0.470170 0.801574
Si Si8 0.889469 0.163149 0.356137
O O1 0.082460 0.337367 0.580894
O O2 0.080363 0.106612 0.583699
O O3 0.059090 0.210177 0.774858
O O4 0.986883 0.234679 0.582288
O O5 0.569126 0.933738 0.057058
O O6 0.647111 0.014943 0.185056
O O7 0.651092 0.028630 0.933790
O O8 0.104251 0.261152 0.200784
O O9 0.113354 0.248920 0.970002
O O10 0.640591 0.314315 0.911496
O O11 0.609091 0.534597 0.915377
O O12 0.688755 0.446266 0.066665
O O13 0.821336 0.906989 0.228575
O O14 0.740454 0.040228 0.282054
O O15 0.835806 0.145007 0.269468
O O16 0.803666 0.332924 0.776954
#
# Coordination Sequence:
#
# PCOD9354552 Si02
#       8
#     8   8   8   8   8   8   8   8
#     4  11  24  44  68  97 133 186 227 281 350 401
#     4  11  25  45  67 102 138 175 241 285 327 427
#     4  11  24  42  69  97 136 183 222 285 349 396
#     4  10  21  43  66  98 141 172 230 282 335 422
#     4  10  22  42  68  98 134 179 218 278 349 408
#     4  10  21  41  63  98 135 174 223 279 325 420
#     4  11  24  42  71  99 138 180 229 278 350 397
#     4  10  23  43  64  99 140 163 231 283 328 422
#
# _framework density 21.374331999999999
#
# number of rings (size 3 to 8) (size 9 to 14) (size 15 to 20)
#    0.000    1.500    2.500    1.500    5.250    0.500 
#    2.250    8.125    0.000    0.000    0.000    0.000 
#    0.000    0.000    0.000    0.000    0.000    0.000 
#
# Total GULP energy -178187.339447 kJ/mol
# GULP energy per Si atom -5568.354358 kJ/mol
# Density = 2.132568 g / cm^3
# Si number density = 21.374332 Si / 1000 Ang^3
#
#
#
# Elastic Constant Matrix: (Units=GPa)
#
#
# Indices 1 2 3 4 5 6 
#
# 1 49.9180 10.7394 32.5722 0.0000 0.0000 0.0000
# 2 10.7394 49.1436 8.4562 0.0000 0.0000 0.0000
# 3 32.5722 8.4562 101.8759 0.0000 0.0000 0.0000
# 4 0.0000 0.0000 0.0000 -0.4725 0.0000 0.0000
# 5 0.0000 0.0000 0.0000 0.0000 3.1537 0.0000
# 6 0.0000 0.0000 0.0000 0.0000 0.0000 43.5620
#
#
#
# Elastic Compliance Matrix: (Units=1/GPa)
#
#
# Indices 1 2 3 4 5 6 
#
# 1 0.026198 -0.004346 -0.008015 0.000000 0.000000 0.000000
# 2 -0.004346 0.021364 -0.000384 0.000000 0.000000 0.000000
# 3 -0.008015 -0.000384 0.012410 0.000000 0.000000 0.000000
# 4 0.000000 0.000000 0.000000 -2.116538 0.000000 0.000000
# 5 0.000000 0.000000 0.000000 0.000000 0.317090 0.000000
# 6 0.000000 0.000000 0.000000 0.000000 0.000000 0.022956
#
#
# Mechanical properties :
#
#
# Convention : Reuss Voigt Hill
#
# Bulk Modulus (GPa) = 29.00023 33.83035 31.41529
# Shear Modulus (GPa) = -2.97701 19.19327 8.10813
#
# Velocity S-wave (km/s) = -1.18145 2.99985 1.94978
# Velocity P-wave (km/s) = 3.42581 5.27832 4.44954
#
# Compressibility (1/GPa) = 0.03448248
#
# Stress axis : x y z
#
# Youngs Moduli (GPa) = 38.17082 46.80705 80.57721
#
# Poissons Ratio (x) = 0.20342 0.64586
# Poissons Ratio (y) = 0.16588 0.03093
# Poissons Ratio (z) = 0.30596 0.01797
#
# Static dielectric constant tensor:
#      x y z
#    x 1.816960 0.000000 0.000000 
#    y 0.000000 1.776520 0.000000 
#    z 0.000000 0.000000 1.879630 
# 
# From -- ./inp_files/8919.got.cif
#   From: 2010.05.17/outbox.cif.g08.bks.cpg/sg37_5_cif.got.tgz:8919.got - 2010.06.03 17:53:42.
