data_PCOD9354135
_publ_section_title
;
Structure prediction by ZEFSAII (Michael W. Deem and Ramdas Pophale) SiO2 
 PCOD9354135
Probable space group: C C C 2
;
_chemical_formula_sum "Si O2"
_cell_formula_units_Z 52
_cell_length_a 9.006098
_cell_length_b 30.850658
_cell_length_c 9.437754
_cell_angle_alpha 90.000000
_cell_angle_beta 90.000000
_cell_angle_gamma 90.000000
_cell_volume 2622.223788
_symmetry_space_group_name_H-M "C C C 2"
_symmetry_group_IT_number 37
_symmetry_cell_setting 'orthorhombic'
loop_
_space_group_symop_operation_xyz
x,y,z
-x,-y,z
-x,y,1/2+z
x,-y,1/2+z
1/2+x,1/2+y,z
1/2-x,1/2-y,z
1/2-x,1/2+y,1/2+z
1/2+x,1/2-y,1/2+z
loop_
_atom_site_type_symbol
_atom_site_label
_atom_site_fract_x
_atom_site_fract_y
_atom_site_fract_z
Si Si1 0.090849 0.827077 0.303320
Si Si2 0.356923 0.873439 0.187343
Si Si3 0.782264 0.867311 0.386959
Si Si4 0.095551 0.441554 0.265912
Si Si5 0.872841 0.309613 0.689849
Si Si6 0.000000 0.500000 0.519695
Si Si7 0.073247 0.785281 0.573291
O O1 0.246072 0.851572 0.299699
O O2 0.074646 0.785176 0.405001
O O3 0.953863 0.856896 0.355582
O O4 0.062318 0.810099 0.144625
O O5 0.439985 0.915518 0.247189
O O6 0.490131 0.840029 0.152945
O O7 0.263415 0.881285 0.044664
O O8 0.721476 0.905211 0.283794
O O9 0.684394 0.824383 0.345226
O O10 0.087200 0.469038 0.410440
O O11 0.101846 0.471986 0.127459
O O12 0.913222 0.260441 0.651080
O O13 0.718450 0.314366 0.605539
#
# Coordination Sequence:
#
# PCOD9354135 Si02
#       7
#     8   8   8   8   8   4   8
#     4  11  23  39  59  84 124 163 216 249 316 360
#     4  11  22  38  63  93 116 169 206 254 308 382
#     4  10  21  41  58  90 122 165 203 260 301 378
#     4  10  21  38  69  94 128 150 202 244 308 369
#     4   9  23  36  59  81 122 155 219 257 315 351
#     4  10  20  38  64 106 120 154 188 258 300 374
#     4  10  22  39  54  85 120 165 202 276 306 355
#
# _framework density 19.830497999999999
#
# number of rings (size 3 to 8) (size 9 to 14) (size 15 to 20)
#    0.000    1.846    3.077    0.000    6.462    3.077 
#    0.000    0.000    0.000    5.538    0.000    0.000 
#    0.000    0.000    0.000    0.000    0.000    0.000 
#
# Total GULP energy -144807.293876 kJ/mol
# GULP energy per Si atom -5569.511303 kJ/mol
# Density = 1.978536 g / cm^3
# Si number density = 19.830498 Si / 1000 Ang^3
#
#
#
# Elastic Constant Matrix: (Units=GPa)
#
#
# Indices 1 2 3 4 5 6 
#
# 1 34.1059 25.5819 -10.4760 0.0000 0.0000 0.0000
# 2 25.5819 91.9837 31.8277 0.0000 0.0000 0.0000
# 3 -10.4760 31.8277 91.7503 0.0000 0.0000 0.0000
# 4 0.0000 0.0000 0.0000 31.6671 0.0000 0.0000
# 5 0.0000 0.0000 0.0000 0.0000 11.2410 0.0000
# 6 0.0000 0.0000 0.0000 0.0000 0.0000 19.2921
#
#
#
# Elastic Compliance Matrix: (Units=1/GPa)
#
#
# Indices 1 2 3 4 5 6 
#
# 1 0.044714 -0.016139 0.010704 0.000000 0.000000 0.000000
# 2 -0.016139 0.018180 -0.008149 0.000000 0.000000 0.000000
# 3 0.010704 -0.008149 0.014948 0.000000 0.000000 0.000000
# 4 0.000000 0.000000 0.000000 0.031578 0.000000 0.000000
# 5 0.000000 0.000000 0.000000 0.000000 0.088960 0.000000
# 6 0.000000 0.000000 0.000000 0.000000 0.000000 0.051835
#
#
# Mechanical properties :
#
#
# Convention : Reuss Voigt Hill
#
# Bulk Modulus (GPa) = 19.73440 34.63412 27.18426
# Shear Modulus (GPa) = 16.99089 23.83379 20.41234
#
# Velocity S-wave (km/s) = 2.93030 3.47057 3.21181
# Velocity P-wave (km/s) = 4.62839 5.79334 5.24332
#
# Compressibility (1/GPa) = 0.05067295
#
# Stress axis : x y z
#
# Youngs Moduli (GPa) = 22.36442 55.00615 66.89745
#
# Poissons Ratio (x) = 0.88776 -0.71607
# Poissons Ratio (y) = 0.36095 0.54516
# Poissons Ratio (z) = -0.23939 0.44826
#
# Static dielectric constant tensor:
#      x y z
#    x 1.686660 0.000000 0.000000 
#    y 0.000000 1.729950 0.000000 
#    z 0.000000 0.000000 1.779940 
# 
# From -- ./inp_files/6576.got.cif
#   From: 2010.05.17/outbox.cif.g08.bks.cpg/sg37_4_cif.got.tgz:6576.got - 2010.06.03 17:53:42.
