data_PCOD9354478
_publ_section_title
;
Structure prediction by ZEFSAII (Michael W. Deem and Ramdas Pophale) SiO2 
 PCOD9354478
Probable space group: C C C 2
;
_chemical_formula_sum "Si O2"
_cell_formula_units_Z 44
_cell_length_a 14.049075
_cell_length_b 5.445726
_cell_length_c 25.547381
_cell_angle_alpha 90.000000
_cell_angle_beta 90.000000
_cell_angle_gamma 90.000000
_cell_volume 1954.564029
_symmetry_space_group_name_H-M "C C C 2"
_symmetry_group_IT_number 37
_symmetry_cell_setting 'orthorhombic'
loop_
_space_group_symop_operation_xyz
x,y,z
-x,-y,z
-x,y,1/2+z
x,-y,1/2+z
1/2+x,1/2+y,z
1/2-x,1/2-y,z
1/2-x,1/2+y,1/2+z
1/2+x,1/2-y,1/2+z
loop_
_atom_site_type_symbol
_atom_site_label
_atom_site_fract_x
_atom_site_fract_y
_atom_site_fract_z
Si Si1 0.438388 0.750782 0.377060
Si Si2 0.750000 0.750000 0.540301
Si Si3 0.855686 0.370305 0.590814
Si Si4 0.137269 0.743959 0.260914
Si Si5 0.895161 0.115002 0.487241
Si Si6 0.366662 0.254387 0.204385
O O1 0.500000 0.500000 0.375037
O O2 0.383652 0.750928 0.322356
O O3 0.378361 0.737623 0.430849
O O4 0.500000 0.000000 0.379821
O O5 0.830557 0.652449 0.580611
O O6 0.691653 0.565306 0.502885
O O7 0.750000 0.250000 0.590253
O O8 0.903838 0.290994 0.537210
O O9 0.901140 0.289178 0.644904
O O10 0.250000 0.750000 0.253508
O O11 0.104364 0.484033 0.237537
O O12 0.103820 0.989397 0.230704
O O13 0.000000 0.000000 0.483054
O O14 0.250000 0.250000 0.202555
#
# Coordination Sequence:
#
# PCOD9354478 Si02
#       6
#     8   4   8   8   8   8
#     4  11  25  45  66  88 133 176 211 276 337 388
#     4  10  22  40  68  94 130 178 218 272 336 422
#     4   9  20  36  63  95 128 169 216 266 333 399
#     4  10  21  39  64  95 121 168 219 264 316 390
#     4  10  24  42  65  96 132 174 223 277 339 397
#     4   9  19  35  63  94 129 162 210 269 322 382
#
# _framework density 22.511417000000002
#
# number of rings (size 3 to 8) (size 9 to 14) (size 15 to 20)
#    0.000    2.182    0.000    1.091   14.000    2.182 
#    4.909    2.727    4.000    0.000    0.000    0.000 
#    0.000    0.000    0.000    0.000    0.000    0.000 
#
# Total GULP energy -122760.216426 kJ/mol
# GULP energy per Si atom -5580.009838 kJ/mol
# Density = 2.246018 g / cm^3
# Si number density = 22.511417 Si / 1000 Ang^3
#
#
#
# Elastic Constant Matrix: (Units=GPa)
#
#
# Indices 1 2 3 4 5 6 
#
# 1 66.5934 19.8577 19.4601 0.0000 0.0000 0.0000
# 2 19.8577 149.1153 80.0394 0.0000 0.0000 0.0000
# 3 19.4601 80.0394 222.9137 0.0000 0.0000 0.0000
# 4 0.0000 0.0000 0.0000 5.7665 0.0000 0.0000
# 5 0.0000 0.0000 0.0000 0.0000 59.1612 0.0000
# 6 0.0000 0.0000 0.0000 0.0000 0.0000 4.3989
#
#
#
# Elastic Compliance Matrix: (Units=1/GPa)
#
#
# Indices 1 2 3 4 5 6 
#
# 1 0.015743 -0.001683 -0.000770 0.000000 0.000000 0.000000
# 2 -0.001683 0.008487 -0.002900 0.000000 0.000000 0.000000
# 3 -0.000770 -0.002900 0.005595 0.000000 0.000000 0.000000
# 4 0.000000 0.000000 0.000000 0.173417 0.000000 0.000000
# 5 0.000000 0.000000 0.000000 0.000000 0.016903 0.000000
# 6 0.000000 0.000000 0.000000 0.000000 0.000000 0.227328
#
#
# Mechanical properties :
#
#
# Convention : Reuss Voigt Hill
#
# Bulk Modulus (GPa) = 52.30693 75.25965 63.78329
# Shear Modulus (GPa) = 10.76301 35.14967 22.95634
#
# Velocity S-wave (km/s) = 2.18895 3.95576 3.19684
# Velocity P-wave (km/s) = 5.44746 7.37349 6.48241
#
# Compressibility (1/GPa) = 0.01911793
#
# Stress axis : x y z
#
# Youngs Moduli (GPa) = 63.51853 117.82384 178.74030
#
# Poissons Ratio (x) = 0.19833 0.13763
# Poissons Ratio (y) = 0.10692 0.51843
# Poissons Ratio (z) = 0.04891 0.34175
#
# Static dielectric constant tensor:
#      x y z
#    x 1.878460 0.000000 0.000000 
#    y 0.000000 1.960010 0.000000 
#    z 0.000000 0.000000 1.826020 
# 
# From -- ./inp_files/19827.got.cif
#   From: 2010.05.17/outbox.cif.g08.bks.cpg/sg37_10_cif.got.tgz:19827.got - 2010.06.03 17:53:42.
