data_PCOD9354147
_publ_section_title
;
Structure prediction by ZEFSAII (Michael W. Deem and Ramdas Pophale) SiO2 
 PCOD9354147
Probable space group: C C C 2
;
_chemical_formula_sum "Si O2"
_cell_formula_units_Z 56
_cell_length_a 10.376418
_cell_length_b 10.548103
_cell_length_c 23.252168
_cell_angle_alpha 90.000000
_cell_angle_beta 90.000000
_cell_angle_gamma 90.000000
_cell_volume 2544.985267
_symmetry_space_group_name_H-M "C C C 2"
_symmetry_group_IT_number 37
_symmetry_cell_setting 'orthorhombic'
loop_
_space_group_symop_operation_xyz
x,y,z
-x,-y,z
-x,y,1/2+z
x,-y,1/2+z
1/2+x,1/2+y,z
1/2-x,1/2-y,z
1/2-x,1/2+y,1/2+z
1/2+x,1/2-y,1/2+z
loop_
_atom_site_type_symbol
_atom_site_label
_atom_site_fract_x
_atom_site_fract_y
_atom_site_fract_z
Si Si1 0.243429 0.399179 0.955420
Si Si2 0.148657 0.134031 0.604731
Si Si3 0.828346 0.119827 0.227579
Si Si4 0.386476 0.087384 0.200012
Si Si5 0.000000 0.000000 0.516678
Si Si6 0.320090 0.113596 0.076096
Si Si7 0.250000 0.250000 0.285312
Si Si8 0.643814 0.496255 0.846934
O O1 0.250000 0.250000 0.945301
O O2 0.246315 0.459988 0.892111
O O3 0.375446 0.455285 0.982088
O O4 0.143448 0.414661 0.009296
O O5 0.250000 0.250000 0.599107
O O6 0.089658 0.135831 0.669043
O O7 0.228334 0.004498 0.593152
O O8 0.040195 0.120335 0.556508
O O9 0.750000 0.250000 0.231725
O O10 0.737497 0.001756 0.210089
O O11 0.874865 0.085276 0.290722
O O12 0.410068 0.119236 0.132792
O O13 0.361781 0.204126 0.241698
O O14 0.500000 0.000000 0.221655
O O15 0.250000 0.250000 0.075085
O O16 0.308366 0.361052 0.323944
O O17 0.500000 0.500000 0.873177
#
# Coordination Sequence:
#
# PCOD9354147 Si02
#       8
#     8   8   8   8   4   8   4   8
#     4  10  21  42  64  90 127 171 222 267 312 381
#     4   9  19  37  58  93 128 158 210 266 327 390
#     4   9  20  37  55  96 125 154 206 268 311 378
#     4  10  20  38  65  92 131 163 203 265 337 387
#     4  10  20  40  66  86 124 180 202 266 340 378
#     4   9  18  38  60  85 128 167 205 264 322 379
#     4  10  24  44  64  98 132 160 216 280 316 386
#     4  11  23  41  68  90 120 179 215 256 326 381
#
# _framework density 22.004057
#
# number of rings (size 3 to 8) (size 9 to 14) (size 15 to 20)
#    0.000    2.286    1.429    0.429    3.000    0.000 
#   28.286    0.000    0.000    0.000    0.000    0.000 
#    0.000    0.000    0.000    0.000    0.000    0.000 
#
# Total GULP energy -155910.320060 kJ/mol
# GULP energy per Si atom -5568.225716 kJ/mol
# Density = 2.195398 g / cm^3
# Si number density = 22.004057 Si / 1000 Ang^3
#
#
#
# Elastic Constant Matrix: (Units=GPa)
#
#
# Indices 1 2 3 4 5 6 
#
# 1 24.2628 12.6842 15.4717 0.0000 0.0000 0.0000
# 2 12.6842 118.8797 54.1059 0.0000 0.0000 0.0000
# 3 15.4717 54.1059 149.1018 0.0000 0.0000 0.0000
# 4 0.0000 0.0000 0.0000 9.2863 0.0000 0.0000
# 5 0.0000 0.0000 0.0000 0.0000 21.1630 0.0000
# 6 0.0000 0.0000 0.0000 0.0000 0.0000 31.2252
#
#
#
# Elastic Compliance Matrix: (Units=1/GPa)
#
#
# Indices 1 2 3 4 5 6 
#
# 1 0.045139 -0.003216 -0.003517 0.000000 0.000000 0.000000
# 2 -0.003216 0.010305 -0.003406 0.000000 0.000000 0.000000
# 3 -0.003517 -0.003406 0.008308 0.000000 0.000000 0.000000
# 4 0.000000 0.000000 0.000000 0.107686 0.000000 0.000000
# 5 0.000000 0.000000 0.000000 0.000000 0.047252 0.000000
# 6 0.000000 0.000000 0.000000 0.000000 0.000000 0.032025
#
#
# Mechanical properties :
#
#
# Convention : Reuss Voigt Hill
#
# Bulk Modulus (GPa) = 23.00172 50.75202 36.87687
# Shear Modulus (GPa) = 17.51413 26.33374 21.92393
#
# Velocity S-wave (km/s) = 2.82432 3.46319 3.15994
# Velocity P-wave (km/s) = 4.59476 6.25352 5.48718
#
# Compressibility (1/GPa) = 0.04347501
#
# Stress axis : x y z
#
# Youngs Moduli (GPa) = 22.15373 97.03980 120.37053
#
# Poissons Ratio (x) = 0.31203 0.42335
# Poissons Ratio (y) = 0.07124 0.40996
# Poissons Ratio (z) = 0.07792 0.33050
#
# Static dielectric constant tensor:
#      x y z
#    x 1.895480 0.000000 0.000000 
#    y 0.000000 1.800280 0.000000 
#    z 0.000000 0.000000 1.912620 
# 
# From -- ./inp_files/16881.got.cif
#   From: 2010.05.17/outbox.cif.g08.bks.cpg/sg37_9_cif.got.tgz:16881.got - 2010.06.03 17:53:42.
