data_PCOD9354501
_publ_section_title
;
Structure prediction by ZEFSAII (Michael W. Deem and Ramdas Pophale) SiO2 
 PCOD9354501
Probable space group: C C C 2
;
_chemical_formula_sum "Si O2"
_cell_formula_units_Z 64
_cell_length_a 14.245720
_cell_length_b 8.478056
_cell_length_c 24.976820
_cell_angle_alpha 90.000000
_cell_angle_beta 90.000000
_cell_angle_gamma 90.000000
_cell_volume 3016.600710
_symmetry_space_group_name_H-M "C C C 2"
_symmetry_group_IT_number 37
_symmetry_cell_setting 'orthorhombic'
loop_
_space_group_symop_operation_xyz
x,y,z
-x,-y,z
-x,y,1/2+z
x,-y,1/2+z
1/2+x,1/2+y,z
1/2-x,1/2-y,z
1/2-x,1/2+y,1/2+z
1/2+x,1/2-y,1/2+z
loop_
_atom_site_type_symbol
_atom_site_label
_atom_site_fract_x
_atom_site_fract_y
_atom_site_fract_z
Si Si1 0.772076 0.935269 0.895990
Si Si2 0.437836 0.663399 0.093462
Si Si3 0.580276 0.130311 0.884095
Si Si4 0.774363 0.934318 0.777140
Si Si5 0.789164 0.001906 0.657662
Si Si6 0.410518 0.610877 0.972912
Si Si7 0.581391 0.871729 0.269788
Si Si8 0.396305 0.816553 0.649389
O O1 0.750000 0.750000 0.903588
O O2 0.818792 0.951433 0.836394
O O3 0.677683 0.037430 0.890721
O O4 0.828643 0.007833 0.945491
O O5 0.500000 0.500000 0.097307
O O6 0.344904 0.638217 0.129028
O O7 0.509287 0.799860 0.114079
O O8 0.401096 0.676749 0.032808
O O9 0.570683 0.249277 0.932063
O O10 0.573535 0.217081 0.826297
O O11 0.500000 0.000000 0.885494
O O12 0.750000 0.750000 0.772456
O O13 0.816953 0.984464 0.720395
O O14 0.680008 0.038520 0.775740
O O15 0.676989 0.034804 0.649221
O O16 0.835124 0.162774 0.635746
O O17 0.500000 0.500000 0.974804
O O18 0.576352 0.794803 0.211886
O O19 0.500000 0.000000 0.269599
#
# Coordination Sequence:
#
# PCOD9354501 Si02
#       8
#     8   8   8   8   8   8   8   8
#     4  10  21  40  63  92 124 165 204 259 328 376
#     4   9  20  39  57  84 119 158 205 260 299 371
#     4  10  21  40  62  90 128 161 208 260 309 383
#     4   9  19  33  55  85 120 148 188 247 309 380
#     4   9  18  35  57  86 112 154 200 246 311 374
#     4  11  23  41  61  89 126 166 218 258 309 375
#     4   9  19  33  56  84 116 155 186 242 318 365
#     4   9  18  35  58  84 115 153 199 248 311 370
#
# _framework density 21.215933
#
# number of rings (size 3 to 8) (size 9 to 14) (size 15 to 20)
#    0.000    2.500    0.000    1.125    3.500    1.000 
#    9.000    1.875    0.000    0.000    0.000    0.000 
#    0.000    0.000    0.000    0.000    0.000    0.000 
#
# Total GULP energy -178265.928714 kJ/mol
# GULP energy per Si atom -5570.810272 kJ/mol
# Density = 2.116764 g / cm^3
# Si number density = 21.215933 Si / 1000 Ang^3
#
#
#
# Elastic Constant Matrix: (Units=GPa)
#
#
# Indices 1 2 3 4 5 6 
#
# 1 77.5162 15.7810 75.1833 0.0000 0.0000 0.0000
# 2 15.7810 55.5106 33.9520 0.0000 0.0000 0.0000
# 3 75.1833 33.9520 174.0889 0.0000 0.0000 0.0000
# 4 0.0000 0.0000 0.0000 39.1337 0.0000 0.0000
# 5 0.0000 0.0000 0.0000 0.0000 95.4866 0.0000
# 6 0.0000 0.0000 0.0000 0.0000 0.0000 24.0184
#
#
#
# Elastic Compliance Matrix: (Units=1/GPa)
#
#
# Indices 1 2 3 4 5 6 
#
# 1 0.022212 -0.000508 -0.009493 0.000000 0.000000 0.000000
# 2 -0.000508 0.020466 -0.003772 0.000000 0.000000 0.000000
# 3 -0.009493 -0.003772 0.010580 0.000000 0.000000 0.000000
# 4 0.000000 0.000000 0.000000 0.025553 0.000000 0.000000
# 5 0.000000 0.000000 0.000000 0.000000 0.010473 0.000000
# 6 0.000000 0.000000 0.000000 0.000000 0.000000 0.041635
#
#
# Mechanical properties :
#
#
# Convention : Reuss Voigt Hill
#
# Bulk Modulus (GPa) = 38.89459 61.88313 50.38886
# Shear Modulus (GPa) = 29.93377 43.87437 36.90407
#
# Velocity S-wave (km/s) = 3.76028 4.55245 4.17520
# Velocity P-wave (km/s) = 6.10127 7.54086 6.85894
#
# Compressibility (1/GPa) = 0.02571052
#
# Stress axis : x y z
#
# Youngs Moduli (GPa) = 45.02143 48.86133 94.52041
#
# Poissons Ratio (x) = 0.02482 0.89732
# Poissons Ratio (y) = 0.02287 0.35653
# Poissons Ratio (z) = 0.42741 0.18431
#
# Static dielectric constant tensor:
#      x y z
#    x 1.347670 0.000000 0.000000 
#    y 0.000000 1.763330 0.000000 
#    z 0.000000 0.000000 1.796860 
# 
# From -- ./inp_files/18882.got.cif
#   From: 2010.05.17/outbox.cif.g08.bks.cpg/sg37_10_cif.got.tgz:18882.got - 2010.06.03 17:53:42.
