data_PCOD9354555
_publ_section_title
;
Structure prediction by ZEFSAII (Michael W. Deem and Ramdas Pophale) SiO2 
 PCOD9354555
Probable space group: C C C 2
;
_chemical_formula_sum "Si O2"
_cell_formula_units_Z 64
_cell_length_a 11.058857
_cell_length_b 8.806984
_cell_length_c 31.138413
_cell_angle_alpha 90.000000
_cell_angle_beta 90.000000
_cell_angle_gamma 90.000000
_cell_volume 3032.731235
_symmetry_space_group_name_H-M "C C C 2"
_symmetry_group_IT_number 37
_symmetry_cell_setting 'orthorhombic'
loop_
_space_group_symop_operation_xyz
x,y,z
-x,-y,z
-x,y,1/2+z
x,-y,1/2+z
1/2+x,1/2+y,z
1/2-x,1/2-y,z
1/2-x,1/2+y,1/2+z
1/2+x,1/2-y,1/2+z
loop_
_atom_site_type_symbol
_atom_site_label
_atom_site_fract_x
_atom_site_fract_y
_atom_site_fract_z
Si Si1 0.191273 0.094193 0.452860
Si Si2 0.883851 0.175938 0.300282
Si Si3 0.131516 0.847105 0.659597
Si Si4 0.903457 0.370457 0.479176
Si Si5 0.623644 0.685903 0.626486
Si Si6 0.117246 0.826493 0.398149
Si Si7 0.371040 0.656682 0.761311
Si Si8 0.034210 0.831717 0.036401
O O1 0.250000 0.250000 0.436131
O O2 0.114590 0.147073 0.493870
O O3 0.281583 0.963363 0.470876
O O4 0.127124 0.999136 0.415222
O O5 0.750000 0.250000 0.294992
O O6 0.927348 0.186261 0.349795
O O7 0.999176 0.233450 0.272587
O O8 0.867492 0.000881 0.286968
O O9 0.250000 0.750000 0.648929
O O10 0.131954 0.877978 0.710534
O O11 0.002922 0.769196 0.648783
O O12 0.134579 0.005197 0.634061
O O13 0.938380 0.275060 0.436377
O O14 0.000000 0.500000 0.486747
O O15 0.917292 0.260252 0.519863
O O16 0.750000 0.750000 0.643425
O O17 0.605124 0.734637 0.576771
O O18 0.250000 0.750000 0.395235
O O19 0.250000 0.750000 0.771707
O O20 0.000000 0.000000 0.050003
#
# Coordination Sequence:
#
# PCOD9354555 Si02
#       8
#     8   8   8   8   8   8   8   8
#     4  11  22  39  59  86 120 167 222 268 318 382
#     4  10  21  41  64  94 132 167 210 268 322 377
#     4  10  23  45  67  94 130 167 207 262 325 391
#     4  11  23  40  59  85 122 168 214 265 313 372
#     4  11  24  43  64  97 129 163 213 265 323 387
#     4   9  21  39  58  87 122 164 215 266 321 367
#     4  10  23  42  66  97 129 165 212 259 323 397
#     4  12  23  40  62  88 124 168 217 267 324 376
#
# _framework density 21.103089000000001
#
# number of rings (size 3 to 8) (size 9 to 14) (size 15 to 20)
#    0.000    1.500    3.750    1.875    0.000    6.500 
#    6.750    2.500    0.000    0.000    0.000    0.000 
#    0.000    0.000    0.000    0.000    0.000    0.000 
#
# Total GULP energy -178503.197282 kJ/mol
# GULP energy per Si atom -5578.224915 kJ/mol
# Density = 2.105506 g / cm^3
# Si number density = 21.103089 Si / 1000 Ang^3
#
#
#
# Elastic Constant Matrix: (Units=GPa)
#
#
# Indices 1 2 3 4 5 6 
#
# 1 144.6016 41.3569 30.3641 0.0000 0.0000 0.0000
# 2 41.3569 83.0288 26.1737 0.0000 0.0000 0.0000
# 3 30.3641 26.1737 84.1803 0.0000 0.0000 0.0000
# 4 0.0000 0.0000 0.0000 6.7099 0.0000 0.0000
# 5 0.0000 0.0000 0.0000 0.0000 33.7425 0.0000
# 6 0.0000 0.0000 0.0000 0.0000 0.0000 34.9501
#
#
#
# Elastic Compliance Matrix: (Units=1/GPa)
#
#
# Indices 1 2 3 4 5 6 
#
# 1 0.008330 -0.003550 -0.001901 0.000000 0.000000 0.000000
# 2 -0.003550 0.014866 -0.003342 0.000000 0.000000 0.000000
# 3 -0.001901 -0.003342 0.013604 0.000000 0.000000 0.000000
# 4 0.000000 0.000000 0.000000 0.149035 0.000000 0.000000
# 5 0.000000 0.000000 0.000000 0.000000 0.029636 0.000000
# 6 0.000000 0.000000 0.000000 0.000000 0.000000 0.028612
#
#
# Mechanical properties :
#
#
# Convention : Reuss Voigt Hill
#
# Bulk Modulus (GPa) = 52.04365 56.40002 54.22184
# Shear Modulus (GPa) = 18.65168 29.34157 23.99662
#
# Velocity S-wave (km/s) = 2.97616 3.73284 3.37577
# Velocity P-wave (km/s) = 6.04361 6.73519 6.39875
#
# Compressibility (1/GPa) = 0.01921464
#
# Stress axis : x y z
#
# Youngs Moduli (GPa) = 120.04765 67.26916 73.50827
#
# Poissons Ratio (x) = 0.23880 0.13973
# Poissons Ratio (y) = 0.42617 0.24564
# Poissons Ratio (z) = 0.22820 0.22479
#
# Static dielectric constant tensor:
#      x y z
#    x 1.867850 0.000000 0.000000 
#    y 0.000000 1.769240 0.000000 
#    z 0.000000 0.000000 1.747020 
# 
# From -- ./inp_files/20412.got.cif
#   From: 2010.05.17/outbox.cif.g08.bks.cpg/sg37_11_cif.got.tgz:20412.got - 2010.06.03 17:53:42.
