data_PCOD9354272
_publ_section_title
;
Structure prediction by ZEFSAII (Michael W. Deem and Ramdas Pophale) SiO2 
 PCOD9354272
Probable space group: C C C 2
;
_chemical_formula_sum "Si O2"
_cell_formula_units_Z 48
_cell_length_a 7.665972
_cell_length_b 14.778517
_cell_length_c 21.599963
_cell_angle_alpha 90.000000
_cell_angle_beta 90.000000
_cell_angle_gamma 90.000000
_cell_volume 2447.096475
_symmetry_space_group_name_H-M "C C C 2"
_symmetry_group_IT_number 37
_symmetry_cell_setting 'orthorhombic'
loop_
_space_group_symop_operation_xyz
x,y,z
-x,-y,z
-x,y,1/2+z
x,-y,1/2+z
1/2+x,1/2+y,z
1/2-x,1/2-y,z
1/2-x,1/2+y,1/2+z
1/2+x,1/2-y,1/2+z
loop_
_atom_site_type_symbol
_atom_site_label
_atom_site_fract_x
_atom_site_fract_y
_atom_site_fract_z
Si Si1 0.412853 0.680643 0.180580
Si Si2 0.625702 0.669018 0.922730
Si Si3 0.250000 0.750000 0.749093
Si Si4 0.111427 0.169847 0.534558
Si Si5 0.716158 0.608864 0.346081
Si Si6 0.310765 0.983253 0.963938
Si Si7 0.000000 0.000000 0.754355
O O1 0.250000 0.750000 0.191896
O O2 0.587375 0.725328 0.207224
O O3 0.426709 0.665529 0.107040
O O4 0.421067 0.582557 0.214241
O O5 0.750000 0.750000 0.900461
O O6 0.460843 0.650979 0.877158
O O7 0.722594 0.574262 0.937580
O O8 0.547245 0.694958 0.989735
O O9 0.192894 0.673816 0.797685
O O10 0.250000 0.250000 0.525221
O O11 0.188345 0.074410 0.509607
O O12 0.832845 0.579396 0.403238
O O13 0.650570 0.529930 0.301582
O O14 0.500000 0.000000 0.992388
#
# Coordination Sequence:
#
# PCOD9354272 Si02
#       7
#     8   8   4   8   8   8   4
#     4  10  24  44  68  93 131 174 225 275 335 401
#     4  11  23  37  65  93 127 175 209 269 341 389
#     4  10  24  40  68  92 130 174 218 276 332 402
#     4  10  22  42  63  91 131 164 219 273 324 399
#     4  10  21  40  59  89 129 159 216 260 324 398
#     4  11  23  38  61  98 129 164 217 266 333 404
#     4  10  20  42  64  90 124 174 216 270 328 390
#
# _framework density 19.615082999999998
#
# number of rings (size 3 to 8) (size 9 to 14) (size 15 to 20)
#    0.000    1.667    1.667    2.500   10.500    4.000 
#    0.000    2.500    0.000    0.000    0.000    0.000 
#    0.000    0.000    0.000    0.000    0.000    0.000 
#
# Total GULP energy -133843.764900 kJ/mol
# GULP energy per Si atom -5576.823537 kJ/mol
# Density = 1.957044 g / cm^3
# Si number density = 19.615083 Si / 1000 Ang^3
#
#
#
# Elastic Constant Matrix: (Units=GPa)
#
#
# Indices 1 2 3 4 5 6 
#
# 1 52.2775 30.2629 34.0172 0.0000 0.0000 0.0000
# 2 30.2629 90.8334 43.9377 0.0000 0.0000 0.0000
# 3 34.0172 43.9377 117.5322 0.0000 0.0000 0.0000
# 4 0.0000 0.0000 0.0000 32.7565 0.0000 0.0000
# 5 0.0000 0.0000 0.0000 0.0000 18.0808 0.0000
# 6 0.0000 0.0000 0.0000 0.0000 0.0000 32.1352
#
#
#
# Elastic Compliance Matrix: (Units=1/GPa)
#
#
# Indices 1 2 3 4 5 6 
#
# 1 0.026113 -0.006158 -0.005256 0.000000 0.000000 0.000000
# 2 -0.006158 0.014891 -0.003785 0.000000 0.000000 0.000000
# 3 -0.005256 -0.003785 0.011444 0.000000 0.000000 0.000000
# 4 0.000000 0.000000 0.000000 0.030528 0.000000 0.000000
# 5 0.000000 0.000000 0.000000 0.000000 0.055307 0.000000
# 6 0.000000 0.000000 0.000000 0.000000 0.000000 0.031118
#
#
# Mechanical properties :
#
#
# Convention : Reuss Voigt Hill
#
# Bulk Modulus (GPa) = 45.34665 53.00875 49.17770
# Shear Modulus (GPa) = 24.13698 26.75621 25.44659
#
# Velocity S-wave (km/s) = 3.51170 3.69733 3.60571
# Velocity P-wave (km/s) = 6.29374 6.73128 6.51618
#
# Compressibility (1/GPa) = 0.02205235
#
# Stress axis : x y z
#
# Youngs Moduli (GPa) = 38.29449 67.15248 87.37895
#
# Poissons Ratio (x) = 0.41351 0.45926
# Poissons Ratio (y) = 0.23581 0.33071
# Poissons Ratio (z) = 0.20128 0.25415
#
# Static dielectric constant tensor:
#      x y z
#    x 1.675120 0.000000 0.000000 
#    y 0.000000 1.624070 0.000000 
#    z 0.000000 0.000000 1.651160 
# 
# From -- ./inp_files/16319.got.cif
#   From: 2010.05.17/outbox.cif.g08.bks.cpg/sg37_9_cif.got.tgz:16319.got - 2010.06.03 17:53:42.
