data_PCOD9354767
_publ_section_title
;
Structure prediction by ZEFSAII (Michael W. Deem and Ramdas Pophale) SiO2 
 PCOD9354767
Probable space group: C C C 2
;
_chemical_formula_sum "Si O2"
_cell_formula_units_Z 56
_cell_length_a 5.476278
_cell_length_b 14.089378
_cell_length_c 32.524041
_cell_angle_alpha 90.000000
_cell_angle_beta 90.000000
_cell_angle_gamma 90.000000
_cell_volume 2509.468840
_symmetry_space_group_name_H-M "C C C 2"
_symmetry_group_IT_number 37
_symmetry_cell_setting 'orthorhombic'
loop_
_space_group_symop_operation_xyz
x,y,z
-x,-y,z
-x,y,1/2+z
x,-y,1/2+z
1/2+x,1/2+y,z
1/2-x,1/2-y,z
1/2-x,1/2+y,1/2+z
1/2+x,1/2-y,1/2+z
loop_
_atom_site_type_symbol
_atom_site_label
_atom_site_fract_x
_atom_site_fract_y
_atom_site_fract_z
Si Si1 0.869483 0.853619 0.364610
Si Si2 0.501758 0.688966 0.540952
Si Si3 0.375617 0.653849 0.705941
Si Si4 0.000000 0.500000 0.675821
Si Si5 0.997205 0.187799 0.451308
Si Si6 0.500000 0.000000 0.329453
Si Si7 0.118204 0.897958 0.127970
Si Si8 0.862311 0.898848 0.784074
O O1 0.750000 0.750000 0.368053
O O2 0.999240 0.868857 0.408549
O O3 0.029264 0.845083 0.323372
O O4 0.693038 0.943675 0.357106
O O5 0.750000 0.750000 0.538283
O O6 0.484260 0.638554 0.496273
O O7 0.556692 0.629865 0.581866
O O8 0.250000 0.750000 0.546022
O O9 0.250000 0.750000 0.719490
O O10 0.195481 0.561473 0.702531
O O11 0.489734 0.669465 0.660926
O O12 0.588790 0.638233 0.739063
O O13 0.112255 0.419775 0.645124
O O14 0.750000 0.250000 0.449669
O O15 0.250000 0.250000 0.452014
O O16 0.590561 0.080744 0.298074
O O17 0.000000 0.000000 0.134604
O O18 0.000000 0.000000 0.785152
#
# Coordination Sequence:
#
# PCOD9354767 Si02
#       8
#     8   8   8   4   8   4   8   8
#     4  10  22  39  68  93 127 174 219 275 339 404
#     4  10  22  40  68  97 131 174 226 277 333 405
#     4  11  24  42  65  94 125 173 228 274 341 406
#     4  10  24  43  63  90 134 174 215 288 336 407
#     4   9  20  39  66  99 130 173 224 278 337 402
#     4  10  24  43  61  94 132 170 219 278 340 411
#     4  10  23  39  61  92 131 173 217 276 337 401
#     4  10  22  41  62  92 128 169 217 277 333 403
#
# _framework density 22.315479
#
# number of rings (size 3 to 8) (size 9 to 14) (size 15 to 20)
#    0.000    2.000    0.000    2.143   10.000    5.143 
#    0.000    7.143    0.000    0.000    0.000    0.000 
#    0.000    0.000    0.000    0.000    0.000    0.000 
#
# Total GULP energy -156026.087724 kJ/mol
# GULP energy per Si atom -5572.360276 kJ/mol
# Density = 2.226469 g / cm^3
# Si number density = 22.315479 Si / 1000 Ang^3
#
#
#
# Elastic Constant Matrix: (Units=GPa)
#
#
# Indices 1 2 3 4 5 6 
#
# 1 93.2739 16.0646 34.7806 0.0000 0.0000 0.0000
# 2 16.0646 53.6098 29.9059 0.0000 0.0000 0.0000
# 3 34.7806 29.9059 190.7974 0.0000 0.0000 0.0000
# 4 0.0000 0.0000 0.0000 11.0160 0.0000 0.0000
# 5 0.0000 0.0000 0.0000 0.0000 69.8842 0.0000
# 6 0.0000 0.0000 0.0000 0.0000 0.0000 20.8734
#
#
#
# Elastic Compliance Matrix: (Units=1/GPa)
#
#
# Indices 1 2 3 4 5 6 
#
# 1 0.011816 -0.002563 -0.001752 0.000000 0.000000 0.000000
# 2 -0.002563 0.020997 -0.002824 0.000000 0.000000 0.000000
# 3 -0.001752 -0.002824 0.006003 0.000000 0.000000 0.000000
# 4 0.000000 0.000000 0.000000 0.090777 0.000000 0.000000
# 5 0.000000 0.000000 0.000000 0.000000 0.014309 0.000000
# 6 0.000000 0.000000 0.000000 0.000000 0.000000 0.047908
#
#
# Mechanical properties :
#
#
# Convention : Reuss Voigt Hill
#
# Bulk Modulus (GPa) = 40.75434 55.46482 48.10958
# Shear Modulus (GPa) = 23.33532 37.48338 30.40935
#
# Velocity S-wave (km/s) = 3.23724 4.10286 3.69548
# Velocity P-wave (km/s) = 5.68115 6.88139 6.30987
#
# Compressibility (1/GPa) = 0.02453727
#
# Stress axis : x y z
#
# Youngs Moduli (GPa) = 84.63130 47.62661 166.57866
#
# Poissons Ratio (x) = 0.12208 0.29187
# Poissons Ratio (y) = 0.21694 0.47038
# Poissons Ratio (z) = 0.14829 0.13449
#
# Static dielectric constant tensor:
#      x y z
#    x 1.940230 0.000000 0.000000 
#    y 0.000000 1.970880 0.000000 
#    z 0.000000 0.000000 1.872320 
# 
# From -- ./inp_files/20209.got.cif
#   From: 2010.05.17/outbox.cif.g08.bks.cpg/sg37_11_cif.got.tgz:20209.got - 2010.06.03 17:53:42.
