data_PCOD9354399
_publ_section_title
;
Structure prediction by ZEFSAII (Michael W. Deem and Ramdas Pophale) SiO2 
 PCOD9354399
Probable space group: C C C 2
;
_chemical_formula_sum "Si O2"
_cell_formula_units_Z 64
_cell_length_a 18.743617
_cell_length_b 13.140694
_cell_length_c 12.061748
_cell_angle_alpha 90.000000
_cell_angle_beta 90.000000
_cell_angle_gamma 90.000000
_cell_volume 2970.858413
_symmetry_space_group_name_H-M "C C C 2"
_symmetry_group_IT_number 37
_symmetry_cell_setting 'orthorhombic'
loop_
_space_group_symop_operation_xyz
x,y,z
-x,-y,z
-x,y,1/2+z
x,-y,1/2+z
1/2+x,1/2+y,z
1/2-x,1/2-y,z
1/2-x,1/2+y,1/2+z
1/2+x,1/2-y,1/2+z
loop_
_atom_site_type_symbol
_atom_site_label
_atom_site_fract_x
_atom_site_fract_y
_atom_site_fract_z
Si Si1 0.202520 0.833320 0.680580
Si Si2 0.048184 0.238891 0.588180
Si Si3 0.802514 0.161163 0.161813
Si Si4 0.428739 0.232542 0.254613
Si Si5 0.320579 0.515728 0.346342
Si Si6 0.068227 0.429428 0.434351
Si Si7 0.448838 0.417102 0.423806
Si Si8 0.714455 0.014008 0.527695
O O1 0.250000 0.750000 0.743895
O O2 0.128828 0.771191 0.662910
O O3 0.182727 0.925698 0.758524
O O4 0.254192 0.883849 0.587893
O O5 0.131810 0.210869 0.596449
O O6 0.041588 0.336381 0.510381
O O7 0.018552 0.134364 0.533065
O O8 0.006133 0.267816 0.698485
O O9 0.750000 0.250000 0.196008
O O10 0.836895 0.112105 0.271591
O O11 0.754583 0.079080 0.093043
O O12 0.408832 0.128242 0.319341
O O13 0.432313 0.321654 0.346226
O O14 0.377164 0.482820 0.439282
O O15 0.245478 0.523860 0.404620
O O16 0.131570 0.486283 0.503701
O O17 0.000000 0.500000 0.412031
O O18 0.500000 0.500000 0.369436
#
# Coordination Sequence:
#
# PCOD9354399 Si02
#       8
#     8   8   8   8   8   8   8   8
#     4  10  23  41  66  96 128 176 225 281 342 403
#     4  11  23  41  69  95 136 178 226 283 339 423
#     4  11  22  40  67 100 129 178 229 283 349 408
#     4  10  24  43  64 102 136 177 230 284 348 412
#     4  10  22  38  63  98 128 168 221 278 346 401
#     4  11  26  46  69  98 136 190 229 278 343 418
#     4  10  21  37  63  93 133 176 214 277 346 411
#     4  11  23  43  68  98 133 176 233 284 343 410
#
# _framework density 21.542594999999999
#
# number of rings (size 3 to 8) (size 9 to 14) (size 15 to 20)
#    0.000    1.500    2.500    1.500    3.500    4.000 
#    0.000    0.000    0.000    0.000    0.000    0.000 
#    0.000    0.000    0.000    0.000    0.000    0.000 
#
# Total GULP energy -178135.655432 kJ/mol
# GULP energy per Si atom -5566.739232 kJ/mol
# Density = 2.149356 g / cm^3
# Si number density = 21.542595 Si / 1000 Ang^3
#
#
#
# Elastic Constant Matrix: (Units=GPa)
#
#
# Indices 1 2 3 4 5 6 
#
# 1 78.9117 46.9899 20.6738 0.0000 0.0000 0.0000
# 2 46.9899 99.7690 18.0875 0.0000 0.0000 0.0000
# 3 20.6738 18.0875 42.1748 0.0000 0.0000 0.0000
# 4 0.0000 0.0000 0.0000 -3.6539 0.0000 0.0000
# 5 0.0000 0.0000 0.0000 0.0000 35.7463 0.0000
# 6 0.0000 0.0000 0.0000 0.0000 0.0000 25.2950
#
#
#
# Elastic Compliance Matrix: (Units=1/GPa)
#
#
# Indices 1 2 3 4 5 6 
#
# 1 0.018874 -0.007820 -0.005898 0.000000 0.000000 0.000000
# 2 -0.007820 0.014108 -0.002217 0.000000 0.000000 0.000000
# 3 -0.005898 -0.002217 0.027553 0.000000 0.000000 0.000000
# 4 0.000000 0.000000 0.000000 -0.273679 0.000000 0.000000
# 5 0.000000 0.000000 0.000000 0.000000 0.027975 0.000000
# 6 0.000000 0.000000 0.000000 0.000000 0.000000 0.039533
#
#
# Mechanical properties :
#
#
# Convention : Reuss Voigt Hill
#
# Bulk Modulus (GPa) = 34.88651 43.59531 39.24091
# Shear Modulus (GPa) = -47.98088 20.48444 -13.74822
#
# Velocity S-wave (km/s) = -4.72450 3.08698 -2.52898
# Velocity P-wave (km/s) = 3.67857 5.74340 3.11888
#
# Compressibility (1/GPa) = 0.02866437
#
# Stress axis : x y z
#
# Youngs Moduli (GPa) = 52.98168 70.87983 36.29369
#
# Poissons Ratio (x) = 0.55430 0.21407
# Poissons Ratio (y) = 0.41433 0.08047
# Poissons Ratio (z) = 0.31250 0.15715
#
# Static dielectric constant tensor:
#      x y z
#    x 1.841220 0.000000 0.000000 
#    y 0.000000 1.794900 0.000000 
#    z 0.000000 0.000000 1.810430 
# 
# From -- ./inp_files/12703.got.cif
#   From: 2010.05.17/outbox.cif.g08.bks.cpg/sg37_7_cif.got.tgz:12703.got - 2010.06.03 17:53:42.
