data_PCOD9354081
_publ_section_title
;
Structure prediction by ZEFSAII (Michael W. Deem and Ramdas Pophale) SiO2 
 PCOD9354081
Probable space group: C C C 2
;
_chemical_formula_sum "Si O2"
_cell_formula_units_Z 60
_cell_length_a 22.566073
_cell_length_b 8.566838
_cell_length_c 15.473440
_cell_angle_alpha 90.000000
_cell_angle_beta 90.000000
_cell_angle_gamma 90.000000
_cell_volume 2991.323745
_symmetry_space_group_name_H-M "C C C 2"
_symmetry_group_IT_number 37
_symmetry_cell_setting 'orthorhombic'
loop_
_space_group_symop_operation_xyz
x,y,z
-x,-y,z
-x,y,1/2+z
x,-y,1/2+z
1/2+x,1/2+y,z
1/2-x,1/2-y,z
1/2-x,1/2+y,1/2+z
1/2+x,1/2-y,1/2+z
loop_
_atom_site_type_symbol
_atom_site_label
_atom_site_fract_x
_atom_site_fract_y
_atom_site_fract_z
Si Si1 0.139470 0.764050 0.136720
Si Si2 0.625386 0.741851 0.927836
Si Si3 0.068336 0.459083 0.503860
Si Si4 0.804977 0.041795 0.989303
Si Si5 0.750000 0.750000 0.744202
Si Si6 0.069004 0.962526 0.277978
Si Si7 0.713194 0.988747 0.855718
Si Si8 0.625270 0.242834 0.854669
O O1 0.192990 0.691275 0.191668
O O2 0.096177 0.862309 0.199334
O O3 0.101956 0.643188 0.077507
O O4 0.178619 0.883175 0.079341
O O5 0.666673 0.627862 0.982503
O O6 0.583035 0.638965 0.865393
O O7 0.667857 0.848030 0.869593
O O8 0.595033 0.869478 0.988269
O O9 0.080101 0.361766 0.413546
O O10 0.000000 0.500000 0.521651
O O11 0.840369 0.149732 0.922532
O O12 0.739075 0.036999 0.949667
O O13 0.764660 0.906384 0.800435
O O14 0.097518 0.134523 0.289085
O O15 0.000000 0.000000 0.268303
O O16 0.675741 0.129336 0.817039
#
# Coordination Sequence:
#
# PCOD9354081 Si02
#       8
#     8   8   8   8   4   8   8   8
#     4  11  26  40  59  97 132 173 206 274 347 394
#     4  10  20  39  64  91 116 168 226 262 315 389
#     4  10  22  42  64  93 126 169 228 274 320 391
#     4  10  20  37  61  90 126 164 213 261 327 395
#     4  12  22  42  62  88 140 160 212 272 338 384
#     4  11  22  44  65  94 136 176 218 275 338 395
#     4  11  19  39  65  90 126 168 217 274 314 399
#     4   9  21  37  66  95 116 168 234 259 322 394
#
# _framework density 20.058008000000001
#
# number of rings (size 3 to 8) (size 9 to 14) (size 15 to 20)
#    0.000    1.600    2.667    2.000    5.600    1.067 
#    4.800    2.000    0.000    0.000    0.000    0.000 
#    0.000    0.000    0.000    0.000    0.000    0.000 
#
# Total GULP energy -167146.766420 kJ/mol
# GULP energy per Si atom -5571.558881 kJ/mol
# Density = 2.001235 g / cm^3
# Si number density = 20.058008 Si / 1000 Ang^3
#
#
#
# Elastic Constant Matrix: (Units=GPa)
#
#
# Indices 1 2 3 4 5 6 
#
# 1 113.2783 51.3447 33.5889 0.0000 0.0000 0.0000
# 2 51.3447 132.2451 32.2697 0.0000 0.0000 0.0000
# 3 33.5889 32.2697 65.2018 0.0000 0.0000 0.0000
# 4 0.0000 0.0000 0.0000 19.6288 0.0000 0.0000
# 5 0.0000 0.0000 0.0000 0.0000 25.0212 0.0000
# 6 0.0000 0.0000 0.0000 0.0000 0.0000 39.8075
#
#
#
# Elastic Compliance Matrix: (Units=1/GPa)
#
#
# Indices 1 2 3 4 5 6 
#
# 1 0.011681 -0.003488 -0.004291 0.000000 0.000000 0.000000
# 2 -0.003488 0.009642 -0.002975 0.000000 0.000000 0.000000
# 3 -0.004291 -0.002975 0.019020 0.000000 0.000000 0.000000
# 4 0.000000 0.000000 0.000000 0.050945 0.000000 0.000000
# 5 0.000000 0.000000 0.000000 0.000000 0.039966 0.000000
# 6 0.000000 0.000000 0.000000 0.000000 0.000000 0.025121
#
#
# Mechanical properties :
#
#
# Convention : Reuss Voigt Hill
#
# Bulk Modulus (GPa) = 53.09460 60.57021 56.83240
# Shear Modulus (GPa) = 27.14987 29.79298 28.47143
#
# Velocity S-wave (km/s) = 3.68308 3.85819 3.77165
# Velocity P-wave (km/s) = 6.67943 7.07889 6.88205
#
# Compressibility (1/GPa) = 0.01883431
#
# Stress axis : x y z
#
# Youngs Moduli (GPa) = 85.60677 103.71322 52.57596
#
# Poissons Ratio (x) = 0.36177 0.22562
# Poissons Ratio (y) = 0.29861 0.15642
# Poissons Ratio (z) = 0.36736 0.30855
#
# Static dielectric constant tensor:
#      x y z
#    x 1.769340 0.000000 0.000000 
#    y 0.000000 1.734000 0.000000 
#    z 0.000000 0.000000 1.833760 
# 
# From -- ./inp_files/13142.got.cif
#   From: 2010.05.17/outbox.cif.g08.bks.cpg/sg37_7_cif.got.tgz:13142.got - 2010.06.03 17:53:42.
