data_PCOD9354495
_publ_section_title
;
Structure prediction by ZEFSAII (Michael W. Deem and Ramdas Pophale) SiO2 
 PCOD9354495
Probable space group: C C C 2
;
_chemical_formula_sum "Si O2"
_cell_formula_units_Z 44
_cell_length_a 6.612777
_cell_length_b 13.820105
_cell_length_c 24.002447
_cell_angle_alpha 90.000000
_cell_angle_beta 90.000000
_cell_angle_gamma 90.000000
_cell_volume 2193.566169
_symmetry_space_group_name_H-M "C C C 2"
_symmetry_group_IT_number 37
_symmetry_cell_setting 'orthorhombic'
loop_
_space_group_symop_operation_xyz
x,y,z
-x,-y,z
-x,y,1/2+z
x,-y,1/2+z
1/2+x,1/2+y,z
1/2-x,1/2-y,z
1/2-x,1/2+y,1/2+z
1/2+x,1/2-y,1/2+z
loop_
_atom_site_type_symbol
_atom_site_label
_atom_site_fract_x
_atom_site_fract_y
_atom_site_fract_z
Si Si1 0.581083 0.890772 0.094120
Si Si2 0.250000 0.750000 0.920167
Si Si3 0.572977 0.110747 0.468263
Si Si4 0.131261 0.844074 0.696201
Si Si5 0.500000 0.500000 0.277743
Si Si6 0.250000 0.750000 0.144741
Si Si7 0.076464 0.897788 0.383801
O O1 0.756305 0.872193 0.138892
O O2 0.397598 0.818221 0.108840
O O3 0.500000 0.000000 0.098955
O O4 0.653191 0.875692 0.030848
O O5 0.384814 0.819666 0.957970
O O6 0.399799 0.681242 0.885196
O O7 0.736554 0.133320 0.420967
O O8 0.500000 0.000000 0.462157
O O9 0.250000 0.750000 0.718186
O O10 0.901475 0.814511 0.682008
O O11 0.134018 0.932203 0.738898
O O12 0.621894 0.430478 0.320524
O O13 0.000000 0.000000 0.409854
#
# Coordination Sequence:
#
# PCOD9354495 Si02
#       7
#     8   4   8   8   4   4   8
#     4  10  22  38  66  95 130 167 205 259 319 385
#     4  12  23  42  70  92 134 176 211 268 332 388
#     4  11  22  43  65 100 134 169 216 267 325 397
#     4  10  22  41  63  94 124 165 216 259 323 382
#     4  10  22  44  64  88 122 168 216 276 316 374
#     4  10  21  40  58  96 128 164 209 256 322 392
#     4  10  24  43  64  94 127 170 222 267 323 382
#
# _framework density 20.058661000000001
#
# number of rings (size 3 to 8) (size 9 to 14) (size 15 to 20)
#    0.545    1.091    1.818    2.182    1.273    5.818 
#    4.909    8.182    0.000    0.000    0.000    0.000 
#    0.000    0.000    0.000    0.000    0.000    0.000 
#
# Total GULP energy -122822.668118 kJ/mol
# GULP energy per Si atom -5582.848551 kJ/mol
# Density = 2.001301 g / cm^3
# Si number density = 20.058661 Si / 1000 Ang^3
#
#
#
# Elastic Constant Matrix: (Units=GPa)
#
#
# Indices 1 2 3 4 5 6 
#
# 1 101.8966 40.6792 65.6088 0.0000 0.0000 0.0000
# 2 40.6792 126.4385 60.7353 0.0000 0.0000 0.0000
# 3 65.6088 60.7353 140.7661 0.0000 0.0000 0.0000
# 4 0.0000 0.0000 0.0000 -79.4985 0.0000 0.0000
# 5 0.0000 0.0000 0.0000 0.0000 30.4318 0.0000
# 6 0.0000 0.0000 0.0000 0.0000 0.0000 27.8105
#
#
#
# Elastic Compliance Matrix: (Units=1/GPa)
#
#
# Indices 1 2 3 4 5 6 
#
# 1 0.014329 -0.001769 -0.005915 0.000000 0.000000 0.000000
# 2 -0.001769 0.010195 -0.003574 0.000000 0.000000 0.000000
# 3 -0.005915 -0.003574 0.011403 0.000000 0.000000 0.000000
# 4 0.000000 0.000000 0.000000 -0.012579 0.000000 0.000000
# 5 0.000000 0.000000 0.000000 0.000000 0.032860 0.000000
# 6 0.000000 0.000000 0.000000 0.000000 0.000000 0.035958
#
#
# Mechanical properties :
#
#
# Convention : Reuss Voigt Hill
#
# Bulk Modulus (GPa) = 74.56964 78.12756 76.34860
# Shear Modulus (GPa) = 41.96294 9.22061 25.59178
#
# Velocity S-wave (km/s) = 4.57881 2.14635 3.57577
# Velocity P-wave (km/s) = 8.07530 6.72135 7.42923
#
# Compressibility (1/GPa) = 0.01341028
#
# Stress axis : x y z
#
# Youngs Moduli (GPa) = 69.79046 98.08735 87.69428
#
# Poissons Ratio (x) = 0.17347 0.51874
# Poissons Ratio (y) = 0.12343 0.31346
# Poissons Ratio (z) = 0.41283 0.35061
#
# Static dielectric constant tensor:
#      x y z
#    x 1.692690 0.000000 0.000000 
#    y 0.000000 1.751570 0.000000 
#    z 0.000000 0.000000 1.694970 
# 
# From -- ./inp_files/19294.got.cif
#   From: 2010.05.17/outbox.cif.g08.bks.cpg/sg37_10_cif.got.tgz:19294.got - 2010.06.03 17:53:42.
