data_PCOD9354550
_publ_section_title
;
Structure prediction by ZEFSAII (Michael W. Deem and Ramdas Pophale) SiO2 
 PCOD9354550
Probable space group: C C C 2
;
_chemical_formula_sum "Si O2"
_cell_formula_units_Z 56
_cell_length_a 25.475321
_cell_length_b 8.639724
_cell_length_c 13.100820
_cell_angle_alpha 90.000000
_cell_angle_beta 90.000000
_cell_angle_gamma 90.000000
_cell_volume 2883.487105
_symmetry_space_group_name_H-M "C C C 2"
_symmetry_group_IT_number 37
_symmetry_cell_setting 'orthorhombic'
loop_
_space_group_symop_operation_xyz
x,y,z
-x,-y,z
-x,y,1/2+z
x,-y,1/2+z
1/2+x,1/2+y,z
1/2-x,1/2-y,z
1/2-x,1/2+y,1/2+z
1/2+x,1/2-y,1/2+z
loop_
_atom_site_type_symbol
_atom_site_label
_atom_site_fract_x
_atom_site_fract_y
_atom_site_fract_z
Si Si1 0.312299 0.762979 0.856170
Si Si2 0.012434 0.340581 0.484963
Si Si3 0.879376 0.471192 0.264096
Si Si4 0.040939 0.714542 0.684882
Si Si5 0.447312 0.305877 0.828888
Si Si6 0.127941 0.738390 0.070054
Si Si7 0.620254 0.532565 0.219816
O O1 0.250000 0.750000 0.856404
O O2 0.335542 0.632296 0.778169
O O3 0.333355 0.928950 0.814696
O O4 0.334367 0.748563 0.971942
O O5 0.070595 0.296818 0.520261
O O6 0.000000 0.500000 0.424614
O O7 0.975043 0.363381 0.581266
O O8 0.986053 0.202040 0.423042
O O9 0.927124 0.592767 0.252174
O O10 0.903222 0.328976 0.328534
O O11 0.864028 0.399829 0.153341
O O12 0.081616 0.850323 0.662976
O O13 0.987178 0.773787 0.735122
O O14 0.415882 0.460894 0.809328
O O15 0.132432 0.892920 0.141176
#
# Coordination Sequence:
#
# PCOD9354550 Si02
#       7
#     8   8   8   8   8   8   8
#     4  11  26  47  67  86 118 165 218 281 331 359
#     4  12  20  32  61  93 130 174 201 234 301 379
#     4  10  21  41  63  90 124 165 213 256 300 381
#     4  11  19  35  56  90 131 166 194 229 301 383
#     4  11  21  35  59  90 131 166 202 249 297 380
#     4  11  23  41  66  97 127 164 214 256 309 382
#     4  10  24  41  59  93 128 163 207 258 314 377
#
# _framework density 19.420929000000001
#
# number of rings (size 3 to 8) (size 9 to 14) (size 15 to 20)
#    0.000    1.143    4.286    4.286    2.000    1.143 
#    0.000    2.143    0.000    0.000    0.000    0.000 
#    0.000    0.000    0.000    0.000    0.000    0.000 
#
# Total GULP energy -156153.229045 kJ/mol
# GULP energy per Si atom -5576.901037 kJ/mol
# Density = 1.937673 g / cm^3
# Si number density = 19.420929 Si / 1000 Ang^3
#
#
#
# Elastic Constant Matrix: (Units=GPa)
#
#
# Indices 1 2 3 4 5 6 
#
# 1 136.9751 53.7513 55.8672 0.0000 0.0000 0.0000
# 2 53.7513 85.9562 31.8530 0.0000 0.0000 0.0000
# 3 55.8672 31.8530 89.0449 0.0000 0.0000 0.0000
# 4 0.0000 0.0000 0.0000 24.7083 0.0000 0.0000
# 5 0.0000 0.0000 0.0000 0.0000 26.1416 0.0000
# 6 0.0000 0.0000 0.0000 0.0000 0.0000 17.6262
#
#
#
# Elastic Compliance Matrix: (Units=1/GPa)
#
#
# Indices 1 2 3 4 5 6 
#
# 1 0.011543 -0.005227 -0.005372 0.000000 0.000000 0.000000
# 2 -0.005227 0.015779 -0.002365 0.000000 0.000000 0.000000
# 3 -0.005372 -0.002365 0.015447 0.000000 0.000000 0.000000
# 4 0.000000 0.000000 0.000000 0.040472 0.000000 0.000000
# 5 0.000000 0.000000 0.000000 0.000000 0.038253 0.000000
# 6 0.000000 0.000000 0.000000 0.000000 0.000000 0.056734
#
#
# Mechanical properties :
#
#
# Convention : Reuss Voigt Hill
#
# Bulk Modulus (GPa) = 59.38222 66.10214 62.74218
# Shear Modulus (GPa) = 23.83560 25.06220 24.44890
#
# Velocity S-wave (km/s) = 3.50711 3.59621 3.55194
# Velocity P-wave (km/s) = 6.85875 7.16618 7.01415
#
# Compressibility (1/GPa) = 0.01684006
#
# Stress axis : x y z
#
# Youngs Moduli (GPa) = 86.63197 63.37525 64.73858
#
# Poissons Ratio (x) = 0.33129 0.34779
# Poissons Ratio (y) = 0.45287 0.15309
# Poissons Ratio (z) = 0.46541 0.14986
#
# Static dielectric constant tensor:
#      x y z
#    x 1.631990 0.000000 0.000000 
#    y 0.000000 1.726580 0.000000 
#    z 0.000000 0.000000 1.742570 
# 
# From -- ./inp_files/12919.got.cif
#   From: 2010.05.17/outbox.cif.g08.bks.cpg/sg37_7_cif.got.tgz:12919.got - 2010.06.03 17:53:42.
