data_PCOD9354205
_publ_section_title
;
Structure prediction by ZEFSAII (Michael W. Deem and Ramdas Pophale) SiO2 
 PCOD9354205
Probable space group: C C C 2
;
_chemical_formula_sum "Si O2"
_cell_formula_units_Z 40
_cell_length_a 9.112123
_cell_length_b 11.665645
_cell_length_c 17.458409
_cell_angle_alpha 90.000000
_cell_angle_beta 90.000000
_cell_angle_gamma 90.000000
_cell_volume 1855.807789
_symmetry_space_group_name_H-M "C C C 2"
_symmetry_group_IT_number 37
_symmetry_cell_setting 'orthorhombic'
loop_
_space_group_symop_operation_xyz
x,y,z
-x,-y,z
-x,y,1/2+z
x,-y,1/2+z
1/2+x,1/2+y,z
1/2-x,1/2-y,z
1/2-x,1/2+y,1/2+z
1/2+x,1/2-y,1/2+z
loop_
_atom_site_type_symbol
_atom_site_label
_atom_site_fract_x
_atom_site_fract_y
_atom_site_fract_z
Si Si1 0.981568 0.821449 0.928800
Si Si2 0.424334 0.765636 0.778825
Si Si3 0.250000 0.750000 0.030642
Si Si4 0.000000 0.500000 0.364369
Si Si5 0.194266 0.404587 0.979258
Si Si6 0.499731 0.128037 0.126317
O O1 0.888501 0.703808 0.940272
O O2 0.867380 0.906778 0.968154
O O3 0.008283 0.828106 0.837643
O O4 0.130461 0.809970 0.976030
O O5 0.250000 0.750000 0.782397
O O6 0.470257 0.775435 0.690124
O O7 0.476421 0.887847 0.813286
O O8 0.350511 0.835236 0.082454
O O9 0.132709 0.495635 0.425748
O O10 0.131490 0.388838 0.064256
O O11 0.500000 0.000000 0.160729
#
# Coordination Sequence:
#
# PCOD9354205 Si02
#       6
#     8   8   4   4   8   8
#     4   9  19  38  63  93 120 166 219 254 323 376
#     4  11  23  39  63  90 131 166 207 269 325 375
#     4  10  22  40  66  90 122 168 218 270 310 382
#     4  10  20  40  62  90 122 164 216 256 316 384
#     4   9  19  36  68  91 119 166 218 256 312 392
#     4  11  23  41  65  93 130 168 208 268 329 377
#
# _framework density 21.553955999999999
#
# number of rings (size 3 to 8) (size 9 to 14) (size 15 to 20)
#    0.000    2.000    3.000    0.000    5.600    3.200 
#    0.000    4.000    0.000    0.000    0.000    0.000 
#    0.000    0.000    0.000    0.000    0.000    0.000 
#
# Total GULP energy -111340.856096 kJ/mol
# GULP energy per Si atom -5567.042805 kJ/mol
# Density = 2.150490 g / cm^3
# Si number density = 21.553956 Si / 1000 Ang^3
#
#
#
# Elastic Constant Matrix: (Units=GPa)
#
#
# Indices 1 2 3 4 5 6 
#
# 1 169.5500 23.6954 62.8077 0.0000 0.0000 0.0000
# 2 23.6954 37.1766 10.7635 0.0000 0.0000 0.0000
# 3 62.8077 10.7635 143.2124 0.0000 0.0000 0.0000
# 4 0.0000 0.0000 0.0000 16.1506 0.0000 0.0000
# 5 0.0000 0.0000 0.0000 0.0000 13.4776 0.0000
# 6 0.0000 0.0000 0.0000 0.0000 0.0000 27.0515
#
#
#
# Elastic Compliance Matrix: (Units=1/GPa)
#
#
# Indices 1 2 3 4 5 6 
#
# 1 0.007570 -0.003950 -0.003023 0.000000 0.000000 0.000000
# 2 -0.003950 0.029558 -0.000489 0.000000 0.000000 0.000000
# 3 -0.003023 -0.000489 0.008345 0.000000 0.000000 0.000000
# 4 0.000000 0.000000 0.000000 0.061917 0.000000 0.000000
# 5 0.000000 0.000000 0.000000 0.000000 0.074197 0.000000
# 6 0.000000 0.000000 0.000000 0.000000 0.000000 0.036966
#
#
# Mechanical properties :
#
#
# Convention : Reuss Voigt Hill
#
# Bulk Modulus (GPa) = 32.73450 60.49691 46.61570
# Shear Modulus (GPa) = 20.52041 28.18079 24.35060
#
# Velocity S-wave (km/s) = 3.08888 3.61979 3.36482
# Velocity P-wave (km/s) = 5.28599 6.75271 6.06386
#
# Compressibility (1/GPa) = 0.03054881
#
# Stress axis : x y z
#
# Youngs Moduli (GPa) = 132.10461 33.83222 119.82967
#
# Poissons Ratio (x) = 0.13362 0.36224
# Poissons Ratio (y) = 0.52175 0.05864
# Poissons Ratio (z) = 0.39935 0.01656
#
# Static dielectric constant tensor:
#      x y z
#    x 1.994980 0.000000 0.000000 
#    y 0.000000 1.964980 0.000000 
#    z 0.000000 0.000000 1.822750 
# 
# From -- ./inp_files/10356.got.cif
#   From: 2010.05.17/outbox.cif.g08.bks.cpg/sg37_6_cif.got.tgz:10356.got - 2010.06.03 17:53:42.
