data_PCOD9354392
_publ_section_title
;
Structure prediction by ZEFSAII (Michael W. Deem and Ramdas Pophale) SiO2 
 PCOD9354392
Probable space group: C C C 2
;
_chemical_formula_sum "Si O2"
_cell_formula_units_Z 64
_cell_length_a 9.204323
_cell_length_b 10.809743
_cell_length_c 22.822024
_cell_angle_alpha 90.000000
_cell_angle_beta 90.000000
_cell_angle_gamma 90.000000
_cell_volume 2270.708455
_symmetry_space_group_name_H-M "C C C 2"
_symmetry_group_IT_number 37
_symmetry_cell_setting 'orthorhombic'
loop_
_space_group_symop_operation_xyz
x,y,z
-x,-y,z
-x,y,1/2+z
x,-y,1/2+z
1/2+x,1/2+y,z
1/2-x,1/2-y,z
1/2-x,1/2+y,1/2+z
1/2+x,1/2-y,1/2+z
loop_
_atom_site_type_symbol
_atom_site_label
_atom_site_fract_x
_atom_site_fract_y
_atom_site_fract_z
Si Si1 0.353625 0.500758 0.557180
Si Si2 0.502495 0.215407 0.695175
Si Si3 0.272482 0.561339 0.187395
Si Si4 0.606195 0.253367 0.563287
Si Si5 0.941826 0.360824 0.442716
Si Si6 0.518404 0.769964 0.820955
Si Si7 0.674253 0.489717 0.930509
Si Si8 0.217599 0.032386 0.809743
O O1 0.299567 0.476557 0.621984
O O2 0.493433 0.603274 0.559401
O O3 0.256509 0.646153 0.554222
O O4 0.290644 0.444356 0.496331
O O5 0.386542 0.327980 0.696770
O O6 0.393493 0.100934 0.689722
O O7 0.581101 0.225439 0.632615
O O8 0.571064 0.214975 0.760430
O O9 0.299108 0.478557 0.244627
O O10 0.529367 0.197756 0.505600
O O11 0.017961 0.289647 0.389185
O O12 0.768017 0.381773 0.430708
O O13 0.000000 0.500000 0.440832
O O14 0.638230 0.881290 0.811894
O O15 0.591518 0.634540 0.818776
O O16 0.500000 0.500000 0.933220
O O17 0.713682 0.442311 0.865513
#
# Coordination Sequence:
#
# PCOD9354392 Si02
#       8
#     8   8   8   8   8   8   8   8
#     4  11  21  36  58  88 128 162 206 263 319 371
#     4   9  19  37  62  93 120 165 209 260 326 385
#     4   9  18  35  62  92 124 157 209 265 317 381
#     4  12  24  39  61  93 128 176 217 263 324 400
#     4  11  24  41  65  95 130 171 225 271 334 397
#     4   8  16  35  63  85 119 161 209 259 318 386
#     4  10  21  37  59  90 123 164 212 268 315 381
#     4   8  15  32  61  91 114 158 210 256 310 388
#
# _framework density 28.185036
#
# number of rings (size 3 to 8) (size 9 to 14) (size 15 to 20)
#    0.000    2.250    2.500    2.250    3.500    0.500 
#    0.000    4.375    0.000    1.500    0.000    0.000 
#    0.000    0.000    0.000    0.000    0.000    0.000 
#
# Total GULP energy -178453.211363 kJ/mol
# GULP energy per Si atom -5576.662855 kJ/mol
# Density = 2.812089 g / cm^3
# Si number density = 28.185036 Si / 1000 Ang^3
#
#
#
# Elastic Constant Matrix: (Units=GPa)
#
#
# Indices 1 2 3 4 5 6 
#
# 1 96.2215 52.9312 36.7773 0.0000 0.0000 0.0000
# 2 52.9312 100.7686 55.1888 0.0000 0.0000 0.0000
# 3 36.7773 55.1888 401.5436 0.0000 0.0000 0.0000
# 4 0.0000 0.0000 0.0000 38.3263 0.0000 0.0000
# 5 0.0000 0.0000 0.0000 0.0000 21.8065 0.0000
# 6 0.0000 0.0000 0.0000 0.0000 0.0000 46.9564
#
#
#
# Elastic Compliance Matrix: (Units=1/GPa)
#
#
# Indices 1 2 3 4 5 6 
#
# 1 0.014651 -0.007528 -0.000307 0.000000 0.000000 0.000000
# 2 -0.007528 0.014599 -0.001317 0.000000 0.000000 0.000000
# 3 -0.000307 -0.001317 0.002700 0.000000 0.000000 0.000000
# 4 0.000000 0.000000 0.000000 0.026092 0.000000 0.000000
# 5 0.000000 0.000000 0.000000 0.000000 0.045858 0.000000
# 6 0.000000 0.000000 0.000000 0.000000 0.000000 0.021296
#
#
# Mechanical properties :
#
#
# Convention : Reuss Voigt Hill
#
# Bulk Modulus (GPa) = 73.28216 98.70313 85.99264
# Shear Modulus (GPa) = 33.77285 51.66027 42.71656
#
# Velocity S-wave (km/s) = 3.46534 4.28588 3.89726
# Velocity P-wave (km/s) = 6.48600 7.71929 7.12936
#
# Compressibility (1/GPa) = 0.01364589
#
# Stress axis : x y z
#
# Youngs Moduli (GPa) = 68.25475 68.49751 370.43135
#
# Poissons Ratio (x) = 0.51562 0.11383
# Poissons Ratio (y) = 0.51379 0.48789
# Poissons Ratio (z) = 0.02097 0.09022
#
# Static dielectric constant tensor:
#      x y z
#    x 2.473260 0.000000 0.000000 
#    y 0.000000 2.505080 0.000000 
#    z 0.000000 0.000000 2.097690 
# 
# From -- ./inp_files/18766.got.cif
#   From: 2010.05.17/outbox.cif.g08.bks.cpg/sg37_10_cif.got.tgz:18766.got - 2010.06.03 17:53:42.
