data_PCOD9354296
_publ_section_title
;
Structure prediction by ZEFSAII (Michael W. Deem and Ramdas Pophale) SiO2 
 PCOD9354296
Probable space group: C C C 2
;
_chemical_formula_sum "Si O2"
_cell_formula_units_Z 52
_cell_length_a 18.375312
_cell_length_b 9.037242
_cell_length_c 13.279270
_cell_angle_alpha 90.000000
_cell_angle_beta 90.000000
_cell_angle_gamma 90.000000
_cell_volume 2205.184012
_symmetry_space_group_name_H-M "C C C 2"
_symmetry_group_IT_number 37
_symmetry_cell_setting 'orthorhombic'
loop_
_space_group_symop_operation_xyz
x,y,z
-x,-y,z
-x,y,1/2+z
x,-y,1/2+z
1/2+x,1/2+y,z
1/2-x,1/2-y,z
1/2-x,1/2+y,1/2+z
1/2+x,1/2-y,1/2+z
loop_
_atom_site_type_symbol
_atom_site_label
_atom_site_fract_x
_atom_site_fract_y
_atom_site_fract_z
Si Si1 0.874187 0.982193 0.777730
Si Si2 0.750000 0.750000 0.811324
Si Si3 0.912557 0.018362 0.997041
Si Si4 0.881308 0.553492 0.843325
Si Si5 0.166545 0.288539 0.224858
Si Si6 0.057275 0.246323 0.666927
Si Si7 0.412824 0.817902 0.545104
O O1 0.805539 0.870153 0.760295
O O2 0.876321 0.045825 0.889895
O O3 0.944317 0.883547 0.751157
O O4 0.871394 0.129844 0.713967
O O5 0.806083 0.641119 0.865410
O O6 0.889873 0.847731 0.013591
O O7 0.000000 0.000000 0.990406
O O8 0.901157 0.150818 0.078206
O O9 0.865345 0.385595 0.815179
O O10 0.912191 0.624626 0.739506
O O11 0.925275 0.587307 0.944458
O O12 0.250000 0.250000 0.240732
O O13 0.150301 0.373459 0.120343
O O14 0.985730 0.305196 0.612199
#
# Coordination Sequence:
#
# PCOD9354296 Si02
#       7
#     8   4   8   8   8   8   8
#     4  11  22  41  74 103 141 185 240 306 352 435
#     4  10  20  42  72  96 136 192 236 286 370 414
#     4  10  21  37  69 109 132 173 241 294 357 428
#     4  11  25  48  72 103 153 195 235 311 378 444
#     4  12  27  44  69 109 146 191 248 296 371 453
#     4  10  23  44  71 105 137 189 247 298 371 432
#     4  11  24  43  74 106 137 191 248 305 367 442
#
# _framework density 23.5808
#
# number of rings (size 3 to 8) (size 9 to 14) (size 15 to 20)
#    0.000    1.231    6.154    0.000    3.231    1.846 
#    0.000    3.077    8.462    0.000    0.000    0.000 
#    0.000    0.000    0.000    0.000    0.000    0.000 
#
# Total GULP energy -144807.820950 kJ/mol
# GULP energy per Si atom -5569.531575 kJ/mol
# Density = 2.352713 g / cm^3
# Si number density = 23.580800 Si / 1000 Ang^3
#
#
#
# Elastic Constant Matrix: (Units=GPa)
#
#
# Indices 1 2 3 4 5 6 
#
# 1 70.7984 35.0266 34.2072 0.0000 0.0000 0.0000
# 2 35.0266 134.8616 48.4798 0.0000 0.0000 0.0000
# 3 34.2072 48.4798 133.4651 0.0000 0.0000 0.0000
# 4 0.0000 0.0000 0.0000 29.9099 0.0000 0.0000
# 5 0.0000 0.0000 0.0000 0.0000 -0.5356 0.0000
# 6 0.0000 0.0000 0.0000 0.0000 0.0000 11.4870
#
#
#
# Elastic Compliance Matrix: (Units=1/GPa)
#
#
# Indices 1 2 3 4 5 6 
#
# 1 0.017339 -0.003342 -0.003230 0.000000 0.000000 0.000000
# 2 -0.003342 0.009173 -0.002475 0.000000 0.000000 0.000000
# 3 -0.003230 -0.002475 0.009220 0.000000 0.000000 0.000000
# 4 0.000000 0.000000 0.000000 0.033434 0.000000 0.000000
# 5 0.000000 0.000000 0.000000 0.000000 -1.866988 0.000000
# 6 0.000000 0.000000 0.000000 0.000000 0.000000 0.087055
#
#
# Mechanical properties :
#
#
# Convention : Reuss Voigt Hill
#
# Bulk Modulus (GPa) = 56.70133 63.83914 60.27023
# Shear Modulus (GPa) = -2.96420 22.93302 9.98441
#
# Velocity S-wave (km/s) = -1.12239 3.12192 2.05993
# Velocity P-wave (km/s) = 4.73477 6.33455 5.59216
#
# Compressibility (1/GPa) = 0.01763627
#
# Stress axis : x y z
#
# Youngs Moduli (GPa) = 57.67454 109.01712 108.46490
#
# Poissons Ratio (x) = 0.36435 0.35033
# Poissons Ratio (y) = 0.19276 0.26849
# Poissons Ratio (z) = 0.18628 0.26986
#
# Static dielectric constant tensor:
#      x y z
#    x 1.981120 0.000000 0.000000 
#    y 0.000000 1.900730 0.000000 
#    z 0.000000 0.000000 1.969810 
# 
# From -- ./inp_files/12887.got.cif
#   From: 2010.05.17/outbox.cif.g08.bks.cpg/sg37_7_cif.got.tgz:12887.got - 2010.06.03 17:53:42.
