data_PCOD9354874
_publ_section_title
;
Structure prediction by ZEFSAII (Michael W. Deem and Ramdas Pophale) SiO2 
 PCOD9354874
Probable space group: C C C 2
;
_chemical_formula_sum "Si O2"
_cell_formula_units_Z 56
_cell_length_a 14.210879
_cell_length_b 5.636438
_cell_length_c 29.514042
_cell_angle_alpha 90.000000
_cell_angle_beta 90.000000
_cell_angle_gamma 90.000000
_cell_volume 2364.037530
_symmetry_space_group_name_H-M "C C C 2"
_symmetry_group_IT_number 37
_symmetry_cell_setting 'orthorhombic'
loop_
_space_group_symop_operation_xyz
x,y,z
-x,-y,z
-x,y,1/2+z
x,-y,1/2+z
1/2+x,1/2+y,z
1/2-x,1/2-y,z
1/2-x,1/2+y,1/2+z
1/2+x,1/2-y,1/2+z
loop_
_atom_site_type_symbol
_atom_site_label
_atom_site_fract_x
_atom_site_fract_y
_atom_site_fract_z
Si Si1 0.595650 0.646397 0.594680
Si Si2 0.500000 0.000000 0.034549
Si Si3 0.605489 0.904072 0.783948
Si Si4 0.856390 0.557514 0.887016
Si Si5 0.346831 0.619122 0.512593
Si Si6 0.357580 0.446966 0.420004
Si Si7 0.648138 0.369129 0.196899
Si Si8 0.250000 0.250000 0.236128
O O1 0.500000 0.500000 0.592008
O O2 0.664235 0.492419 0.562880
O O3 0.611000 0.686408 0.647586
O O4 0.577599 0.884920 0.567583
O O5 0.437974 0.205949 0.010929
O O6 0.634958 0.854006 0.835300
O O7 0.599623 0.711797 0.743410
O O8 0.500000 0.000000 0.786762
O O9 0.689878 0.076156 0.767541
O O10 0.748806 0.499995 0.902046
O O11 0.898039 0.786050 0.913097
O O12 0.896583 0.289711 0.895361
O O13 0.250000 0.750000 0.500788
O O14 0.359103 0.415816 0.474307
O O15 0.750000 0.250000 0.198313
O O16 0.670254 0.643982 0.203422
#
# Coordination Sequence:
#
# PCOD9354874 Si02
#       8
#     8   4   8   8   8   8   8   4
#     4  10  25  43  67 102 147 191 242 313 373 456
#     4  10  26  44  66 100 154 184 248 306 370 466
#     4  11  26  44  71 105 140 193 243 308 376 455
#     4  10  22  42  67 107 139 189 250 299 376 448
#     4  11  24  44  73 106 138 200 248 303 394 453
#     4  10  22  42  75 100 144 197 242 311 379 450
#     4  10  25  42  69 102 135 189 246 302 383 452
#     4  10  24  44  68  94 140 180 240 310 374 456
#
# _framework density 23.688289000000001
#
# number of rings (size 3 to 8) (size 9 to 14) (size 15 to 20)
#    0.000    1.714    1.429    0.857   16.000    2.286 
#    1.286    0.000    0.000    0.000    0.000    0.000 
#    0.000    0.000    0.000    0.000    0.000    0.000 
#
# Total GULP energy -156039.898943 kJ/mol
# GULP energy per Si atom -5572.853534 kJ/mol
# Density = 2.363437 g / cm^3
# Si number density = 23.688289 Si / 1000 Ang^3
#
#
#
# Elastic Constant Matrix: (Units=GPa)
#
#
# Indices 1 2 3 4 5 6 
#
# 1 76.5092 -3.0540 18.2219 0.0000 0.0000 0.0000
# 2 -3.0540 85.0846 35.8117 0.0000 0.0000 0.0000
# 3 18.2219 35.8117 187.5186 0.0000 0.0000 0.0000
# 4 0.0000 0.0000 0.0000 33.8475 0.0000 0.0000
# 5 0.0000 0.0000 0.0000 0.0000 -3.7895 0.0000
# 6 0.0000 0.0000 0.0000 0.0000 0.0000 14.6331
#
#
#
# Elastic Compliance Matrix: (Units=1/GPa)
#
#
# Indices 1 2 3 4 5 6 
#
# 1 0.013478 0.001126 -0.001525 0.000000 0.000000 0.000000
# 2 0.001126 0.012874 -0.002568 0.000000 0.000000 0.000000
# 3 -0.001525 -0.002568 0.005971 0.000000 0.000000 0.000000
# 4 0.000000 0.000000 0.000000 0.029544 0.000000 0.000000
# 5 0.000000 0.000000 0.000000 0.000000 -0.263886 0.000000
# 6 0.000000 0.000000 0.000000 0.000000 0.000000 0.068338
#
#
# Mechanical properties :
#
#
# Convention : Reuss Voigt Hill
#
# Bulk Modulus (GPa) = 37.89369 50.11905 44.00637
# Shear Modulus (GPa) = -42.03502 28.81374 -6.61064
#
# Velocity S-wave (km/s) = -4.21706 3.49143 -1.67234
# Velocity P-wave (km/s) = 2.77127 6.12022 3.85858
#
# Compressibility (1/GPa) = 0.02638962
#
# Stress axis : x y z
#
# Youngs Moduli (GPa) = 74.19286 77.67423 167.46482
#
# Poissons Ratio (x) = -0.08742 0.25533
# Poissons Ratio (y) = -0.08351 0.43006
# Poissons Ratio (z) = 0.11312 0.19947
#
# Static dielectric constant tensor:
#      x y z
#    x 1.905490 0.000000 0.000000 
#    y 0.000000 2.213940 0.000000 
#    z 0.000000 0.000000 2.049820 
# 
# From -- ./inp_files/20566.got.cif
#   From: 2010.05.17/outbox.cif.g08.bks.cpg/sg37_11_cif.got.tgz:20566.got - 2010.06.03 17:53:42.
