data_PCOD9354186
_publ_section_title
;
Structure prediction by ZEFSAII (Michael W. Deem and Ramdas Pophale) SiO2 
 PCOD9354186
Probable space group: C C C 2
;
_chemical_formula_sum "Si O2"
_cell_formula_units_Z 64
_cell_length_a 18.957925
_cell_length_b 9.741261
_cell_length_c 17.327470
_cell_angle_alpha 90.000000
_cell_angle_beta 90.000000
_cell_angle_gamma 90.000000
_cell_volume 3199.934849
_symmetry_space_group_name_H-M "C C C 2"
_symmetry_group_IT_number 37
_symmetry_cell_setting 'orthorhombic'
loop_
_space_group_symop_operation_xyz
x,y,z
-x,-y,z
-x,y,1/2+z
x,-y,1/2+z
1/2+x,1/2+y,z
1/2-x,1/2-y,z
1/2-x,1/2+y,1/2+z
1/2+x,1/2-y,1/2+z
loop_
_atom_site_type_symbol
_atom_site_label
_atom_site_fract_x
_atom_site_fract_y
_atom_site_fract_z
Si Si1 0.066695 0.896235 0.174190
Si Si2 0.468581 0.143964 0.930756
Si Si3 0.986431 0.348812 0.752799
Si Si4 0.160039 0.525634 0.503307
Si Si5 0.712567 0.398683 0.915475
Si Si6 0.089147 0.780091 0.007476
Si Si7 0.202413 0.051920 0.233683
Si Si8 0.162945 0.650352 0.674525
O O1 0.036528 0.761279 0.214417
O O2 0.862230 0.046234 0.212891
O O3 0.087522 0.853914 0.088585
O O4 0.000000 0.000000 0.175833
O O5 0.495937 0.156640 0.843447
O O6 0.500000 0.000000 0.960726
O O7 0.509024 0.259249 0.978689
O O8 0.386150 0.118859 0.944158
O O9 0.905592 0.334781 0.728907
O O10 0.000000 0.500000 0.722129
O O11 0.237620 0.498347 0.466931
O O12 0.126210 0.371503 0.511387
O O13 0.154348 0.603600 0.585642
O O14 0.750000 0.250000 0.917185
O O15 0.705208 0.435059 0.825842
O O16 0.635732 0.372801 0.950755
O O17 0.188035 0.192076 0.185258
O O18 0.284076 0.034471 0.208870
#
# Coordination Sequence:
#
# PCOD9354186 Si02
#       8
#     8   8   8   8   8   8   8   8
#     4  12  25  43  61 100 138 171 226 285 340 408
#     4   9  20  36  64  97 127 166 225 277 330 400
#     4  11  23  41  71  97 131 177 223 278 338 408
#     4  10  21  38  67  98 127 166 230 289 331 399
#     4  10  20  39  66  91 129 180 228 272 345 427
#     4  10  21  39  61  92 126 171 214 276 340 401
#     4  11  24  40  66  93 134 181 228 271 341 426
#     4  11  21  40  67  96 129 180 228 271 336 415
#
# _framework density 20.000406999999999
#
# number of rings (size 3 to 8) (size 9 to 14) (size 15 to 20)
#    0.000    1.500    2.500    3.000    5.250    1.000 
#    2.250    4.375    0.000    0.000    0.000    0.000 
#    0.000    0.000    0.000    0.000    0.000    0.000 
#
# Total GULP energy -178247.919380 kJ/mol
# GULP energy per Si atom -5570.247481 kJ/mol
# Density = 1.995488 g / cm^3
# Si number density = 20.000407 Si / 1000 Ang^3
#
#
#
# Elastic Constant Matrix: (Units=GPa)
#
#
# Indices 1 2 3 4 5 6 
#
# 1 83.5585 28.6793 54.2389 0.0000 0.0000 0.0000
# 2 28.6793 53.7667 31.0634 0.0000 0.0000 0.0000
# 3 54.2389 31.0634 105.2919 0.0000 0.0000 0.0000
# 4 0.0000 0.0000 0.0000 23.8083 0.0000 0.0000
# 5 0.0000 0.0000 0.0000 0.0000 53.2196 0.0000
# 6 0.0000 0.0000 0.0000 0.0000 0.0000 8.1197
#
#
#
# Elastic Compliance Matrix: (Units=1/GPa)
#
#
# Indices 1 2 3 4 5 6 
#
# 1 0.019225 -0.005465 -0.008291 0.000000 0.000000 0.000000
# 2 -0.005465 0.023974 -0.004258 0.000000 0.000000 0.000000
# 3 -0.008291 -0.004258 0.015025 0.000000 0.000000 0.000000
# 4 0.000000 0.000000 0.000000 0.042002 0.000000 0.000000
# 5 0.000000 0.000000 0.000000 0.000000 0.018790 0.000000
# 6 0.000000 0.000000 0.000000 0.000000 0.000000 0.123157
#
#
# Mechanical properties :
#
#
# Convention : Reuss Voigt Hill
#
# Bulk Modulus (GPa) = 45.05279 52.28669 48.66974
# Shear Modulus (GPa) = 17.50711 25.60522 21.55616
#
# Velocity S-wave (km/s) = 2.96182 3.58192 3.28653
# Velocity P-wave (km/s) = 5.85417 6.58076 6.22807
#
# Compressibility (1/GPa) = 0.02219618
#
# Stress axis : x y z
#
# Youngs Moduli (GPa) = 52.01493 41.71255 66.55730
#
# Poissons Ratio (x) = 0.22794 0.55185
# Poissons Ratio (y) = 0.28424 0.28339
# Poissons Ratio (z) = 0.43127 0.17760
#
# Static dielectric constant tensor:
#      x y z
#    x 1.626820 0.000000 0.000000 
#    y 0.000000 1.757320 0.000000 
#    z 0.000000 0.000000 1.768830 
# 
# From -- ./inp_files/12714.got.cif
#   From: 2010.05.17/outbox.cif.g08.bks.cpg/sg37_7_cif.got.tgz:12714.got - 2010.06.03 17:53:42.
