data_PCOD9354442
_publ_section_title
;
Structure prediction by ZEFSAII (Michael W. Deem and Ramdas Pophale) SiO2 
 PCOD9354442
Probable space group: C C C 2
;
_chemical_formula_sum "Si O2"
_cell_formula_units_Z 56
_cell_length_a 13.198657
_cell_length_b 9.541003
_cell_length_c 21.642912
_cell_angle_alpha 90.000000
_cell_angle_beta 90.000000
_cell_angle_gamma 90.000000
_cell_volume 2725.457843
_symmetry_space_group_name_H-M "C C C 2"
_symmetry_group_IT_number 37
_symmetry_cell_setting 'orthorhombic'
loop_
_space_group_symop_operation_xyz
x,y,z
-x,-y,z
-x,y,1/2+z
x,-y,1/2+z
1/2+x,1/2+y,z
1/2-x,1/2-y,z
1/2-x,1/2+y,1/2+z
1/2+x,1/2-y,1/2+z
loop_
_atom_site_type_symbol
_atom_site_label
_atom_site_fract_x
_atom_site_fract_y
_atom_site_fract_z
Si Si1 0.975192 0.236034 0.188680
Si Si2 0.085127 0.291381 0.820696
Si Si3 0.000000 0.500000 0.919164
Si Si4 0.500000 0.000000 0.605448
Si Si5 0.285531 0.475709 0.823024
Si Si6 0.662295 0.463947 0.688580
Si Si7 0.778227 0.409001 0.955135
Si Si8 0.214685 0.408097 0.068401
O O1 0.981318 0.287680 0.259244
O O2 0.959480 0.370531 0.146429
O O3 0.076357 0.150124 0.172515
O O4 0.886088 0.120003 0.186213
O O5 0.031387 0.368368 0.876575
O O6 0.185759 0.383327 0.808959
O O7 0.122730 0.133854 0.833385
O O8 0.101980 0.555087 0.951428
O O9 0.405882 0.932669 0.569327
O O10 0.305756 0.559707 0.759864
O O11 0.265808 0.554356 0.887200
O O12 0.746930 0.451524 0.636527
O O13 0.750000 0.250000 0.968416
O O14 0.739126 0.501915 0.012285
O O15 0.250000 0.250000 0.058336
#
# Coordination Sequence:
#
# PCOD9354442 Si02
#       8
#     8   8   4   4   8   8   8   8
#     4  10  21  38  65 103 140 174 225 280 344 409
#     4   9  18  35  64  98 132 176 215 278 340 397
#     4  10  22  42  66  98 137 170 231 282 329 412
#     4  12  24  42  70  98 131 180 231 278 343 406
#     4   9  20  40  67  94 134 177 221 276 344 403
#     4  10  22  42  68 101 137 177 227 281 341 409
#     4  11  27  46  69  99 134 181 228 277 343 411
#     4  12  27  47  70  97 137 182 225 286 343 407
#
# _framework density 20.547004999999999
#
# number of rings (size 3 to 8) (size 9 to 14) (size 15 to 20)
#    0.000    1.714    1.429    1.714    8.000    2.857 
#    0.000    0.000    0.000    0.000    0.000    0.000 
#    0.000    0.000    0.000    0.000    0.000    0.000 
#
# Total GULP energy -156338.690874 kJ/mol
# GULP energy per Si atom -5583.524674 kJ/mol
# Density = 2.050024 g / cm^3
# Si number density = 20.547005 Si / 1000 Ang^3
#
#
#
# Elastic Constant Matrix: (Units=GPa)
#
#
# Indices 1 2 3 4 5 6 
#
# 1 57.7235 32.0296 44.0201 0.0000 0.0000 0.0000
# 2 32.0296 130.1014 67.3163 0.0000 0.0000 0.0000
# 3 44.0201 67.3163 113.3296 0.0000 0.0000 0.0000
# 4 0.0000 0.0000 0.0000 -454.6130 0.0000 0.0000
# 5 0.0000 0.0000 0.0000 0.0000 27.4874 0.0000
# 6 0.0000 0.0000 0.0000 0.0000 0.0000 16.7621
#
#
#
# Elastic Compliance Matrix: (Units=1/GPa)
#
#
# Indices 1 2 3 4 5 6 
#
# 1 0.024850 -0.001622 -0.008689 0.000000 0.000000 0.000000
# 2 -0.001622 0.011203 -0.006024 0.000000 0.000000 0.000000
# 3 -0.008689 -0.006024 0.015777 0.000000 0.000000 0.000000
# 4 0.000000 0.000000 0.000000 -0.002200 0.000000 0.000000
# 5 0.000000 0.000000 0.000000 0.000000 0.036380 0.000000
# 6 0.000000 0.000000 0.000000 0.000000 0.000000 0.059658
#
#
# Mechanical properties :
#
#
# Convention : Reuss Voigt Hill
#
# Bulk Modulus (GPa) = 52.19320 65.32073 58.75696
# Shear Modulus (GPa) = 27.06710 -71.55346 -22.24318
#
# Velocity S-wave (km/s) = 3.63344 -5.90761 -3.29378
# Velocity P-wave (km/s) = 6.56197 3.83057 3.76737
#
# Compressibility (1/GPa) = 0.01915958
#
# Stress axis : x y z
#
# Youngs Moduli (GPa) = 40.24100 89.26466 63.38292
#
# Poissons Ratio (x) = 0.14479 0.55073
# Poissons Ratio (y) = 0.06527 0.38183
# Poissons Ratio (z) = 0.34965 0.53775
#
# Static dielectric constant tensor:
#      x y z
#    x 1.744570 0.000000 0.000000 
#    y 0.000000 1.732810 0.000000 
#    z 0.000000 0.000000 1.740790 
# 
# From -- ./inp_files/17201.got.cif
#   From: 2010.05.17/outbox.cif.g08.bks.cpg/sg37_9_cif.got.tgz:17201.got - 2010.06.03 17:53:42.
