data_PCOD9354174
_publ_section_title
;
Structure prediction by ZEFSAII (Michael W. Deem and Ramdas Pophale) SiO2 
 PCOD9354174
Probable space group: C C C 2
;
_chemical_formula_sum "Si O2"
_cell_formula_units_Z 48
_cell_length_a 8.909162
_cell_length_b 15.785243
_cell_length_c 15.641761
_cell_angle_alpha 90.000000
_cell_angle_beta 90.000000
_cell_angle_gamma 90.000000
_cell_volume 2199.752265
_symmetry_space_group_name_H-M "C C C 2"
_symmetry_group_IT_number 37
_symmetry_cell_setting 'orthorhombic'
loop_
_space_group_symop_operation_xyz
x,y,z
-x,-y,z
-x,y,1/2+z
x,-y,1/2+z
1/2+x,1/2+y,z
1/2-x,1/2-y,z
1/2-x,1/2+y,1/2+z
1/2+x,1/2-y,1/2+z
loop_
_atom_site_type_symbol
_atom_site_label
_atom_site_fract_x
_atom_site_fract_y
_atom_site_fract_z
Si Si1 0.917476 0.241776 0.329260
Si Si2 0.646049 0.163228 0.550111
Si Si3 0.897599 0.919471 0.143126
Si Si4 0.395019 0.416515 0.348943
Si Si5 0.910257 0.233312 0.132442
Si Si6 0.553550 0.905567 0.391191
O O1 0.750000 0.250000 0.365591
O O2 0.890864 0.213273 0.232112
O O3 0.011004 0.167335 0.373292
O O4 0.008704 0.329358 0.327261
O O5 0.750000 0.250000 0.541070
O O6 0.747229 0.088815 0.588845
O O7 0.521310 0.189534 0.619112
O O8 0.546407 0.128425 0.471465
O O9 0.864561 0.909722 0.245360
O O10 0.002138 0.847631 0.101107
O O11 0.000000 0.000000 0.135587
O O12 0.500000 0.500000 0.362651
O O13 0.234201 0.413509 0.395854
O O14 0.750000 0.250000 0.091872
O O15 0.500000 0.000000 0.367647
#
# Coordination Sequence:
#
# PCOD9354174 Si02
#       6
#     8   8   8   8   8   8
#     4  10  20  39  64  91 121 154 197 251 302 357
#     4  10  22  41  60  84 122 162 201 245 301 366
#     4   9  19  39  66  92 117 150 199 260 309 353
#     4  10  21  40  67  94 120 155 204 258 309 359
#     4   9  19  36  62  91 117 151 197 245 300 356
#     4  12  25  39  56  86 124 166 206 243 301 367
#
# _framework density 21.820637999999999
#
# number of rings (size 3 to 8) (size 9 to 14) (size 15 to 20)
#    0.000    2.000    0.000    3.000    0.000    6.667 
#    0.000    9.167    0.000    0.000    0.000    0.000 
#    0.000    0.000    0.000    0.000    0.000    0.000 
#
# Total GULP energy -133690.284117 kJ/mol
# GULP energy per Si atom -5570.428505 kJ/mol
# Density = 2.177097 g / cm^3
# Si number density = 21.820638 Si / 1000 Ang^3
#
#
#
# Elastic Constant Matrix: (Units=GPa)
#
#
# Indices 1 2 3 4 5 6 
#
# 1 194.2195 62.1198 29.3664 0.0000 0.0000 0.0000
# 2 62.1198 112.6194 -1.7986 0.0000 0.0000 0.0000
# 3 29.3664 -1.7986 43.0752 0.0000 0.0000 0.0000
# 4 0.0000 0.0000 0.0000 -10.0183 0.0000 0.0000
# 5 0.0000 0.0000 0.0000 0.0000 25.0346 0.0000
# 6 0.0000 0.0000 0.0000 0.0000 0.0000 34.6582
#
#
#
# Elastic Compliance Matrix: (Units=1/GPa)
#
#
# Indices 1 2 3 4 5 6 
#
# 1 0.007218 -0.004063 -0.005090 0.000000 0.000000 0.000000
# 2 -0.004063 0.011172 0.003236 0.000000 0.000000 0.000000
# 3 -0.005090 0.003236 0.026821 0.000000 0.000000 0.000000
# 4 0.000000 0.000000 0.000000 -0.099818 0.000000 0.000000
# 5 0.000000 0.000000 0.000000 0.000000 0.039945 0.000000
# 6 0.000000 0.000000 0.000000 0.000000 0.000000 0.028853
#
#
# Mechanical properties :
#
#
# Convention : Reuss Voigt Hill
#
# Bulk Modulus (GPa) = 29.96083 58.80992 44.38537
# Shear Modulus (GPa) = 134.58852 27.28332 80.93592
#
# Velocity S-wave (km/s) = 7.86215 3.53986 6.09688
# Velocity P-wave (km/s) = 9.80704 6.61192 8.36348
#
# Compressibility (1/GPa) = 0.03337691
#
# Stress axis : x y z
#
# Youngs Moduli (GPa) = 138.54454 89.50905 37.28463
#
# Poissons Ratio (x) = 0.36364 0.18979
# Poissons Ratio (y) = 0.56285 -0.12066
# Poissons Ratio (z) = 0.70525 -0.28967
#
# Static dielectric constant tensor:
#      x y z
#    x 1.829800 0.000000 0.000000 
#    y 0.000000 1.820920 0.000000 
#    z 0.000000 0.000000 1.858290 
# 
# From -- ./inp_files/14474.got.cif
#   From: 2010.05.17/outbox.cif.g08.bks.cpg/sg37_8_cif.got.tgz:14474.got - 2010.06.03 17:53:42.
