data_PCOD9354247
_publ_section_title
;
Structure prediction by ZEFSAII (Michael W. Deem and Ramdas Pophale) SiO2 
 PCOD9354247
Probable space group: C C C 2
;
_chemical_formula_sum "Si O2"
_cell_formula_units_Z 60
_cell_length_a 19.868194
_cell_length_b 10.430631
_cell_length_c 13.401581
_cell_angle_alpha 90.000000
_cell_angle_beta 90.000000
_cell_angle_gamma 90.000000
_cell_volume 2777.314166
_symmetry_space_group_name_H-M "C C C 2"
_symmetry_group_IT_number 37
_symmetry_cell_setting 'orthorhombic'
loop_
_space_group_symop_operation_xyz
x,y,z
-x,-y,z
-x,y,1/2+z
x,-y,1/2+z
1/2+x,1/2+y,z
1/2-x,1/2-y,z
1/2-x,1/2+y,1/2+z
1/2+x,1/2-y,1/2+z
loop_
_atom_site_type_symbol
_atom_site_label
_atom_site_fract_x
_atom_site_fract_y
_atom_site_fract_z
Si Si1 0.884409 0.381154 0.517940
Si Si2 0.852319 0.932317 0.616666
Si Si3 0.023739 0.334657 0.201406
Si Si4 0.123626 0.627088 0.127037
Si Si5 0.262661 0.901351 0.267450
Si Si6 0.050295 0.908713 0.284727
Si Si7 0.000000 0.500000 0.880755
Si Si8 0.669261 0.623643 0.937437
O O1 0.855119 0.521705 0.545404
O O2 0.947087 0.414933 0.443954
O O3 0.834236 0.268487 0.481834
O O4 0.917462 0.330512 0.621225
O O5 0.859513 0.776375 0.602024
O O6 0.785518 0.958764 0.682238
O O7 0.914376 0.969909 0.687893
O O8 0.849911 0.018506 0.519299
O O9 0.956116 0.386714 0.145155
O O10 0.995723 0.202161 0.242326
O O11 0.039936 0.410436 0.302786
O O12 0.161516 0.587537 0.229542
O O13 0.250000 0.750000 0.262659
O O14 0.233910 0.930404 0.376593
O O15 0.111047 0.866359 0.353771
O O16 0.000000 0.000000 0.343076
#
# Coordination Sequence:
#
# PCOD9354247 Si02
#       8
#     8   8   8   8   8   8   4   8
#     4  12  23  37  65  99 125 168 213 262 328 395
#     4   9  21  40  59  85 123 158 204 264 312 380
#     4  11  21  38  58  91 134 157 203 271 318 383
#     4  10  20  41  64  85 124 169 204 262 329 381
#     4   9  21  41  64  84 118 166 213 260 320 376
#     4  10  21  36  59  85 121 166 198 249 326 384
#     4  12  20  36  58  94 134 160 200 260 318 390
#     4  11  23  39  64  92 122 162 220 261 313 399
#
# _framework density 21.603605999999999
#
# number of rings (size 3 to 8) (size 9 to 14) (size 15 to 20)
#    0.000    1.600    4.000    1.600    0.000    4.800 
#    0.000    0.000    0.000    3.200    0.000    0.000 
#    0.000    0.000    0.000    0.000    0.000    0.000 
#
# Total GULP energy -167228.585578 kJ/mol
# GULP energy per Si atom -5574.286186 kJ/mol
# Density = 2.155444 g / cm^3
# Si number density = 21.603606 Si / 1000 Ang^3
#
#
#
# Elastic Constant Matrix: (Units=GPa)
#
#
# Indices 1 2 3 4 5 6 
#
# 1 56.0765 29.7844 24.5209 0.0000 0.0000 0.0000
# 2 29.7844 84.3434 46.8791 0.0000 0.0000 0.0000
# 3 24.5209 46.8791 112.9012 0.0000 0.0000 0.0000
# 4 0.0000 0.0000 0.0000 29.6700 0.0000 0.0000
# 5 0.0000 0.0000 0.0000 0.0000 27.4634 0.0000
# 6 0.0000 0.0000 0.0000 0.0000 0.0000 25.1973
#
#
#
# Elastic Compliance Matrix: (Units=1/GPa)
#
#
# Indices 1 2 3 4 5 6 
#
# 1 0.022308 -0.006740 -0.002046 0.000000 0.000000 0.000000
# 2 -0.006740 0.017450 -0.005782 0.000000 0.000000 0.000000
# 3 -0.002046 -0.005782 0.011702 0.000000 0.000000 0.000000
# 4 0.000000 0.000000 0.000000 0.033704 0.000000 0.000000
# 5 0.000000 0.000000 0.000000 0.000000 0.036412 0.000000
# 6 0.000000 0.000000 0.000000 0.000000 0.000000 0.039687
#
#
# Mechanical properties :
#
#
# Convention : Reuss Voigt Hill
#
# Bulk Modulus (GPa) = 44.79562 50.63222 47.71392
# Shear Modulus (GPa) = 25.27287 26.60859 25.94073
#
# Velocity S-wave (km/s) = 3.42401 3.51333 3.46896
# Velocity P-wave (km/s) = 6.03424 6.32027 6.17891
#
# Compressibility (1/GPa) = 0.02232361
#
# Stress axis : x y z
#
# Youngs Moduli (GPa) = 44.82787 57.30651 85.45229
#
# Poissons Ratio (x) = 0.38626 0.17486
# Poissons Ratio (y) = 0.30215 0.49406
# Poissons Ratio (z) = 0.09173 0.33133
#
# Static dielectric constant tensor:
#      x y z
#    x 1.863870 0.000000 0.000000 
#    y 0.000000 1.844560 0.000000 
#    z 0.000000 0.000000 1.810190 
# 
# From -- ./inp_files/8636.got.cif
#   From: 2010.05.17/outbox.cif.g08.bks.cpg/sg37_5_cif.got.tgz:8636.got - 2010.06.03 17:53:42.
