data_PCOD9354331
_publ_section_title
;
Structure prediction by ZEFSAII (Michael W. Deem and Ramdas Pophale) SiO2 
 PCOD9354331
Probable space group: C C C 2
;
_chemical_formula_sum "Si O2"
_cell_formula_units_Z 60
_cell_length_a 14.268325
_cell_length_b 25.159663
_cell_length_c 8.462036
_cell_angle_alpha 90.000000
_cell_angle_beta 90.000000
_cell_angle_gamma 90.000000
_cell_volume 3037.754559
_symmetry_space_group_name_H-M "C C C 2"
_symmetry_group_IT_number 37
_symmetry_cell_setting 'orthorhombic'
loop_
_space_group_symop_operation_xyz
x,y,z
-x,-y,z
-x,y,1/2+z
x,-y,1/2+z
1/2+x,1/2+y,z
1/2-x,1/2-y,z
1/2-x,1/2+y,1/2+z
1/2+x,1/2-y,1/2+z
loop_
_atom_site_type_symbol
_atom_site_label
_atom_site_fract_x
_atom_site_fract_y
_atom_site_fract_z
Si Si1 0.581079 0.446450 0.087320
Si Si2 0.616117 0.826033 0.958419
Si Si3 0.693669 0.519191 0.302960
Si Si4 0.050391 0.719296 0.145179
Si Si5 0.944236 0.113157 0.395554
Si Si6 0.250000 0.750000 0.661008
Si Si7 0.587751 0.290109 0.862051
Si Si8 0.250412 0.418821 0.004604
O O1 0.606342 0.496245 0.199775
O O2 0.576626 0.398910 0.213139
O O3 0.661052 0.447158 0.953806
O O4 0.489009 0.438349 0.981348
O O5 0.514535 0.819162 0.039242
O O6 0.681955 0.784384 0.050903
O O7 0.611235 0.811012 0.774310
O O8 0.660249 0.883415 0.979781
O O9 0.740657 0.466368 0.376219
O O10 0.748247 0.554414 0.176891
O O11 0.981473 0.756093 0.249723
O O12 0.102757 0.757667 0.023514
O O13 0.843630 0.118383 0.480273
O O14 0.025099 0.157788 0.399729
O O15 0.313897 0.710593 0.768863
#
# Coordination Sequence:
#
# PCOD9354331 Si02
#       8
#     8   8   8   8   8   4   8   8
#     4  10  21  33  50  77 116 172 198 243 295 365
#     4  10  22  41  66  92 119 165 211 259 329 378
#     4   9  21  40  54  84 129 162 209 259 313 358
#     4   9  21  41  62  83 123 164 197 267 317 383
#     4  11  22  33  55  87 122 168 210 244 299 382
#     4  10  24  38  60  92 130 160 218 260 296 382
#     4  10  21  40  56  88 127 165 205 257 311 354
#     4  10  22  38  63  91 123 166 210 264 307 385
#
# _framework density 19.751432000000001
#
# number of rings (size 3 to 8) (size 9 to 14) (size 15 to 20)
#    0.000    2.133    0.000    1.600    9.333    9.600 
#    4.800    5.333    0.000    2.400    0.000    0.000 
#    0.000    0.000    0.000    0.000    0.000    0.000 
#
# Total GULP energy -167267.916625 kJ/mol
# GULP energy per Si atom -5575.597221 kJ/mol
# Density = 1.970648 g / cm^3
# Si number density = 19.751432 Si / 1000 Ang^3
#
#
#
# Elastic Constant Matrix: (Units=GPa)
#
#
# Indices 1 2 3 4 5 6 
#
# 1 50.2538 40.2225 36.8670 0.0000 0.0000 0.0000
# 2 40.2225 90.5848 59.0674 0.0000 0.0000 0.0000
# 3 36.8670 59.0674 161.4317 0.0000 0.0000 0.0000
# 4 0.0000 0.0000 0.0000 15.9728 0.0000 0.0000
# 5 0.0000 0.0000 0.0000 0.0000 23.3022 0.0000
# 6 0.0000 0.0000 0.0000 0.0000 0.0000 36.9189
#
#
#
# Elastic Compliance Matrix: (Units=1/GPa)
#
#
# Indices 1 2 3 4 5 6 
#
# 1 0.031773 -0.012315 -0.002750 0.000000 0.000000 0.000000
# 2 -0.012315 0.019272 -0.004239 0.000000 0.000000 0.000000
# 3 -0.002750 -0.004239 0.008374 0.000000 0.000000 0.000000
# 4 0.000000 0.000000 0.000000 0.062607 0.000000 0.000000
# 5 0.000000 0.000000 0.000000 0.000000 0.042914 0.000000
# 6 0.000000 0.000000 0.000000 0.000000 0.000000 0.027086
#
#
# Mechanical properties :
#
#
# Convention : Reuss Voigt Hill
#
# Bulk Modulus (GPa) = 48.05323 63.84269 55.94796
# Shear Modulus (GPa) = 21.04628 26.31301 23.67964
#
# Velocity S-wave (km/s) = 3.26783 3.65390 3.46624
# Velocity P-wave (km/s) = 6.21451 7.08481 6.66388
#
# Compressibility (1/GPa) = 0.02081026
#
# Stress axis : x y z
#
# Youngs Moduli (GPa) = 31.47287 51.88930 119.42154
#
# Poissons Ratio (x) = 0.63902 0.32843
# Poissons Ratio (y) = 0.38759 0.50623
# Poissons Ratio (z) = 0.08656 0.21996
#
# Static dielectric constant tensor:
#      x y z
#    x 1.708540 0.000000 0.000000 
#    y 0.000000 1.748920 0.000000 
#    z 0.000000 0.000000 1.714020 
# 
# From -- ./inp_files/3723.got.cif
#   From: 2010.05.17/outbox.cif.g08.bks.cpg/sg37_2_cif.got.tgz:3723.got - 2010.06.03 17:53:42.
