data_PCOD9354088
_publ_section_title
;
Structure prediction by ZEFSAII (Michael W. Deem and Ramdas Pophale) SiO2 
 PCOD9354088
Probable space group: C C C 2
;
_chemical_formula_sum "Si O2"
_cell_formula_units_Z 64
_cell_length_a 15.447852
_cell_length_b 8.877202
_cell_length_c 23.649037
_cell_angle_alpha 90.000000
_cell_angle_beta 90.000000
_cell_angle_gamma 90.000000
_cell_volume 3243.080008
_symmetry_space_group_name_H-M "C C C 2"
_symmetry_group_IT_number 37
_symmetry_cell_setting 'orthorhombic'
loop_
_space_group_symop_operation_xyz
x,y,z
-x,-y,z
-x,y,1/2+z
x,-y,1/2+z
1/2+x,1/2+y,z
1/2-x,1/2-y,z
1/2-x,1/2+y,1/2+z
1/2+x,1/2-y,1/2+z
loop_
_atom_site_type_symbol
_atom_site_label
_atom_site_fract_x
_atom_site_fract_y
_atom_site_fract_z
Si Si1 0.932249 0.389565 0.990510
Si Si2 0.139143 0.981655 0.874679
Si Si3 0.759405 0.074344 0.989089
Si Si4 0.089403 0.913606 0.061908
Si Si5 0.742159 0.431131 0.764673
Si Si6 0.591930 0.417902 0.195594
Si Si7 0.989791 0.747538 0.875549
Si Si8 0.923025 0.397305 0.260718
O O1 0.840107 0.473931 0.983669
O O2 0.000000 0.500000 0.018902
O O3 0.973803 0.338613 0.930438
O O4 0.921345 0.242518 0.028587
O O5 0.192405 0.933785 0.929434
O O6 0.203672 0.997477 0.822877
O O7 0.070904 0.851896 0.856940
O O8 0.085428 0.131655 0.889131
O O9 0.750000 0.250000 0.004367
O O10 0.825691 0.006980 0.034809
O O11 0.100559 0.893742 0.128597
O O12 0.000000 0.000000 0.051510
O O13 0.750000 0.250000 0.767635
O O14 0.672061 0.482952 0.718140
O O15 0.835494 0.506771 0.757617
O O16 0.500000 0.500000 0.206838
O O17 0.590185 0.259181 0.228029
O O18 0.953109 0.647177 0.824556
O O19 0.000000 0.500000 0.236356
#
# Coordination Sequence:
#
# PCOD9354088 Si02
#       8
#     8   8   8   8   8   8   8   8
#     4  11  24  39  61  98 135 173 224 281 339 396
#     4  11  21  37  63  91 131 174 223 271 340 409
#     4  10  20  37  62  93 125 173 217 264 333 399
#     4  10  22  45  72  92 127 175 229 275 341 413
#     4  12  26  42  67 100 136 180 230 284 349 418
#     4  11  24  47  71 100 133 179 232 290 345 415
#     4  11  22  38  61  90 136 175 220 281 336 404
#     4  12  26  42  64  97 139 181 227 281 345 407
#
# _framework density 19.734327
#
# number of rings (size 3 to 8) (size 9 to 14) (size 15 to 20)
#    0.000    1.000    3.750    4.125    3.500    3.500 
#    0.000    4.375    0.000    0.000    0.000    0.000 
#    0.000    0.000    0.000    0.000    0.000    0.000 
#
# Total GULP energy -178711.190714 kJ/mol
# GULP energy per Si atom -5584.724710 kJ/mol
# Density = 1.968941 g / cm^3
# Si number density = 19.734327 Si / 1000 Ang^3
#
#
#
# Elastic Constant Matrix: (Units=GPa)
#
#
# Indices 1 2 3 4 5 6 
#
# 1 184.4569 57.2063 70.0036 0.0000 0.0000 0.0000
# 2 57.2063 67.1074 31.4769 0.0000 0.0000 0.0000
# 3 70.0036 31.4769 97.8359 0.0000 0.0000 0.0000
# 4 0.0000 0.0000 0.0000 -13.5145 0.0000 0.0000
# 5 0.0000 0.0000 0.0000 0.0000 -3.6402 0.0000
# 6 0.0000 0.0000 0.0000 0.0000 0.0000 29.8536
#
#
#
# Elastic Compliance Matrix: (Units=1/GPa)
#
#
# Indices 1 2 3 4 5 6 
#
# 1 0.008830 -0.005375 -0.004589 0.000000 0.000000 0.000000
# 2 -0.005375 0.020821 -0.002853 0.000000 0.000000 0.000000
# 3 -0.004589 -0.002853 0.014422 0.000000 0.000000 0.000000
# 4 0.000000 0.000000 0.000000 -0.073994 0.000000 0.000000
# 5 0.000000 0.000000 0.000000 0.000000 -0.274711 0.000000
# 6 0.000000 0.000000 0.000000 0.000000 0.000000 0.033497
#
#
# Mechanical properties :
#
#
# Convention : Reuss Voigt Hill
#
# Bulk Modulus (GPa) = 54.22832 74.08594 64.15713
# Shear Modulus (GPa) = -20.88941 15.25400 -2.81771
#
# Velocity S-wave (km/s) = -3.25704 2.78325 -1.19621
# Velocity P-wave (km/s) = 3.65984 6.92472 5.53833
#
# Compressibility (1/GPa) = 0.01844055
#
# Stress axis : x y z
#
# Youngs Moduli (GPa) = 113.25580 48.02743 69.33651
#
# Poissons Ratio (x) = 0.25813 0.31816
# Poissons Ratio (y) = 0.60870 0.19784
# Poissons Ratio (z) = 0.51968 0.13704
#
# Static dielectric constant tensor:
#      x y z
#    x 1.747430 0.000000 0.000000 
#    y 0.000000 1.722280 0.000000 
#    z 0.000000 0.000000 1.684040 
# 
# From -- ./inp_files/18469.got.cif
#   From: 2010.05.17/outbox.cif.g08.bks.cpg/sg37_10_cif.got.tgz:18469.got - 2010.06.03 17:53:42.
