data_PCOD9354889
_publ_section_title
;
Structure prediction by ZEFSAII (Michael W. Deem and Ramdas Pophale) SiO2 
 PCOD9354889
Probable space group: C C C 2
;
_chemical_formula_sum "Si O2"
_cell_formula_units_Z 40
_cell_length_a 23.695534
_cell_length_b 9.002475
_cell_length_c 8.261152
_cell_angle_alpha 90.000000
_cell_angle_beta 90.000000
_cell_angle_gamma 90.000000
_cell_volume 1762.256160
_symmetry_space_group_name_H-M "C C C 2"
_symmetry_group_IT_number 37
_symmetry_cell_setting 'orthorhombic'
loop_
_space_group_symop_operation_xyz
x,y,z
-x,-y,z
-x,y,1/2+z
x,-y,1/2+z
1/2+x,1/2+y,z
1/2-x,1/2-y,z
1/2-x,1/2+y,1/2+z
1/2+x,1/2-y,1/2+z
loop_
_atom_site_type_symbol
_atom_site_label
_atom_site_fract_x
_atom_site_fract_y
_atom_site_fract_z
Si Si1 0.438673 0.070668 0.629430
Si Si2 0.135070 0.214961 0.473456
Si Si3 0.780432 0.602981 0.691303
Si Si4 0.871744 0.649944 0.932205
Si Si5 0.330211 0.422040 0.131360
O O1 0.422760 0.192501 0.491915
O O2 0.421625 0.148111 0.798382
O O3 0.500000 0.000000 0.629274
O O4 0.396530 0.935564 0.585650
O O5 0.183322 0.322611 0.546925
O O6 0.152203 0.153038 0.299746
O O7 0.135697 0.072257 0.591747
O O8 0.750000 0.750000 0.756954
O O9 0.823113 0.563395 0.834174
O O10 0.735086 0.478097 0.642941
O O11 0.846334 0.804902 0.992266
#
# Coordination Sequence:
#
# PCOD9354889 Si02
#       5
#     8   8   8   8   8
#     4  11  24  46  71  99 134 177 233 300 361 412
#     4  10  22  42  69 102 140 186 235 283 347 419
#     4   9  21  39  62  99 142 183 221 271 342 413
#     4  11  24  42  69 101 136 184 236 284 347 424
#     4  11  22  43  69 101 146 188 232 288 339 420
#
# _framework density 22.698176
#
# number of rings (size 3 to 8) (size 9 to 14) (size 15 to 20)
#    0.000    1.600    0.000    5.400    0.000   11.200 
#    0.000   23.000    0.000   12.000    0.000    0.000 
#    0.000    0.000    0.000    0.000    0.000    0.000 
#
# Total GULP energy -111695.241516 kJ/mol
# GULP energy per Si atom -5584.762076 kJ/mol
# Density = 2.264651 g / cm^3
# Si number density = 22.698176 Si / 1000 Ang^3
#
#
#
# Elastic Constant Matrix: (Units=GPa)
#
#
# Indices 1 2 3 4 5 6 
#
# 1 148.2600 89.0737 64.4899 0.0000 0.0000 0.0000
# 2 89.0737 156.6410 79.0486 0.0000 0.0000 0.0000
# 3 64.4899 79.0486 134.8761 0.0000 0.0000 0.0000
# 4 0.0000 0.0000 0.0000 58.2022 0.0000 0.0000
# 5 0.0000 0.0000 0.0000 0.0000 19.4903 0.0000
# 6 0.0000 0.0000 0.0000 0.0000 0.0000 42.7434
#
#
#
# Elastic Compliance Matrix: (Units=1/GPa)
#
#
# Indices 1 2 3 4 5 6 
#
# 1 0.010685 -0.004967 -0.002198 0.000000 0.000000 0.000000
# 2 -0.004967 0.011374 -0.004291 0.000000 0.000000 0.000000
# 3 -0.002198 -0.004291 0.010980 0.000000 0.000000 0.000000
# 4 0.000000 0.000000 0.000000 0.017181 0.000000 0.000000
# 5 0.000000 0.000000 0.000000 0.000000 0.051308 0.000000
# 6 0.000000 0.000000 0.000000 0.000000 0.000000 0.023395
#
#
# Mechanical properties :
#
#
# Convention : Reuss Voigt Hill
#
# Bulk Modulus (GPa) = 98.74520 100.55573 99.65046
# Shear Modulus (GPa) = 33.06626 37.89816 35.48221
#
# Velocity S-wave (km/s) = 3.82092 4.09058 3.95805
# Velocity P-wave (km/s) = 7.94128 8.16749 8.05518
#
# Compressibility (1/GPa) = 0.01012707
#
# Stress axis : x y z
#
# Youngs Moduli (GPa) = 93.58899 87.92006 91.07311
#
# Poissons Ratio (x) = 0.43668 0.20018
# Poissons Ratio (y) = 0.46484 0.39082
# Poissons Ratio (z) = 0.20571 0.37729
#
# Static dielectric constant tensor:
#      x y z
#    x 1.887080 0.000000 0.000000 
#    y 0.000000 1.862450 0.000000 
#    z 0.000000 0.000000 1.903620 
# 
# From -- ./inp_files/4527.got.cif
#   From: 2010.05.17/outbox.cif.g08.bks.cpg/sg37_3_cif.got.tgz:4527.got - 2010.06.03 17:53:42.
