data_PCOD9354011
_publ_section_title
;
Structure prediction by ZEFSAII (Michael W. Deem and Ramdas Pophale) SiO2 
 PCOD9354011
Probable space group: C C C 2
;
_chemical_formula_sum "Si O2"
_cell_formula_units_Z 60
_cell_length_a 24.593231
_cell_length_b 11.655911
_cell_length_c 8.597567
_cell_angle_alpha 90.000000
_cell_angle_beta 90.000000
_cell_angle_gamma 90.000000
_cell_volume 2464.548566
_symmetry_space_group_name_H-M "C C C 2"
_symmetry_group_IT_number 37
_symmetry_cell_setting 'orthorhombic'
loop_
_space_group_symop_operation_xyz
x,y,z
-x,-y,z
-x,y,1/2+z
x,-y,1/2+z
1/2+x,1/2+y,z
1/2-x,1/2-y,z
1/2-x,1/2+y,1/2+z
1/2+x,1/2-y,1/2+z
loop_
_atom_site_type_symbol
_atom_site_label
_atom_site_fract_x
_atom_site_fract_y
_atom_site_fract_z
Si Si1 0.928341 0.126573 0.800890
Si Si2 0.635176 0.070882 0.488690
Si Si3 0.059367 0.344319 0.468139
Si Si4 0.786924 0.450541 0.758728
Si Si5 0.207037 0.052289 0.503107
Si Si6 0.500000 0.500000 0.558561
Si Si7 0.638049 0.422437 0.273532
Si Si8 0.556928 0.231766 0.324869
O O1 0.911981 0.252322 0.855175
O O2 0.971357 0.098895 0.663563
O O3 0.876814 0.055416 0.748125
O O4 0.957086 0.068083 0.951654
O O5 0.663499 0.093845 0.653370
O O6 0.604039 0.180092 0.429585
O O7 0.591147 0.965806 0.472422
O O8 0.683095 0.041318 0.369461
O O9 0.057674 0.312213 0.648895
O O10 0.998214 0.319392 0.401009
O O11 0.747718 0.509726 0.635364
O O12 0.745230 0.386271 0.875074
O O13 0.163385 0.120685 0.610465
O O14 0.179190 0.941830 0.416964
O O15 0.580586 0.361353 0.310893
#
# Coordination Sequence:
#
# PCOD9354011 Si02
#       8
#     8   8   8   8   8   4   8   8
#     4  11  21  38  61  93 136 185 229 285 352 416
#     4  11  23  45  71  94 138 184 238 292 354 408
#     4  12  26  42  65  98 141 191 240 283 343 427
#     4   9  20  44  73  95 129 175 231 302 349 420
#     4   9  20  41  74  99 131 172 229 294 364 424
#     4  10  20  36  58  92 134 188 236 288 344 426
#     4  11  22  41  69 102 142 177 224 292 362 434
#     4  12  27  43  66 101 143 189 235 291 349 426
#
# _framework density 24.345229
#
# number of rings (size 3 to 8) (size 9 to 14) (size 15 to 20)
#    0.000    1.333    1.333    5.200    1.867    2.133 
#    0.000    6.000    8.800    0.000    0.000    0.000 
#    0.000    0.000    0.000    0.000    0.000    0.000 
#
# Total GULP energy -167217.625319 kJ/mol
# GULP energy per Si atom -5573.920844 kJ/mol
# Density = 2.428982 g / cm^3
# Si number density = 24.345229 Si / 1000 Ang^3
#
#
#
# Elastic Constant Matrix: (Units=GPa)
#
#
# Indices 1 2 3 4 5 6 
#
# 1 127.3526 19.7502 50.8406 0.0000 0.0000 0.0000
# 2 19.7502 39.1825 10.1248 0.0000 0.0000 0.0000
# 3 50.8406 10.1248 152.5618 0.0000 0.0000 0.0000
# 4 0.0000 0.0000 0.0000 17.7318 0.0000 0.0000
# 5 0.0000 0.0000 0.0000 0.0000 55.2168 0.0000
# 6 0.0000 0.0000 0.0000 0.0000 0.0000 -69.4161
#
#
#
# Elastic Compliance Matrix: (Units=1/GPa)
#
#
# Indices 1 2 3 4 5 6 
#
# 1 0.009667 -0.004111 -0.002949 0.000000 0.000000 0.000000
# 2 -0.004111 0.027715 -0.000469 0.000000 0.000000 0.000000
# 3 -0.002949 -0.000469 0.007568 0.000000 0.000000 0.000000
# 4 0.000000 0.000000 0.000000 0.056396 0.000000 0.000000
# 5 0.000000 0.000000 0.000000 0.000000 0.018110 0.000000
# 6 0.000000 0.000000 0.000000 0.000000 0.000000 -0.014406
#
#
# Mechanical properties :
#
#
# Convention : Reuss Voigt Hill
#
# Bulk Modulus (GPa) = 33.45297 53.39201 43.42249
# Shear Modulus (GPa) = 38.44009 16.59858 27.51933
#
# Velocity S-wave (km/s) = 3.97792 2.61396 3.36576
# Velocity P-wave (km/s) = 5.90503 5.57577 5.74276
#
# Compressibility (1/GPa) = 0.02989272
#
# Stress axis : x y z
#
# Youngs Moduli (GPa) = 103.44640 36.08168 132.12670
#
# Poissons Ratio (x) = 0.14832 0.38959
# Poissons Ratio (y) = 0.42524 0.06202
# Poissons Ratio (z) = 0.30503 0.01694
#
# Static dielectric constant tensor:
#      x y z
#    x 2.085840 0.000000 0.000000 
#    y 0.000000 1.951820 0.000000 
#    z 0.000000 0.000000 1.960860 
# 
# From -- ./inp_files/4798.got.cif
#   From: 2010.05.17/outbox.cif.g08.bks.cpg/sg37_3_cif.got.tgz:4798.got - 2010.06.03 17:53:42.
