data_PCOD9354332
_publ_section_title
;
Structure prediction by ZEFSAII (Michael W. Deem and Ramdas Pophale) SiO2 
 PCOD9354332
Probable space group: C C C 2
;
_chemical_formula_sum "Si O2"
_cell_formula_units_Z 60
_cell_length_a 14.781253
_cell_length_b 25.242906
_cell_length_c 8.560143
_cell_angle_alpha 90.000000
_cell_angle_beta 90.000000
_cell_angle_gamma 90.000000
_cell_volume 3193.975794
_symmetry_space_group_name_H-M "C C C 2"
_symmetry_group_IT_number 37
_symmetry_cell_setting 'orthorhombic'
loop_
_space_group_symop_operation_xyz
x,y,z
-x,-y,z
-x,y,1/2+z
x,-y,1/2+z
1/2+x,1/2+y,z
1/2-x,1/2-y,z
1/2-x,1/2+y,1/2+z
1/2+x,1/2-y,1/2+z
loop_
_atom_site_type_symbol
_atom_site_label
_atom_site_fract_x
_atom_site_fract_y
_atom_site_fract_z
Si Si1 0.750000 0.250000 0.205971
Si Si2 0.095006 0.061980 0.804500
Si Si3 0.590399 0.280712 0.984888
Si Si4 0.920928 0.099972 0.965923
Si Si5 0.776775 0.565791 0.964567
Si Si6 0.278306 0.466387 0.295490
Si Si7 0.956414 0.285615 0.696031
Si Si8 0.621353 0.168309 0.386022
O O1 0.695932 0.207625 0.311106
O O2 0.679086 0.279464 0.092511
O O3 0.079791 0.096194 0.651658
O O4 0.175636 0.083547 0.912691
O O5 0.003133 0.064369 0.901496
O O6 0.137794 0.005823 0.745706
O O7 0.568052 0.338955 0.922921
O O8 0.597825 0.241644 0.836830
O O9 0.511004 0.258554 0.096395
O O10 0.826924 0.077051 0.901164
O O11 0.784317 0.506981 0.891260
O O12 0.844645 0.608180 0.894090
O O13 0.772383 0.558748 0.149813
O O14 0.898899 0.315236 0.564779
O O15 0.031875 0.322239 0.781001
#
# Coordination Sequence:
#
# PCOD9354332 Si02
#       8
#     4   8   8   8   8   8   8   8
#     4  10  22  36  58  90 126 150 198 256 298 356
#     4  10  21  33  50  82 117 159 198 239 273 355
#     4  10  21  36  56  88 118 157 196 250 295 362
#     4  12  20  33  55  77 122 165 197 227 296 354
#     4  10  21  38  58  81 111 152 196 244 303 339
#     4  10  21  36  51  82 115 150 198 246 282 355
#     4   9  21  41  60  86 121 152 207 250 296 361
#     4  10  21  41  66  85 118 160 196 251 309 359
#
# _framework density 18.785366
#
# number of rings (size 3 to 8) (size 9 to 14) (size 15 to 20)
#    0.800    1.067    1.333    2.800    0.000    5.867 
#    0.000    4.000    0.000    2.400    0.000    0.000 
#    0.000    0.000    0.000    0.000    0.000    0.000 
#
# Total GULP energy -167216.553623 kJ/mol
# GULP energy per Si atom -5573.885121 kJ/mol
# Density = 1.874261 g / cm^3
# Si number density = 18.785366 Si / 1000 Ang^3
#
#
#
# Elastic Constant Matrix: (Units=GPa)
#
#
# Indices 1 2 3 4 5 6 
#
# 1 37.4692 21.0390 20.7350 0.0000 0.0000 0.0000
# 2 21.0390 74.9272 17.5773 0.0000 0.0000 0.0000
# 3 20.7350 17.5773 100.6662 0.0000 0.0000 0.0000
# 4 0.0000 0.0000 0.0000 15.8034 0.0000 0.0000
# 5 0.0000 0.0000 0.0000 0.0000 16.0728 0.0000
# 6 0.0000 0.0000 0.0000 0.0000 0.0000 14.2632
#
#
#
# Elastic Compliance Matrix: (Units=1/GPa)
#
#
# Indices 1 2 3 4 5 6 
#
# 1 0.034511 -0.008366 -0.005648 0.000000 0.000000 0.000000
# 2 -0.008366 0.015944 -0.001061 0.000000 0.000000 0.000000
# 3 -0.005648 -0.001061 0.011282 0.000000 0.000000 0.000000
# 4 0.000000 0.000000 0.000000 0.063278 0.000000 0.000000
# 5 0.000000 0.000000 0.000000 0.000000 0.062217 0.000000
# 6 0.000000 0.000000 0.000000 0.000000 0.000000 0.070111
#
#
# Mechanical properties :
#
#
# Convention : Reuss Voigt Hill
#
# Bulk Modulus (GPa) = 31.65633 36.86278 34.25956
# Shear Modulus (GPa) = 16.77733 19.47530 18.12632
#
# Velocity S-wave (km/s) = 2.99173 3.22332 3.10968
# Velocity P-wave (km/s) = 5.36862 5.78954 5.58305
#
# Compressibility (1/GPa) = 0.03158926
#
# Stress axis : x y z
#
# Youngs Moduli (GPa) = 28.97598 62.71892 88.63371
#
# Poissons Ratio (x) = 0.52468 0.50059
# Poissons Ratio (y) = 0.24240 0.09403
# Poissons Ratio (z) = 0.16365 0.06654
#
# Static dielectric constant tensor:
#      x y z
#    x 1.653870 0.000000 0.000000 
#    y 0.000000 1.660560 0.000000 
#    z 0.000000 0.000000 1.629410 
# 
# From -- ./inp_files/3736.got.cif
#   From: 2010.05.17/outbox.cif.g08.bks.cpg/sg37_2_cif.got.tgz:3736.got - 2010.06.03 17:53:42.
