data_PCOD9354253
_publ_section_title
;
Structure prediction by ZEFSAII (Michael W. Deem and Ramdas Pophale) SiO2 
 PCOD9354253
Probable space group: C C C 2
;
_chemical_formula_sum "Si O2"
_cell_formula_units_Z 56
_cell_length_a 14.252556
_cell_length_b 5.494780
_cell_length_c 32.613691
_cell_angle_alpha 90.000000
_cell_angle_beta 90.000000
_cell_angle_gamma 90.000000
_cell_volume 2554.130111
_symmetry_space_group_name_H-M "C C C 2"
_symmetry_group_IT_number 37
_symmetry_cell_setting 'orthorhombic'
loop_
_space_group_symop_operation_xyz
x,y,z
-x,-y,z
-x,y,1/2+z
x,-y,1/2+z
1/2+x,1/2+y,z
1/2-x,1/2-y,z
1/2-x,1/2+y,1/2+z
1/2+x,1/2-y,1/2+z
loop_
_atom_site_type_symbol
_atom_site_label
_atom_site_fract_x
_atom_site_fract_y
_atom_site_fract_z
Si Si1 0.114494 0.996629 0.175390
Si Si2 0.750000 0.750000 0.327335
Si Si3 0.940688 0.763054 0.923791
Si Si4 0.701476 0.003367 0.556444
Si Si5 0.112312 0.041632 0.769938
Si Si6 0.250000 0.750000 0.475377
Si Si7 0.603178 0.109155 0.338529
Si Si8 0.892816 0.498333 0.634919
O O1 0.145550 0.250180 0.154950
O O2 0.141736 0.974146 0.222975
O O3 0.145945 0.753773 0.151746
O O4 0.000000 0.000000 0.174265
O O5 0.810791 0.559186 0.353096
O O6 0.830161 0.856905 0.297919
O O7 0.842994 0.780895 0.948368
O O8 0.914132 0.794301 0.875724
O O9 0.000000 0.500000 0.927719
O O10 0.000000 0.000000 0.936540
O O11 0.750000 0.750000 0.565717
O O12 0.610942 0.001719 0.585358
O O13 0.750000 0.250000 0.572164
O O14 0.712916 0.043418 0.507732
O O15 0.131546 0.291042 0.794107
O O16 0.000000 0.000000 0.772292
O O17 0.500000 0.000000 0.333111
O O18 0.000000 0.500000 0.648392
#
# Coordination Sequence:
#
# PCOD9354253 Si02
#       8
#     8   4   8   8   8   4   8   8
#     4   9  21  37  66  95 135 181 230 288 346 397
#     4  12  26  42  67 102 134 190 246 281 360 410
#     4  11  28  48  76 110 144 190 238 286 361 431
#     4  10  23  43  63  99 135 173 221 276 363 411
#     4  11  23  43  66  97 143 188 243 300 343 413
#     4  10  28  48  79 106 150 178 232 301 360 422
#     4  11  25  45  71 101 145 189 240 294 351 418
#     4  10  20  41  66  97 129 180 230 280 348 418
#
# _framework density 21.925274999999999
#
# number of rings (size 3 to 8) (size 9 to 14) (size 15 to 20)
#    0.429    1.143    1.429    1.714    8.000    1.143 
#    3.857    0.000    0.000    0.000    0.000    0.000 
#    0.000    0.000    0.000    0.000    0.000    0.000 
#
# Total GULP energy -155879.572128 kJ/mol
# GULP energy per Si atom -5567.127576 kJ/mol
# Density = 2.187537 g / cm^3
# Si number density = 21.925275 Si / 1000 Ang^3
#
#
#
# Elastic Constant Matrix: (Units=GPa)
#
#
# Indices 1 2 3 4 5 6 
#
# 1 115.5963 40.2481 36.5718 0.0000 0.0000 0.0000
# 2 40.2481 138.8091 38.3051 0.0000 0.0000 0.0000
# 3 36.5718 38.3051 114.2390 0.0000 0.0000 0.0000
# 4 0.0000 0.0000 0.0000 14.6245 0.0000 0.0000
# 5 0.0000 0.0000 0.0000 0.0000 22.0150 0.0000
# 6 0.0000 0.0000 0.0000 0.0000 0.0000 11.9551
#
#
#
# Elastic Compliance Matrix: (Units=1/GPa)
#
#
# Indices 1 2 3 4 5 6 
#
# 1 0.010238 -0.002275 -0.002515 0.000000 0.000000 0.000000
# 2 -0.002275 0.008444 -0.002103 0.000000 0.000000 0.000000
# 3 -0.002515 -0.002103 0.010264 0.000000 0.000000 0.000000
# 4 0.000000 0.000000 0.000000 0.068378 0.000000 0.000000
# 5 0.000000 0.000000 0.000000 0.000000 0.045424 0.000000
# 6 0.000000 0.000000 0.000000 0.000000 0.000000 0.083647
#
#
# Mechanical properties :
#
#
# Convention : Reuss Voigt Hill
#
# Bulk Modulus (GPa) = 65.95930 66.54381 66.25155
# Shear Modulus (GPa) = 20.38867 26.62019 23.50443
#
# Velocity S-wave (km/s) = 3.05276 3.48822 3.27773
# Velocity P-wave (km/s) = 6.52494 6.82933 6.67887
#
# Compressibility (1/GPa) = 0.01516086
#
# Stress axis : x y z
#
# Youngs Moduli (GPa) = 97.67095 118.42645 97.42872
#
# Poissons Ratio (x) = 0.26938 0.24503
# Poissons Ratio (y) = 0.22217 0.20491
# Poissons Ratio (z) = 0.24564 0.24907
#
# Static dielectric constant tensor:
#      x y z
#    x 1.727410 0.000000 0.000000 
#    y 0.000000 1.894380 0.000000 
#    z 0.000000 0.000000 1.772040 
# 
# From -- ./inp_files/20584.got.cif
#   From: 2010.05.17/outbox.cif.g08.bks.cpg/sg37_11_cif.got.tgz:20584.got - 2010.06.03 17:53:42.
