data_PCOD9354107
_publ_section_title
;
Structure prediction by ZEFSAII (Michael W. Deem and Ramdas Pophale) SiO2 
 PCOD9354107
Probable space group: C C C 2
;
_chemical_formula_sum "Si O2"
_cell_formula_units_Z 36
_cell_length_a 4.861740
_cell_length_b 20.725027
_cell_length_c 16.260855
_cell_angle_alpha 90.000000
_cell_angle_beta 90.000000
_cell_angle_gamma 90.000000
_cell_volume 1638.438754
_symmetry_space_group_name_H-M "C C C 2"
_symmetry_group_IT_number 37
_symmetry_cell_setting 'orthorhombic'
loop_
_space_group_symop_operation_xyz
x,y,z
-x,-y,z
-x,y,1/2+z
x,-y,1/2+z
1/2+x,1/2+y,z
1/2-x,1/2-y,z
1/2-x,1/2+y,1/2+z
1/2+x,1/2-y,1/2+z
loop_
_atom_site_type_symbol
_atom_site_label
_atom_site_fract_x
_atom_site_fract_y
_atom_site_fract_z
Si Si1 0.750000 0.250000 0.439610
Si Si2 0.414667 0.071630 0.889138
Si Si3 0.136100 0.361921 0.053087
Si Si4 0.925438 0.851761 0.330574
Si Si5 0.159178 0.175164 0.651511
O O1 0.919718 0.298018 0.498286
O O2 0.957227 0.207525 0.384735
O O3 0.110783 0.088055 0.859015
O O4 0.616054 0.125633 0.848572
O O5 0.500000 0.000000 0.866800
O O6 0.411433 0.081668 0.987834
O O7 0.445474 0.349265 0.082684
O O8 0.936734 0.363758 0.131131
O O9 0.005523 0.836077 0.237341
O O10 0.250000 0.250000 0.648422
#
# Coordination Sequence:
#
# PCOD9354107 Si02
#       5
#     4   8   8   8   8
#     4  10  20  38  60 100 124 176 206 270 328 404
#     4  11  25  46  66  92 129 182 234 272 310 386
#     4  11  23  38  67  92 135 168 216 263 333 391
#     4  11  24  40  69  94 134 170 225 269 337 393
#     4  12  22  41  61 103 136 165 202 270 348 404
#
# _framework density 21.972135000000002
#
# number of rings (size 3 to 8) (size 9 to 14) (size 15 to 20)
#    0.000    0.889    3.333    4.667    0.000    2.667 
#    0.000    6.667    0.000    0.000    0.000    0.000 
#    0.000    0.000    0.000    0.000    0.000    0.000 
#
# Total GULP energy -100610.275624 kJ/mol
# GULP energy per Si atom -5589.459757 kJ/mol
# Density = 2.192213 g / cm^3
# Si number density = 21.972135 Si / 1000 Ang^3
#
#
#
# Elastic Constant Matrix: (Units=GPa)
#
#
# Indices 1 2 3 4 5 6 
#
# 1 84.9327 -9.2695 8.1673 0.0000 0.0000 0.0000
# 2 -9.2695 56.1495 -3.0979 0.0000 0.0000 0.0000
# 3 8.1673 -3.0979 86.1485 0.0000 0.0000 0.0000
# 4 0.0000 0.0000 0.0000 5.3184 0.0000 0.0000
# 5 0.0000 0.0000 0.0000 0.0000 35.5984 0.0000
# 6 0.0000 0.0000 0.0000 0.0000 0.0000 21.6900
#
#
#
# Elastic Compliance Matrix: (Units=1/GPa)
#
#
# Indices 1 2 3 4 5 6 
#
# 1 0.012089 0.001936 -0.001076 0.000000 0.000000 0.000000
# 2 0.001936 0.018155 0.000469 0.000000 0.000000 0.000000
# 3 -0.001076 0.000469 0.011727 0.000000 0.000000 0.000000
# 4 0.000000 0.000000 0.000000 0.188026 0.000000 0.000000
# 5 0.000000 0.000000 0.000000 0.000000 0.028091 0.000000
# 6 0.000000 0.000000 0.000000 0.000000 0.000000 0.046104
#
#
# Mechanical properties :
#
#
# Convention : Reuss Voigt Hill
#
# Bulk Modulus (GPa) = 22.40689 24.31449 23.36069
# Shear Modulus (GPa) = 15.80225 27.95008 21.87617
#
# Velocity S-wave (km/s) = 2.68469 3.57048 3.15879
# Velocity P-wave (km/s) = 4.45310 5.29979 4.89479
#
# Compressibility (1/GPa) = 0.04462913
#
# Stress axis : x y z
#
# Youngs Moduli (GPa) = 82.72067 55.08079 85.27482
#
# Poissons Ratio (x) = -0.10665 0.09179
# Poissons Ratio (y) = -0.16017 -0.04002
# Poissons Ratio (z) = 0.08904 -0.02585
#
# Static dielectric constant tensor:
#      x y z
#    x 1.821170 0.000000 0.000000 
#    y 0.000000 1.801980 0.000000 
#    z 0.000000 0.000000 1.830670 
# 
# From -- ./inp_files/9547.got.cif
#   From: 2010.05.17/outbox.cif.g08.bks.cpg/sg37_5_cif.got.tgz:9547.got - 2010.06.03 17:53:42.
