data_PCOD9354159
_publ_section_title
;
Structure prediction by ZEFSAII (Michael W. Deem and Ramdas Pophale) SiO2 
 PCOD9354159
Probable space group: C C C 2
;
_chemical_formula_sum "Si O2"
_cell_formula_units_Z 44
_cell_length_a 25.721322
_cell_length_b 9.082503
_cell_length_c 8.673835
_cell_angle_alpha 90.000000
_cell_angle_beta 90.000000
_cell_angle_gamma 90.000000
_cell_volume 2026.329153
_symmetry_space_group_name_H-M "C C C 2"
_symmetry_group_IT_number 37
_symmetry_cell_setting 'orthorhombic'
loop_
_space_group_symop_operation_xyz
x,y,z
-x,-y,z
-x,y,1/2+z
x,-y,1/2+z
1/2+x,1/2+y,z
1/2-x,1/2-y,z
1/2-x,1/2+y,1/2+z
1/2+x,1/2-y,1/2+z
loop_
_atom_site_type_symbol
_atom_site_label
_atom_site_fract_x
_atom_site_fract_y
_atom_site_fract_z
Si Si1 0.000000 0.000000 0.857390
Si Si2 0.352063 0.910318 0.630768
Si Si3 0.802162 0.187319 0.855303
Si Si4 0.336848 0.467084 0.656684
Si Si5 0.434563 0.672564 0.612380
Si Si6 0.690194 0.810132 0.805097
O O1 0.972858 0.125282 0.751410
O O2 0.038831 0.096518 0.963964
O O3 0.333314 0.818426 0.779216
O O4 0.410726 0.840184 0.602540
O O5 0.320106 0.869564 0.476540
O O6 0.334846 0.074646 0.682280
O O7 0.750000 0.250000 0.923546
O O8 0.790151 0.070499 0.718674
O O9 0.829726 0.103029 0.991413
O O10 0.384293 0.575665 0.650370
O O11 0.343053 0.337303 0.778265
O O12 0.750000 0.750000 0.786383
#
# Coordination Sequence:
#
# PCOD9354159 Si02
#       6
#     4   8   8   8   8   8
#     4  10  20  38  72 100 124 152 218 270 334 404
#     4  11  24  41  62  90 132 167 218 266 321 378
#     4  11  22  37  56  85 121 169 216 261 307 372
#     4  11  22  39  63  88 129 167 212 261 320 379
#     4  10  21  40  66  98 122 163 206 271 328 385
#     4  12  25  41  62  93 132 179 217 257 307 378
#
# _framework density 21.714144000000001
#
# number of rings (size 3 to 8) (size 9 to 14) (size 15 to 20)
#    0.000    1.091    0.000    8.727    0.000    4.364 
#    0.000    1.818    0.000   18.545    0.000    0.000 
#    0.000    0.000    0.000    0.000    0.000    0.000 
#
# Total GULP energy -122650.354369 kJ/mol
# GULP energy per Si atom -5575.016108 kJ/mol
# Density = 2.166472 g / cm^3
# Si number density = 21.714144 Si / 1000 Ang^3
#
#
#
# Elastic Constant Matrix: (Units=GPa)
#
#
# Indices 1 2 3 4 5 6 
#
# 1 80.9001 37.7886 25.5124 0.0000 0.0000 0.0000
# 2 37.7886 112.7126 22.7687 0.0000 0.0000 0.0000
# 3 25.5124 22.7687 95.8660 0.0000 0.0000 0.0000
# 4 0.0000 0.0000 0.0000 20.3996 0.0000 0.0000
# 5 0.0000 0.0000 0.0000 0.0000 24.0576 0.0000
# 6 0.0000 0.0000 0.0000 0.0000 0.0000 27.6430
#
#
#
# Elastic Compliance Matrix: (Units=1/GPa)
#
#
# Indices 1 2 3 4 5 6 
#
# 1 0.015449 -0.004568 -0.003026 0.000000 0.000000 0.000000
# 2 -0.004568 0.010670 -0.001318 0.000000 0.000000 0.000000
# 3 -0.003026 -0.001318 0.011550 0.000000 0.000000 0.000000
# 4 0.000000 0.000000 0.000000 0.049021 0.000000 0.000000
# 5 0.000000 0.000000 0.000000 0.000000 0.041567 0.000000
# 6 0.000000 0.000000 0.000000 0.000000 0.000000 0.036176
#
#
# Mechanical properties :
#
#
# Convention : Reuss Voigt Hill
#
# Bulk Modulus (GPa) = 50.39630 51.29091 50.84360
# Shear Modulus (GPa) = 26.47291 27.98065 27.22678
#
# Velocity S-wave (km/s) = 3.49543 3.59359 3.54485
# Velocity P-wave (km/s) = 6.28888 6.39459 6.34196
#
# Compressibility (1/GPa) = 0.01984273
#
# Stress axis : x y z
#
# Youngs Moduli (GPa) = 64.72846 93.72054 86.58175
#
# Poissons Ratio (x) = 0.42813 0.26203
# Poissons Ratio (y) = 0.29569 0.11416
# Poissons Ratio (z) = 0.19590 0.12357
#
# Static dielectric constant tensor:
#      x y z
#    x 1.892880 0.000000 0.000000 
#    y 0.000000 1.833910 0.000000 
#    z 0.000000 0.000000 1.826430 
# 
# From -- ./inp_files/2346.got.cif
#   From: 2010.05.17/outbox.cif.g08.bks.cpg/sg37_2_cif.got.tgz:2346.got - 2010.06.03 17:53:42.
