data_PCOD9354620
_publ_section_title
;
Structure prediction by ZEFSAII (Michael W. Deem and Ramdas Pophale) SiO2 
 PCOD9354620
Probable space group: C C C 2
;
_chemical_formula_sum "Si O2"
_cell_formula_units_Z 52
_cell_length_a 6.593282
_cell_length_b 29.885998
_cell_length_c 14.088041
_cell_angle_alpha 90.000000
_cell_angle_beta 90.000000
_cell_angle_gamma 90.000000
_cell_volume 2776.003576
_symmetry_space_group_name_H-M "C C C 2"
_symmetry_group_IT_number 37
_symmetry_cell_setting 'orthorhombic'
loop_
_space_group_symop_operation_xyz
x,y,z
-x,-y,z
-x,y,1/2+z
x,-y,1/2+z
1/2+x,1/2+y,z
1/2-x,1/2-y,z
1/2-x,1/2+y,1/2+z
1/2+x,1/2-y,1/2+z
loop_
_atom_site_type_symbol
_atom_site_label
_atom_site_fract_x
_atom_site_fract_y
_atom_site_fract_z
Si Si1 0.234658 0.697749 0.210850
Si Si2 0.500000 0.000000 0.968895
Si Si3 0.533668 0.354973 0.059877
Si Si4 0.319643 0.935342 0.125599
Si Si5 0.353179 0.138280 0.183604
Si Si6 0.824731 0.036252 0.323886
Si Si7 0.510384 0.365345 0.839888
O O1 0.250000 0.750000 0.230005
O O2 0.347603 0.684602 0.113070
O O3 0.355564 0.668929 0.289514
O O4 0.006888 0.679143 0.201421
O O5 0.651991 0.973716 0.900199
O O6 0.381581 0.965765 0.037238
O O7 0.640909 0.400869 0.096404
O O8 0.303294 0.354546 0.097215
O O9 0.551397 0.352146 0.947667
O O10 0.506775 0.904347 0.159876
O O11 0.255064 0.964813 0.215776
O O12 0.212161 0.132240 0.275789
O O13 0.910190 0.085840 0.339045
O O14 0.000000 0.000000 0.336261
#
# Coordination Sequence:
#
# PCOD9354620 Si02
#       7
#     8   4   8   8   8   8   8
#     4  10  23  45  65 100 133 168 218 265 335 399
#     4  12  28  38  64  96 130 176 232 274 322 398
#     4  10  22  41  67  96 128 173 215 268 328 391
#     4  11  24  42  63  94 127 174 220 270 332 386
#     4  10  21  43  69  86 134 172 204 282 326 386
#     4  12  26  41  63  93 131 172 224 280 328 394
#     4  11  23  42  67  97 129 172 221 270 330 388
#
# _framework density 18.731964999999999
#
# number of rings (size 3 to 8) (size 9 to 14) (size 15 to 20)
#    0.000    1.231    4.615    2.308    6.462    6.769 
#    5.538    0.000    0.000    0.000    0.000    0.000 
#    0.000    0.000    0.000    0.000    0.000    0.000 
#
# Total GULP energy -145348.063535 kJ/mol
# GULP energy per Si atom -5590.310136 kJ/mol
# Density = 1.868933 g / cm^3
# Si number density = 18.731965 Si / 1000 Ang^3
#
#
#
# Elastic Constant Matrix: (Units=GPa)
#
#
# Indices 1 2 3 4 5 6 
#
# 1 93.3049 39.0339 29.9197 0.0000 0.0000 0.0000
# 2 39.0339 130.6254 37.4311 0.0000 0.0000 0.0000
# 3 29.9197 37.4311 121.5967 0.0000 0.0000 0.0000
# 4 0.0000 0.0000 0.0000 -4.2255 0.0000 0.0000
# 5 0.0000 0.0000 0.0000 0.0000 5.0546 0.0000
# 6 0.0000 0.0000 0.0000 0.0000 0.0000 13.2098
#
#
#
# Elastic Compliance Matrix: (Units=1/GPa)
#
#
# Indices 1 2 3 4 5 6 
#
# 1 0.012743 -0.003191 -0.002153 0.000000 0.000000 0.000000
# 2 -0.003191 0.009195 -0.002045 0.000000 0.000000 0.000000
# 3 -0.002153 -0.002045 0.009383 0.000000 0.000000 0.000000
# 4 0.000000 0.000000 0.000000 -0.236656 0.000000 0.000000
# 5 0.000000 0.000000 0.000000 0.000000 0.197840 0.000000
# 6 0.000000 0.000000 0.000000 0.000000 0.000000 0.075701
#
#
# Mechanical properties :
#
#
# Convention : Reuss Voigt Hill
#
# Bulk Modulus (GPa) = 60.45077 62.03292 61.24185
# Shear Modulus (GPa) = 56.49764 18.75060 37.62412
#
# Velocity S-wave (km/s) = 5.49787 3.16728 4.48655
# Velocity P-wave (km/s) = 8.52312 6.82375 7.72033
#
# Compressibility (1/GPa) = 0.01654239
#
# Stress axis : x y z
#
# Youngs Moduli (GPa) = 78.47508 108.75362 106.57162
#
# Poissons Ratio (x) = 0.34702 0.22947
# Poissons Ratio (y) = 0.25040 0.21798
# Poissons Ratio (z) = 0.16898 0.22244
#
# Static dielectric constant tensor:
#      x y z
#    x 1.651360 0.000000 0.000000 
#    y 0.000000 1.627480 0.000000 
#    z 0.000000 0.000000 1.641240 
# 
# From -- ./inp_files/9920.got.cif
#   From: 2010.05.17/outbox.cif.g08.bks.cpg/sg37_5_cif.got.tgz:9920.got - 2010.06.03 17:53:42.
