data_PCOD9354188
_publ_section_title
;
Structure prediction by ZEFSAII (Michael W. Deem and Ramdas Pophale) SiO2 
 PCOD9354188
Probable space group: C C C 2
;
_chemical_formula_sum "Si O2"
_cell_formula_units_Z 52
_cell_length_a 20.529389
_cell_length_b 7.554339
_cell_length_c 17.387366
_cell_angle_alpha 90.000000
_cell_angle_beta 90.000000
_cell_angle_gamma 90.000000
_cell_volume 2696.536417
_symmetry_space_group_name_H-M "C C C 2"
_symmetry_group_IT_number 37
_symmetry_cell_setting 'orthorhombic'
loop_
_space_group_symop_operation_xyz
x,y,z
-x,-y,z
-x,y,1/2+z
x,-y,1/2+z
1/2+x,1/2+y,z
1/2-x,1/2-y,z
1/2-x,1/2+y,1/2+z
1/2+x,1/2-y,1/2+z
loop_
_atom_site_type_symbol
_atom_site_label
_atom_site_fract_x
_atom_site_fract_y
_atom_site_fract_z
Si Si1 0.456682 0.168316 0.171340
Si Si2 0.181790 0.155600 0.637180
Si Si3 0.129248 0.414785 0.763253
Si Si4 0.424230 0.434735 0.045283
Si Si5 0.500000 0.500000 0.762013
Si Si6 0.769446 0.954002 0.285265
Si Si7 0.390915 0.395370 0.868264
O O1 0.591588 0.911649 0.235822
O O2 0.421415 0.261945 0.100051
O O3 0.498868 0.325961 0.209240
O O4 0.500000 0.000000 0.147679
O O5 0.250000 0.250000 0.610275
O O6 0.141867 0.299385 0.686632
O O7 0.130750 0.070348 0.577698
O O8 0.202335 0.008276 0.701142
O O9 0.201256 0.448523 0.793711
O O10 0.097363 0.296601 0.829460
O O11 0.500000 0.500000 0.048357
O O12 0.407147 0.396412 0.957204
O O13 0.438893 0.515785 0.817846
O O14 0.750000 0.750000 0.290308
O O15 0.820050 0.028618 0.347334
#
# Coordination Sequence:
#
# PCOD9354188 Si02
#       7
#     8   8   8   8   4   8   8
#     4  12  23  41  69  96 130 172 228 271 328 393
#     4   9  20  40  67  94 130 171 224 276 329 395
#     4  10  20  42  66  94 121 168 224 270 311 391
#     4  12  24  41  62  97 141 173 213 277 344 399
#     4  12  22  42  66  90 124 176 218 270 312 386
#     4  10  20  39  66  94 123 169 229 273 317 386
#     4  11  23  40  61  94 135 173 208 269 337 386
#
# _framework density 19.283995999999998
#
# number of rings (size 3 to 8) (size 9 to 14) (size 15 to 20)
#    0.000    1.231    3.077    6.000    0.000    0.615 
#    2.769    9.231    0.000    0.000    0.000    0.000 
#    0.000    0.000    0.000    0.000    0.000    0.000 
#
# Total GULP energy -145036.205157 kJ/mol
# GULP energy per Si atom -5578.315583 kJ/mol
# Density = 1.924011 g / cm^3
# Si number density = 19.283996 Si / 1000 Ang^3
#
#
#
# Elastic Constant Matrix: (Units=GPa)
#
#
# Indices 1 2 3 4 5 6 
#
# 1 117.8415 44.9936 56.3104 0.0000 0.0000 0.0000
# 2 44.9936 115.4306 58.2718 0.0000 0.0000 0.0000
# 3 56.3104 58.2718 121.7175 0.0000 0.0000 0.0000
# 4 0.0000 0.0000 0.0000 12.9138 0.0000 0.0000
# 5 0.0000 0.0000 0.0000 0.0000 18.2801 0.0000
# 6 0.0000 0.0000 0.0000 0.0000 0.0000 35.9450
#
#
#
# Elastic Compliance Matrix: (Units=1/GPa)
#
#
# Indices 1 2 3 4 5 6 
#
# 1 0.011354 -0.002339 -0.004133 0.000000 0.000000 0.000000
# 2 -0.002339 0.011906 -0.004618 0.000000 0.000000 0.000000
# 3 -0.004133 -0.004618 0.012338 0.000000 0.000000 0.000000
# 4 0.000000 0.000000 0.000000 0.077436 0.000000 0.000000
# 5 0.000000 0.000000 0.000000 0.000000 0.054704 0.000000
# 6 0.000000 0.000000 0.000000 0.000000 0.000000 0.027820
#
#
# Mechanical properties :
#
#
# Convention : Reuss Voigt Hill
#
# Bulk Modulus (GPa) = 74.52213 74.90459 74.71336
# Shear Modulus (GPa) = 22.50099 26.45537 24.47818
#
# Velocity S-wave (km/s) = 3.41958 3.70791 3.56666
# Velocity P-wave (km/s) = 7.37020 7.56695 7.46922
#
# Compressibility (1/GPa) = 0.01341883
#
# Stress axis : x y z
#
# Youngs Moduli (GPa) = 88.07453 83.98962 81.04749
#
# Poissons Ratio (x) = 0.19648 0.33495
# Poissons Ratio (y) = 0.20604 0.37426
# Poissons Ratio (z) = 0.36399 0.38785
#
# Static dielectric constant tensor:
#      x y z
#    x 1.756310 0.000000 0.000000 
#    y 0.000000 1.721220 0.000000 
#    z 0.000000 0.000000 1.630570 
# 
# From -- ./inp_files/12879.got.cif
#   From: 2010.05.17/outbox.cif.g08.bks.cpg/sg37_7_cif.got.tgz:12879.got - 2010.06.03 17:53:42.
