data_PCOD9354706
_publ_section_title
;
Structure prediction by ZEFSAII (Michael W. Deem and Ramdas Pophale) SiO2 
 PCOD9354706
Probable space group: C C C 2
;
_chemical_formula_sum "Si O2"
_cell_formula_units_Z 48
_cell_length_a 16.549989
_cell_length_b 6.534124
_cell_length_c 20.454928
_cell_angle_alpha 90.000000
_cell_angle_beta 90.000000
_cell_angle_gamma 90.000000
_cell_volume 2211.989375
_symmetry_space_group_name_H-M "C C C 2"
_symmetry_group_IT_number 37
_symmetry_cell_setting 'orthorhombic'
loop_
_space_group_symop_operation_xyz
x,y,z
-x,-y,z
-x,y,1/2+z
x,-y,1/2+z
1/2+x,1/2+y,z
1/2-x,1/2-y,z
1/2-x,1/2+y,1/2+z
1/2+x,1/2-y,1/2+z
loop_
_atom_site_type_symbol
_atom_site_label
_atom_site_fract_x
_atom_site_fract_y
_atom_site_fract_z
Si Si1 0.500000 0.000000 0.290650
Si Si2 0.681691 0.931354 0.742811
Si Si3 0.573517 0.608556 0.533063
Si Si4 0.663974 0.783479 0.974274
Si Si5 0.250000 0.750000 0.847164
Si Si6 0.588552 0.167550 0.906185
Si Si7 0.181525 0.421012 0.596414
O O1 0.583232 0.085829 0.256395
O O2 0.463704 0.168371 0.340772
O O3 0.750000 0.750000 0.741876
O O4 0.684890 0.013739 0.668383
O O5 0.716967 0.076185 0.798920
O O6 0.500000 0.500000 0.567259
O O7 0.628732 0.426569 0.503668
O O8 0.546707 0.730196 0.468135
O O9 0.605151 0.777616 0.582596
O O10 0.750000 0.750000 0.939480
O O11 0.612079 0.935096 0.927914
O O12 0.683102 0.917911 0.038626
O O13 0.327489 0.713692 0.892779
O O14 0.250000 0.250000 0.588022
#
# Coordination Sequence:
#
# PCOD9354706 Si02
#       7
#     4   8   8   8   4   8   8
#     4  10  22  44  62  88 128 176 212 276 332 384
#     4  10  24  43  66  90 126 174 221 269 328 389
#     4  11  23  37  60  94 125 161 202 262 326 384
#     4  11  21  36  66  92 125 169 199 256 339 381
#     4  10  22  38  62  94 126 166 220 266 316 392
#     4  10  22  38  59  92 132 158 216 267 316 400
#     4  10  22  41  62  91 126 156 216 262 307 398
#
# _framework density 21.699922999999998
#
# number of rings (size 3 to 8) (size 9 to 14) (size 15 to 20)
#    0.000    1.667    1.667    2.000    3.500   10.000 
#    0.000    5.833    0.000    0.000    0.000    0.000 
#    0.000    0.000    0.000    0.000    0.000    0.000 
#
# Total GULP energy -133637.389042 kJ/mol
# GULP energy per Si atom -5568.224543 kJ/mol
# Density = 2.165053 g / cm^3
# Si number density = 21.699923 Si / 1000 Ang^3
#
#
#
# Elastic Constant Matrix: (Units=GPa)
#
#
# Indices 1 2 3 4 5 6 
#
# 1 107.5768 18.8487 10.9059 0.0000 0.0000 0.0000
# 2 18.8487 55.1565 9.9925 0.0000 0.0000 0.0000
# 3 10.9059 9.9925 88.0766 0.0000 0.0000 0.0000
# 4 0.0000 0.0000 0.0000 35.2335 0.0000 0.0000
# 5 0.0000 0.0000 0.0000 0.0000 18.6505 0.0000
# 6 0.0000 0.0000 0.0000 0.0000 0.0000 37.7117
#
#
#
# Elastic Compliance Matrix: (Units=1/GPa)
#
#
# Indices 1 2 3 4 5 6 
#
# 1 0.009952 -0.003244 -0.000864 0.000000 0.000000 0.000000
# 2 -0.003244 0.019568 -0.001818 0.000000 0.000000 0.000000
# 3 -0.000864 -0.001818 0.011667 0.000000 0.000000 0.000000
# 4 0.000000 0.000000 0.000000 0.028382 0.000000 0.000000
# 5 0.000000 0.000000 0.000000 0.000000 0.053618 0.000000
# 6 0.000000 0.000000 0.000000 0.000000 0.000000 0.026517
#
#
# Mechanical properties :
#
#
# Convention : Reuss Voigt Hill
#
# Bulk Modulus (GPa) = 34.09072 36.70046 35.39559
# Shear Modulus (GPa) = 29.18252 32.38999 30.78625
#
# Velocity S-wave (km/s) = 3.67116 3.86765 3.77068
# Velocity P-wave (km/s) = 5.80638 6.07408 5.94174
#
# Compressibility (1/GPa) = 0.02933350
#
# Stress axis : x y z
#
# Youngs Moduli (GPa) = 100.48509 51.10302 85.71142
#
# Poissons Ratio (x) = 0.16579 0.07407
# Poissons Ratio (y) = 0.32600 0.15585
# Poissons Ratio (z) = 0.08684 0.09292
#
# Static dielectric constant tensor:
#      x y z
#    x 1.885880 0.000000 0.000000 
#    y 0.000000 1.780370 0.000000 
#    z 0.000000 0.000000 1.728320 
# 
# From -- ./inp_files/18982.got.cif
#   From: 2010.05.17/outbox.cif.g08.bks.cpg/sg37_10_cif.got.tgz:18982.got - 2010.06.03 17:53:42.
