data_PCOD9354277
_publ_section_title
;
Structure prediction by ZEFSAII (Michael W. Deem and Ramdas Pophale) SiO2 
 PCOD9354277
Probable space group: C C C 2
;
_chemical_formula_sum "Si O2"
_cell_formula_units_Z 56
_cell_length_a 17.615176
_cell_length_b 19.710994
_cell_length_c 8.048103
_cell_angle_alpha 90.000000
_cell_angle_beta 90.000000
_cell_angle_gamma 90.000000
_cell_volume 2794.402997
_symmetry_space_group_name_H-M "C C C 2"
_symmetry_group_IT_number 37
_symmetry_cell_setting 'orthorhombic'
loop_
_space_group_symop_operation_xyz
x,y,z
-x,-y,z
-x,y,1/2+z
x,-y,1/2+z
1/2+x,1/2+y,z
1/2-x,1/2-y,z
1/2-x,1/2+y,1/2+z
1/2+x,1/2-y,1/2+z
loop_
_atom_site_type_symbol
_atom_site_label
_atom_site_fract_x
_atom_site_fract_y
_atom_site_fract_z
Si Si1 0.116714 0.568981 0.864550
Si Si2 0.021426 0.676092 0.340947
Si Si3 0.268458 0.897931 0.170218
Si Si4 0.403758 0.414415 0.626262
Si Si5 0.583515 0.741245 0.539364
Si Si6 0.133877 0.573381 0.486172
Si Si7 0.500000 0.500000 0.875920
Si Si8 0.250000 0.250000 0.565640
O O1 0.046884 0.620870 0.836785
O O2 0.154133 0.565321 0.680147
O O3 0.090337 0.494459 0.924475
O O4 0.174572 0.589082 0.013984
O O5 0.980942 0.743908 0.405740
O O6 0.065003 0.699901 0.175247
O O7 0.082833 0.640164 0.458865
O O8 0.185910 0.928149 0.134659
O O9 0.300430 0.921268 0.347721
O O10 0.254652 0.817178 0.175329
O O11 0.418732 0.334100 0.611519
O O12 0.448424 0.447160 0.777415
O O13 0.441235 0.453835 0.474846
O O14 0.669649 0.748615 0.470393
#
# Coordination Sequence:
#
# PCOD9354277 Si02
#       8
#     8   8   8   8   8   8   4   4
#     4  12  25  40  65 100 137 185 228 267 330 403
#     4  12  22  40  64  94 134 172 228 276 322 402
#     4  11  24  45  67  99 137 178 216 280 341 393
#     4  10  24  42  72  95 132 170 221 288 337 407
#     4  11  22  39  67  91 130 174 216 277 342 392
#     4  12  25  40  65 100 137 185 228 267 330 403
#     4  10  22  46  68 104 124 168 234 278 344 400
#     4  10  20  42  66  88 128 176 212 266 346 386
#
# _framework density 20.040058999999999
#
# number of rings (size 3 to 8) (size 9 to 14) (size 15 to 20)
#    0.000    0.857    5.714    1.286    2.000    1.143 
#    2.571    0.714    9.429    0.000    0.000    0.000 
#    0.000    0.000    0.000    0.000    0.000    0.000 
#
# Total GULP energy -156083.178252 kJ/mol
# GULP energy per Si atom -5574.399223 kJ/mol
# Density = 1.999445 g / cm^3
# Si number density = 20.040059 Si / 1000 Ang^3
#
#
#
# Elastic Constant Matrix: (Units=GPa)
#
#
# Indices 1 2 3 4 5 6 
#
# 1 140.6560 36.2414 46.7989 0.0000 0.0000 0.0000
# 2 36.2414 84.8958 15.0352 0.0000 0.0000 0.0000
# 3 46.7989 15.0352 105.5574 0.0000 0.0000 0.0000
# 4 0.0000 0.0000 0.0000 26.0666 0.0000 0.0000
# 5 0.0000 0.0000 0.0000 0.0000 22.8671 0.0000
# 6 0.0000 0.0000 0.0000 0.0000 0.0000 30.4470
#
#
#
# Elastic Compliance Matrix: (Units=1/GPa)
#
#
# Indices 1 2 3 4 5 6 
#
# 1 0.009146 -0.003269 -0.003589 0.000000 0.000000 0.000000
# 2 -0.003269 0.013252 -0.000438 0.000000 0.000000 0.000000
# 3 -0.003589 -0.000438 0.011127 0.000000 0.000000 0.000000
# 4 0.000000 0.000000 0.000000 0.038363 0.000000 0.000000
# 5 0.000000 0.000000 0.000000 0.000000 0.043731 0.000000
# 6 0.000000 0.000000 0.000000 0.000000 0.000000 0.032844
#
#
# Mechanical properties :
#
#
# Convention : Reuss Voigt Hill
#
# Bulk Modulus (GPa) = 52.81883 58.58447 55.70165
# Shear Modulus (GPa) = 29.52163 31.41170 30.46666
#
# Velocity S-wave (km/s) = 3.84230 3.96339 3.90332
# Velocity P-wave (km/s) = 6.78957 7.08814 6.94046
#
# Compressibility (1/GPa) = 0.01893264
#
# Stress axis : x y z
#
# Youngs Moduli (GPa) = 109.33764 75.45932 89.86919
#
# Poissons Ratio (x) = 0.24665 0.32257
# Poissons Ratio (y) = 0.35739 0.03940
# Poissons Ratio (z) = 0.39245 0.03308
#
# Static dielectric constant tensor:
#      x y z
#    x 1.731350 0.000000 0.000000 
#    y 0.000000 1.716380 0.000000 
#    z 0.000000 0.000000 1.724050 
# 
# From -- ./inp_files/3667.got.cif
#   From: 2010.05.17/outbox.cif.g08.bks.cpg/sg37_2_cif.got.tgz:3667.got - 2010.06.03 17:53:42.
