data_PCOD9354462
_publ_section_title
;
Structure prediction by ZEFSAII (Michael W. Deem and Ramdas Pophale) SiO2 
 PCOD9354462
Probable space group: C C C 2
;
_chemical_formula_sum "Si O2"
_cell_formula_units_Z 64
_cell_length_a 19.747497
_cell_length_b 5.199333
_cell_length_c 27.478282
_cell_angle_alpha 90.000000
_cell_angle_beta 90.000000
_cell_angle_gamma 90.000000
_cell_volume 2821.299983
_symmetry_space_group_name_H-M "C C C 2"
_symmetry_group_IT_number 37
_symmetry_cell_setting 'orthorhombic'
loop_
_space_group_symop_operation_xyz
x,y,z
-x,-y,z
-x,y,1/2+z
x,-y,1/2+z
1/2+x,1/2+y,z
1/2-x,1/2-y,z
1/2-x,1/2+y,1/2+z
1/2+x,1/2-y,1/2+z
loop_
_atom_site_type_symbol
_atom_site_label
_atom_site_fract_x
_atom_site_fract_y
_atom_site_fract_z
Si Si1 0.324156 0.866806 0.712580
Si Si2 0.829198 0.760590 0.321960
Si Si3 0.075165 0.473447 0.884100
Si Si4 0.823490 0.698620 0.516269
Si Si5 0.456922 0.259012 0.579661
Si Si6 0.101614 0.849356 0.184952
Si Si7 0.434504 0.668194 0.290193
Si Si8 0.323360 0.303046 0.950510
O O1 0.250000 0.750000 0.704963
O O2 0.332345 0.903910 0.771124
O O3 0.374296 0.643002 0.692990
O O4 0.338250 0.137762 0.686758
O O5 0.750000 0.750000 0.334604
O O6 0.871466 0.697806 0.371055
O O7 0.864375 0.018971 0.301564
O O8 0.063666 0.390961 0.828699
O O9 0.116030 0.264956 0.914672
O O10 0.000000 0.500000 0.905996
O O11 0.750000 0.750000 0.540027
O O12 0.886410 0.733783 0.551500
O O13 0.825736 0.415045 0.492889
O O14 0.827416 0.916742 0.474278
O O15 0.500000 0.500000 0.560387
O O16 0.439169 0.313065 0.635847
O O17 0.500000 0.000000 0.574949
O O18 0.060140 0.773645 0.233394
O O19 0.500000 0.500000 0.303044
O O20 0.250000 0.250000 0.926197
#
# Coordination Sequence:
#
# PCOD9354462 Si02
#       8
#     8   8   8   8   8   8   8   8
#     4  10  21  39  61  94 134 182 236 287 333 390
#     4  10  23  39  60  89 130 180 231 285 338 391
#     4  12  25  40  64  97 133 180 234 279 336 406
#     4  10  24  50  75 102 135 177 223 286 358 424
#     4  12  26  45  73 110 140 180 233 286 352 415
#     4  11  23  41  65  96 141 186 230 281 339 409
#     4  11  23  40  61  91 137 186 230 282 331 405
#     4  10  25  45  73 102 135 176 228 282 355 420
#
# _framework density 22.684577000000001
#
# number of rings (size 3 to 8) (size 9 to 14) (size 15 to 20)
#    0.000    1.250    2.500    2.250    3.500    4.500 
#    0.000    1.250    0.000    0.000    0.000    0.000 
#    0.000    0.000    0.000    0.000    0.000    0.000 
#
# Total GULP energy -178757.965041 kJ/mol
# GULP energy per Si atom -5586.186408 kJ/mol
# Density = 2.263295 g / cm^3
# Si number density = 22.684577 Si / 1000 Ang^3
#
#
#
# Elastic Constant Matrix: (Units=GPa)
#
#
# Indices 1 2 3 4 5 6 
#
# 1 176.8828 30.7880 46.8980 0.0000 0.0000 0.0000
# 2 30.7880 73.8447 8.6080 0.0000 0.0000 0.0000
# 3 46.8980 8.6080 45.8231 0.0000 0.0000 0.0000
# 4 0.0000 0.0000 0.0000 0.4089 0.0000 0.0000
# 5 0.0000 0.0000 0.0000 0.0000 0.1030 0.0000
# 6 0.0000 0.0000 0.0000 0.0000 0.0000 34.7449
#
#
#
# Elastic Compliance Matrix: (Units=1/GPa)
#
#
# Indices 1 2 3 4 5 6 
#
# 1 0.008183 -0.002490 -0.007908 0.000000 0.000000 0.000000
# 2 -0.002490 0.014603 -0.000195 0.000000 0.000000 0.000000
# 3 -0.007908 -0.000195 0.029953 0.000000 0.000000 0.000000
# 4 0.000000 0.000000 0.000000 2.445382 0.000000 0.000000
# 5 0.000000 0.000000 0.000000 0.000000 9.712774 0.000000
# 6 0.000000 0.000000 0.000000 0.000000 0.000000 0.028781
#
#
# Mechanical properties :
#
#
# Convention : Reuss Voigt Hill
#
# Bulk Modulus (GPa) = 31.69146 52.12648 41.90897
# Shear Modulus (GPa) = 0.40745 21.06846 10.73796
#
# Velocity S-wave (km/s) = 0.42427 3.05086 2.17804
# Velocity P-wave (km/s) = 3.77370 5.95307 4.98397
#
# Compressibility (1/GPa) = 0.03155424
#
# Stress axis : x y z
#
# Youngs Moduli (GPa) = 122.19712 68.47984 33.38586
#
# Poissons Ratio (x) = 0.17052 0.26400
# Poissons Ratio (y) = 0.30429 0.00650
# Poissons Ratio (z) = 0.96630 0.01333
#
# Static dielectric constant tensor:
#      x y z
#    x 1.973700 0.000000 0.000000 
#    y 0.000000 1.928250 0.000000 
#    z 0.000000 0.000000 1.818040 
# 
# From -- ./inp_files/20619.got.cif
#   From: 2010.05.17/outbox.cif.g08.bks.cpg/sg37_11_cif.got.tgz:20619.got - 2010.06.03 17:53:42.
