data_PCOD9354557
_publ_section_title
;
Structure prediction by ZEFSAII (Michael W. Deem and Ramdas Pophale) SiO2 
 PCOD9354557
Probable space group: C C C 2
;
_chemical_formula_sum "Si O2"
_cell_formula_units_Z 48
_cell_length_a 13.180640
_cell_length_b 14.744644
_cell_length_c 10.732647
_cell_angle_alpha 90.000000
_cell_angle_beta 90.000000
_cell_angle_gamma 90.000000
_cell_volume 2085.823880
_symmetry_space_group_name_H-M "C C C 2"
_symmetry_group_IT_number 37
_symmetry_cell_setting 'orthorhombic'
loop_
_space_group_symop_operation_xyz
x,y,z
-x,-y,z
-x,y,1/2+z
x,-y,1/2+z
1/2+x,1/2+y,z
1/2-x,1/2-y,z
1/2-x,1/2+y,1/2+z
1/2+x,1/2-y,1/2+z
loop_
_atom_site_type_symbol
_atom_site_label
_atom_site_fract_x
_atom_site_fract_y
_atom_site_fract_z
Si Si1 0.654255 0.408893 0.439670
Si Si2 0.384385 0.470570 0.668890
Si Si3 0.910758 0.625455 0.432759
Si Si4 0.627809 0.918097 0.960740
Si Si5 0.354161 0.204614 0.190096
Si Si6 0.023330 0.199650 0.571791
O O1 0.670338 0.464476 0.569602
O O2 0.635834 0.469447 0.316272
O O3 0.768081 0.374509 0.411389
O O4 0.557461 0.343630 0.469640
O O5 0.500000 0.500000 0.654967
O O6 0.389886 0.369276 0.614118
O O7 0.872520 0.526809 0.472707
O O8 0.840676 0.661715 0.323601
O O9 0.026846 0.608457 0.384850
O O10 0.924366 0.708239 0.527131
O O11 0.613969 0.873807 0.095603
O O12 0.250000 0.250000 0.148058
O O13 0.445300 0.277083 0.183941
#
# Coordination Sequence:
#
# PCOD9354557 Si02
#       6
#     8   8   8   8   8   8
#     4  11  22  41  68  98 135 179 233 283 349 419
#     4  10  22  38  65  99 135 176 228 291 348 405
#     4  10  24  40  67  93 135 171 228 278 347 409
#     4  10  24  43  62  97 130 181 221 279 342 416
#     4  11  22  42  70  92 126 181 230 279 346 423
#     4  10  21  41  64  98 132 174 226 287 344 409
#
# _framework density 23.01249
#
# number of rings (size 3 to 8) (size 9 to 14) (size 15 to 20)
#    0.000    1.667    1.667    2.500    2.333    8.000 
#    0.000    0.000    0.000    0.000    0.000    0.000 
#    0.000    0.000    0.000    0.000    0.000    0.000 
#
# Total GULP energy -133776.040805 kJ/mol
# GULP energy per Si atom -5574.001700 kJ/mol
# Density = 2.296011 g / cm^3
# Si number density = 23.012490 Si / 1000 Ang^3
#
#
#
# Elastic Constant Matrix: (Units=GPa)
#
#
# Indices 1 2 3 4 5 6 
#
# 1 36.1863 -13.3365 -0.3751 0.0000 0.0000 0.0000
# 2 -13.3365 98.3588 19.7812 0.0000 0.0000 0.0000
# 3 -0.3751 19.7812 57.5298 0.0000 0.0000 0.0000
# 4 0.0000 0.0000 0.0000 27.7228 0.0000 0.0000
# 5 0.0000 0.0000 0.0000 0.0000 16.1001 0.0000
# 6 0.0000 0.0000 0.0000 0.0000 0.0000 20.1063
#
#
#
# Elastic Compliance Matrix: (Units=1/GPa)
#
#
# Indices 1 2 3 4 5 6 
#
# 1 0.029173 0.004208 -0.001257 0.000000 0.000000 0.000000
# 2 0.004208 0.011529 -0.003937 0.000000 0.000000 0.000000
# 3 -0.001257 -0.003937 0.018728 0.000000 0.000000 0.000000
# 4 0.000000 0.000000 0.000000 0.036071 0.000000 0.000000
# 5 0.000000 0.000000 0.000000 0.000000 0.062111 0.000000
# 6 0.000000 0.000000 0.000000 0.000000 0.000000 0.049736
#
#
# Mechanical properties :
#
#
# Convention : Reuss Voigt Hill
#
# Bulk Modulus (GPa) = 17.40371 22.69047 20.04709
# Shear Modulus (GPa) = 21.88456 25.18621 23.53539
#
# Velocity S-wave (km/s) = 3.08715 3.31185 3.20147
# Velocity P-wave (km/s) = 4.50405 4.95035 4.73246
#
# Compressibility (1/GPa) = 0.05745903
#
# Stress axis : x y z
#
# Youngs Moduli (GPa) = 34.27865 86.73630 53.39671
#
# Poissons Ratio (x) = -0.36501 0.06711
# Poissons Ratio (y) = -0.14425 0.21021
# Poissons Ratio (z) = 0.04308 0.34146
#
# Static dielectric constant tensor:
#      x y z
#    x 1.920900 0.000000 0.000000 
#    y 0.000000 1.991000 0.000000 
#    z 0.000000 0.000000 1.878500 
# 
# From -- ./inp_files/7801.got.cif
#   From: 2010.05.17/outbox.cif.g08.bks.cpg/sg37_4_cif.got.tgz:7801.got - 2010.06.03 17:53:42.
