data_PCOD9354770
_publ_section_title
;
Structure prediction by ZEFSAII (Michael W. Deem and Ramdas Pophale) SiO2 
 PCOD9354770
Probable space group: C C C 2
;
_chemical_formula_sum "Si O2"
_cell_formula_units_Z 64
_cell_length_a 31.277458
_cell_length_b 8.380102
_cell_length_c 12.072248
_cell_angle_alpha 90.000000
_cell_angle_beta 90.000000
_cell_angle_gamma 90.000000
_cell_volume 3164.236260
_symmetry_space_group_name_H-M "C C C 2"
_symmetry_group_IT_number 37
_symmetry_cell_setting 'orthorhombic'
loop_
_space_group_symop_operation_xyz
x,y,z
-x,-y,z
-x,y,1/2+z
x,-y,1/2+z
1/2+x,1/2+y,z
1/2-x,1/2-y,z
1/2-x,1/2+y,1/2+z
1/2+x,1/2-y,1/2+z
loop_
_atom_site_type_symbol
_atom_site_label
_atom_site_fract_x
_atom_site_fract_y
_atom_site_fract_z
Si Si1 0.075577 0.616423 0.266250
Si Si2 0.004702 0.811997 0.148897
Si Si3 0.300433 0.274325 0.696871
Si Si4 0.148690 0.724287 0.414644
Si Si5 0.075702 0.849699 0.979526
Si Si6 0.863226 0.593913 0.551675
Si Si7 0.421795 0.755528 0.753539
Si Si8 0.639574 0.560367 0.115047
O O1 0.032714 0.709360 0.235482
O O2 0.103534 0.724587 0.348985
O O3 0.103370 0.590109 0.153894
O O4 0.072029 0.433141 0.304362
O O5 0.031264 0.796328 0.034931
O O6 0.956959 0.745602 0.155623
O O7 0.000000 0.000000 0.171715
O O8 0.250000 0.250000 0.692152
O O9 0.316543 0.223445 0.818303
O O10 0.320244 0.158345 0.605013
O O11 0.325607 0.441738 0.669719
O O12 0.145590 0.566085 0.487436
O O13 0.156592 0.864871 0.501113
O O14 0.114665 0.723336 0.973366
O O15 0.096767 0.969330 0.070030
O O16 0.067626 0.874725 0.849448
O O17 0.377392 0.697357 0.698653
#
# Coordination Sequence:
#
# PCOD9354770 Si02
#       8
#     8   8   8   8   8   8   8   8
#     4  10  22  40  60  94 126 173 221 279 325 387
#     4  11  24  39  56  91 131 171 218 282 336 384
#     4  10  24  43  63  99 141 161 209 279 341 411
#     4  11  21  40  73  93 122 175 225 263 342 403
#     4  10  22  40  58  89 125 172 222 270 337 381
#     4   9  19  40  65  87 125 166 214 263 324 398
#     4  12  22  39  64  87 130 171 231 275 326 395
#     4  11  23  40  67  96 123 178 222 273 330 413
#
# _framework density 20.226050000000001
#
# number of rings (size 3 to 8) (size 9 to 14) (size 15 to 20)
#    0.000    1.500    3.750    1.875    1.750    2.500 
#    0.000    1.250    0.000    0.000    0.000    0.000 
#    0.000    0.000    0.000    0.000    0.000    0.000 
#
# Total GULP energy -178242.527504 kJ/mol
# GULP energy per Si atom -5570.078985 kJ/mol
# Density = 2.018002 g / cm^3
# Si number density = 20.226050 Si / 1000 Ang^3
#
#
#
# Elastic Constant Matrix: (Units=GPa)
#
#
# Indices 1 2 3 4 5 6 
#
# 1 111.2774 22.0741 28.5359 0.0000 0.0000 0.0000
# 2 22.0741 66.2504 17.8135 0.0000 0.0000 0.0000
# 3 28.5359 17.8135 80.8525 0.0000 0.0000 0.0000
# 4 0.0000 0.0000 0.0000 22.5181 0.0000 0.0000
# 5 0.0000 0.0000 0.0000 0.0000 10.6997 0.0000
# 6 0.0000 0.0000 0.0000 0.0000 0.0000 15.6682
#
#
#
# Elastic Compliance Matrix: (Units=1/GPa)
#
#
# Indices 1 2 3 4 5 6 
#
# 1 0.010287 -0.002606 -0.003057 0.000000 0.000000 0.000000
# 2 -0.002606 0.016705 -0.002761 0.000000 0.000000 0.000000
# 3 -0.003057 -0.002761 0.014055 0.000000 0.000000 0.000000
# 4 0.000000 0.000000 0.000000 0.044409 0.000000 0.000000
# 5 0.000000 0.000000 0.000000 0.000000 0.093461 0.000000
# 6 0.000000 0.000000 0.000000 0.000000 0.000000 0.063824
#
#
# Mechanical properties :
#
#
# Convention : Reuss Voigt Hill
#
# Bulk Modulus (GPa) = 41.32065 43.91417 42.61741
# Shear Modulus (GPa) = 18.68082 22.44097 20.56090
#
# Velocity S-wave (km/s) = 3.04238 3.33454 3.19181
# Velocity P-wave (km/s) = 5.72846 6.04850 5.89065
#
# Compressibility (1/GPa) = 0.02420098
#
# Stress axis : x y z
#
# Youngs Moduli (GPa) = 97.20717 59.86313 71.14773
#
# Poissons Ratio (x) = 0.15599 0.21748
# Poissons Ratio (y) = 0.25330 0.19642
# Poissons Ratio (z) = 0.29713 0.16527
#
# Static dielectric constant tensor:
#      x y z
#    x 1.708050 0.000000 0.000000 
#    y 0.000000 1.825060 0.000000 
#    z 0.000000 0.000000 1.753310 
# 
# From -- ./inp_files/9219.got.cif
#   From: 2010.05.17/outbox.cif.g08.bks.cpg/sg37_5_cif.got.tgz:9219.got - 2010.06.03 17:53:42.
