data_PCOD9354183
_publ_section_title
;
Structure prediction by ZEFSAII (Michael W. Deem and Ramdas Pophale) SiO2 
 PCOD9354183
Probable space group: C C C 2
;
_chemical_formula_sum "Si O2"
_cell_formula_units_Z 48
_cell_length_a 12.218753
_cell_length_b 14.487266
_cell_length_c 11.207681
_cell_angle_alpha 90.000000
_cell_angle_beta 90.000000
_cell_angle_gamma 90.000000
_cell_volume 1983.942501
_symmetry_space_group_name_H-M "C C C 2"
_symmetry_group_IT_number 37
_symmetry_cell_setting 'orthorhombic'
loop_
_space_group_symop_operation_xyz
x,y,z
-x,-y,z
-x,y,1/2+z
x,-y,1/2+z
1/2+x,1/2+y,z
1/2-x,1/2-y,z
1/2-x,1/2+y,1/2+z
1/2+x,1/2-y,1/2+z
loop_
_atom_site_type_symbol
_atom_site_label
_atom_site_fract_x
_atom_site_fract_y
_atom_site_fract_z
Si Si1 0.581426 0.589618 0.010860
Si Si2 0.725179 0.381970 0.280761
Si Si3 0.703340 0.873324 0.425218
Si Si4 0.703765 0.076505 0.667862
Si Si5 0.608591 0.716043 0.560608
Si Si6 0.603892 0.937544 0.939917
O O1 0.500000 0.500000 0.025045
O O2 0.683968 0.597062 0.099837
O O3 0.510501 0.677753 0.047513
O O4 0.629670 0.596299 0.876806
O O5 0.772365 0.471648 0.211537
O O6 0.668155 0.315670 0.182757
O O7 0.836913 0.360158 0.358245
O O8 0.682726 0.862893 0.285510
O O9 0.623392 0.820391 0.516099
O O10 0.821741 0.837114 0.458582
O O11 0.694612 0.981057 0.447700
O O12 0.602598 0.090071 0.577821
O O13 0.500000 0.000000 0.898853
#
# Coordination Sequence:
#
# PCOD9354183 Si02
#       6
#     8   8   8   8   8   8
#     4  11  21  34  66 105 132 172 224 278 350 411
#     4  10  21  38  63 100 135 169 227 277 335 415
#     4  10  23  42  61  93 134 178 224 273 344 405
#     4  10  20  39  65  97 129 169 230 281 320 418
#     4  11  22  41  62  94 140 179 209 285 357 398
#     4  10  21  42  70  97 124 180 235 282 324 400
#
# _framework density 24.19425
#
# number of rings (size 3 to 8) (size 9 to 14) (size 15 to 20)
#    0.000    1.667    3.333    2.000    4.667    2.667 
#    3.000    1.667    0.000   10.000    0.000    0.000 
#    0.000    0.000    0.000    0.000    0.000    0.000 
#
# Total GULP energy -133774.583145 kJ/mol
# GULP energy per Si atom -5573.940964 kJ/mol
# Density = 2.413918 g / cm^3
# Si number density = 24.194250 Si / 1000 Ang^3
#
#
#
# Elastic Constant Matrix: (Units=GPa)
#
#
# Indices 1 2 3 4 5 6 
#
# 1 106.9861 21.7180 40.6255 0.0000 0.0000 0.0000
# 2 21.7180 68.8292 34.1183 0.0000 0.0000 0.0000
# 3 40.6255 34.1183 168.8030 0.0000 0.0000 0.0000
# 4 0.0000 0.0000 0.0000 37.6641 0.0000 0.0000
# 5 0.0000 0.0000 0.0000 0.0000 20.3892 0.0000
# 6 0.0000 0.0000 0.0000 0.0000 0.0000 28.0396
#
#
#
# Elastic Compliance Matrix: (Units=1/GPa)
#
#
# Indices 1 2 3 4 5 6 
#
# 1 0.010609 -0.002314 -0.002086 0.000000 0.000000 0.000000
# 2 -0.002314 0.016651 -0.002809 0.000000 0.000000 0.000000
# 3 -0.002086 -0.002809 0.006994 0.000000 0.000000 0.000000
# 4 0.000000 0.000000 0.000000 0.026551 0.000000 0.000000
# 5 0.000000 0.000000 0.000000 0.000000 0.049046 0.000000
# 6 0.000000 0.000000 0.000000 0.000000 0.000000 0.035664
#
#
# Mechanical properties :
#
#
# Convention : Reuss Voigt Hill
#
# Bulk Modulus (GPa) = 50.40915 59.72686 55.06801
# Shear Modulus (GPa) = 30.02257 33.76234 31.89245
#
# Velocity S-wave (km/s) = 3.52646 3.73965 3.63462
# Velocity P-wave (km/s) = 6.12059 6.58685 6.35800
#
# Compressibility (1/GPa) = 0.01983767
#
# Stress axis : x y z
#
# Youngs Moduli (GPa) = 94.26323 60.05651 142.98644
#
# Poissons Ratio (x) = 0.13895 0.29820
# Poissons Ratio (y) = 0.21809 0.40160
# Poissons Ratio (z) = 0.19659 0.16868
#
# Static dielectric constant tensor:
#      x y z
#    x 2.020170 0.000000 0.000000 
#    y 0.000000 2.013070 0.000000 
#    z 0.000000 0.000000 2.108640 
# 
# From -- ./inp_files/7196.got.cif
#   From: 2010.05.17/outbox.cif.g08.bks.cpg/sg37_4_cif.got.tgz:7196.got - 2010.06.03 17:53:42.
