data_PCOD9354658
_publ_section_title
;
Structure prediction by ZEFSAII (Michael W. Deem and Ramdas Pophale) SiO2 
 PCOD9354658
Probable space group: C C C 2
;
_chemical_formula_sum "Si O2"
_cell_formula_units_Z 24
_cell_length_a 7.025701
_cell_length_b 7.233674
_cell_length_c 20.084671
_cell_angle_alpha 90.000000
_cell_angle_beta 90.000000
_cell_angle_gamma 90.000000
_cell_volume 1020.735731
_symmetry_space_group_name_H-M "C C C 2"
_symmetry_group_IT_number 37
_symmetry_cell_setting 'orthorhombic'
loop_
_space_group_symop_operation_xyz
x,y,z
-x,-y,z
-x,y,1/2+z
x,-y,1/2+z
1/2+x,1/2+y,z
1/2-x,1/2-y,z
1/2-x,1/2+y,1/2+z
1/2+x,1/2-y,1/2+z
loop_
_atom_site_type_symbol
_atom_site_label
_atom_site_fract_x
_atom_site_fract_y
_atom_site_fract_z
Si Si1 0.250000 0.750000 0.860190
Si Si2 0.500000 0.500000 0.769448
Si Si3 0.250000 0.750000 0.181091
Si Si4 0.038185 0.217342 0.554657
Si Si5 0.500000 0.000000 0.452872
O O1 0.414092 0.661112 0.814961
O O2 0.156491 0.589126 0.904605
O O3 0.672266 0.583022 0.725397
O O4 0.071259 0.713697 0.130610
O O5 0.250000 0.250000 0.527501
O O6 0.922279 0.345977 0.504868
O O7 0.000000 0.000000 0.555626
#
# Coordination Sequence:
#
# PCOD9354658 Si02
#       5
#     4   4   4   8   4
#     4  12  29  46  72 104 145 200 242 286 352 432
#     4  12  26  48  72 100 148 196 238 294 344 438
#     4  10  21  50  68 110 139 184 244 294 370 418
#     4  10  23  44  73 106 139 183 227 312 361 420
#     4  12  26  50  70 112 144 188 246 296 364 430
#
# _framework density 23.512450999999999
#
# number of rings (size 3 to 8) (size 9 to 14) (size 15 to 20)
#    1.000    0.000    3.333    2.000    2.333    6.667 
#    0.000    0.000    0.000    0.000    0.000    0.000 
#    0.000    0.000    0.000    0.000    0.000    0.000 
#
# Total GULP energy -66929.804188 kJ/mol
# GULP energy per Si atom -5577.483682 kJ/mol
# Density = 2.345894 g / cm^3
# Si number density = 23.512451 Si / 1000 Ang^3
#
#
#
# Elastic Constant Matrix: (Units=GPa)
#
#
# Indices 1 2 3 4 5 6 
#
# 1 75.6497 66.7515 33.9560 0.0000 0.0000 0.0000
# 2 66.7515 163.1875 76.1092 0.0000 0.0000 0.0000
# 3 33.9560 76.1092 144.3263 0.0000 0.0000 0.0000
# 4 0.0000 0.0000 0.0000 17.0105 0.0000 0.0000
# 5 0.0000 0.0000 0.0000 0.0000 31.5628 0.0000
# 6 0.0000 0.0000 0.0000 0.0000 0.0000 59.3957
#
#
#
# Elastic Compliance Matrix: (Units=1/GPa)
#
#
# Indices 1 2 3 4 5 6 
#
# 1 0.020716 -0.008223 -0.000537 0.000000 0.000000 0.000000
# 2 -0.008223 0.011391 -0.004072 0.000000 0.000000 0.000000
# 3 -0.000537 -0.004072 0.009203 0.000000 0.000000 0.000000
# 4 0.000000 0.000000 0.000000 0.058787 0.000000 0.000000
# 5 0.000000 0.000000 0.000000 0.000000 0.031683 0.000000
# 6 0.000000 0.000000 0.000000 0.000000 0.000000 0.016836
#
#
# Mechanical properties :
#
#
# Convention : Reuss Voigt Hill
#
# Bulk Modulus (GPa) = 63.92304 81.86629 72.89466
# Shear Modulus (GPa) = 27.85579 35.35027 31.60303
#
# Velocity S-wave (km/s) = 3.44572 3.88167 3.67017
# Velocity P-wave (km/s) = 6.56327 7.41510 7.00215
#
# Compressibility (1/GPa) = 0.01564381
#
# Stress axis : x y z
#
# Youngs Moduli (GPa) = 48.27189 87.79018 108.66475
#
# Poissons Ratio (x) = 0.72191 0.05841
# Poissons Ratio (y) = 0.39695 0.44250
# Poissons Ratio (z) = 0.02595 0.35750
#
# Static dielectric constant tensor:
#      x y z
#    x 1.659670 0.000000 0.000000 
#    y 0.000000 1.903400 0.000000 
#    z 0.000000 0.000000 1.947080 
# 
# From -- ./inp_files/17696.got.cif
#   From: 2010.05.17/outbox.cif.g08.bks.cpg/sg37_9_cif.got.tgz:17696.got - 2010.06.03 17:53:42.
