data_PCOD9354988
_publ_section_title
;
Structure prediction by ZEFSAII (Michael W. Deem and Ramdas Pophale) SiO2 
 PCOD9354988
Probable space group: C C C 2
;
_chemical_formula_sum "Si O2"
_cell_formula_units_Z 52
_cell_length_a 15.098375
_cell_length_b 7.874307
_cell_length_c 18.800191
_cell_angle_alpha 90.000000
_cell_angle_beta 90.000000
_cell_angle_gamma 90.000000
_cell_volume 2235.140419
_symmetry_space_group_name_H-M "C C C 2"
_symmetry_group_IT_number 37
_symmetry_cell_setting 'orthorhombic'
loop_
_space_group_symop_operation_xyz
x,y,z
-x,-y,z
-x,y,1/2+z
x,-y,1/2+z
1/2+x,1/2+y,z
1/2-x,1/2-y,z
1/2-x,1/2+y,1/2+z
1/2+x,1/2-y,1/2+z
loop_
_atom_site_type_symbol
_atom_site_label
_atom_site_fract_x
_atom_site_fract_y
_atom_site_fract_z
Si Si1 0.150458 0.068735 0.537960
Si Si2 0.766939 0.071545 0.296186
Si Si3 0.902623 0.538549 0.361778
Si Si4 0.848852 0.482029 0.019106
Si Si5 0.427311 0.365841 0.687069
Si Si6 0.500000 0.000000 0.133081
Si Si7 0.588388 0.574031 0.391920
O O1 0.153187 0.273910 0.524242
O O2 0.246889 0.983059 0.538520
O O3 0.100492 0.056757 0.611270
O O4 0.100065 0.997914 0.469954
O O5 0.750000 0.250000 0.333071
O O6 0.834048 0.122960 0.231696
O O7 0.669854 0.986275 0.299294
O O8 0.824852 0.960818 0.347618
O O9 0.874025 0.457436 0.438759
O O10 0.916894 0.727476 0.388344
O O11 0.000000 0.500000 0.334098
O O12 0.918621 0.543454 0.078672
O O13 0.500000 0.500000 0.714765
O O14 0.466987 0.173244 0.674858
O O15 0.500000 0.500000 0.360499
#
# Coordination Sequence:
#
# PCOD9354988 Si02
#       7
#     8   8   8   8   8   4   8
#     4   9  19  38  72 104 143 183 239 307 377 433
#     4  12  27  47  66 100 147 197 246 303 369 453
#     4  11  22  43  72 105 144 192 244 301 379 449
#     4   9  17  36  70 108 139 183 237 306 376 445
#     4  11  26  50  73 107 149 198 255 309 379 461
#     4  10  22  44  78 108 146 192 248 318 380 448
#     4  11  22  43  71 106 145 189 238 311 373 444
#
# _framework density 23.264755999999998
#
# number of rings (size 3 to 8) (size 9 to 14) (size 15 to 20)
#    0.000    1.538    2.308    2.308    4.308    0.000 
#   12.462    0.769    0.000    0.000    0.000    0.000 
#    0.000    0.000    0.000    0.000    0.000    0.000 
#
# Total GULP energy -144839.243948 kJ/mol
# GULP energy per Si atom -5570.740152 kJ/mol
# Density = 2.321180 g / cm^3
# Si number density = 23.264756 Si / 1000 Ang^3
#
#
#
# Elastic Constant Matrix: (Units=GPa)
#
#
# Indices 1 2 3 4 5 6 
#
# 1 219.6961 40.5387 74.0729 0.0000 0.0000 0.0000
# 2 40.5387 42.9307 28.2402 0.0000 0.0000 0.0000
# 3 74.0729 28.2402 121.8702 0.0000 0.0000 0.0000
# 4 0.0000 0.0000 0.0000 65.8155 0.0000 0.0000
# 5 0.0000 0.0000 0.0000 0.0000 65.5296 0.0000
# 6 0.0000 0.0000 0.0000 0.0000 0.0000 26.2928
#
#
#
# Elastic Compliance Matrix: (Units=1/GPa)
#
#
# Indices 1 2 3 4 5 6 
#
# 1 0.006263 -0.004023 -0.002875 0.000000 0.000000 0.000000
# 2 -0.004023 0.030067 -0.004522 0.000000 0.000000 0.000000
# 3 -0.002875 -0.004522 0.011000 0.000000 0.000000 0.000000
# 4 0.000000 0.000000 0.000000 0.015194 0.000000 0.000000
# 5 0.000000 0.000000 0.000000 0.000000 0.015260 0.000000
# 6 0.000000 0.000000 0.000000 0.000000 0.000000 0.038033
#
#
# Mechanical properties :
#
#
# Convention : Reuss Voigt Hill
#
# Bulk Modulus (GPa) = 40.83084 74.46671 57.64878
# Shear Modulus (GPa) = 34.05491 47.63727 40.84609
#
# Velocity S-wave (km/s) = 3.83011 4.52997 4.19466
# Velocity P-wave (km/s) = 6.09494 7.70965 6.94935
#
# Compressibility (1/GPa) = 0.02449129
#
# Stress axis : x y z
#
# Youngs Moduli (GPa) = 159.65916 33.25892 90.90575
#
# Poissons Ratio (x) = 0.13382 0.26131
# Poissons Ratio (y) = 0.64238 0.41106
# Poissons Ratio (z) = 0.45895 0.15039
#
# Static dielectric constant tensor:
#      x y z
#    x 2.644770 0.000000 0.000000 
#    y 0.000000 0.140640 0.000000 
#    z 0.000000 0.000000 1.944340 
# 
# From -- ./inp_files/17129.got.cif
#   From: 2010.05.17/outbox.cif.g08.bks.cpg/sg37_9_cif.got.tgz:17129.got - 2010.06.03 17:53:42.
