data_PCOD9354579
_publ_section_title
;
Structure prediction by ZEFSAII (Michael W. Deem and Ramdas Pophale) SiO2 
 PCOD9354579
Probable space group: C C C 2
;
_chemical_formula_sum "Si O2"
_cell_formula_units_Z 48
_cell_length_a 12.047076
_cell_length_b 12.342777
_cell_length_c 13.230018
_cell_angle_alpha 90.000000
_cell_angle_beta 90.000000
_cell_angle_gamma 90.000000
_cell_volume 1967.229226
_symmetry_space_group_name_H-M "C C C 2"
_symmetry_group_IT_number 37
_symmetry_cell_setting 'orthorhombic'
loop_
_space_group_symop_operation_xyz
x,y,z
-x,-y,z
-x,y,1/2+z
x,-y,1/2+z
1/2+x,1/2+y,z
1/2-x,1/2-y,z
1/2-x,1/2+y,1/2+z
1/2+x,1/2-y,1/2+z
loop_
_atom_site_type_symbol
_atom_site_label
_atom_site_fract_x
_atom_site_fract_y
_atom_site_fract_z
Si Si1 0.730215 0.125529 0.251960
Si Si2 0.634285 0.291413 0.571146
Si Si3 0.224050 0.496846 0.052045
Si Si4 0.450446 0.139028 0.927001
Si Si5 0.615799 0.535260 0.379383
Si Si6 0.879061 0.737150 0.296146
O O1 0.750000 0.250000 0.223680
O O2 0.634630 0.134705 0.334755
O O3 0.695446 0.063778 0.150825
O O4 0.829118 0.057503 0.307286
O O5 0.750000 0.250000 0.521733
O O6 0.677561 0.412428 0.587625
O O7 0.545996 0.251545 0.490461
O O8 0.611084 0.227800 0.674936
O O9 0.111309 0.444042 0.004623
O O10 0.290540 0.557872 0.963425
O O11 0.434434 0.855847 0.864336
O O12 0.500000 0.500000 0.428675
O O13 0.580225 0.641666 0.318454
O O14 0.750000 0.750000 0.316571
#
# Coordination Sequence:
#
# PCOD9354579 Si02
#       6
#     8   8   8   8   8   8
#     4  11  22  42  72 109 150 195 256 308 366 462
#     4   9  18  40  74  99 137 189 233 295 371 440
#     4  10  21  41  71 105 149 194 240 301 380 459
#     4  10  22  45  75 105 146 195 247 314 388 446
#     4  11  23  42  70 106 145 193 244 315 374 438
#     4  11  23  44  75 106 142 184 249 309 377 457
#
# _framework density 24.399801
#
# number of rings (size 3 to 8) (size 9 to 14) (size 15 to 20)
#    0.000    1.667    1.667    4.500    0.000    1.333 
#   12.000    3.333    7.333    0.000    0.000    0.000 
#    0.000    0.000    0.000    0.000    0.000    0.000 
#
# Total GULP energy -133763.895404 kJ/mol
# GULP energy per Si atom -5573.495642 kJ/mol
# Density = 2.434427 g / cm^3
# Si number density = 24.399801 Si / 1000 Ang^3
#
#
#
# Elastic Constant Matrix: (Units=GPa)
#
#
# Indices 1 2 3 4 5 6 
#
# 1 109.1623 11.6375 65.5306 0.0000 0.0000 0.0000
# 2 11.6375 76.7461 62.6922 0.0000 0.0000 0.0000
# 3 65.5306 62.6922 167.9668 0.0000 0.0000 0.0000
# 4 0.0000 0.0000 0.0000 44.1214 0.0000 0.0000
# 5 0.0000 0.0000 0.0000 0.0000 25.7431 0.0000
# 6 0.0000 0.0000 0.0000 0.0000 0.0000 12.6636
#
#
#
# Elastic Compliance Matrix: (Units=1/GPa)
#
#
# Indices 1 2 3 4 5 6 
#
# 1 0.012420 0.002985 -0.005960 0.000000 0.000000 0.000000
# 2 0.002985 0.019463 -0.008429 0.000000 0.000000 0.000000
# 3 -0.005960 -0.008429 0.011425 0.000000 0.000000 0.000000
# 4 0.000000 0.000000 0.000000 0.022665 0.000000 0.000000
# 5 0.000000 0.000000 0.000000 0.000000 0.038845 0.000000
# 6 0.000000 0.000000 0.000000 0.000000 0.000000 0.078967
#
#
# Mechanical properties :
#
#
# Convention : Reuss Voigt Hill
#
# Bulk Modulus (GPa) = 48.77966 70.39955 59.58960
# Shear Modulus (GPa) = 23.42748 30.77328 27.10038
#
# Velocity S-wave (km/s) = 3.10199 3.55520 3.33630
# Velocity P-wave (km/s) = 5.73280 6.76519 6.27028
#
# Compressibility (1/GPa) = 0.02050035
#
# Stress axis : x y z
#
# Youngs Moduli (GPa) = 80.51477 51.38036 87.52983
#
# Poissons Ratio (x) = -0.15337 0.52165
# Poissons Ratio (y) = -0.24034 0.73778
# Poissons Ratio (z) = 0.47984 0.43308
#
# Static dielectric constant tensor:
#      x y z
#    x 1.983120 0.000000 0.000000 
#    y 0.000000 2.256790 0.000000 
#    z 0.000000 0.000000 1.901790 
# 
# From -- ./inp_files/8255.got.cif
#   From: 2010.05.17/outbox.cif.g08.bks.cpg/sg37_5_cif.got.tgz:8255.got - 2010.06.03 17:53:42.
