data_PCOD9354844
_publ_section_title
;
Structure prediction by ZEFSAII (Michael W. Deem and Ramdas Pophale) SiO2 
 PCOD9354844
Probable space group: C C C 2
;
_chemical_formula_sum "Si O2"
_cell_formula_units_Z 52
_cell_length_a 8.062547
_cell_length_b 14.320886
_cell_length_c 21.149111
_cell_angle_alpha 90.000000
_cell_angle_beta 90.000000
_cell_angle_gamma 90.000000
_cell_volume 2441.935922
_symmetry_space_group_name_H-M "C C C 2"
_symmetry_group_IT_number 37
_symmetry_cell_setting 'orthorhombic'
loop_
_space_group_symop_operation_xyz
x,y,z
-x,-y,z
-x,y,1/2+z
x,-y,1/2+z
1/2+x,1/2+y,z
1/2-x,1/2-y,z
1/2-x,1/2+y,1/2+z
1/2+x,1/2-y,1/2+z
loop_
_atom_site_type_symbol
_atom_site_label
_atom_site_fract_x
_atom_site_fract_y
_atom_site_fract_z
Si Si1 0.180749 0.012611 0.774990
Si Si2 0.500000 0.000000 0.862272
Si Si3 0.669164 0.151164 0.690536
Si Si4 0.885330 0.088868 0.062065
Si Si5 0.671333 0.849153 0.451914
Si Si6 0.791535 0.643705 0.679842
Si Si7 0.416449 0.222541 0.054204
O O1 0.336758 0.023842 0.821177
O O2 0.229153 0.930324 0.724940
O O3 0.167809 0.103599 0.731404
O O4 0.000000 0.000000 0.805620
O O5 0.428615 0.913388 0.903343
O O6 0.750000 0.250000 0.710075
O O7 0.476261 0.136130 0.707194
O O8 0.646969 0.161979 0.614051
O O9 0.814977 0.096933 0.990978
O O10 0.739922 0.089092 0.114475
O O11 0.991736 0.182578 0.075855
O O12 0.000000 0.000000 0.070045
O O13 0.750000 0.750000 0.428328
O O14 0.542853 0.825006 0.507537
O O15 0.750000 0.750000 0.667207
O O16 0.250000 0.250000 0.017812
#
# Coordination Sequence:
#
# PCOD9354844 Si02
#       7
#     8   4   8   8   8   8   8
#     4  12  28  49  68 100 141 187 250 300 349 422
#     4  12  28  50  74 100 134 196 260 298 352 412
#     4  11  22  41  72 103 143 179 222 289 365 441
#     4  11  23  39  69 107 143 179 220 285 366 439
#     4  10  24  49  73  99 141 183 236 303 352 426
#     4  12  21  42  68 105 143 177 224 283 361 434
#     4  10  22  41  66 108 140 172 220 274 363 443
#
# _framework density 21.29458
#
# number of rings (size 3 to 8) (size 9 to 14) (size 15 to 20)
#    0.000    0.923    4.615    1.846    8.615    1.231 
#    5.538    0.000    0.000    0.000    0.000    0.000 
#    0.000    0.000    0.000    0.000    0.000    0.000 
#
# Total GULP energy -145077.979544 kJ/mol
# GULP energy per Si atom -5579.922290 kJ/mol
# Density = 2.124611 g / cm^3
# Si number density = 21.294580 Si / 1000 Ang^3
#
#
#
# Elastic Constant Matrix: (Units=GPa)
#
#
# Indices 1 2 3 4 5 6 
#
# 1 150.9037 42.8352 41.4828 0.0000 0.0000 0.0000
# 2 42.8352 113.0570 63.4069 0.0000 0.0000 0.0000
# 3 41.4828 63.4069 79.9909 0.0000 0.0000 0.0000
# 4 0.0000 0.0000 0.0000 27.6531 0.0000 0.0000
# 5 0.0000 0.0000 0.0000 0.0000 -14.9566 0.0000
# 6 0.0000 0.0000 0.0000 0.0000 0.0000 30.4880
#
#
#
# Elastic Compliance Matrix: (Units=1/GPa)
#
#
# Indices 1 2 3 4 5 6 
#
# 1 0.007824 -0.001240 -0.003074 0.000000 0.000000 0.000000
# 2 -0.001240 0.016121 -0.012136 0.000000 0.000000 0.000000
# 3 -0.003074 -0.012136 0.023716 0.000000 0.000000 0.000000
# 4 0.000000 0.000000 0.000000 0.036162 0.000000 0.000000
# 5 0.000000 0.000000 0.000000 0.000000 -0.066860 0.000000
# 6 0.000000 0.000000 0.000000 0.000000 0.000000 0.032800
#
#
# Mechanical properties :
#
#
# Convention : Reuss Voigt Hill
#
# Bulk Modulus (GPa) = 67.75052 71.04460 69.39756
# Shear Modulus (GPa) = 57.08853 21.71868 39.40361
#
# Velocity S-wave (km/s) = 5.18335 3.19708 4.30630
# Velocity P-wave (km/s) = 8.22847 6.86029 7.57533
#
# Compressibility (1/GPa) = 0.01476003
#
# Stress axis : x y z
#
# Youngs Moduli (GPa) = 127.81347 62.03024 42.16633
#
# Poissons Ratio (x) = 0.07692 0.12964
# Poissons Ratio (y) = 0.15849 0.51172
# Poissons Ratio (z) = 0.39296 0.75279
#
# Static dielectric constant tensor:
#      x y z
#    x 1.850630 0.000000 0.000000 
#    y 0.000000 1.771410 0.000000 
#    z 0.000000 0.000000 1.781790 
# 
# From -- ./inp_files/16379.got.cif
#   From: 2010.05.17/outbox.cif.g08.bks.cpg/sg37_9_cif.got.tgz:16379.got - 2010.06.03 17:53:42.
