data_PCOD9354747
_publ_section_title
;
Structure prediction by ZEFSAII (Michael W. Deem and Ramdas Pophale) SiO2 
 PCOD9354747
Probable space group: C C C 2
;
_chemical_formula_sum "Si O2"
_cell_formula_units_Z 56
_cell_length_a 15.636021
_cell_length_b 4.922070
_cell_length_c 32.843237
_cell_angle_alpha 90.000000
_cell_angle_beta 90.000000
_cell_angle_gamma 90.000000
_cell_volume 2527.667736
_symmetry_space_group_name_H-M "C C C 2"
_symmetry_group_IT_number 37
_symmetry_cell_setting 'orthorhombic'
loop_
_space_group_symop_operation_xyz
x,y,z
-x,-y,z
-x,y,1/2+z
x,-y,1/2+z
1/2+x,1/2+y,z
1/2-x,1/2-y,z
1/2-x,1/2+y,1/2+z
1/2+x,1/2-y,1/2+z
loop_
_atom_site_type_symbol
_atom_site_label
_atom_site_fract_x
_atom_site_fract_y
_atom_site_fract_z
Si Si1 0.059971 0.254482 0.484400
Si Si2 0.352669 0.750119 0.620204
Si Si3 0.853231 0.749042 0.568533
Si Si4 0.688992 0.504535 0.418931
Si Si5 0.601203 0.958736 0.288558
Si Si6 0.060085 0.752411 0.704194
Si Si7 0.333665 0.439078 0.833747
O O1 0.105062 0.339175 0.526377
O O2 0.132056 0.138703 0.453976
O O3 0.000000 0.500000 0.468587
O O4 0.000000 0.000000 0.493409
O O5 0.250000 0.750000 0.622831
O O6 0.378951 0.544485 0.584483
O O7 0.388644 0.671125 0.663932
O O8 0.377942 0.046460 0.604804
O O9 0.750000 0.750000 0.563614
O O10 0.750000 0.750000 0.403558
O O11 0.630337 0.428366 0.379939
O O12 0.750000 0.250000 0.431712
O O13 0.613702 0.850837 0.242903
O O14 0.650265 0.747224 0.318304
O O15 0.500000 0.000000 0.296264
O O16 0.630556 0.263424 0.296616
O O17 0.000000 0.500000 0.693030
O O18 0.000000 0.000000 0.717465
O O19 0.250000 0.250000 0.841428
#
# Coordination Sequence:
#
# PCOD9354747 Si02
#       7
#     8   8   8   8   8   8   8
#     4  12  26  41  64 100 130 161 213 266 313 372
#     4  10  22  39  62  91 121 162 214 260 306 366
#     4  10  22  41  62  87 126 170 207 251 316 380
#     4  11  24  45  67  90 126 168 206 252 319 385
#     4  11  23  41  62  90 127 166 203 251 317 379
#     4  11  23  40  61  89 125 166 207 252 315 378
#     4  11  23  41  65  93 120 159 211 258 307 370
#
# _framework density 22.154810000000001
#
# number of rings (size 3 to 8) (size 9 to 14) (size 15 to 20)
#    0.000    1.143    0.000    7.286    0.000    8.000 
#    0.000    1.429    0.000    0.000    0.000    0.000 
#    0.000    0.000    0.000    0.000    0.000    0.000 
#
# Total GULP energy -156189.644672 kJ/mol
# GULP energy per Si atom -5578.201595 kJ/mol
# Density = 2.210438 g / cm^3
# Si number density = 22.154810 Si / 1000 Ang^3
#
#
#
# Elastic Constant Matrix: (Units=GPa)
#
#
# Indices 1 2 3 4 5 6 
#
# 1 32.1000 14.5667 34.1383 0.0000 0.0000 0.0000
# 2 14.5667 121.0736 11.6823 0.0000 0.0000 0.0000
# 3 34.1383 11.6823 129.3959 0.0000 0.0000 0.0000
# 4 0.0000 0.0000 0.0000 28.1360 0.0000 0.0000
# 5 0.0000 0.0000 0.0000 0.0000 -9.0058 0.0000
# 6 0.0000 0.0000 0.0000 0.0000 0.0000 36.9275
#
#
#
# Elastic Compliance Matrix: (Units=1/GPa)
#
#
# Indices 1 2 3 4 5 6 
#
# 1 0.045466 -0.004351 -0.011602 0.000000 0.000000 0.000000
# 2 -0.004351 0.008748 0.000358 0.000000 0.000000 0.000000
# 3 -0.011602 0.000358 0.010757 0.000000 0.000000 0.000000
# 4 0.000000 0.000000 0.000000 0.035542 0.000000 0.000000
# 5 0.000000 0.000000 0.000000 0.000000 -0.111039 0.000000
# 6 0.000000 0.000000 0.000000 0.000000 0.000000 0.027080
#
#
# Mechanical properties :
#
#
# Convention : Reuss Voigt Hill
#
# Bulk Modulus (GPa) = 29.60230 44.81600 37.20915
# Shear Modulus (GPa) = 84.73974 26.02368 55.38171
#
# Velocity S-wave (km/s) = 6.19128 3.43100 5.00518
# Velocity P-wave (km/s) = 8.03118 5.99735 7.08760
#
# Compressibility (1/GPa) = 0.03378116
#
# Stress axis : x y z
#
# Youngs Moduli (GPa) = 21.99446 114.30746 92.96326
#
# Poissons Ratio (x) = 0.49731 1.07860
# Poissons Ratio (y) = 0.09569 -0.03328
# Poissons Ratio (z) = 0.25519 -0.04092
#
# Static dielectric constant tensor:
#      x y z
#    x 1.908630 0.000000 0.000000 
#    y 0.000000 1.775650 0.000000 
#    z 0.000000 0.000000 1.812390 
# 
# From -- ./inp_files/20545.got.cif
#   From: 2010.05.17/outbox.cif.g08.bks.cpg/sg37_11_cif.got.tgz:20545.got - 2010.06.03 17:53:42.
