data_PCOD9354187
_publ_section_title
;
Structure prediction by ZEFSAII (Michael W. Deem and Ramdas Pophale) SiO2 
 PCOD9354187
Probable space group: C C C 2
;
_chemical_formula_sum "Si O2"
_cell_formula_units_Z 60
_cell_length_a 26.624592
_cell_length_b 12.265621
_cell_length_c 8.507476
_cell_angle_alpha 90.000000
_cell_angle_beta 90.000000
_cell_angle_gamma 90.000000
_cell_volume 2778.262231
_symmetry_space_group_name_H-M "C C C 2"
_symmetry_group_IT_number 37
_symmetry_cell_setting 'orthorhombic'
loop_
_space_group_symop_operation_xyz
x,y,z
-x,-y,z
-x,y,1/2+z
x,-y,1/2+z
1/2+x,1/2+y,z
1/2-x,1/2-y,z
1/2-x,1/2+y,1/2+z
1/2+x,1/2-y,1/2+z
loop_
_atom_site_type_symbol
_atom_site_label
_atom_site_fract_x
_atom_site_fract_y
_atom_site_fract_z
Si Si1 0.835995 0.254348 0.577670
Si Si2 0.441495 0.489621 0.939328
Si Si3 0.968353 0.334894 0.178460
Si Si4 0.249042 0.909567 0.513620
Si Si5 0.227739 0.863925 0.146599
Si Si6 0.379027 0.314574 0.748779
Si Si7 0.434134 0.322543 0.233400
Si Si8 0.500000 0.000000 0.418648
O O1 0.799301 0.149272 0.592799
O O2 0.798941 0.356698 0.586973
O O3 0.856126 0.248440 0.399240
O O4 0.884300 0.244743 0.688101
O O5 0.500000 0.500000 0.899445
O O6 0.409460 0.414810 0.822934
O O7 0.426314 0.614210 0.898775
O O8 0.438791 0.420213 0.101619
O O9 0.919018 0.263922 0.171346
O O10 0.963557 0.428902 0.310146
O O11 0.016426 0.255044 0.216039
O O12 0.976095 0.406163 0.024055
O O13 0.245008 0.882555 0.328173
O O14 0.245900 0.036489 0.543207
O O15 0.250000 0.750000 0.091966
O O16 0.167557 0.856352 0.148755
#
# Coordination Sequence:
#
# PCOD9354187 Si02
#       8
#     8   8   8   8   8   8   8   4
#     4   9  19  41  65  95 126 182 209 269 338 390
#     4  11  21  35  58  96 131 170 204 257 322 393
#     4  11  23  44  62  91 132 173 228 271 314 399
#     4  10  20  43  72  90 136 167 218 278 337 392
#     4  11  22  45  67  99 130 170 216 283 333 395
#     4  10  20  39  66  93 131 167 212 265 332 387
#     4  11  23  37  62  93 134 169 219 260 325 392
#     4  10  24  44  64  84 128 182 228 272 314 358
#
# _framework density 21.596233999999999
#
# number of rings (size 3 to 8) (size 9 to 14) (size 15 to 20)
#    0.000    1.600    4.000    2.800    0.000    0.000 
#    9.600    1.333    0.000    0.000    0.000    0.000 
#    0.000    0.000    0.000    0.000    0.000    0.000 
#
# Total GULP energy -167530.757568 kJ/mol
# GULP energy per Si atom -5584.358586 kJ/mol
# Density = 2.154708 g / cm^3
# Si number density = 21.596234 Si / 1000 Ang^3
#
#
#
# Elastic Constant Matrix: (Units=GPa)
#
#
# Indices 1 2 3 4 5 6 
#
# 1 131.3128 58.4083 21.7519 0.0000 0.0000 0.0000
# 2 58.4083 159.2382 50.3921 0.0000 0.0000 0.0000
# 3 21.7519 50.3921 34.9887 0.0000 0.0000 0.0000
# 4 0.0000 0.0000 0.0000 4.5776 0.0000 0.0000
# 5 0.0000 0.0000 0.0000 0.0000 136.4731 0.0000
# 6 0.0000 0.0000 0.0000 0.0000 0.0000 20.6194
#
#
#
# Elastic Compliance Matrix: (Units=1/GPa)
#
#
# Indices 1 2 3 4 5 6 
#
# 1 0.009147 -0.002858 -0.001570 0.000000 0.000000 0.000000
# 2 -0.002858 0.012432 -0.016129 0.000000 0.000000 0.000000
# 3 -0.001570 -0.016129 0.052786 0.000000 0.000000 0.000000
# 4 0.000000 0.000000 0.000000 0.218453 0.000000 0.000000
# 5 0.000000 0.000000 0.000000 0.000000 0.007327 0.000000
# 6 0.000000 0.000000 0.000000 0.000000 0.000000 0.048498
#
#
# Mechanical properties :
#
#
# Convention : Reuss Voigt Hill
#
# Bulk Modulus (GPa) = 30.07389 65.18271 47.62830
# Shear Modulus (GPa) = 12.47378 45.33318 28.90348
#
# Velocity S-wave (km/s) = 2.40592 4.58659 3.66233
# Velocity P-wave (km/s) = 4.65550 7.63525 6.32340
#
# Compressibility (1/GPa) = 0.03325143
#
# Stress axis : x y z
#
# Youngs Moduli (GPa) = 109.32782 80.43548 18.94450
#
# Poissons Ratio (x) = 0.22990 0.02974
# Poissons Ratio (y) = 0.31248 0.30555
# Poissons Ratio (z) = 0.17163 1.29731
#
# Static dielectric constant tensor:
#      x y z
#    x 1.773600 0.000000 0.000000 
#    y 0.000000 1.770120 0.000000 
#    z 0.000000 0.000000 1.868040 
# 
# From -- ./inp_files/4808.got.cif
#   From: 2010.05.17/outbox.cif.g08.bks.cpg/sg37_3_cif.got.tgz:4808.got - 2010.06.03 17:53:42.
