data_PCOD9354686
_publ_section_title
;
Structure prediction by ZEFSAII (Michael W. Deem and Ramdas Pophale) SiO2 
 PCOD9354686
Probable space group: C C C 2
;
_chemical_formula_sum "Si O2"
_cell_formula_units_Z 64
_cell_length_a 24.372663
_cell_length_b 14.178005
_cell_length_c 7.961435
_cell_angle_alpha 90.000000
_cell_angle_beta 90.000000
_cell_angle_gamma 90.000000
_cell_volume 2751.119546
_symmetry_space_group_name_H-M "C C C 2"
_symmetry_group_IT_number 37
_symmetry_cell_setting 'orthorhombic'
loop_
_space_group_symop_operation_xyz
x,y,z
-x,-y,z
-x,y,1/2+z
x,-y,1/2+z
1/2+x,1/2+y,z
1/2-x,1/2-y,z
1/2-x,1/2+y,1/2+z
1/2+x,1/2-y,1/2+z
loop_
_atom_site_type_symbol
_atom_site_label
_atom_site_fract_x
_atom_site_fract_y
_atom_site_fract_z
Si Si1 0.952643 0.077079 0.322260
Si Si2 0.027252 0.715976 0.244403
Si Si3 0.733670 0.141461 0.490545
Si Si4 0.878588 0.407834 0.354188
Si Si5 0.388720 0.559329 0.990211
Si Si6 0.918407 0.749357 0.373943
Si Si7 0.839151 0.606082 0.472255
Si Si8 0.767908 0.051500 0.129848
O O1 0.967135 0.185147 0.346036
O O2 0.934628 0.069999 0.131129
O O3 0.898599 0.044261 0.419811
O O4 0.000000 0.000000 0.351627
O O5 0.060937 0.636238 0.344746
O O6 0.961679 0.705722 0.244156
O O7 0.054001 0.728931 0.059423
O O8 0.750000 0.250000 0.516835
O O9 0.667232 0.137792 0.475358
O O10 0.756460 0.101058 0.309611
O O11 0.754522 0.061161 0.620945
O O12 0.871395 0.517914 0.392583
O O13 0.857031 0.390386 0.166314
O O14 0.329271 0.570676 0.068583
O O15 0.404342 0.640268 0.856642
O O16 0.860500 0.697140 0.378509
O O17 0.774677 0.592291 0.492416
#
# Coordination Sequence:
#
# PCOD9354686 Si02
#       8
#     8   8   8   8   8   8   8   8
#     4  11  22  38  56  84 123 158 192 245 301 357
#     4  10  22  37  57  84 117 153 201 240 295 365
#     4  10  22  40  66  90 126 168 206 260 316 371
#     4   9  20  38  61  83 114 156 198 248 300 356
#     4  11  23  35  61  87 120 156 197 244 300 366
#     4  10  22  38  57  85 115 155 198 242 302 360
#     4   9  20  39  60  85 117 152 197 250 299 355
#     4  10  22  39  64  95 124 160 213 256 306 383
#
# _framework density 23.263256999999999
#
# number of rings (size 3 to 8) (size 9 to 14) (size 15 to 20)
#    0.000    2.000    1.250    1.125   10.500    1.500 
#    0.000    3.125   11.000    0.000    0.000    0.000 
#    0.000    0.000    0.000    0.000    0.000    0.000 
#
# Total GULP energy -178612.784406 kJ/mol
# GULP energy per Si atom -5581.649513 kJ/mol
# Density = 2.321031 g / cm^3
# Si number density = 23.263257 Si / 1000 Ang^3
#
#
#
# Elastic Constant Matrix: (Units=GPa)
#
#
# Indices 1 2 3 4 5 6 
#
# 1 90.2500 10.9537 15.0311 0.0000 0.0000 0.0000
# 2 10.9537 41.7737 6.2541 0.0000 0.0000 0.0000
# 3 15.0311 6.2541 45.4327 0.0000 0.0000 0.0000
# 4 0.0000 0.0000 0.0000 27.7998 0.0000 0.0000
# 5 0.0000 0.0000 0.0000 0.0000 1.4476 0.0000
# 6 0.0000 0.0000 0.0000 0.0000 0.0000 37.4818
#
#
#
# Elastic Compliance Matrix: (Units=1/GPa)
#
#
# Indices 1 2 3 4 5 6 
#
# 1 0.011998 -0.002605 -0.003611 0.000000 0.000000 0.000000
# 2 -0.002605 0.025008 -0.002581 0.000000 0.000000 0.000000
# 3 -0.003611 -0.002581 0.023560 0.000000 0.000000 0.000000
# 4 0.000000 0.000000 0.000000 0.035971 0.000000 0.000000
# 5 0.000000 0.000000 0.000000 0.000000 0.690798 0.000000
# 6 0.000000 0.000000 0.000000 0.000000 0.000000 0.026680
#
#
# Mechanical properties :
#
#
# Convention : Reuss Voigt Hill
#
# Bulk Modulus (GPa) = 23.27050 26.88156 25.07603
# Shear Modulus (GPa) = 5.91063 23.02703 14.46883
#
# Velocity S-wave (km/s) = 1.59570 3.14959 2.49662
# Velocity P-wave (km/s) = 3.66331 4.98067 4.37189
#
# Compressibility (1/GPa) = 0.04297287
#
# Stress axis : x y z
#
# Youngs Moduli (GPa) = 83.34769 39.98719 42.44412
#
# Poissons Ratio (x) = 0.10418 0.15326
# Poissons Ratio (y) = 0.21716 0.10953
# Poissons Ratio (z) = 0.30095 0.10319
#
# Static dielectric constant tensor:
#      x y z
#    x 1.934190 0.000000 0.000000 
#    y 0.000000 1.892120 0.000000 
#    z 0.000000 0.000000 1.921630 
# 
# From -- ./inp_files/4661.got.cif
#   From: 2010.05.17/outbox.cif.g08.bks.cpg/sg37_3_cif.got.tgz:4661.got - 2010.06.03 17:53:42.
