data_PCOD9354245
_publ_section_title
;
Structure prediction by ZEFSAII (Michael W. Deem and Ramdas Pophale) SiO2 
 PCOD9354245
Probable space group: C C C 2
;
_chemical_formula_sum "Si O2"
_cell_formula_units_Z 64
_cell_length_a 8.220120
_cell_length_b 23.787606
_cell_length_c 15.649160
_cell_angle_alpha 90.000000
_cell_angle_beta 90.000000
_cell_angle_gamma 90.000000
_cell_volume 3059.989421
_symmetry_space_group_name_H-M "C C C 2"
_symmetry_group_IT_number 37
_symmetry_cell_setting 'orthorhombic'
loop_
_space_group_symop_operation_xyz
x,y,z
-x,-y,z
-x,y,1/2+z
x,-y,1/2+z
1/2+x,1/2+y,z
1/2-x,1/2-y,z
1/2-x,1/2+y,1/2+z
1/2+x,1/2-y,1/2+z
loop_
_atom_site_type_symbol
_atom_site_label
_atom_site_fract_x
_atom_site_fract_y
_atom_site_fract_z
Si Si1 0.590954 0.084444 0.211630
Si Si2 0.980505 0.371459 0.028925
Si Si3 0.644301 0.653204 0.976672
Si Si4 0.068555 0.738673 0.957485
Si Si5 0.364319 0.545459 0.565985
Si Si6 0.169208 0.471287 0.430473
Si Si7 0.254310 0.970023 0.750069
Si Si8 0.317192 0.191346 0.816293
O O1 0.550686 0.093411 0.113241
O O2 0.427965 0.060720 0.253192
O O3 0.631314 0.144622 0.250331
O O4 0.723731 0.035776 0.225659
O O5 0.908377 0.309157 0.028824
O O6 0.887616 0.409140 0.958816
O O7 0.173817 0.358618 0.016214
O O8 0.537572 0.709042 0.993594
O O9 0.683440 0.660864 0.876790
O O10 0.562118 0.597804 0.013144
O O11 0.250000 0.750000 0.925016
O O12 0.959898 0.710721 0.881948
O O13 0.500000 0.500000 0.573779
O O14 0.230029 0.512949 0.506975
O O15 0.322903 0.558318 0.665438
O O16 0.294265 0.468917 0.350241
O O17 0.000000 0.500000 0.402859
O O18 0.250000 0.250000 0.780189
#
# Coordination Sequence:
#
# PCOD9354245 Si02
#       8
#     8   8   8   8   8   8   8   8
#     4  11  19  36  64  95 125 163 215 271 312 397
#     4  11  21  37  66  91 125 164 221 262 329 392
#     4  10  20  41  62  88 124 168 213 271 320 390
#     4  10  23  39  62  89 125 169 220 270 327 394
#     4  12  26  41  62  97 139 173 216 271 342 401
#     4  12  21  39  70  98 123 172 218 272 331 400
#     4  11  22  37  62  98 132 165 218 266 327 400
#     4   9  20  40  66  94 124 166 217 270 331 391
#
# _framework density 20.915103999999999
#
# number of rings (size 3 to 8) (size 9 to 14) (size 15 to 20)
#    0.000    1.250    5.000    3.375    1.750    1.000 
#    0.000    1.250    2.750    0.000    0.000    0.000 
#    0.000    0.000    0.000    0.000    0.000    0.000 
#
# Total GULP energy -178166.278661 kJ/mol
# GULP energy per Si atom -5567.696208 kJ/mol
# Density = 2.086750 g / cm^3
# Si number density = 20.915104 Si / 1000 Ang^3
#
#
#
# Elastic Constant Matrix: (Units=GPa)
#
#
# Indices 1 2 3 4 5 6 
#
# 1 27.5992 17.8191 15.3073 0.0000 0.0000 0.0000
# 2 17.8191 117.1468 35.7482 0.0000 0.0000 0.0000
# 3 15.3073 35.7482 92.6882 0.0000 0.0000 0.0000
# 4 0.0000 0.0000 0.0000 27.3780 0.0000 0.0000
# 5 0.0000 0.0000 0.0000 0.0000 8.1095 0.0000
# 6 0.0000 0.0000 0.0000 0.0000 0.0000 25.5497
#
#
#
# Elastic Compliance Matrix: (Units=1/GPa)
#
#
# Indices 1 2 3 4 5 6 
#
# 1 0.042198 -0.004865 -0.005093 0.000000 0.000000 0.000000
# 2 -0.004865 0.010236 -0.003144 0.000000 0.000000 0.000000
# 3 -0.005093 -0.003144 0.012843 0.000000 0.000000 0.000000
# 4 0.000000 0.000000 0.000000 0.036526 0.000000 0.000000
# 5 0.000000 0.000000 0.000000 0.000000 0.123312 0.000000
# 6 0.000000 0.000000 0.000000 0.000000 0.000000 0.039139
#
#
# Mechanical properties :
#
#
# Convention : Reuss Voigt Hill
#
# Bulk Modulus (GPa) = 25.59302 41.68704 33.64003
# Shear Modulus (GPa) = 16.47544 23.44476 19.96010
#
# Velocity S-wave (km/s) = 2.80970 3.35169 3.09259
# Velocity P-wave (km/s) = 4.77379 5.91213 5.37319
#
# Compressibility (1/GPa) = 0.03907315
#
# Stress axis : x y z
#
# Youngs Moduli (GPa) = 23.69767 97.69651 77.86565
#
# Poissons Ratio (x) = 0.47526 0.39655
# Poissons Ratio (y) = 0.11528 0.24484
# Poissons Ratio (z) = 0.12069 0.30719
#
# Static dielectric constant tensor:
#      x y z
#    x 1.885160 0.000000 0.000000 
#    y 0.000000 1.739980 0.000000 
#    z 0.000000 0.000000 1.863380 
# 
# From -- ./inp_files/11021.got.cif
#   From: 2010.05.17/outbox.cif.g08.bks.cpg/sg37_6_cif.got.tgz:11021.got - 2010.06.03 17:53:42.
