data_PCOD9354691
_publ_section_title
;
Structure prediction by ZEFSAII (Michael W. Deem and Ramdas Pophale) SiO2 
 PCOD9354691
Probable space group: C C C 2
;
_chemical_formula_sum "Si O2"
_cell_formula_units_Z 48
_cell_length_a 19.078291
_cell_length_b 9.440100
_cell_length_c 14.108214
_cell_angle_alpha 90.000000
_cell_angle_beta 90.000000
_cell_angle_gamma 90.000000
_cell_volume 2540.903095
_symmetry_space_group_name_H-M "C C C 2"
_symmetry_group_IT_number 37
_symmetry_cell_setting 'orthorhombic'
loop_
_space_group_symop_operation_xyz
x,y,z
-x,-y,z
-x,y,1/2+z
x,-y,1/2+z
1/2+x,1/2+y,z
1/2-x,1/2-y,z
1/2-x,1/2+y,1/2+z
1/2+x,1/2-y,1/2+z
loop_
_atom_site_type_symbol
_atom_site_label
_atom_site_fract_x
_atom_site_fract_y
_atom_site_fract_z
Si Si1 0.920831 0.969943 0.620700
Si Si2 0.180877 0.652386 0.835805
Si Si3 0.927802 0.137255 0.905430
Si Si4 0.318255 0.850386 0.424997
Si Si5 0.834076 0.266471 0.628762
Si Si6 0.582574 0.650096 0.812347
O O1 0.929088 0.910608 0.514768
O O2 0.900059 0.856618 0.700708
O O3 0.873908 0.113601 0.623392
O O4 0.000000 0.000000 0.653770
O O5 0.250000 0.750000 0.838193
O O6 0.120253 0.726844 0.895999
O O7 0.198178 0.501501 0.880235
O O8 0.151573 0.655086 0.727823
O O9 0.002861 0.160004 0.853698
O O10 0.893566 0.004596 0.850092
O O11 0.250000 0.750000 0.425694
O O12 0.348203 0.851981 0.532283
O O13 0.375162 0.774036 0.360525
O O14 0.750000 0.250000 0.629559
#
# Coordination Sequence:
#
# PCOD9354691 Si02
#       6
#     8   8   8   8   8   8
#     4  12  20  37  67  95 124 164 218 253 308 387
#     4  11  24  41  62  88 127 165 209 258 316 374
#     4  11  21  38  64  94 121 164 210 255 307 370
#     4  11  24  41  62  88 127 165 209 258 316 374
#     4  10  22  37  61  89 123 163 203 269 313 360
#     4  11  21  38  64  94 121 164 210 255 307 370
#
# _framework density 18.890920999999999
#
# number of rings (size 3 to 8) (size 9 to 14) (size 15 to 20)
#    0.000    1.000    6.667    1.000    4.667    2.000 
#    0.000    1.667    0.000    6.000    0.000    0.000 
#    0.000    0.000    0.000    0.000    0.000    0.000 
#
# Total GULP energy -133780.450287 kJ/mol
# GULP energy per Si atom -5574.185429 kJ/mol
# Density = 1.884792 g / cm^3
# Si number density = 18.890921 Si / 1000 Ang^3
#
#
#
# Elastic Constant Matrix: (Units=GPa)
#
#
# Indices 1 2 3 4 5 6 
#
# 1 70.6214 44.7713 22.3472 0.0000 0.0000 0.0000
# 2 44.7713 111.7965 49.7607 0.0000 0.0000 0.0000
# 3 22.3472 49.7607 152.5010 0.0000 0.0000 0.0000
# 4 0.0000 0.0000 0.0000 5.8069 0.0000 0.0000
# 5 0.0000 0.0000 0.0000 0.0000 15.3356 0.0000
# 6 0.0000 0.0000 0.0000 0.0000 0.0000 23.6968
#
#
#
# Elastic Compliance Matrix: (Units=1/GPa)
#
#
# Indices 1 2 3 4 5 6 
#
# 1 0.018994 -0.007450 -0.000353 0.000000 0.000000 0.000000
# 2 -0.007450 0.013387 -0.003276 0.000000 0.000000 0.000000
# 3 -0.000353 -0.003276 0.007678 0.000000 0.000000 0.000000
# 4 0.000000 0.000000 0.000000 0.172210 0.000000 0.000000
# 5 0.000000 0.000000 0.000000 0.000000 0.065208 0.000000
# 6 0.000000 0.000000 0.000000 0.000000 0.000000 0.042200
#
#
# Mechanical properties :
#
#
# Convention : Reuss Voigt Hill
#
# Bulk Modulus (GPa) = 55.86063 63.18637 59.52350
# Shear Modulus (GPa) = 14.37604 23.50384 18.93994
#
# Velocity S-wave (km/s) = 2.76162 3.53113 3.16981
# Velocity P-wave (km/s) = 6.30896 7.08137 6.70630
#
# Compressibility (1/GPa) = 0.01790169
#
# Stress axis : x y z
#
# Youngs Moduli (GPa) = 52.64685 74.70177 130.24143
#
# Poissons Ratio (x) = 0.55652 0.04592
# Poissons Ratio (y) = 0.39221 0.42671
# Poissons Ratio (z) = 0.01856 0.24475
#
# Static dielectric constant tensor:
#      x y z
#    x 1.380780 0.000000 0.000000 
#    y 0.000000 1.652530 0.000000 
#    z 0.000000 0.000000 1.716480 
# 
# From -- ./inp_files/10704.got.cif
#   From: 2010.05.17/outbox.cif.g08.bks.cpg/sg37_6_cif.got.tgz:10704.got - 2010.06.03 17:53:42.
