data_PCOD9354714
_publ_section_title
;
Structure prediction by ZEFSAII (Michael W. Deem and Ramdas Pophale) SiO2 
 PCOD9354714
Probable space group: C C C 2
;
_chemical_formula_sum "Si O2"
_cell_formula_units_Z 60
_cell_length_a 18.024156
_cell_length_b 18.008580
_cell_length_c 9.279089
_cell_angle_alpha 90.000000
_cell_angle_beta 90.000000
_cell_angle_gamma 90.000000
_cell_volume 3011.894444
_symmetry_space_group_name_H-M "C C C 2"
_symmetry_group_IT_number 37
_symmetry_cell_setting 'orthorhombic'
loop_
_space_group_symop_operation_xyz
x,y,z
-x,-y,z
-x,y,1/2+z
x,-y,1/2+z
1/2+x,1/2+y,z
1/2-x,1/2-y,z
1/2-x,1/2+y,1/2+z
1/2+x,1/2-y,1/2+z
loop_
_atom_site_type_symbol
_atom_site_label
_atom_site_fract_x
_atom_site_fract_y
_atom_site_fract_z
Si Si1 0.572065 0.072760 0.026270
Si Si2 0.250000 0.750000 0.004437
Si Si3 0.086470 0.430979 0.183604
Si Si4 0.571773 0.542199 0.867112
Si Si5 0.518387 0.687254 0.282828
Si Si6 0.862314 0.079981 0.654400
Si Si7 0.091655 0.258512 0.569547
Si Si8 0.778412 0.329487 0.717824
O O1 0.489228 0.078353 0.093726
O O2 0.615058 0.007798 0.112010
O O3 0.571385 0.058694 0.854319
O O4 0.602127 0.154143 0.054989
O O5 0.175471 0.772714 0.088166
O O6 0.225997 0.687109 0.888593
O O7 0.141935 0.360958 0.171375
O O8 0.500000 0.500000 0.933338
O O9 0.537312 0.619080 0.813877
O O10 0.606311 0.488258 0.748200
O O11 0.630241 0.557923 0.989826
O O12 0.584154 0.650166 0.189769
O O13 0.556005 0.722424 0.424614
O O14 0.467686 0.743610 0.194514
O O15 0.780501 0.106385 0.688830
O O16 0.750000 0.250000 0.653592
#
# Coordination Sequence:
#
# PCOD9354714 Si02
#       8
#     8   4   8   8   8   8   8   8
#     4  11  23  40  67  94 125 167 224 280 332 395
#     4  10  22  42  64  94 132 174 218 272 344 396
#     4  11  23  43  64  97 126 168 222 279 337 402
#     4  10  22  38  61  99 134 168 219 263 326 395
#     4  11  22  38  68  97 131 178 221 273 319 403
#     4  11  22  39  63  98 131 176 215 267 331 404
#     4  12  23  41  70  96 132 174 230 275 338 399
#     4  10  22  41  65  93 129 177 221 267 344 408
#
# _framework density 19.921016999999999
#
# number of rings (size 3 to 8) (size 9 to 14) (size 15 to 20)
#    0.400    0.800    4.000    3.600    3.733    1.067 
#    2.400    0.000    4.400    0.800    0.000    0.000 
#    0.000    0.000    0.000    0.000    0.000    0.000 
#
# Total GULP energy -167280.910962 kJ/mol
# GULP energy per Si atom -5576.030365 kJ/mol
# Density = 1.987568 g / cm^3
# Si number density = 19.921017 Si / 1000 Ang^3
#
#
#
# Elastic Constant Matrix: (Units=GPa)
#
#
# Indices 1 2 3 4 5 6 
#
# 1 88.3784 21.6294 29.3232 0.0000 0.0000 0.0000
# 2 21.6294 96.1045 14.6488 0.0000 0.0000 0.0000
# 3 29.3232 14.6488 58.3693 0.0000 0.0000 0.0000
# 4 0.0000 0.0000 0.0000 18.1731 0.0000 0.0000
# 5 0.0000 0.0000 0.0000 0.0000 13.8699 0.0000
# 6 0.0000 0.0000 0.0000 0.0000 0.0000 29.4014
#
#
#
# Elastic Compliance Matrix: (Units=1/GPa)
#
#
# Indices 1 2 3 4 5 6 
#
# 1 0.013997 -0.002161 -0.006489 0.000000 0.000000 0.000000
# 2 -0.002161 0.011153 -0.001713 0.000000 0.000000 0.000000
# 3 -0.006489 -0.001713 0.020822 0.000000 0.000000 0.000000
# 4 0.000000 0.000000 0.000000 0.055026 0.000000 0.000000
# 5 0.000000 0.000000 0.000000 0.000000 0.072099 0.000000
# 6 0.000000 0.000000 0.000000 0.000000 0.000000 0.034012
#
#
# Mechanical properties :
#
#
# Convention : Reuss Voigt Hill
#
# Bulk Modulus (GPa) = 39.61223 41.56164 40.58694
# Shear Modulus (GPa) = 21.16387 24.10560 22.63474
#
# Velocity S-wave (km/s) = 3.26297 3.48236 3.37445
# Velocity P-wave (km/s) = 5.84155 6.08914 5.96663
#
# Compressibility (1/GPa) = 0.02524473
#
# Stress axis : x y z
#
# Youngs Moduli (GPa) = 71.44393 89.66306 48.02521
#
# Poissons Ratio (x) = 0.19376 0.31165
# Poissons Ratio (y) = 0.15439 0.08228
# Poissons Ratio (z) = 0.46363 0.15362
#
# Static dielectric constant tensor:
#      x y z
#    x 1.744340 0.000000 0.000000 
#    y 0.000000 1.803810 0.000000 
#    z 0.000000 0.000000 1.698900 
# 
# From -- ./inp_files/4103.got.cif
#   From: 2010.05.17/outbox.cif.g08.bks.cpg/sg37_3_cif.got.tgz:4103.got - 2010.06.03 17:53:42.
