data_PCOD9354741
_publ_section_title
;
Structure prediction by ZEFSAII (Michael W. Deem and Ramdas Pophale) SiO2 
 PCOD9354741
Probable space group: C C C 2
;
_chemical_formula_sum "Si O2"
_cell_formula_units_Z 48
_cell_length_a 15.573493
_cell_length_b 17.953780
_cell_length_c 8.263164
_cell_angle_alpha 90.000000
_cell_angle_beta 90.000000
_cell_angle_gamma 90.000000
_cell_volume 2310.405999
_symmetry_space_group_name_H-M "C C C 2"
_symmetry_group_IT_number 37
_symmetry_cell_setting 'orthorhombic'
loop_
_space_group_symop_operation_xyz
x,y,z
-x,-y,z
-x,y,1/2+z
x,-y,1/2+z
1/2+x,1/2+y,z
1/2-x,1/2-y,z
1/2-x,1/2+y,1/2+z
1/2+x,1/2-y,1/2+z
loop_
_atom_site_type_symbol
_atom_site_label
_atom_site_fract_x
_atom_site_fract_y
_atom_site_fract_z
Si Si1 0.446801 0.229209 0.577810
Si Si2 0.125342 0.712154 0.437398
Si Si3 0.131246 0.887732 0.038706
Si Si4 0.207555 0.328815 0.379199
Si Si5 0.279888 0.365069 0.045493
Si Si6 0.598038 0.521349 0.210188
O O1 0.543399 0.201756 0.553697
O O2 0.412451 0.221299 0.758897
O O3 0.432872 0.317603 0.543550
O O4 0.385096 0.185529 0.452726
O O5 0.197531 0.647625 0.429870
O O6 0.167791 0.788903 0.505022
O O7 0.227502 0.859713 0.012129
O O8 0.105563 0.936160 0.880279
O O9 0.136354 0.938641 0.197180
O O10 0.250000 0.250000 0.336369
O O11 0.225414 0.372091 0.214581
O O12 0.352016 0.427844 0.078083
O O13 0.500000 0.500000 0.170599
#
# Coordination Sequence:
#
# PCOD9354741 Si02
#       6
#     8   8   8   8   8   8
#     4  11  24  37  62  92 124 167 220 281 330 392
#     4  11  23  36  61  89 121 168 215 278 330 383
#     4  10  24  35  59  84 125 170 210 259 320 398
#     4   9  18  38  57  81 121 160 211 268 331 373
#     4  10  22  39  60  87 127 168 213 269 326 392
#     4  11  23  39  57  89 128 175 208 257 317 399
#
# _framework density 20.775568
#
# number of rings (size 3 to 8) (size 9 to 14) (size 15 to 20)
#    0.000    1.667    1.667    2.500   16.333    0.000 
#    0.000    0.000    0.000    1.000    0.000    7.000 
#    0.000    0.000    0.000    0.000    0.000    0.000 
#
# Total GULP energy -133653.397544 kJ/mol
# GULP energy per Si atom -5568.891564 kJ/mol
# Density = 2.072828 g / cm^3
# Si number density = 20.775568 Si / 1000 Ang^3
#
#
#
# Elastic Constant Matrix: (Units=GPa)
#
#
# Indices 1 2 3 4 5 6 
#
# 1 138.3094 34.8775 28.9948 0.0000 0.0000 0.0000
# 2 34.8775 54.4405 18.3676 0.0000 0.0000 0.0000
# 3 28.9948 18.3676 93.5374 0.0000 0.0000 0.0000
# 4 0.0000 0.0000 0.0000 36.4669 0.0000 0.0000
# 5 0.0000 0.0000 0.0000 0.0000 304.4065 0.0000
# 6 0.0000 0.0000 0.0000 0.0000 0.0000 26.3882
#
#
#
# Elastic Compliance Matrix: (Units=1/GPa)
#
#
# Indices 1 2 3 4 5 6 
#
# 1 0.008884 -0.005100 -0.001752 0.000000 0.000000 0.000000
# 2 -0.005100 0.022600 -0.002857 0.000000 0.000000 0.000000
# 3 -0.001752 -0.002857 0.011795 0.000000 0.000000 0.000000
# 4 0.000000 0.000000 0.000000 0.027422 0.000000 0.000000
# 5 0.000000 0.000000 0.000000 0.000000 0.003285 0.000000
# 6 0.000000 0.000000 0.000000 0.000000 0.000000 0.037896
#
#
# Mechanical properties :
#
#
# Convention : Reuss Voigt Hill
#
# Bulk Modulus (GPa) = 41.91107 50.08522 45.99815
# Shear Modulus (GPa) = 35.90572 87.05547 61.48059
#
# Velocity S-wave (km/s) = 4.16175 6.48026 5.44582
# Velocity P-wave (km/s) = 6.58108 8.95275 7.85692
#
# Compressibility (1/GPa) = 0.02386004
#
# Stress axis : x y z
#
# Youngs Moduli (GPa) = 112.56697 44.24783 84.78107
#
# Poissons Ratio (x) = 0.22567 0.14856
# Poissons Ratio (y) = 0.57410 0.24221
# Poissons Ratio (z) = 0.19725 0.12641
#
# Static dielectric constant tensor:
#      x y z
#    x 0.542710 0.000000 0.000000 
#    y 0.000000 1.624440 0.000000 
#    z 0.000000 0.000000 1.859040 
# 
# From -- ./inp_files/3484.got.cif
#   From: 2010.05.17/outbox.cif.g08.bks.cpg/sg37_2_cif.got.tgz:3484.got - 2010.06.03 17:53:42.
