data_PCOD9354627
_publ_section_title
;
Structure prediction by ZEFSAII (Michael W. Deem and Ramdas Pophale) SiO2 
 PCOD9354627
Probable space group: C C C 2
;
_chemical_formula_sum "Si O2"
_cell_formula_units_Z 64
_cell_length_a 17.255591
_cell_length_b 11.449973
_cell_length_c 14.724307
_cell_angle_alpha 90.000000
_cell_angle_beta 90.000000
_cell_angle_gamma 90.000000
_cell_volume 2909.170431
_symmetry_space_group_name_H-M "C C C 2"
_symmetry_group_IT_number 37
_symmetry_cell_setting 'orthorhombic'
loop_
_space_group_symop_operation_xyz
x,y,z
-x,-y,z
-x,y,1/2+z
x,-y,1/2+z
1/2+x,1/2+y,z
1/2-x,1/2-y,z
1/2-x,1/2+y,1/2+z
1/2+x,1/2-y,1/2+z
loop_
_atom_site_type_symbol
_atom_site_label
_atom_site_fract_x
_atom_site_fract_y
_atom_site_fract_z
Si Si1 0.698486 0.445587 0.474660
Si Si2 0.412898 0.811740 0.129709
Si Si3 0.949186 0.713817 0.272154
Si Si4 0.668120 0.961246 0.199016
Si Si5 0.587638 0.471082 0.813473
Si Si6 0.500976 0.862235 0.459055
Si Si7 0.166498 0.675024 0.522426
Si Si8 0.822293 0.085529 0.161659
O O1 0.647564 0.490315 0.391493
O O2 0.790504 0.422671 0.459610
O O3 0.680190 0.310184 0.499153
O O4 0.683999 0.528124 0.561647
O O5 0.490679 0.785004 0.188096
O O6 0.387964 0.942069 0.155474
O O7 0.343208 0.721923 0.151442
O O8 0.430958 0.813159 0.022617
O O9 0.885342 0.610288 0.268645
O O10 0.906407 0.836119 0.286051
O O11 0.000392 0.696675 0.361709
O O12 0.746592 0.035686 0.215338
O O13 0.689266 0.863352 0.123866
O O14 0.500000 0.500000 0.843505
O O15 0.606170 0.539534 0.721086
O O16 0.423864 0.837486 0.513583
O O17 0.500000 0.000000 0.446250
#
# Coordination Sequence:
#
# PCOD9354627 Si02
#       8
#     8   8   8   8   8   8   8   8
#     4  10  24  44  70  99 141 184 231 291 354 434
#     4  12  23  45  67 103 144 182 238 303 353 429
#     4  12  25  42  71 102 140 187 239 298 359 427
#     4  11  23  47  69 101 140 182 240 296 359 433
#     4  12  25  46  65 105 140 180 247 292 357 440
#     4  12  23  40  71 105 137 182 236 292 358 424
#     4  10  21  43  70  99 134 184 231 285 359 424
#     4  11  26  44  70 100 139 191 229 292 367 425
#
# _framework density 21.999397999999999
#
# number of rings (size 3 to 8) (size 9 to 14) (size 15 to 20)
#    0.000    0.750    3.750    3.750    0.000    4.000 
#    2.250    0.000    0.000    0.000    0.000    0.000 
#    0.000    0.000    0.000    0.000    0.000    0.000 
#
# Total GULP energy -178598.162679 kJ/mol
# GULP energy per Si atom -5581.192584 kJ/mol
# Density = 2.194933 g / cm^3
# Si number density = 21.999398 Si / 1000 Ang^3
#
#
#
# Elastic Constant Matrix: (Units=GPa)
#
#
# Indices 1 2 3 4 5 6 
#
# 1 63.7161 18.2581 8.3327 0.0000 0.0000 0.0000
# 2 18.2581 106.9075 22.8012 0.0000 0.0000 0.0000
# 3 8.3327 22.8012 72.8165 0.0000 0.0000 0.0000
# 4 0.0000 0.0000 0.0000 24.7645 0.0000 0.0000
# 5 0.0000 0.0000 0.0000 0.0000 29.2382 0.0000
# 6 0.0000 0.0000 0.0000 0.0000 0.0000 16.8076
#
#
#
# Elastic Compliance Matrix: (Units=1/GPa)
#
#
# Indices 1 2 3 4 5 6 
#
# 1 0.016582 -0.002601 -0.001083 0.000000 0.000000 0.000000
# 2 -0.002601 0.010431 -0.002969 0.000000 0.000000 0.000000
# 3 -0.001083 -0.002969 0.014787 0.000000 0.000000 0.000000
# 4 0.000000 0.000000 0.000000 0.040380 0.000000 0.000000
# 5 0.000000 0.000000 0.000000 0.000000 0.034202 0.000000
# 6 0.000000 0.000000 0.000000 0.000000 0.000000 0.059497
#
#
# Mechanical properties :
#
#
# Convention : Reuss Voigt Hill
#
# Bulk Modulus (GPa) = 35.09493 38.02488 36.55990
# Shear Modulus (GPa) = 25.16585 27.09860 26.13222
#
# Velocity S-wave (km/s) = 3.38588 3.51349 3.45027
# Velocity P-wave (km/s) = 5.59221 5.81219 5.70326
#
# Compressibility (1/GPa) = 0.02849415
#
# Stress axis : x y z
#
# Youngs Moduli (GPa) = 60.30802 95.86599 67.62837
#
# Poissons Ratio (x) = 0.24933 0.07325
# Poissons Ratio (y) = 0.15685 0.20077
# Poissons Ratio (z) = 0.06532 0.28460
#
# Static dielectric constant tensor:
#      x y z
#    x 1.989550 0.000000 0.000000 
#    y 0.000000 1.813560 0.000000 
#    z 0.000000 0.000000 1.811690 
# 
# From -- ./inp_files/12707.got.cif
#   From: 2010.05.17/outbox.cif.g08.bks.cpg/sg37_7_cif.got.tgz:12707.got - 2010.06.03 17:53:42.
