data_PCOD9354707
_publ_section_title
;
Structure prediction by ZEFSAII (Michael W. Deem and Ramdas Pophale) SiO2 
 PCOD9354707
Probable space group: C C C 2
;
_chemical_formula_sum "Si O2"
_cell_formula_units_Z 56
_cell_length_a 5.337657
_cell_length_b 27.950970
_cell_length_c 18.088101
_cell_angle_alpha 90.000000
_cell_angle_beta 90.000000
_cell_angle_gamma 90.000000
_cell_volume 2698.612457
_symmetry_space_group_name_H-M "C C C 2"
_symmetry_group_IT_number 37
_symmetry_cell_setting 'orthorhombic'
loop_
_space_group_symop_operation_xyz
x,y,z
-x,-y,z
-x,y,1/2+z
x,-y,1/2+z
1/2+x,1/2+y,z
1/2-x,1/2-y,z
1/2-x,1/2+y,1/2+z
1/2+x,1/2-y,1/2+z
loop_
_atom_site_type_symbol
_atom_site_label
_atom_site_fract_x
_atom_site_fract_y
_atom_site_fract_z
Si Si1 0.458893 0.601268 0.716060
Si Si2 0.750000 0.250000 0.809772
Si Si3 0.858427 0.146729 0.871875
Si Si4 0.277154 0.699459 0.477726
Si Si5 0.563032 0.322678 0.109702
Si Si6 0.979493 0.556706 0.647689
Si Si7 0.250000 0.750000 0.212719
Si Si8 0.106591 0.379879 0.510950
O O1 0.452832 0.618153 0.800753
O O2 0.401059 0.650113 0.670256
O O3 0.722061 0.577198 0.687369
O O4 0.218913 0.569623 0.697554
O O5 0.733253 0.198714 0.852563
O O6 0.499458 0.253683 0.760723
O O7 0.091004 0.163649 0.921317
O O8 0.684560 0.114085 0.925558
O O9 0.250000 0.750000 0.437870
O O10 0.441476 0.712086 0.550255
O O11 0.047016 0.669671 0.509117
O O12 0.766065 0.295668 0.158759
O O13 0.648360 0.365421 0.056769
O O14 0.008999 0.580772 0.565529
O O15 0.000000 0.500000 0.638539
#
# Coordination Sequence:
#
# PCOD9354707 Si02
#       8
#     8   4   8   8   8   8   4   8
#     4  11  24  43  73 101 138 178 225 289 351 412
#     4  12  28  39  60  99 144 194 232 278 328 401
#     4  11  26  41  62 101 142 189 224 277 342 409
#     4  11  22  38  63  94 139 187 233 273 330 401
#     4  10  22  38  59  98 130 180 235 279 330 387
#     4  11  25  49  78 104 129 174 234 294 360 418
#     4  12  26  37  62  95 136 188 240 286 316 387
#     4  10  23  41  69  96 135 178 222 287 344 411
#
# _framework density 20.751403
#
# number of rings (size 3 to 8) (size 9 to 14) (size 15 to 20)
#    0.000    1.143    2.857    2.143   12.000    2.286 
#    0.000    0.714    3.143    0.000    0.000    0.000 
#    0.000    0.000    0.000    0.000    0.000    0.000 
#
# Total GULP energy -155955.842697 kJ/mol
# GULP energy per Si atom -5569.851525 kJ/mol
# Density = 2.070417 g / cm^3
# Si number density = 20.751403 Si / 1000 Ang^3
#
#
#
# Elastic Constant Matrix: (Units=GPa)
#
#
# Indices 1 2 3 4 5 6 
#
# 1 80.3405 15.3096 39.0299 0.0000 0.0000 0.0000
# 2 15.3096 94.0446 43.8904 0.0000 0.0000 0.0000
# 3 39.0299 43.8904 144.5937 0.0000 0.0000 0.0000
# 4 0.0000 0.0000 0.0000 19.4053 0.0000 0.0000
# 5 0.0000 0.0000 0.0000 0.0000 22.6955 0.0000
# 6 0.0000 0.0000 0.0000 0.0000 0.0000 24.9257
#
#
#
# Elastic Compliance Matrix: (Units=1/GPa)
#
#
# Indices 1 2 3 4 5 6 
#
# 1 0.014356 -0.000616 -0.003688 0.000000 0.000000 0.000000
# 2 -0.000616 0.012415 -0.003602 0.000000 0.000000 0.000000
# 3 -0.003688 -0.003602 0.009005 0.000000 0.000000 0.000000
# 4 0.000000 0.000000 0.000000 0.051532 0.000000 0.000000
# 5 0.000000 0.000000 0.000000 0.000000 0.044062 0.000000
# 6 0.000000 0.000000 0.000000 0.000000 0.000000 0.040119
#
#
# Mechanical properties :
#
#
# Convention : Reuss Voigt Hill
#
# Bulk Modulus (GPa) = 50.09177 57.27095 53.68136
# Shear Modulus (GPa) = 25.77911 28.12189 26.95050
#
# Velocity S-wave (km/s) = 3.52843 3.68527 3.60770
# Velocity P-wave (km/s) = 6.38679 6.76512 6.57867
#
# Compressibility (1/GPa) = 0.01996336
#
# Stress axis : x y z
#
# Youngs Moduli (GPa) = 69.65678 80.55024 111.05082
#
# Poissons Ratio (x) = 0.04960 0.40958
# Poissons Ratio (y) = 0.04289 0.40002
# Poissons Ratio (z) = 0.25691 0.29015
#
# Static dielectric constant tensor:
#      x y z
#    x 1.835820 0.000000 0.000000 
#    y 0.000000 1.846610 0.000000 
#    z 0.000000 0.000000 1.784420 
# 
# From -- ./inp_files/9929.got.cif
#   From: 2010.05.17/outbox.cif.g08.bks.cpg/sg37_5_cif.got.tgz:9929.got - 2010.06.03 17:53:42.
