data_PCOD9354883
_publ_section_title
;
Structure prediction by ZEFSAII (Michael W. Deem and Ramdas Pophale) SiO2 
 PCOD9354883
Probable space group: C C C 2
;
_chemical_formula_sum "Si O2"
_cell_formula_units_Z 28
_cell_length_a 12.654750
_cell_length_b 4.823284
_cell_length_c 17.671653
_cell_angle_alpha 90.000000
_cell_angle_beta 90.000000
_cell_angle_gamma 90.000000
_cell_volume 1078.632693
_symmetry_space_group_name_H-M "C C C 2"
_symmetry_group_IT_number 37
_symmetry_cell_setting 'orthorhombic'
loop_
_space_group_symop_operation_xyz
x,y,z
-x,-y,z
-x,y,1/2+z
x,-y,1/2+z
1/2+x,1/2+y,z
1/2-x,1/2-y,z
1/2-x,1/2+y,1/2+z
1/2+x,1/2-y,1/2+z
loop_
_atom_site_type_symbol
_atom_site_label
_atom_site_fract_x
_atom_site_fract_y
_atom_site_fract_z
Si Si1 0.500000 0.000000 0.823360
Si Si2 0.673816 0.995923 0.939264
Si Si3 0.873237 0.675744 0.094582
Si Si4 0.625879 0.318897 0.199198
O O1 0.594312 0.111091 0.876268
O O2 0.558739 0.778675 0.770237
O O3 0.750000 0.750000 0.909737
O O4 0.750000 0.250000 0.966437
O O5 0.603643 0.847967 0.005454
O O6 0.750000 0.750000 0.087477
O O7 0.896866 0.374092 0.126545
O O8 0.897450 0.880193 0.164638
O O9 0.750000 0.250000 0.215176
#
# Coordination Sequence:
#
# PCOD9354883 Si02
#       4
#     4   8   8   8
#     4  12  28  44  72 112 152 190 232 300 382 440
#     4  11  25  47  74 105 144 190 244 304 362 430
#     4   9  19  42  70  94 132 187 241 293 346 412
#     4  10  22  42  68 100 140 186 237 293 353 426
#
# _framework density 25.958794000000001
#
# number of rings (size 3 to 8) (size 9 to 14) (size 15 to 20)
#    0.000    1.714    0.000    5.143    0.000   11.429 
#    0.000    8.571    0.000    0.000    0.000    0.000 
#    0.000    0.000    0.000    0.000    0.000    0.000 
#
# Total GULP energy -78169.729722 kJ/mol
# GULP energy per Si atom -5583.552123 kJ/mol
# Density = 2.589971 g / cm^3
# Si number density = 25.958794 Si / 1000 Ang^3
#
#
#
# Elastic Constant Matrix: (Units=GPa)
#
#
# Indices 1 2 3 4 5 6 
#
# 1 131.4246 17.0741 60.9595 0.0000 0.0000 0.0000
# 2 17.0741 83.5691 21.3799 0.0000 0.0000 0.0000
# 3 60.9595 21.3799 166.8909 0.0000 0.0000 0.0000
# 4 0.0000 0.0000 0.0000 22.8475 0.0000 0.0000
# 5 0.0000 0.0000 0.0000 0.0000 35.8209 0.0000
# 6 0.0000 0.0000 0.0000 0.0000 0.0000 46.0758
#
#
#
# Elastic Compliance Matrix: (Units=1/GPa)
#
#
# Indices 1 2 3 4 5 6 
#
# 1 0.009251 -0.001060 -0.003243 0.000000 0.000000 0.000000
# 2 -0.001060 0.012493 -0.001213 0.000000 0.000000 0.000000
# 3 -0.003243 -0.001213 0.007332 0.000000 0.000000 0.000000
# 4 0.000000 0.000000 0.000000 0.043768 0.000000 0.000000
# 5 0.000000 0.000000 0.000000 0.000000 0.027917 0.000000
# 6 0.000000 0.000000 0.000000 0.000000 0.000000 0.021703
#
#
# Mechanical properties :
#
#
# Convention : Reuss Voigt Hill
#
# Bulk Modulus (GPa) = 55.42413 64.52352 59.97383
# Shear Modulus (GPa) = 35.83913 39.78025 37.80969
#
# Velocity S-wave (km/s) = 3.71970 3.91888 3.82059
# Velocity P-wave (km/s) = 6.31232 6.73698 6.52810
#
# Compressibility (1/GPa) = 0.01804268
#
# Stress axis : x y z
#
# Youngs Moduli (GPa) = 108.09623 80.04380 136.38856
#
# Poissons Ratio (x) = 0.08488 0.44234
# Poissons Ratio (y) = 0.11462 0.16546
# Poissons Ratio (z) = 0.35058 0.09710
#
# Static dielectric constant tensor:
#      x y z
#    x 2.237080 0.000000 0.000000 
#    y 0.000000 2.024750 0.000000 
#    z 0.000000 0.000000 2.011480 
# 
# From -- ./inp_files/15135.got.cif
#   From: 2010.05.17/outbox.cif.g08.bks.cpg/sg37_8_cif.got.tgz:15135.got - 2010.06.03 17:53:42.
