data_PCOD9354913
_publ_section_title
;
Structure prediction by ZEFSAII (Michael W. Deem and Ramdas Pophale) SiO2 
 PCOD9354913
Probable space group: C C C 2
;
_chemical_formula_sum "Si O2"
_cell_formula_units_Z 60
_cell_length_a 14.860262
_cell_length_b 14.688612
_cell_length_c 13.499616
_cell_angle_alpha 90.000000
_cell_angle_beta 90.000000
_cell_angle_gamma 90.000000
_cell_volume 2946.650589
_symmetry_space_group_name_H-M "C C C 2"
_symmetry_group_IT_number 37
_symmetry_cell_setting 'orthorhombic'
loop_
_space_group_symop_operation_xyz
x,y,z
-x,-y,z
-x,y,1/2+z
x,-y,1/2+z
1/2+x,1/2+y,z
1/2-x,1/2-y,z
1/2-x,1/2+y,1/2+z
1/2+x,1/2-y,1/2+z
loop_
_atom_site_type_symbol
_atom_site_label
_atom_site_fract_x
_atom_site_fract_y
_atom_site_fract_z
Si Si1 0.109691 0.379798 0.347650
Si Si2 0.774347 0.500011 0.997613
Si Si3 0.043000 0.215283 0.117245
Si Si4 0.750000 0.750000 0.370325
Si Si5 0.175380 0.827807 0.438354
Si Si6 0.074429 0.570769 0.635285
Si Si7 0.382554 0.633805 0.001440
Si Si8 0.993921 0.803147 0.340230
O O1 0.154332 0.437686 0.436036
O O2 0.195854 0.322308 0.307724
O O3 0.078827 0.437291 0.254268
O O4 0.035402 0.301324 0.372509
O O5 0.728921 0.577812 0.930595
O O6 0.687621 0.442476 0.033707
O O7 0.831410 0.546331 0.084275
O O8 0.048120 0.324924 0.112576
O O9 0.048192 0.187353 0.231836
O O10 0.118234 0.177335 0.041721
O O11 0.945631 0.178488 0.083005
O O12 0.680528 0.705043 0.445009
O O13 0.250000 0.750000 0.438879
O O14 0.100631 0.811124 0.353637
O O15 0.000000 0.500000 0.597465
O O16 0.453082 0.618423 0.911501
#
# Coordination Sequence:
#
# PCOD9354913 Si02
#       8
#     8   8   8   4   8   8   8   8
#     4   9  21  41  61  89 123 164 206 258 309 379
#     4  11  24  39  64  94 128 157 213 272 305 372
#     4  10  22  43  63  89 128 167 209 256 317 389
#     4   8  16  36  66  84 116 162 208 242 308 368
#     4  11  23  41  63  94 126 171 210 263 319 374
#     4  11  25  38  60  93 126 167 207 255 323 375
#     4   9  20  38  62  92 118 165 205 258 310 368
#     4   9  21  41  66  88 123 171 211 247 321 384
#
# _framework density 20.362102
#
# number of rings (size 3 to 8) (size 9 to 14) (size 15 to 20)
#    0.000    2.133    1.333    0.000    7.467   10.133 
#    2.400    1.333    0.000    0.000    0.000    0.000 
#    0.000    0.000    0.000    0.000    0.000    0.000 
#
# Total GULP energy -167049.278601 kJ/mol
# GULP energy per Si atom -5568.309287 kJ/mol
# Density = 2.031576 g / cm^3
# Si number density = 20.362102 Si / 1000 Ang^3
#
#
#
# Elastic Constant Matrix: (Units=GPa)
#
#
# Indices 1 2 3 4 5 6 
#
# 1 83.1155 24.2418 -7.0941 0.0000 0.0000 0.0000
# 2 24.2418 57.0400 -1.6634 0.0000 0.0000 0.0000
# 3 -7.0941 -1.6634 42.2390 0.0000 0.0000 0.0000
# 4 0.0000 0.0000 0.0000 9.9317 0.0000 0.0000
# 5 0.0000 0.0000 0.0000 0.0000 27.7514 0.0000
# 6 0.0000 0.0000 0.0000 0.0000 0.0000 38.8353
#
#
#
# Elastic Compliance Matrix: (Units=1/GPa)
#
#
# Indices 1 2 3 4 5 6 
#
# 1 0.013919 -0.005854 0.002107 0.000000 0.000000 0.000000
# 2 -0.005854 0.020014 -0.000195 0.000000 0.000000 0.000000
# 3 0.002107 -0.000195 0.024021 0.000000 0.000000 0.000000
# 4 0.000000 0.000000 0.000000 0.100688 0.000000 0.000000
# 5 0.000000 0.000000 0.000000 0.000000 0.036034 0.000000
# 6 0.000000 0.000000 0.000000 0.000000 0.000000 0.025750
#
#
# Mechanical properties :
#
#
# Convention : Reuss Voigt Hill
#
# Bulk Modulus (GPa) = 19.97212 23.70701 21.83957
# Shear Modulus (GPa) = 20.40825 26.43102 23.41964
#
# Velocity S-wave (km/s) = 3.16929 3.60675 3.39508
# Velocity P-wave (km/s) = 4.81896 5.38636 5.11054
#
# Compressibility (1/GPa) = 0.05006980
#
# Stress axis : x y z
#
# Youngs Moduli (GPa) = 71.84588 49.96563 41.63018
#
# Poissons Ratio (x) = 0.29250 -0.08772
# Poissons Ratio (y) = 0.42058 0.00812
# Poissons Ratio (z) = -0.15139 0.00975
#
# Static dielectric constant tensor:
#      x y z
#    x 2.091380 0.000000 0.000000 
#    y 0.000000 1.767270 0.000000 
#    z 0.000000 0.000000 1.731370 
# 
# From -- ./inp_files/12268.got.cif
#   From: 2010.05.17/outbox.cif.g08.bks.cpg/sg37_7_cif.got.tgz:12268.got - 2010.06.03 17:53:42.
