data_PCOD9354573
_publ_section_title
;
Structure prediction by ZEFSAII (Michael W. Deem and Ramdas Pophale) SiO2 
 PCOD9354573
Probable space group: C C C 2
;
_chemical_formula_sum "Si O2"
_cell_formula_units_Z 56
_cell_length_a 30.792410
_cell_length_b 5.548560
_cell_length_c 15.141945
_cell_angle_alpha 90.000000
_cell_angle_beta 90.000000
_cell_angle_gamma 90.000000
_cell_volume 2587.054821
_symmetry_space_group_name_H-M "C C C 2"
_symmetry_group_IT_number 37
_symmetry_cell_setting 'orthorhombic'
loop_
_space_group_symop_operation_xyz
x,y,z
-x,-y,z
-x,y,1/2+z
x,-y,1/2+z
1/2+x,1/2+y,z
1/2-x,1/2-y,z
1/2-x,1/2+y,1/2+z
1/2+x,1/2-y,1/2+z
loop_
_atom_site_type_symbol
_atom_site_label
_atom_site_fract_x
_atom_site_fract_y
_atom_site_fract_z
Si Si1 0.112891 0.788293 0.280100
Si Si2 0.700015 0.251700 0.375255
Si Si3 0.387109 0.711707 0.081875
Si Si4 0.799985 0.248302 0.986720
Si Si5 0.040559 0.179826 0.084990
Si Si6 0.459441 0.679826 0.776985
Si Si7 0.437314 1.000000 0.430987
O O1 0.163846 0.779821 0.300057
O O2 0.105256 0.693014 0.180988
O O3 0.091838 0.645938 0.361336
O O4 0.086781 0.041124 0.282083
O O5 0.750000 0.250000 0.344056
O O6 0.694870 0.500001 0.430987
O O7 0.693485 0.000001 0.430988
O O8 0.413219 0.458876 0.079891
O O9 0.336154 0.720180 0.061918
O O10 0.408162 0.854063 0.000639
O O11 0.750000 0.250000 0.017919
O O12 0.038669 0.304763 0.180987
O O13 0.036829 0.331702 0.997256
O O14 0.000000 0.000000 0.084922
O O15 0.500000 0.500000 0.777053
O O16 0.463170 0.831702 0.864719
#
# Coordination Sequence:
#
# PCOD9354573 Si02
#       7
#     8   8   8   8   8   8   8
#     4  11  24  40  63  96 133 175 222 274 336 407
#     4  10  21  41  68  99 135 177 226 283 345 414
#     4  11  24  40  63  96 133 175 222 274 336 407
#     4  10  21  41  68  99 135 177 226 283 345 414
#     4  10  24  44  65  95 132 170 222 278 334 403
#     4  10  24  44  65  95 132 170 222 278 334 403
#     4  12  22  41  68  92 126 174 220 274 335 396
#
# _framework density 21.646236999999999
#
# number of rings (size 3 to 8) (size 9 to 14) (size 15 to 20)
#    0.000    1.429    1.429    3.429    0.000    5.143 
#    0.000    4.286    0.000    7.714    0.000    0.000 
#    0.000    0.000    0.000    0.000    0.000    0.000 
#
# Total GULP energy -156306.339159 kJ/mol
# GULP energy per Si atom -5582.369256 kJ/mol
# Density = 2.159697 g / cm^3
# Si number density = 21.646237 Si / 1000 Ang^3
#
#
#
# Elastic Constant Matrix: (Units=GPa)
#
#
# Indices 1 2 3 4 5 6 
#
# 1 127.3792 51.9522 69.5839 0.0000 0.0000 0.0000
# 2 51.9522 93.6945 71.5253 0.0000 0.0000 0.0000
# 3 69.5839 71.5253 228.4351 0.0000 0.0000 0.0000
# 4 0.0000 0.0000 0.0000 21.1796 0.0000 0.0000
# 5 0.0000 0.0000 0.0000 0.0000 22.9538 0.0000
# 6 0.0000 0.0000 0.0000 0.0000 0.0000 23.0988
#
#
#
# Elastic Compliance Matrix: (Units=1/GPa)
#
#
# Indices 1 2 3 4 5 6 
#
# 1 0.010704 -0.004529 -0.001843 0.000000 0.000000 0.000000
# 2 -0.004529 0.015941 -0.003612 0.000000 0.000000 0.000000
# 3 -0.001843 -0.003612 0.006070 0.000000 0.000000 0.000000
# 4 0.000000 0.000000 0.000000 0.047215 0.000000 0.000000
# 5 0.000000 0.000000 0.000000 0.000000 0.043566 0.000000
# 6 0.000000 0.000000 0.000000 0.000000 0.000000 0.043292
#
#
# Mechanical properties :
#
#
# Convention : Reuss Voigt Hill
#
# Bulk Modulus (GPa) = 78.43796 92.84795 85.64296
# Shear Modulus (GPa) = 26.17737 30.54295 28.36016
#
# Velocity S-wave (km/s) = 3.48131 3.76041 3.62355
# Velocity P-wave (km/s) = 7.24392 7.86389 7.56026
#
# Compressibility (1/GPa) = 0.01274893
#
# Stress axis : x y z
#
# Youngs Moduli (GPa) = 93.42125 62.73000 164.74933
#
# Poissons Ratio (x) = 0.28408 0.30358
# Poissons Ratio (y) = 0.42307 0.59506
# Poissons Ratio (z) = 0.17214 0.22657
#
# Static dielectric constant tensor:
#      x y z
#    x 1.798590 0.000000 0.000000 
#    y 0.000000 1.870390 0.000000 
#    z 0.000000 0.000000 1.741070 
# 
# From -- ./inp_files/13372.got.cif
#   From: 2010.05.17/outbox.cif.g08.bks.cpg/sg37_7_cif.got.tgz:13372.got - 2010.06.03 17:53:42.
