data_PCOD9354601
_publ_section_title
;
Structure prediction by ZEFSAII (Michael W. Deem and Ramdas Pophale) SiO2 
 PCOD9354601
Probable space group: C C C 2
;
_chemical_formula_sum "Si O2"
_cell_formula_units_Z 64
_cell_length_a 27.089917
_cell_length_b 8.754222
_cell_length_c 11.474243
_cell_angle_alpha 90.000000
_cell_angle_beta 90.000000
_cell_angle_gamma 90.000000
_cell_volume 2721.129893
_symmetry_space_group_name_H-M "C C C 2"
_symmetry_group_IT_number 37
_symmetry_cell_setting 'orthorhombic'
loop_
_space_group_symop_operation_xyz
x,y,z
-x,-y,z
-x,y,1/2+z
x,-y,1/2+z
1/2+x,1/2+y,z
1/2-x,1/2-y,z
1/2-x,1/2+y,1/2+z
1/2+x,1/2-y,1/2+z
loop_
_atom_site_type_symbol
_atom_site_label
_atom_site_fract_x
_atom_site_fract_y
_atom_site_fract_z
Si Si1 0.435651 0.757589 0.579530
Si Si2 0.377160 0.040074 0.231826
Si Si3 0.872973 0.780028 0.651459
Si Si4 0.215023 0.879959 0.984831
Si Si5 0.347468 0.670310 0.420420
Si Si6 0.531763 0.369141 0.035048
Si Si7 0.786108 0.380200 0.602890
Si Si8 0.951265 0.453413 0.920906
O O1 0.400371 0.670228 0.487146
O O2 0.485845 0.677831 0.617810
O O3 0.402368 0.805842 0.686556
O O4 0.453034 0.914965 0.518436
O O5 0.390832 0.895596 0.150920
O O6 0.320222 0.063697 0.207737
O O7 0.399573 0.016753 0.357437
O O8 0.826323 0.803742 0.567931
O O9 0.918349 0.886386 0.610161
O O10 0.856800 0.797628 0.785238
O O11 0.250000 0.750000 0.928134
O O12 0.182978 0.011037 0.920475
O O13 0.253976 0.980501 0.057424
O O14 0.316753 0.797764 0.496240
O O15 0.500000 0.500000 0.967647
O O16 0.544547 0.223254 0.955158
O O17 0.750000 0.250000 0.646111
O O18 0.000000 0.500000 0.845083
#
# Coordination Sequence:
#
# PCOD9354601 Si02
#       8
#     8   8   8   8   8   8   8   8
#     4  10  21  42  68  98 137 181 228 289 334 413
#     4  11  21  39  73 103 131 177 243 281 341 415
#     4  12  24  42  75 100 135 185 237 288 350 421
#     4  11  23  44  69 101 140 182 231 291 357 427
#     4  10  23  45  73  99 139 183 232 289 355 415
#     4  11  25  45  68  99 145 183 225 287 357 419
#     4   9  21  45  71  97 140 178 226 293 352 410
#     4  10  22  38  71 102 136 185 239 278 336 423
#
# _framework density 23.519641
#
# number of rings (size 3 to 8) (size 9 to 14) (size 15 to 20)
#    0.000    1.500    3.750    0.750    1.750    1.500 
#    0.000   14.375    0.000    0.000    0.000    0.000 
#    0.000    0.000    0.000    0.000    0.000    0.000 
#
# Total GULP energy -178413.825560 kJ/mol
# GULP energy per Si atom -5575.432049 kJ/mol
# Density = 2.346611 g / cm^3
# Si number density = 23.519641 Si / 1000 Ang^3
#
#
#
# Elastic Constant Matrix: (Units=GPa)
#
#
# Indices 1 2 3 4 5 6 
#
# 1 137.1489 45.5407 33.2738 0.0000 0.0000 0.0000
# 2 45.5407 93.2239 4.5525 0.0000 0.0000 0.0000
# 3 33.2738 4.5525 43.9293 0.0000 0.0000 0.0000
# 4 0.0000 0.0000 0.0000 14.3900 0.0000 0.0000
# 5 0.0000 0.0000 0.0000 0.0000 19.6223 0.0000
# 6 0.0000 0.0000 0.0000 0.0000 0.0000 58.9516
#
#
#
# Elastic Compliance Matrix: (Units=1/GPa)
#
#
# Indices 1 2 3 4 5 6 
#
# 1 0.010771 -0.004888 -0.007652 0.000000 0.000000 0.000000
# 2 -0.004888 0.013000 0.002355 0.000000 0.000000 0.000000
# 3 -0.007652 0.002355 0.028315 0.000000 0.000000 0.000000
# 4 0.000000 0.000000 0.000000 0.069492 0.000000 0.000000
# 5 0.000000 0.000000 0.000000 0.000000 0.050962 0.000000
# 6 0.000000 0.000000 0.000000 0.000000 0.000000 0.016963
#
#
# Mechanical properties :
#
#
# Convention : Reuss Voigt Hill
#
# Bulk Modulus (GPa) = 31.52888 49.00402 40.26645
# Shear Modulus (GPa) = 22.68138 31.32180 27.00159
#
# Velocity S-wave (km/s) = 3.10878 3.65325 3.39196
# Velocity P-wave (km/s) = 5.13035 6.21897 5.70070
#
# Compressibility (1/GPa) = 0.03171695
#
# Stress axis : x y z
#
# Youngs Moduli (GPa) = 92.84376 76.92503 35.31637
#
# Poissons Ratio (x) = 0.37601 0.27023
# Poissons Ratio (y) = 0.45382 -0.08318
# Poissons Ratio (z) = 0.71041 -0.18117
#
# Static dielectric constant tensor:
#      x y z
#    x 1.922430 0.000000 0.000000 
#    y 0.000000 2.080560 0.000000 
#    z 0.000000 0.000000 1.875560 
# 
# From -- ./inp_files/9234.got.cif
#   From: 2010.05.17/outbox.cif.g08.bks.cpg/sg37_5_cif.got.tgz:9234.got - 2010.06.03 17:53:42.
