data_PCOD9354336
_publ_section_title
;
Structure prediction by ZEFSAII (Michael W. Deem and Ramdas Pophale) SiO2 
 PCOD9354336
Probable space group: C C C 2
;
_chemical_formula_sum "Si O2"
_cell_formula_units_Z 56
_cell_length_a 5.158672
_cell_length_b 33.921806
_cell_length_c 14.587184
_cell_angle_alpha 90.000000
_cell_angle_beta 90.000000
_cell_angle_gamma 90.000000
_cell_volume 2552.632783
_symmetry_space_group_name_H-M "C C C 2"
_symmetry_group_IT_number 37
_symmetry_cell_setting 'orthorhombic'
loop_
_space_group_symop_operation_xyz
x,y,z
-x,-y,z
-x,y,1/2+z
x,-y,1/2+z
1/2+x,1/2+y,z
1/2-x,1/2-y,z
1/2-x,1/2+y,1/2+z
1/2+x,1/2-y,1/2+z
loop_
_atom_site_type_symbol
_atom_site_label
_atom_site_fract_x
_atom_site_fract_y
_atom_site_fract_z
Si Si1 0.003446 0.773554 0.795200
Si Si2 0.529890 0.907752 0.040661
Si Si3 0.514243 0.911469 0.762172
Si Si4 0.504990 0.726926 0.515469
Si Si5 0.996857 0.133785 0.761618
Si Si6 0.983892 0.864699 0.546755
Si Si7 0.239665 0.472254 0.903851
O O1 0.750000 0.750000 0.762710
O O2 0.998565 0.771005 0.905314
O O3 0.250000 0.750000 0.760371
O O4 0.038983 0.819830 0.774869
O O5 0.693826 0.941516 0.987741
O O6 0.507050 0.916140 0.150870
O O7 0.242913 0.893527 0.009114
O O8 0.720114 0.871535 0.018459
O O9 0.231660 0.895729 0.794858
O O10 0.651785 0.948924 0.810888
O O11 0.715889 0.877600 0.792481
O O12 0.250000 0.750000 0.548006
O O13 0.557732 0.681394 0.536442
O O14 0.750000 0.750000 0.551476
O O15 0.009558 0.126033 0.653858
O O16 0.500000 0.500000 0.899841
O O17 0.000000 0.500000 0.921010
#
# Coordination Sequence:
#
# PCOD9354336 Si02
#       7
#     8   8   8   8   8   8   8
#     4  10  21  34  51  83 122 161 210 263 317 367
#     4  10  23  42  64  95 128 163 211 263 316 387
#     4  10  23  42  64  95 128 163 211 263 316 387
#     4  10  21  34  51  83 122 161 210 263 317 367
#     4  10  21  38  61  87 120 167 214 258 318 376
#     4  10  21  38  61  87 120 167 214 258 318 376
#     4  12  26  44  70 102 128 166 212 256 330 406
#
# _framework density 21.938134999999999
#
# number of rings (size 3 to 8) (size 9 to 14) (size 15 to 20)
#    0.000    1.714    0.000    3.429    4.000    1.714 
#    0.000    1.429    0.000    0.000    0.000    0.000 
#    0.000    0.000    0.000    0.000    0.000    0.000 
#
# Total GULP energy -155876.724971 kJ/mol
# GULP energy per Si atom -5567.025892 kJ/mol
# Density = 2.188820 g / cm^3
# Si number density = 21.938135 Si / 1000 Ang^3
#
#
#
# Elastic Constant Matrix: (Units=GPa)
#
#
# Indices 1 2 3 4 5 6 
#
# 1 163.0144 36.0552 25.0954 0.0000 0.0000 0.0000
# 2 36.0552 89.7520 4.7146 0.0000 0.0000 0.0000
# 3 25.0954 4.7146 100.8502 0.0000 0.0000 0.0000
# 4 0.0000 0.0000 0.0000 4.1949 0.0000 0.0000
# 5 0.0000 0.0000 0.0000 0.0000 -10.7533 0.0000
# 6 0.0000 0.0000 0.0000 0.0000 0.0000 51.2549
#
#
#
# Elastic Compliance Matrix: (Units=1/GPa)
#
#
# Indices 1 2 3 4 5 6 
#
# 1 0.006984 -0.002721 -0.001611 0.000000 0.000000 0.000000
# 2 -0.002721 0.012229 0.000105 0.000000 0.000000 0.000000
# 3 -0.001611 0.000105 0.010312 0.000000 0.000000 0.000000
# 4 0.000000 0.000000 0.000000 0.238384 0.000000 0.000000
# 5 0.000000 0.000000 0.000000 0.000000 -0.092995 0.000000
# 6 0.000000 0.000000 0.000000 0.000000 0.000000 0.019510
#
#
# Mechanical properties :
#
#
# Convention : Reuss Voigt Hill
#
# Bulk Modulus (GPa) = 47.45554 53.92745 50.69149
# Shear Modulus (GPa) = 23.82062 28.12273 25.97168
#
# Velocity S-wave (km/s) = 3.29874 3.58426 3.44446
# Velocity P-wave (km/s) = 6.01559 6.46252 6.24306
#
# Compressibility (1/GPa) = 0.02107236
#
# Stress axis : x y z
#
# Youngs Moduli (GPa) = 143.17951 81.77020 96.97829
#
# Poissons Ratio (x) = 0.22250 0.15621
# Poissons Ratio (y) = 0.38961 -0.01022
# Poissons Ratio (z) = 0.23063 -0.00862
#
# Static dielectric constant tensor:
#      x y z
#    x 1.822420 0.000000 0.000000 
#    y 0.000000 1.695900 0.000000 
#    z 0.000000 0.000000 1.969370 
# 
# From -- ./inp_files/9921.got.cif
#   From: 2010.05.17/outbox.cif.g08.bks.cpg/sg37_5_cif.got.tgz:9921.got - 2010.06.03 17:53:42.
