data_PCOD9354007
_publ_section_title
;
Structure prediction by ZEFSAII (Michael W. Deem and Ramdas Pophale) SiO2 
 PCOD9354007
Probable space group: C C C 2
;
_chemical_formula_sum "Si O2"
_cell_formula_units_Z 44
_cell_length_a 16.022917
_cell_length_b 19.227808
_cell_length_c 8.346092
_cell_angle_alpha 90.000000
_cell_angle_beta 90.000000
_cell_angle_gamma 90.000000
_cell_volume 2571.310525
_symmetry_space_group_name_H-M "C C C 2"
_symmetry_group_IT_number 37
_symmetry_cell_setting 'orthorhombic'
loop_
_space_group_symop_operation_xyz
x,y,z
-x,-y,z
-x,y,1/2+z
x,-y,1/2+z
1/2+x,1/2+y,z
1/2-x,1/2-y,z
1/2-x,1/2+y,1/2+z
1/2+x,1/2-y,1/2+z
loop_
_atom_site_type_symbol
_atom_site_label
_atom_site_fract_x
_atom_site_fract_y
_atom_site_fract_z
Si Si1 0.564695 0.779149 0.299780
Si Si2 0.408601 0.966518 0.280832
Si Si3 0.602883 0.176594 0.438638
Si Si4 0.188186 0.809520 0.958264
Si Si5 0.250000 0.750000 0.272411
Si Si6 0.164396 0.593703 0.953356
O O1 0.466686 0.786902 0.327721
O O2 0.602541 0.707141 0.368697
O O3 0.607198 0.840772 0.403972
O O4 0.587913 0.796374 0.117615
O O5 0.411592 0.906018 0.415664
O O6 0.500000 0.000000 0.252928
O O7 0.351632 0.029926 0.336370
O O8 0.369122 0.930353 0.125761
O O9 0.693912 0.198806 0.377034
O O10 0.250000 0.750000 0.884971
O O11 0.189611 0.790368 0.146948
O O12 0.240253 0.880152 0.945524
#
# Coordination Sequence:
#
# PCOD9354007 Si02
#       6
#     8   8   8   8   4   8
#     4  11  22  37  56  78 114 154 192 241 285 336
#     4  12  22  33  53  83 120 158 187 223 292 359
#     4  12  23  36  57  85 116 151 194 234 293 350
#     4   8  18  37  53  72 111 146 190 233 280 322
#     4  10  20  36  58  78 112 148 190 240 284 338
#     4  11  21  35  50  79 114 153 184 230 273 347
#
# _framework density 17.111896999999999
#
# number of rings (size 3 to 8) (size 9 to 14) (size 15 to 20)
#    0.545    0.727    3.636    3.818    3.818    0.000 
#    0.000    0.000    0.000    0.000    0.000    1.273 
#    0.000    0.000    0.000    0.000    0.000    0.000 
#
# Total GULP energy -122634.731961 kJ/mol
# GULP energy per Si atom -5574.305998 kJ/mol
# Density = 1.707295 g / cm^3
# Si number density = 17.111897 Si / 1000 Ang^3
#
#
#
# Elastic Constant Matrix: (Units=GPa)
#
#
# Indices 1 2 3 4 5 6 
#
# 1 60.9263 52.1819 20.3990 0.0000 0.0000 0.0000
# 2 52.1819 82.4279 39.1109 0.0000 0.0000 0.0000
# 3 20.3990 39.1109 98.6850 0.0000 0.0000 0.0000
# 4 0.0000 0.0000 0.0000 20.2950 0.0000 0.0000
# 5 0.0000 0.0000 0.0000 0.0000 20.5940 0.0000
# 6 0.0000 0.0000 0.0000 0.0000 0.0000 44.5485
#
#
#
# Elastic Compliance Matrix: (Units=1/GPa)
#
#
# Indices 1 2 3 4 5 6 
#
# 1 0.036160 -0.023825 0.001968 0.000000 0.000000 0.000000
# 2 -0.023825 0.030640 -0.007218 0.000000 0.000000 0.000000
# 3 0.001968 -0.007218 0.012587 0.000000 0.000000 0.000000
# 4 0.000000 0.000000 0.000000 0.049273 0.000000 0.000000
# 5 0.000000 0.000000 0.000000 0.000000 0.048558 0.000000
# 6 0.000000 0.000000 0.000000 0.000000 0.000000 0.022447
#
#
# Mechanical properties :
#
#
# Convention : Reuss Voigt Hill
#
# Bulk Modulus (GPa) = 47.09057 51.71364 49.40210
# Shear Modulus (GPa) = 18.87534 25.77733 22.32633
#
# Velocity S-wave (km/s) = 3.32483 3.88544 3.61602
# Velocity P-wave (km/s) = 6.50525 7.10038 6.80932
#
# Compressibility (1/GPa) = 0.02123567
#
# Stress axis : x y z
#
# Youngs Moduli (GPa) = 27.65461 32.63737 79.44572
#
# Poissons Ratio (x) = 0.77760 -0.15634
# Poissons Ratio (y) = 0.65888 0.57346
# Poissons Ratio (z) = -0.05442 0.23558
#
# Static dielectric constant tensor:
#      x y z
#    x 1.643360 0.000000 0.000000 
#    y 0.000000 1.594800 0.000000 
#    z 0.000000 0.000000 1.617750 
# 
# From -- ./inp_files/3457.got.cif
#   From: 2010.05.17/outbox.cif.g08.bks.cpg/sg37_2_cif.got.tgz:3457.got - 2010.06.03 17:53:42.
