data_PCOD9354157
_publ_section_title
;
Structure prediction by ZEFSAII (Michael W. Deem and Ramdas Pophale) SiO2 
 PCOD9354157
Probable space group: C C C 2
;
_chemical_formula_sum "Si O2"
_cell_formula_units_Z 44
_cell_length_a 26.947993
_cell_length_b 9.304029
_cell_length_c 8.733312
_cell_angle_alpha 90.000000
_cell_angle_beta 90.000000
_cell_angle_gamma 90.000000
_cell_volume 2189.658851
_symmetry_space_group_name_H-M "C C C 2"
_symmetry_group_IT_number 37
_symmetry_cell_setting 'orthorhombic'
loop_
_space_group_symop_operation_xyz
x,y,z
-x,-y,z
-x,y,1/2+z
x,-y,1/2+z
1/2+x,1/2+y,z
1/2-x,1/2-y,z
1/2-x,1/2+y,1/2+z
1/2+x,1/2-y,1/2+z
loop_
_atom_site_type_symbol
_atom_site_label
_atom_site_fract_x
_atom_site_fract_y
_atom_site_fract_z
Si Si1 0.926154 0.073500 0.433790
Si Si2 0.843300 0.152834 0.988489
Si Si3 0.710796 0.565374 0.181895
Si Si4 0.000000 0.000000 0.182551
Si Si5 0.821433 0.440882 0.165926
Si Si6 0.158580 0.700338 0.490704
O O1 0.963957 0.088582 0.573901
O O2 0.886368 0.197439 0.447017
O O3 0.961318 0.084140 0.287679
O O4 0.895877 0.920157 0.439019
O O5 0.804264 0.120976 0.850495
O O6 0.836816 0.315801 0.045924
O O7 0.827465 0.059637 0.136124
O O8 0.764651 0.497150 0.157895
O O9 0.699295 0.692453 0.062461
O O10 0.826425 0.381978 0.337107
O O11 0.852530 0.582105 0.120778
#
# Coordination Sequence:
#
# PCOD9354157 Si02
#       6
#     8   8   8   4   8   8
#     4  10  21  40  65  94 115 152 195 255 308 364
#     4  11  22  39  63  88 125 160 206 251 297 350
#     4  11  23  39  57  87 125 170 211 244 281 344
#     4  10  20  38  70  92 114 144 202 250 310 378
#     4  12  24  39  61  89 125 171 205 247 295 349
#     4  11  24  41  61  88 127 160 208 252 300 356
#
# _framework density 20.094456000000001
#
# number of rings (size 3 to 8) (size 9 to 14) (size 15 to 20)
#    0.000    1.091    0.000    8.727    0.000    4.364 
#    0.000    1.818    0.000   18.545    0.000    0.000 
#    0.000    0.000    0.000    0.000    0.000    0.000 
#
# Total GULP energy -122859.354477 kJ/mol
# GULP energy per Si atom -5584.516113 kJ/mol
# Density = 2.004872 g / cm^3
# Si number density = 20.094456 Si / 1000 Ang^3
#
#
#
# Elastic Constant Matrix: (Units=GPa)
#
#
# Indices 1 2 3 4 5 6 
#
# 1 100.2187 47.5838 40.7328 0.0000 0.0000 0.0000
# 2 47.5838 127.6273 40.5593 0.0000 0.0000 0.0000
# 3 40.7328 40.5593 115.1307 0.0000 0.0000 0.0000
# 4 0.0000 0.0000 0.0000 512.5911 0.0000 0.0000
# 5 0.0000 0.0000 0.0000 0.0000 50.3413 0.0000
# 6 0.0000 0.0000 0.0000 0.0000 0.0000 11.8533
#
#
#
# Elastic Compliance Matrix: (Units=1/GPa)
#
#
# Indices 1 2 3 4 5 6 
#
# 1 0.013147 -0.003855 -0.003293 0.000000 0.000000 0.000000
# 2 -0.003855 0.009954 -0.002143 0.000000 0.000000 0.000000
# 3 -0.003293 -0.002143 0.010606 0.000000 0.000000 0.000000
# 4 0.000000 0.000000 0.000000 0.001951 0.000000 0.000000
# 5 0.000000 0.000000 0.000000 0.000000 0.019864 0.000000
# 6 0.000000 0.000000 0.000000 0.000000 0.000000 0.084365
#
#
# Mechanical properties :
#
#
# Convention : Reuss Voigt Hill
#
# Bulk Modulus (GPa) = 66.11825 66.74758 66.43292
# Shear Modulus (GPa) = 30.57915 129.23052 79.90484
#
# Velocity S-wave (km/s) = 3.90522 8.02815 6.31276
# Velocity P-wave (km/s) = 7.30133 10.91897 9.28799
#
# Compressibility (1/GPa) = 0.01512442
#
# Stress axis : x y z
#
# Youngs Moduli (GPa) = 76.06241 100.46680 94.28855
#
# Poissons Ratio (x) = 0.38731 0.31052
# Poissons Ratio (y) = 0.29323 0.20202
# Poissons Ratio (z) = 0.25049 0.21526
#
# Static dielectric constant tensor:
#      x y z
#    x 1.700900 0.000000 0.000000 
#    y 0.000000 1.502410 0.000000 
#    z 0.000000 0.000000 1.776930 
# 
# From -- ./inp_files/4928.got.cif
#   From: 2010.05.17/outbox.cif.g08.bks.cpg/sg37_3_cif.got.tgz:4928.got - 2010.06.03 17:53:42.
