data_PCOD9354763
_publ_section_title
;
Structure prediction by ZEFSAII (Michael W. Deem and Ramdas Pophale) SiO2 
 PCOD9354763
Probable space group: C C C 2
;
_chemical_formula_sum "Si O2"
_cell_formula_units_Z 64
_cell_length_a 12.387567
_cell_length_b 15.148138
_cell_length_c 14.347657
_cell_angle_alpha 90.000000
_cell_angle_beta 90.000000
_cell_angle_gamma 90.000000
_cell_volume 2692.317382
_symmetry_space_group_name_H-M "C C C 2"
_symmetry_group_IT_number 37
_symmetry_cell_setting 'orthorhombic'
loop_
_space_group_symop_operation_xyz
x,y,z
-x,-y,z
-x,y,1/2+z
x,-y,1/2+z
1/2+x,1/2+y,z
1/2-x,1/2-y,z
1/2-x,1/2+y,1/2+z
1/2+x,1/2-y,1/2+z
loop_
_atom_site_type_symbol
_atom_site_label
_atom_site_fract_x
_atom_site_fract_y
_atom_site_fract_z
Si Si1 0.132513 0.726970 0.915940
Si Si2 0.018109 0.349169 0.780273
Si Si3 0.499339 0.853171 0.067305
Si Si4 0.173764 0.509140 0.532052
Si Si5 0.102377 0.061360 0.572684
Si Si6 0.395235 0.592669 0.846532
Si Si7 0.785503 0.463887 0.317411
Si Si8 0.394738 0.341029 0.761028
O O1 0.250000 0.750000 0.961525
O O2 0.135338 0.804754 0.840827
O O3 0.083665 0.647163 0.851284
O O4 0.044240 0.722562 0.998680
O O5 0.986583 0.332494 0.674461
O O6 0.095664 0.435196 0.782765
O O7 0.081582 0.257105 0.798658
O O8 0.611147 0.899639 0.043027
O O9 0.406477 0.928547 0.055920
O O10 0.284287 0.490236 0.585564
O O11 0.200859 0.510999 0.424198
O O12 0.098954 0.079969 0.460125
O O13 0.103351 0.140260 0.649283
O O14 0.000000 0.000000 0.592453
O O15 0.303829 0.538431 0.791980
O O16 0.515199 0.593864 0.805636
O O17 0.718526 0.375110 0.298557
#
# Coordination Sequence:
#
# PCOD9354763 Si02
#       8
#     8   8   8   8   8   8   8   8
#     4  11  23  45  69  99 141 188 240 303 363 442
#     4  11  25  43  70  99 143 187 245 296 370 437
#     4  11  23  47  68 102 142 190 242 291 365 448
#     4  10  23  42  65 101 137 183 238 294 367 429
#     4  11  21  39  65  99 139 182 239 303 363 435
#     4  10  22  39  66  98 138 183 234 295 368 425
#     4  11  20  41  65  98 135 174 232 296 348 431
#     4  11  23  40  66 104 137 190 242 298 364 440
#
# _framework density 23.771343999999999
#
# number of rings (size 3 to 8) (size 9 to 14) (size 15 to 20)
#    0.000    1.250    1.250    6.000    0.000    1.000 
#   18.000    0.000    0.000    0.000    0.000    0.000 
#    0.000    0.000    0.000    0.000    0.000    0.000 
#
# Total GULP energy -178257.988108 kJ/mol
# GULP energy per Si atom -5570.562128 kJ/mol
# Density = 2.371724 g / cm^3
# Si number density = 23.771344 Si / 1000 Ang^3
#
#
#
# Elastic Constant Matrix: (Units=GPa)
#
#
# Indices 1 2 3 4 5 6 
#
# 1 146.3703 46.9862 29.7968 0.0000 0.0000 0.0000
# 2 46.9862 73.6279 11.2356 0.0000 0.0000 0.0000
# 3 29.7968 11.2356 135.8827 0.0000 0.0000 0.0000
# 4 0.0000 0.0000 0.0000 36.2640 0.0000 0.0000
# 5 0.0000 0.0000 0.0000 0.0000 -9.2635 0.0000
# 6 0.0000 0.0000 0.0000 0.0000 0.0000 37.5234
#
#
#
# Elastic Compliance Matrix: (Units=1/GPa)
#
#
# Indices 1 2 3 4 5 6 
#
# 1 0.008883 -0.005440 -0.001498 0.000000 0.000000 0.000000
# 2 -0.005440 0.017087 -0.000220 0.000000 0.000000 0.000000
# 3 -0.001498 -0.000220 0.007706 0.000000 0.000000 0.000000
# 4 0.000000 0.000000 0.000000 0.027576 0.000000 0.000000
# 5 0.000000 0.000000 0.000000 0.000000 -0.107951 0.000000
# 6 0.000000 0.000000 0.000000 0.000000 0.000000 0.026650
#
#
# Mechanical properties :
#
#
# Convention : Reuss Voigt Hill
#
# Bulk Modulus (GPa) = 51.65356 59.10202 55.37779
# Shear Modulus (GPa) = 6931.53103 30.76227 3481.14665
#
# Velocity S-wave (km/s) = 54.05783 3.60125 38.30939
# Velocity P-wave (km/s) = 62.59480 6.49682 44.49897
#
# Compressibility (1/GPa) = 0.01935975
#
# Stress axis : x y z
#
# Youngs Moduli (GPa) = 112.56976 58.52333 129.76922
#
# Poissons Ratio (x) = 0.31839 0.19441
# Poissons Ratio (y) = 0.61242 0.02853
# Poissons Ratio (z) = 0.16864 0.01287
#
# Static dielectric constant tensor:
#      x y z
#    x 2.193830 0.000000 0.000000 
#    y 0.000000 2.064820 0.000000 
#    z 0.000000 0.000000 1.896530 
# 
# From -- ./inp_files/11802.got.cif
#   From: 2010.05.17/outbox.cif.g08.bks.cpg/sg37_6_cif.got.tgz:11802.got - 2010.06.03 17:53:42.
