data_PCOD9354239
_publ_section_title
;
Structure prediction by ZEFSAII (Michael W. Deem and Ramdas Pophale) SiO2 
 PCOD9354239
Probable space group: C C C 2
;
_chemical_formula_sum "Si O2"
_cell_formula_units_Z 36
_cell_length_a 7.500264
_cell_length_b 14.404650
_cell_length_c 12.936532
_cell_angle_alpha 90.000000
_cell_angle_beta 90.000000
_cell_angle_gamma 90.000000
_cell_volume 1397.645813
_symmetry_space_group_name_H-M "C C C 2"
_symmetry_group_IT_number 37
_symmetry_cell_setting 'orthorhombic'
loop_
_space_group_symop_operation_xyz
x,y,z
-x,-y,z
-x,y,1/2+z
x,-y,1/2+z
1/2+x,1/2+y,z
1/2-x,1/2-y,z
1/2-x,1/2+y,1/2+z
1/2+x,1/2-y,1/2+z
loop_
_atom_site_type_symbol
_atom_site_label
_atom_site_fract_x
_atom_site_fract_y
_atom_site_fract_z
Si Si1 0.153321 0.923650 0.036390
Si Si2 0.996537 0.874444 0.738738
Si Si3 0.844669 0.563692 0.346115
Si Si4 0.250000 0.750000 0.593115
Si Si5 0.006949 0.748335 0.418397
O O1 0.153727 0.908206 0.158715
O O2 0.311890 0.960940 0.966542
O O3 0.106676 0.824230 0.983759
O O4 0.000000 0.000000 0.022482
O O5 0.149972 0.938510 0.792339
O O6 0.126121 0.813424 0.663711
O O7 0.909565 0.815974 0.831326
O O8 0.909919 0.670113 0.351594
O O9 0.000000 0.500000 0.301377
O O10 0.376175 0.799962 0.507901
#
# Coordination Sequence:
#
# PCOD9354239 Si02
#       5
#     8   8   8   4   8
#     4  10  23  43  70  97 139 189 228 279 355 420
#     4  10  20  44  67  98 140 186 229 280 351 424
#     4  11  24  45  71 105 143 179 239 300 337 407
#     4  10  20  40  70  96 138 180 230 276 350 416
#     4  10  22  43  72  96 140 181 231 283 348 411
#
# _framework density 25.757598000000002
#
# number of rings (size 3 to 8) (size 9 to 14) (size 15 to 20)
#    0.000    1.778    2.222    2.000    6.222    3.556 
#   12.000    0.000    0.000    0.000    0.000    0.000 
#    0.000    0.000    0.000    0.000    0.000    0.000 
#
# Total GULP energy -100372.841681 kJ/mol
# GULP energy per Si atom -5576.268982 kJ/mol
# Density = 2.569897 g / cm^3
# Si number density = 25.757598 Si / 1000 Ang^3
#
#
#
# Elastic Constant Matrix: (Units=GPa)
#
#
# Indices 1 2 3 4 5 6 
#
# 1 45.1388 2.3625 32.2683 0.0000 0.0000 0.0000
# 2 2.3625 88.1732 22.6514 0.0000 0.0000 0.0000
# 3 32.2683 22.6514 161.3286 0.0000 0.0000 0.0000
# 4 0.0000 0.0000 0.0000 31.5683 0.0000 0.0000
# 5 0.0000 0.0000 0.0000 0.0000 49.0687 0.0000
# 6 0.0000 0.0000 0.0000 0.0000 0.0000 29.2638
#
#
#
# Elastic Compliance Matrix: (Units=1/GPa)
#
#
# Indices 1 2 3 4 5 6 
#
# 1 0.025887 0.000660 -0.005271 0.000000 0.000000 0.000000
# 2 0.000660 0.011783 -0.001786 0.000000 0.000000 0.000000
# 3 -0.005271 -0.001786 0.007504 0.000000 0.000000 0.000000
# 4 0.000000 0.000000 0.000000 0.031677 0.000000 0.000000
# 5 0.000000 0.000000 0.000000 0.000000 0.020380 0.000000
# 6 0.000000 0.000000 0.000000 0.000000 0.000000 0.034172
#
#
# Mechanical properties :
#
#
# Convention : Reuss Voigt Hill
#
# Bulk Modulus (GPa) = 30.88332 45.46723 38.17527
# Shear Modulus (GPa) = 32.26047 37.80406 35.03226
#
# Velocity S-wave (km/s) = 3.54286 3.83519 3.69192
# Velocity P-wave (km/s) = 5.36207 6.10753 5.74690
#
# Compressibility (1/GPa) = 0.03237994
#
# Stress axis : x y z
#
# Youngs Moduli (GPa) = 38.62937 84.87130 133.27038
#
# Poissons Ratio (x) = -0.05605 0.70241
# Poissons Ratio (y) = -0.02551 0.23808
# Poissons Ratio (z) = 0.20360 0.15162
#
# Static dielectric constant tensor:
#      x y z
#    x 2.134610 0.000000 0.000000 
#    y 0.000000 2.140530 0.000000 
#    z 0.000000 0.000000 2.005980 
# 
# From -- ./inp_files/10286.got.cif
#   From: 2010.05.17/outbox.cif.g08.bks.cpg/sg37_6_cif.got.tgz:10286.got - 2010.06.03 17:53:42.
