data_PCOD9354633
_publ_section_title
;
Structure prediction by ZEFSAII (Michael W. Deem and Ramdas Pophale) SiO2 
 PCOD9354633
Probable space group: C C C 2
;
_chemical_formula_sum "Si O2"
_cell_formula_units_Z 60
_cell_length_a 12.256637
_cell_length_b 26.064017
_cell_length_c 8.761482
_cell_angle_alpha 90.000000
_cell_angle_beta 90.000000
_cell_angle_gamma 90.000000
_cell_volume 2798.918465
_symmetry_space_group_name_H-M "C C C 2"
_symmetry_group_IT_number 37
_symmetry_cell_setting 'orthorhombic'
loop_
_space_group_symop_operation_xyz
x,y,z
-x,-y,z
-x,y,1/2+z
x,-y,1/2+z
1/2+x,1/2+y,z
1/2-x,1/2-y,z
1/2-x,1/2+y,1/2+z
1/2+x,1/2-y,1/2+z
loop_
_atom_site_type_symbol
_atom_site_label
_atom_site_fract_x
_atom_site_fract_y
_atom_site_fract_z
Si Si1 0.348468 0.163810 0.736960
Si Si2 0.750000 0.250000 0.415251
Si Si3 0.472063 0.860175 0.956714
Si Si4 0.136980 0.171411 0.086038
Si Si5 0.493119 0.619078 0.310736
Si Si6 0.842560 0.603313 0.168727
Si Si7 0.817075 0.035820 0.840643
Si Si8 0.294439 0.568778 0.183267
O O1 0.260507 0.202449 0.799832
O O2 0.446114 0.171997 0.854527
O O3 0.397630 0.171780 0.570989
O O4 0.304678 0.105293 0.735006
O O5 0.844738 0.229009 0.527051
O O6 0.394251 0.886223 0.834168
O O7 0.553551 0.896929 0.055249
O O8 0.258037 0.146950 0.111153
O O9 0.071049 0.163106 0.242099
O O10 0.071844 0.138006 0.959611
O O11 0.571591 0.569109 0.327748
O O12 0.400317 0.604993 0.187721
O O13 0.764270 0.555868 0.207249
O O14 0.822730 0.975803 0.803823
O O15 0.777894 0.047041 0.013222
#
# Coordination Sequence:
#
# PCOD9354633 Si02
#       8
#     8   4   8   8   8   8   8   8
#     4  11  24  44  69  96 137 178 234 292 347 410
#     4  12  24  44  72  98 134 184 230 304 360 400
#     4  10  21  43  73  90 131 183 224 279 340 401
#     4  11  24  43  68 101 140 175 231 292 345 425
#     4  11  23  44  69  96 143 182 227 282 352 428
#     4  10  21  44  66  99 134 176 229 284 340 410
#     4  11  26  39  69 102 142 185 225 277 360 419
#     4  12  24  43  65 103 141 185 227 284 346 432
#
# _framework density 21.43685
#
# number of rings (size 3 to 8) (size 9 to 14) (size 15 to 20)
#    0.000    1.067    5.333    0.400    5.600    2.133 
#    0.000    4.667    0.000    0.000    0.000    0.000 
#    0.000    0.000    0.000    0.000    0.000    0.000 
#
# Total GULP energy -167247.194884 kJ/mol
# GULP energy per Si atom -5574.906496 kJ/mol
# Density = 2.138806 g / cm^3
# Si number density = 21.436850 Si / 1000 Ang^3
#
#
#
# Elastic Constant Matrix: (Units=GPa)
#
#
# Indices 1 2 3 4 5 6 
#
# 1 78.1465 15.0247 35.2974 0.0000 0.0000 0.0000
# 2 15.0247 58.8182 22.5877 0.0000 0.0000 0.0000
# 3 35.2974 22.5877 100.2516 0.0000 0.0000 0.0000
# 4 0.0000 0.0000 0.0000 27.0613 0.0000 0.0000
# 5 0.0000 0.0000 0.0000 0.0000 38.8882 0.0000
# 6 0.0000 0.0000 0.0000 0.0000 0.0000 14.4735
#
#
#
# Elastic Compliance Matrix: (Units=1/GPa)
#
#
# Indices 1 2 3 4 5 6 
#
# 1 0.015435 -0.002032 -0.004977 0.000000 0.000000 0.000000
# 2 -0.002032 0.018879 -0.003538 0.000000 0.000000 0.000000
# 3 -0.004977 -0.003538 0.012524 0.000000 0.000000 0.000000
# 4 0.000000 0.000000 0.000000 0.036953 0.000000 0.000000
# 5 0.000000 0.000000 0.000000 0.000000 0.025715 0.000000
# 6 0.000000 0.000000 0.000000 0.000000 0.000000 0.069092
#
#
# Mechanical properties :
#
#
# Convention : Reuss Voigt Hill
#
# Bulk Modulus (GPa) = 38.84207 42.55952 40.70080
# Shear Modulus (GPa) = 24.00687 27.03835 25.52261
#
# Velocity S-wave (km/s) = 3.35010 3.55533 3.45424
# Velocity P-wave (km/s) = 5.75525 6.06221 5.91072
#
# Compressibility (1/GPa) = 0.02574528
#
# Stress axis : x y z
#
# Youngs Moduli (GPa) = 64.78790 52.96801 79.84421
#
# Poissons Ratio (x) = 0.10761 0.39736
# Poissons Ratio (y) = 0.13162 0.28252
# Poissons Ratio (z) = 0.32243 0.18742
#
# Static dielectric constant tensor:
#      x y z
#    x 1.842110 0.000000 0.000000 
#    y 0.000000 1.789300 0.000000 
#    z 0.000000 0.000000 1.809300 
# 
# From -- ./inp_files/3043.got.cif
#   From: 2010.05.17/outbox.cif.g08.bks.cpg/sg37_2_cif.got.tgz:3043.got - 2010.06.03 17:53:42.
