data_PCOD9354108
_publ_section_title
;
Structure prediction by ZEFSAII (Michael W. Deem and Ramdas Pophale) SiO2 
 PCOD9354108
Probable space group: C C C 2
;
_chemical_formula_sum "Si O2"
_cell_formula_units_Z 48
_cell_length_a 5.584782
_cell_length_b 20.994962
_cell_length_c 18.586008
_cell_angle_alpha 90.000000
_cell_angle_beta 90.000000
_cell_angle_gamma 90.000000
_cell_volume 2179.251923
_symmetry_space_group_name_H-M "C C C 2"
_symmetry_group_IT_number 37
_symmetry_cell_setting 'orthorhombic'
loop_
_space_group_symop_operation_xyz
x,y,z
-x,-y,z
-x,y,1/2+z
x,-y,1/2+z
1/2+x,1/2+y,z
1/2-x,1/2-y,z
1/2-x,1/2+y,1/2+z
1/2+x,1/2-y,1/2+z
loop_
_atom_site_type_symbol
_atom_site_label
_atom_site_fract_x
_atom_site_fract_y
_atom_site_fract_z
Si Si1 0.880495 0.815800 0.001500
Si Si2 0.412165 0.135243 0.873954
Si Si3 0.893007 0.065051 0.264882
Si Si4 0.500000 0.000000 0.921282
Si Si5 0.250000 0.750000 0.906100
Si Si6 0.366279 0.596134 0.621099
Si Si7 0.500000 0.500000 0.009186
Si Si8 0.000000 0.500000 0.163241
O O1 0.750000 0.750000 0.997269
O O2 0.873425 0.836537 0.083710
O O3 0.718302 0.859943 0.951023
O O4 0.124141 0.801582 0.959032
O O5 0.205097 0.120607 0.815560
O O6 0.565942 0.201087 0.864528
O O7 0.537119 0.065684 0.875992
O O8 0.684947 0.036121 0.214655
O O9 0.069728 0.093449 0.204596
O O10 0.000000 0.000000 0.300224
O O11 0.246680 0.004765 0.964292
O O12 0.536073 0.558262 0.565112
O O13 0.125571 0.554715 0.616895
#
# Coordination Sequence:
#
# PCOD9354108 Si02
#       8
#     8   8   8   4   4   8   4   4
#     4  10  23  42  68  93 129 181 236 293 353 424
#     4  11  24  41  69 101 139 182 239 300 374 438
#     4  10  23  38  62  99 141 182 225 294 372 441
#     4  12  26  38  72 116 141 175 248 310 366 444
#     4  10  24  46  66  92 134 192 234 304 362 440
#     4  11  21  38  66  98 142 175 230 292 364 435
#     4  12  22  38  64 112 140 180 226 306 366 428
#     4  10  20  38  60 100 139 181 216 286 366 430
#
# _framework density 22.025905999999999
#
# number of rings (size 3 to 8) (size 9 to 14) (size 15 to 20)
#    0.000    1.333    4.167    2.000    1.167    5.333 
#    0.000    0.000   23.833    0.000    0.000    0.000 
#    0.000    0.000    0.000    0.000    0.000    0.000 
#
# Total GULP energy -133637.721206 kJ/mol
# GULP energy per Si atom -5568.238384 kJ/mol
# Density = 2.197577 g / cm^3
# Si number density = 22.025906 Si / 1000 Ang^3
#
#
#
# Elastic Constant Matrix: (Units=GPa)
#
#
# Indices 1 2 3 4 5 6 
#
# 1 79.6854 24.9829 25.4426 0.0000 0.0000 0.0000
# 2 24.9829 84.6761 32.9663 0.0000 0.0000 0.0000
# 3 25.4426 32.9663 82.4112 0.0000 0.0000 0.0000
# 4 0.0000 0.0000 0.0000 -29.8940 0.0000 0.0000
# 5 0.0000 0.0000 0.0000 0.0000 -18.5622 0.0000
# 6 0.0000 0.0000 0.0000 0.0000 0.0000 11.2388
#
#
#
# Elastic Compliance Matrix: (Units=1/GPa)
#
#
# Indices 1 2 3 4 5 6 
#
# 1 0.014542 -0.003012 -0.003285 0.000000 0.000000 0.000000
# 2 -0.003012 0.014612 -0.004915 0.000000 0.000000 0.000000
# 3 -0.003285 -0.004915 0.015115 0.000000 0.000000 0.000000
# 4 0.000000 0.000000 0.000000 -0.033451 0.000000 0.000000
# 5 0.000000 0.000000 0.000000 0.000000 -0.053873 0.000000
# 6 0.000000 0.000000 0.000000 0.000000 0.000000 0.088978
#
#
# Mechanical properties :
#
#
# Convention : Reuss Voigt Hill
#
# Bulk Modulus (GPa) = 45.77673 45.95071 45.86372
# Shear Modulus (GPa) = 66.11333 3.44856 34.78094
#
# Velocity S-wave (km/s) = 5.48464 1.25263 3.97809
# Velocity P-wave (km/s) = 7.80620 4.79578 6.47828
#
# Compressibility (1/GPa) = 0.02184516
#
# Stress axis : x y z
#
# Youngs Moduli (GPa) = 68.76433 68.43725 66.16102
#
# Poissons Ratio (x) = 0.20611 0.21733
# Poissons Ratio (y) = 0.20710 0.32520
# Poissons Ratio (z) = 0.22588 0.33639
#
# Static dielectric constant tensor:
#      x y z
#    x 2.236990 0.000000 0.000000 
#    y 0.000000 2.134210 0.000000 
#    z 0.000000 0.000000 1.816750 
# 
# From -- ./inp_files/13937.got.cif
#   From: 2010.05.17/outbox.cif.g08.bks.cpg/sg37_7_cif.got.tgz:13937.got - 2010.06.03 17:53:42.
