data_PCOD9354711
_publ_section_title
;
Structure prediction by ZEFSAII (Michael W. Deem and Ramdas Pophale) SiO2 
 PCOD9354711
Probable space group: C C C 2
;
_chemical_formula_sum "Si O2"
_cell_formula_units_Z 52
_cell_length_a 8.776594
_cell_length_b 22.490218
_cell_length_c 12.159174
_cell_angle_alpha 90.000000
_cell_angle_beta 90.000000
_cell_angle_gamma 90.000000
_cell_volume 2400.069108
_symmetry_space_group_name_H-M "C C C 2"
_symmetry_group_IT_number 37
_symmetry_cell_setting 'orthorhombic'
loop_
_space_group_symop_operation_xyz
x,y,z
-x,-y,z
-x,y,1/2+z
x,-y,1/2+z
1/2+x,1/2+y,z
1/2-x,1/2-y,z
1/2-x,1/2+y,1/2+z
1/2+x,1/2-y,1/2+z
loop_
_atom_site_type_symbol
_atom_site_label
_atom_site_fract_x
_atom_site_fract_y
_atom_site_fract_z
Si Si1 0.750000 0.750000 0.660540
Si Si2 0.759072 0.536826 0.545197
Si Si3 0.462361 0.304294 0.850448
Si Si4 0.919144 0.418393 0.474572
Si Si5 0.500000 0.500000 0.906689
Si Si6 0.211627 0.920452 0.286345
Si Si7 0.750000 0.750000 0.251838
Si Si8 0.457495 0.787448 0.552758
O O1 0.635340 0.718685 0.745383
O O2 0.636912 0.787531 0.583536
O O3 0.810854 0.465921 0.541108
O O4 0.596153 0.542241 0.487036
O O5 0.739109 0.572275 0.658575
O O6 0.906049 0.564035 0.486825
O O7 0.398926 0.371353 0.843972
O O8 0.641043 0.293202 0.823135
O O9 0.431499 0.265232 0.961466
O O10 0.871272 0.418700 0.347881
O O11 0.902713 0.350371 0.508675
O O12 0.368961 0.479750 0.825494
O O13 0.633523 0.780045 0.166580
#
# Coordination Sequence:
#
# PCOD9354711 Si02
#       8
#     4   8   8   8   4   8   4   8
#     4  10  22  38  60  90 126 166 208 260 330 388
#     4  10  23  42  62  93 127 166 218 273 329 391
#     4  11  23  40  62  93 127 168 215 263 331 396
#     4  10  23  41  66  92 123 169 221 269 331 396
#     4  10  24  40  62  94 124 168 218 266 334 392
#     4  11  23  42  65  92 130 170 215 276 328 393
#     4  10  24  38  60  94 126 170 218 258 328 398
#     4  11  22  41  62  90 129 165 210 271 323 394
#
# _framework density 21.666043999999999
#
# number of rings (size 3 to 8) (size 9 to 14) (size 15 to 20)
#    0.000    1.538    0.000    4.154    0.000   14.769 
#    0.000    0.000    0.000    0.000    0.000    0.000 
#    0.000    0.000    0.000    0.000    0.000    0.000 
#
# Total GULP energy -144734.485647 kJ/mol
# GULP energy per Si atom -5566.710986 kJ/mol
# Density = 2.161673 g / cm^3
# Si number density = 21.666044 Si / 1000 Ang^3
#
#
#
# Elastic Constant Matrix: (Units=GPa)
#
#
# Indices 1 2 3 4 5 6 
#
# 1 123.0931 -4.2583 44.6364 0.0000 0.0000 0.0000
# 2 -4.2583 24.3509 17.9513 0.0000 0.0000 0.0000
# 3 44.6364 17.9513 69.7508 0.0000 0.0000 0.0000
# 4 0.0000 0.0000 0.0000 8.3090 0.0000 0.0000
# 5 0.0000 0.0000 0.0000 0.0000 17.2190 0.0000
# 6 0.0000 0.0000 0.0000 0.0000 0.0000 46.4775
#
#
#
# Elastic Compliance Matrix: (Units=1/GPa)
#
#
# Indices 1 2 3 4 5 6 
#
# 1 0.012201 0.009737 -0.010314 0.000000 0.000000 0.000000
# 2 0.009737 0.058452 -0.021274 0.000000 0.000000 0.000000
# 3 -0.010314 -0.021274 0.026412 0.000000 0.000000 0.000000
# 4 0.000000 0.000000 0.000000 0.120351 0.000000 0.000000
# 5 0.000000 0.000000 0.000000 0.000000 0.058075 0.000000
# 6 0.000000 0.000000 0.000000 0.000000 0.000000 0.021516
#
#
# Mechanical properties :
#
#
# Convention : Reuss Voigt Hill
#
# Bulk Modulus (GPa) = 18.73974 37.09485 27.91729
# Shear Modulus (GPa) = 13.94711 24.99213 19.46962
#
# Velocity S-wave (km/s) = 2.53994 3.40003 3.00096
# Velocity P-wave (km/s) = 4.15570 5.70719 4.99208
#
# Compressibility (1/GPa) = 0.05336252
#
# Stress axis : x y z
#
# Youngs Moduli (GPa) = 81.96235 17.10796 37.86142
#
# Poissons Ratio (x) = -0.16658 0.39049
# Poissons Ratio (y) = -0.79804 0.80548
# Poissons Ratio (z) = 0.84533 0.36396
#
# Static dielectric constant tensor:
#      x y z
#    x 1.871790 0.000000 0.000000 
#    y 0.000000 1.946320 0.000000 
#    z 0.000000 0.000000 1.785190 
# 
# From -- ./inp_files/6511.got.cif
#   From: 2010.05.17/outbox.cif.g08.bks.cpg/sg37_4_cif.got.tgz:6511.got - 2010.06.03 17:53:42.
