data_PCOD9354895
_publ_section_title
;
Structure prediction by ZEFSAII (Michael W. Deem and Ramdas Pophale) SiO2 
 PCOD9354895
Probable space group: C C C 2
;
_chemical_formula_sum "Si O2"
_cell_formula_units_Z 60
_cell_length_a 11.296308
_cell_length_b 26.691596
_cell_length_c 8.791067
_cell_angle_alpha 90.000000
_cell_angle_beta 90.000000
_cell_angle_gamma 90.000000
_cell_volume 2650.651660
_symmetry_space_group_name_H-M "C C C 2"
_symmetry_group_IT_number 37
_symmetry_cell_setting 'orthorhombic'
loop_
_space_group_symop_operation_xyz
x,y,z
-x,-y,z
-x,y,1/2+z
x,-y,1/2+z
1/2+x,1/2+y,z
1/2-x,1/2-y,z
1/2-x,1/2+y,1/2+z
1/2+x,1/2-y,1/2+z
loop_
_atom_site_type_symbol
_atom_site_label
_atom_site_fract_x
_atom_site_fract_y
_atom_site_fract_z
Si Si1 0.831975 0.699829 0.512410
Si Si2 0.606654 0.294687 0.567673
Si Si3 0.452097 0.770491 0.297800
Si Si4 0.785550 0.138492 0.775698
Si Si5 0.000000 0.500000 0.922442
Si Si6 0.010468 0.898124 0.432125
Si Si7 0.109767 0.036322 0.695597
Si Si8 0.170050 0.539444 0.669580
O O1 0.750000 0.750000 0.508255
O O2 0.877777 0.694308 0.685011
O O3 0.761013 0.653601 0.441961
O O4 0.942788 0.705618 0.397210
O O5 0.622383 0.259382 0.423141
O O6 0.512291 0.268634 0.680082
O O7 0.715111 0.311257 0.674038
O O8 0.557747 0.347056 0.503361
O O9 0.721202 0.094492 0.688639
O O10 0.917434 0.118863 0.804379
O O11 0.916823 0.533642 0.027995
O O12 0.911086 0.469729 0.816514
O O13 0.935617 0.932177 0.549804
O O14 0.114004 0.928596 0.345494
O O15 0.225801 0.002660 0.666571
O O16 0.000000 0.000000 0.731471
#
# Coordination Sequence:
#
# PCOD9354895 Si02
#       8
#     8   8   8   8   4   8   8   8
#     4  11  23  45  68  97 134 181 225 290 353 426
#     4  11  19  40  64 103 140 176 215 287 362 434
#     4  10  22  42  70  95 139 178 229 278 357 430
#     4  12  23  39  72 100 144 176 233 297 356 417
#     4  10  26  50  66  86 142 208 252 272 342 406
#     4  12  22  37  65 110 147 174 216 289 365 437
#     4  12  24  38  67 108 144 177 228 285 371 420
#     4  11  25  45  69  96 139 198 241 297 337 421
#
# _framework density 22.635943999999999
#
# number of rings (size 3 to 8) (size 9 to 14) (size 15 to 20)
#    0.000    0.800    5.333    2.000    3.733    1.067 
#    4.800    0.000    0.000    0.000    0.000    0.000 
#    0.000    0.000    0.000    0.000    0.000    0.000 
#
# Total GULP energy -167791.091444 kJ/mol
# GULP energy per Si atom -5593.036381 kJ/mol
# Density = 2.258442 g / cm^3
# Si number density = 22.635944 Si / 1000 Ang^3
#
#
#
# Elastic Constant Matrix: (Units=GPa)
#
#
# Indices 1 2 3 4 5 6 
#
# 1 78.8520 7.8192 30.3152 0.0000 0.0000 0.0000
# 2 7.8192 30.7453 11.0922 0.0000 0.0000 0.0000
# 3 30.3152 11.0922 128.8063 0.0000 0.0000 0.0000
# 4 0.0000 0.0000 0.0000 -59.8383 0.0000 0.0000
# 5 0.0000 0.0000 0.0000 0.0000 29.7982 0.0000
# 6 0.0000 0.0000 0.0000 0.0000 0.0000 21.4803
#
#
#
# Elastic Compliance Matrix: (Units=1/GPa)
#
#
# Indices 1 2 3 4 5 6 
#
# 1 0.014123 -0.002469 -0.003111 0.000000 0.000000 0.000000
# 2 -0.002469 0.034000 -0.002347 0.000000 0.000000 0.000000
# 3 -0.003111 -0.002347 0.008698 0.000000 0.000000 0.000000
# 4 0.000000 0.000000 0.000000 -0.016712 0.000000 0.000000
# 5 0.000000 0.000000 0.000000 0.000000 0.033559 0.000000
# 6 0.000000 0.000000 0.000000 0.000000 0.000000 0.046554
#
#
# Mechanical properties :
#
#
# Convention : Reuss Voigt Hill
#
# Bulk Modulus (GPa) = 24.41036 37.42854 30.91945
# Shear Modulus (GPa) = 33.39285 10.89984 22.14635
#
# Velocity S-wave (km/s) = 3.84502 2.19676 3.13129
# Velocity P-wave (km/s) = 5.52445 4.79637 5.17324
#
# Compressibility (1/GPa) = 0.04096621
#
# Stress axis : x y z
#
# Youngs Moduli (GPa) = 70.80644 29.41180 114.96978
#
# Poissons Ratio (x) = 0.07263 0.35770
# Poissons Ratio (y) = 0.17484 0.26980
# Poissons Ratio (z) = 0.22030 0.06902
#
# Static dielectric constant tensor:
#      x y z
#    x 1.858450 0.000000 0.000000 
#    y 0.000000 1.836720 0.000000 
#    z 0.000000 0.000000 1.921410 
# 
# From -- ./inp_files/3108.got.cif
#   From: 2010.05.17/outbox.cif.g08.bks.cpg/sg37_2_cif.got.tgz:3108.got - 2010.06.03 17:53:42.
