data_PCOD9354097
_publ_section_title
;
Structure prediction by ZEFSAII (Michael W. Deem and Ramdas Pophale) SiO2 
 PCOD9354097
Probable space group: C C C 2
;
_chemical_formula_sum "Si O2"
_cell_formula_units_Z 64
_cell_length_a 9.661370
_cell_length_b 21.798653
_cell_length_c 14.519628
_cell_angle_alpha 90.000000
_cell_angle_beta 90.000000
_cell_angle_gamma 90.000000
_cell_volume 3057.904108
_symmetry_space_group_name_H-M "C C C 2"
_symmetry_group_IT_number 37
_symmetry_cell_setting 'orthorhombic'
loop_
_space_group_symop_operation_xyz
x,y,z
-x,-y,z
-x,y,1/2+z
x,-y,1/2+z
1/2+x,1/2+y,z
1/2-x,1/2-y,z
1/2-x,1/2+y,1/2+z
1/2+x,1/2-y,1/2+z
loop_
_atom_site_type_symbol
_atom_site_label
_atom_site_fract_x
_atom_site_fract_y
_atom_site_fract_z
Si Si1 0.887816 0.772550 0.630910
Si Si2 0.337116 0.013725 0.072382
Si Si3 0.331303 0.302069 0.095567
Si Si4 0.514457 0.433635 0.335798
Si Si5 0.947860 0.656122 0.760837
Si Si6 0.292746 0.589286 0.166277
Si Si7 0.734262 0.123676 0.435033
Si Si8 0.247469 0.601681 0.734614
O O1 0.750000 0.750000 0.582419
O O2 0.918492 0.723217 0.713670
O O3 0.856742 0.842658 0.657490
O O4 0.021902 0.775603 0.569146
O O5 0.306196 0.045457 0.171760
O O6 0.500000 0.000000 0.065095
O O7 0.237150 0.953902 0.078477
O O8 0.303674 0.061477 0.990358
O O9 0.250000 0.250000 0.149249
O O10 0.338409 0.358996 0.162911
O O11 0.244275 0.323318 0.009701
O O12 0.500000 0.500000 0.381779
O O13 0.606580 0.442161 0.241672
O O14 0.613201 0.388050 0.392412
O O15 0.358328 0.413188 0.313226
O O16 0.862799 0.605754 0.700804
O O17 0.873897 0.645551 0.858552
O O18 0.109291 0.638636 0.762770
#
# Coordination Sequence:
#
# PCOD9354097 Si02
#       8
#     8   8   8   8   8   8   8   8
#     4  10  21  37  69  97 124 172 237 271 327 415
#     4  11  22  41  67  99 134 182 227 283 341 423
#     4  11  22  42  64  96 128 172 220 283 335 403
#     4  11  22  39  59  96 129 172 215 277 340 411
#     4  10  21  42  65  97 126 178 230 282 332 411
#     4  10  20  37  66  94 128 167 230 270 332 410
#     4  10  27  41  62  98 144 174 215 288 364 388
#     4  11  21  38  72  94 126 173 237 275 327 418
#
# _framework density 20.929368
#
# number of rings (size 3 to 8) (size 9 to 14) (size 15 to 20)
#    0.000    1.500    5.000    0.000    0.000    4.500 
#    0.000    1.250    0.000    0.000    0.000    0.000 
#    0.000    0.000    0.000    0.000    0.000    0.000 
#
# Total GULP energy -178228.852326 kJ/mol
# GULP energy per Si atom -5569.651635 kJ/mol
# Density = 2.088173 g / cm^3
# Si number density = 20.929368 Si / 1000 Ang^3
#
#
#
# Elastic Constant Matrix: (Units=GPa)
#
#
# Indices 1 2 3 4 5 6 
#
# 1 143.8776 35.3646 9.6923 0.0000 0.0000 0.0000
# 2 35.3646 91.7361 25.9246 0.0000 0.0000 0.0000
# 3 9.6923 25.9246 43.7568 0.0000 0.0000 0.0000
# 4 0.0000 0.0000 0.0000 -8.1959 0.0000 0.0000
# 5 0.0000 0.0000 0.0000 0.0000 -37.6854 0.0000
# 6 0.0000 0.0000 0.0000 0.0000 0.0000 31.6042
#
#
#
# Elastic Compliance Matrix: (Units=1/GPa)
#
#
# Indices 1 2 3 4 5 6 
#
# 1 0.007678 -0.002978 0.000064 0.000000 0.000000 0.000000
# 2 -0.002978 0.014248 -0.007782 0.000000 0.000000 0.000000
# 3 0.000064 -0.007782 0.027450 0.000000 0.000000 0.000000
# 4 0.000000 0.000000 0.000000 -0.122012 0.000000 0.000000
# 5 0.000000 0.000000 0.000000 0.000000 -0.026535 0.000000
# 6 0.000000 0.000000 0.000000 0.000000 0.000000 0.031641
#
#
# Mechanical properties :
#
#
# Convention : Reuss Voigt Hill
#
# Bulk Modulus (GPa) = 35.73512 46.81485 41.27499
# Shear Modulus (GPa) = -135.83372 11.03716 -62.39828
#
# Velocity S-wave (km/s) = -8.06486 2.29891 -5.46612
# Velocity P-wave (km/s) = 8.34334 5.42800 4.48041
#
# Compressibility (1/GPa) = 0.02798367
#
# Stress axis : x y z
#
# Youngs Moduli (GPa) = 130.24188 70.18541 36.42984
#
# Poissons Ratio (x) = 0.20900 -0.00232
# Poissons Ratio (y) = 0.38784 0.28349
# Poissons Ratio (z) = -0.00828 0.54617
#
# Static dielectric constant tensor:
#      x y z
#    x 1.834740 0.000000 0.000000 
#    y 0.000000 1.803630 0.000000 
#    z 0.000000 0.000000 1.729280 
# 
# From -- ./inp_files/10982.got.cif
#   From: 2010.05.17/outbox.cif.g08.bks.cpg/sg37_6_cif.got.tgz:10982.got - 2010.06.03 17:53:42.
