data_PCOD9354499
_publ_section_title
;
Structure prediction by ZEFSAII (Michael W. Deem and Ramdas Pophale) SiO2 
 PCOD9354499
Probable space group: C C C 2
;
_chemical_formula_sum "Si O2"
_cell_formula_units_Z 32
_cell_length_a 6.855659
_cell_length_b 34.471975
_cell_length_c 5.328873
_cell_angle_alpha 90.000000
_cell_angle_beta 90.000000
_cell_angle_gamma 90.000000
_cell_volume 1259.362461
_symmetry_space_group_name_H-M "C C C 2"
_symmetry_group_IT_number 37
_symmetry_cell_setting 'orthorhombic'
loop_
_space_group_symop_operation_xyz
x,y,z
-x,-y,z
-x,y,1/2+z
x,-y,1/2+z
1/2+x,1/2+y,z
1/2-x,1/2-y,z
1/2-x,1/2+y,1/2+z
1/2+x,1/2-y,1/2+z
loop_
_atom_site_type_symbol
_atom_site_label
_atom_site_fract_x
_atom_site_fract_y
_atom_site_fract_z
Si Si1 0.787618 0.369797 0.428740
Si Si2 0.129817 0.789666 0.287901
Si Si3 0.222066 0.985281 0.709606
Si Si4 0.270642 0.899942 0.929749
O O1 0.772950 0.326437 0.324689
O O2 0.698788 0.371758 0.707378
O O3 0.004053 0.386986 0.466296
O O4 0.691056 0.396058 0.211556
O O5 0.250000 0.750000 0.304802
O O6 0.977861 0.791292 0.519655
O O7 0.241433 0.942713 0.823368
O O8 0.305685 0.986972 0.428321
O O9 0.000000 0.000000 0.671115
#
# Coordination Sequence:
#
# PCOD9354499 Si02
#       4
#     8   8   8   8
#     4  10  23  43  68 103 138 186 245 288 365 439
#     4  12  28  49  78 114 153 196 245 307 374 449
#     4  10  21  40  61  98 137 180 236 300 367 433
#     4  10  21  42  72  96 138 192 233 307 361 432
#
# _framework density 25.409683999999999
#
# number of rings (size 3 to 8) (size 9 to 14) (size 15 to 20)
#    0.000    1.500    0.000    3.750    7.000    0.000 
#   27.000   15.000    0.000    0.000    0.000    0.000 
#    0.000    0.000    0.000    0.000    0.000    0.000 
#
# Total GULP energy -89494.748103 kJ/mol
# GULP energy per Si atom -5593.421756 kJ/mol
# Density = 2.535185 g / cm^3
# Si number density = 25.409684 Si / 1000 Ang^3
#
#
#
# Elastic Constant Matrix: (Units=GPa)
#
#
# Indices 1 2 3 4 5 6 
#
# 1 131.8924 6.6841 -23.0348 0.0000 0.0000 0.0000
# 2 6.6841 138.8774 -16.5948 0.0000 0.0000 0.0000
# 3 -23.0348 -16.5948 193.5737 0.0000 0.0000 0.0000
# 4 0.0000 0.0000 0.0000 47.3975 0.0000 0.0000
# 5 0.0000 0.0000 0.0000 0.0000 1.6061 0.0000
# 6 0.0000 0.0000 0.0000 0.0000 0.0000 43.7523
#
#
#
# Elastic Compliance Matrix: (Units=1/GPa)
#
#
# Indices 1 2 3 4 5 6 
#
# 1 0.007753 -0.000266 0.000900 0.000000 0.000000 0.000000
# 2 -0.000266 0.007284 0.000593 0.000000 0.000000 0.000000
# 3 0.000900 0.000593 0.005324 0.000000 0.000000 0.000000
# 4 0.000000 0.000000 0.000000 0.021098 0.000000 0.000000
# 5 0.000000 0.000000 0.000000 0.000000 0.622635 0.000000
# 6 0.000000 0.000000 0.000000 0.000000 0.000000 0.022856
#
#
# Mechanical properties :
#
#
# Convention : Reuss Voigt Hill
#
# Bulk Modulus (GPa) = 43.83145 44.27250 44.05197
# Shear Modulus (GPa) = 7.22438 51.70378 29.46408
#
# Velocity S-wave (km/s) = 1.68800 4.51578 3.40893
# Velocity P-wave (km/s) = 4.59200 6.68214 5.73312
#
# Compressibility (1/GPa) = 0.02281467
#
# Stress axis : x y z
#
# Youngs Moduli (GPa) = 128.98998 137.28302 187.83276
#
# Poissons Ratio (x) = 0.03646 -0.16900
# Poissons Ratio (y) = 0.03426 -0.11136
# Poissons Ratio (z) = -0.11606 -0.08139
#
# Static dielectric constant tensor:
#      x y z
#    x 3.091870 0.000000 0.000000 
#    y 0.000000 1.954020 0.000000 
#    z 0.000000 0.000000 2.117150 
# 
# From -- ./inp_files/161.got.cif
#   From: 2010.05.17/outbox.cif.g08.bks.cpg/sg37_1_cif.got.tgz:161.got - 2010.06.03 17:53:42.
