data_PCOD9354543
_publ_section_title
;
Structure prediction by ZEFSAII (Michael W. Deem and Ramdas Pophale) SiO2 
 PCOD9354543
Probable space group: C C C 2
;
_chemical_formula_sum "Si O2"
_cell_formula_units_Z 64
_cell_length_a 8.846838
_cell_length_b 22.522691
_cell_length_c 14.018348
_cell_angle_alpha 90.000000
_cell_angle_beta 90.000000
_cell_angle_gamma 90.000000
_cell_volume 2793.220304
_symmetry_space_group_name_H-M "C C C 2"
_symmetry_group_IT_number 37
_symmetry_cell_setting 'orthorhombic'
loop_
_space_group_symop_operation_xyz
x,y,z
-x,-y,z
-x,y,1/2+z
x,-y,1/2+z
1/2+x,1/2+y,z
1/2-x,1/2-y,z
1/2-x,1/2+y,1/2+z
1/2+x,1/2-y,1/2+z
loop_
_atom_site_type_symbol
_atom_site_label
_atom_site_fract_x
_atom_site_fract_y
_atom_site_fract_z
Si Si1 0.587074 0.243445 0.462830
Si Si2 0.345090 0.304982 0.600294
Si Si3 0.146347 0.669513 0.738570
Si Si4 0.827232 0.418615 0.017194
Si Si5 0.024036 0.799189 0.777560
Si Si6 0.169797 0.975938 0.620840
Si Si7 0.153954 0.622158 0.529325
Si Si8 0.628659 0.949849 0.304792
O O1 0.750000 0.250000 0.508769
O O2 0.455364 0.270245 0.527542
O O3 0.576048 0.286269 0.370506
O O4 0.596224 0.171828 0.452064
O O5 0.250000 0.250000 0.642141
O O6 0.246515 0.354876 0.546400
O O7 0.439307 0.330197 0.689710
O O8 0.067063 0.731911 0.749876
O O9 0.310374 0.671976 0.790431
O O10 0.164624 0.658270 0.627387
O O11 0.055653 0.613606 0.777900
O O12 0.759681 0.467244 0.085529
O O13 0.006688 0.418584 0.032558
O O14 0.800362 0.439952 0.908948
O O15 0.202357 0.922436 0.542827
O O16 0.245432 0.958796 0.722322
O O17 0.000000 0.000000 0.628653
O O18 0.500000 0.000000 0.305513
#
# Coordination Sequence:
#
# PCOD9354543 Si02
#       8
#     8   8   8   8   8   8   8   8
#     4  12  25  40  67 103 147 192 238 301 369 442
#     4  12  25  44  70 108 148 188 241 302 367 456
#     4  10  21  40  71 101 143 188 231 303 367 436
#     4  12  25  46  76 107 144 196 254 313 376 453
#     4  11  23  40  67 105 146 186 236 290 374 445
#     4  11  27  46  74 107 147 195 247 317 383 445
#     4  11  22  45  72 101 142 194 249 304 369 443
#     4  11  24  45  74 104 144 193 259 312 371 446
#
# _framework density 22.912624000000001
#
# number of rings (size 3 to 8) (size 9 to 14) (size 15 to 20)
#    0.000    0.750    2.500    5.250    7.000    0.500 
#    0.000    2.500    0.000    0.000    0.000    0.000 
#    0.000    0.000    0.000    0.000    0.000    0.000 
#
# Total GULP energy -178473.129363 kJ/mol
# GULP energy per Si atom -5577.285293 kJ/mol
# Density = 2.286047 g / cm^3
# Si number density = 22.912624 Si / 1000 Ang^3
#
#
#
# Elastic Constant Matrix: (Units=GPa)
#
#
# Indices 1 2 3 4 5 6 
#
# 1 68.1253 11.4477 30.3141 0.0000 0.0000 0.0000
# 2 11.4477 100.9947 32.0859 0.0000 0.0000 0.0000
# 3 30.3141 32.0859 86.8131 0.0000 0.0000 0.0000
# 4 0.0000 0.0000 0.0000 36.9608 0.0000 0.0000
# 5 0.0000 0.0000 0.0000 0.0000 64.9686 0.0000
# 6 0.0000 0.0000 0.0000 0.0000 0.0000 44.1869
#
#
#
# Elastic Compliance Matrix: (Units=1/GPa)
#
#
# Indices 1 2 3 4 5 6 
#
# 1 0.017379 -0.000048 -0.006051 0.000000 0.000000 0.000000
# 2 -0.000048 0.011219 -0.004130 0.000000 0.000000 0.000000
# 3 -0.006051 -0.004130 0.015158 0.000000 0.000000 0.000000
# 4 0.000000 0.000000 0.000000 0.027056 0.000000 0.000000
# 5 0.000000 0.000000 0.000000 0.000000 0.015392 0.000000
# 6 0.000000 0.000000 0.000000 0.000000 0.000000 0.022631
#
#
# Mechanical properties :
#
#
# Convention : Reuss Voigt Hill
#
# Bulk Modulus (GPa) = 42.91906 44.84762 43.88334
# Shear Modulus (GPa) = 36.48055 41.36229 38.92142
#
# Velocity S-wave (km/s) = 3.99452 4.25340 4.12599
# Velocity P-wave (km/s) = 6.32828 6.61344 6.47243
#
# Compressibility (1/GPa) = 0.02329967
#
# Stress axis : x y z
#
# Youngs Moduli (GPa) = 57.53924 89.13475 65.97004
#
# Poissons Ratio (x) = 0.00423 0.39919
# Poissons Ratio (y) = 0.00273 0.27245
# Poissons Ratio (z) = 0.34818 0.36812
#
# Static dielectric constant tensor:
#      x y z
#    x 1.836820 0.000000 0.000000 
#    y 0.000000 1.891070 0.000000 
#    z 0.000000 0.000000 1.925470 
# 
# From -- ./inp_files/10975.got.cif
#   From: 2010.05.17/outbox.cif.g08.bks.cpg/sg37_6_cif.got.tgz:10975.got - 2010.06.03 17:53:42.
