data_PCOD9354326
_publ_section_title
;
Structure prediction by ZEFSAII (Michael W. Deem and Ramdas Pophale) SiO2 
 PCOD9354326
Probable space group: C C C 2
;
_chemical_formula_sum "Si O2"
_cell_formula_units_Z 48
_cell_length_a 13.593653
_cell_length_b 17.936610
_cell_length_c 8.977579
_cell_angle_alpha 90.000000
_cell_angle_beta 90.000000
_cell_angle_gamma 90.000000
_cell_volume 2188.949692
_symmetry_space_group_name_H-M "C C C 2"
_symmetry_group_IT_number 37
_symmetry_cell_setting 'orthorhombic'
loop_
_space_group_symop_operation_xyz
x,y,z
-x,-y,z
-x,y,1/2+z
x,-y,1/2+z
1/2+x,1/2+y,z
1/2-x,1/2-y,z
1/2-x,1/2+y,1/2+z
1/2+x,1/2-y,1/2+z
loop_
_atom_site_type_symbol
_atom_site_label
_atom_site_fract_x
_atom_site_fract_y
_atom_site_fract_z
Si Si1 0.000000 0.000000 0.210690
Si Si2 0.321227 0.092294 0.310392
Si Si3 0.250000 0.750000 0.763525
Si Si4 0.041512 0.646524 0.305191
Si Si5 0.793065 0.439880 0.457424
Si Si6 0.450787 0.750211 0.574245
Si Si7 0.081799 0.903802 0.469992
O O1 0.964904 0.064220 0.321043
O O2 0.080717 0.033232 0.098890
O O3 0.262585 0.169505 0.340535
O O4 0.436162 0.108924 0.341050
O O5 0.278426 0.025869 0.410725
O O6 0.318913 0.071941 0.132419
O O7 0.351153 0.746132 0.670157
O O8 0.124203 0.586103 0.339545
O O9 0.069683 0.711166 0.419247
O O10 0.025532 0.692900 0.154002
O O11 0.695722 0.390120 0.436808
O O12 0.477747 0.665826 0.535229
#
# Coordination Sequence:
#
# PCOD9354326 Si02
#       7
#     4   8   4   8   8   8   8
#     4  10  24  42  64 104 130 182 234 296 356 404
#     4  11  25  42  72  98 147 178 238 278 355 409
#     4  10  20  46  64  92 130 188 220 282 344 414
#     4  11  23  40  66 102 137 190 224 280 349 416
#     4  12  24  43  70 104 137 187 227 291 344 420
#     4  11  21  40  67  92 135 184 229 284 345 414
#     4  11  22  43  70  97 139 178 238 288 353 416
#
# _framework density 21.928325000000001
#
# number of rings (size 3 to 8) (size 9 to 14) (size 15 to 20)
#    0.000    1.000    5.000    2.500    2.333    1.333 
#    3.000    0.000    0.000    2.000    0.000    0.000 
#    0.000    0.000    0.000    0.000    0.000    0.000 
#
# Total GULP energy -133911.033433 kJ/mol
# GULP energy per Si atom -5579.626393 kJ/mol
# Density = 2.187842 g / cm^3
# Si number density = 21.928325 Si / 1000 Ang^3
#
#
#
# Elastic Constant Matrix: (Units=GPa)
#
#
# Indices 1 2 3 4 5 6 
#
# 1 58.0494 -5.5063 36.2590 0.0000 0.0000 0.0000
# 2 -5.5063 123.9385 54.5594 0.0000 0.0000 0.0000
# 3 36.2590 54.5594 16.5344 0.0000 0.0000 0.0000
# 4 0.0000 0.0000 0.0000 47.2866 0.0000 0.0000
# 5 0.0000 0.0000 0.0000 0.0000 -161.6523 0.0000
# 6 0.0000 0.0000 0.0000 0.0000 0.0000 27.1910
#
#
#
# Elastic Compliance Matrix: (Units=1/GPa)
#
#
# Indices 1 2 3 4 5 6 
#
# 1 0.003880 -0.008656 0.020054 0.000000 0.000000 0.000000
# 2 -0.008656 0.001485 0.014083 0.000000 0.000000 0.000000
# 3 0.020054 0.014083 -0.029967 0.000000 0.000000 0.000000
# 4 0.000000 0.000000 0.000000 0.021148 0.000000 0.000000
# 5 0.000000 0.000000 0.000000 0.000000 -0.006186 0.000000
# 6 0.000000 0.000000 0.000000 0.000000 0.000000 0.036777
#
#
# Mechanical properties :
#
#
# Convention : Reuss Voigt Hill
#
# Bulk Modulus (GPa) = 37.93735 41.01627 39.47681
# Shear Modulus (GPa) = -332.43616 -9.88758 -171.16187
#
# Velocity S-wave (km/s) = -12.32600 -2.12575 -8.84447
# Velocity P-wave (km/s) = 13.61013 3.56654 9.28750
#
# Compressibility (1/GPa) = 0.02635925
#
# Stress axis : x y z
#
# Youngs Moduli (GPa) = 257.76421 673.61906 -33.37000
#
# Poissons Ratio (x) = 5.83061 0.66920
# Poissons Ratio (y) = 2.23112 0.46994
# Poissons Ratio (z) = -5.16919 -9.48646
#
# Static dielectric constant tensor:
#      x y z
#    x 2.422710 0.000000 0.000000 
#    y 0.000000 2.054370 0.000000 
#    z 0.000000 0.000000 1.814840 
# 
# From -- ./inp_files/3517.got.cif
#   From: 2010.05.17/outbox.cif.g08.bks.cpg/sg37_2_cif.got.tgz:3517.got - 2010.06.03 17:53:42.
