data_PCOD9354941
_publ_section_title
;
Structure prediction by ZEFSAII (Michael W. Deem and Ramdas Pophale) SiO2 
 PCOD9354941
Probable space group: C C C 2
;
_chemical_formula_sum "Si O2"
_cell_formula_units_Z 56
_cell_length_a 5.627132
_cell_length_b 29.367924
_cell_length_c 13.761532
_cell_angle_alpha 90.000000
_cell_angle_beta 90.000000
_cell_angle_gamma 90.000000
_cell_volume 2274.192038
_symmetry_space_group_name_H-M "C C C 2"
_symmetry_group_IT_number 37
_symmetry_cell_setting 'orthorhombic'
loop_
_space_group_symop_operation_xyz
x,y,z
-x,-y,z
-x,y,1/2+z
x,-y,1/2+z
1/2+x,1/2+y,z
1/2-x,1/2-y,z
1/2-x,1/2+y,1/2+z
1/2+x,1/2-y,1/2+z
loop_
_atom_site_type_symbol
_atom_site_label
_atom_site_fract_x
_atom_site_fract_y
_atom_site_fract_z
Si Si1 0.867578 0.639242 0.743650
Si Si2 0.867892 0.455132 0.739280
Si Si3 0.663982 0.368541 0.045311
Si Si4 0.498601 0.237423 0.275375
Si Si5 0.866940 0.047769 0.543765
Si Si6 0.497583 0.727445 0.492899
Si Si7 0.008937 0.092336 0.360732
O O1 0.851142 0.645831 0.626703
O O2 0.613083 0.630783 0.795216
O O3 0.996516 0.591620 0.757626
O O4 0.990000 0.683219 0.789384
O O5 0.835073 0.458609 0.622880
O O6 0.620766 0.446837 0.794750
O O7 0.000000 0.500000 0.774251
O O8 0.534894 0.412869 0.090003
O O9 0.501527 0.324621 0.027100
O O10 0.706217 0.386784 0.935725
O O11 0.250000 0.250000 0.226957
O O12 0.500245 0.265577 0.375952
O O13 0.750000 0.250000 0.226914
O O14 0.823983 0.069922 0.438231
O O15 0.000000 0.000000 0.531871
O O16 0.750000 0.750000 0.521614
O O17 0.250000 0.750000 0.522730
#
# Coordination Sequence:
#
# PCOD9354941 Si02
#       7
#     8   8   8   8   8   8   8
#     4  12  26  46  77 113 156 208 264 337 399 485
#     4  12  28  45  77 115 154 199 269 328 402 486
#     4  10  24  45  74 107 151 203 260 320 401 474
#     4  10  24  44  76 110 149 205 258 328 400 477
#     4  10  24  47  75 102 159 193 255 323 397 478
#     4  10  22  43  71 109 146 198 252 327 392 469
#     4  10  24  48  75 105 152 212 258 320 405 483
#
# _framework density 24.624129
#
# number of rings (size 3 to 8) (size 9 to 14) (size 15 to 20)
#    0.857    0.571    1.429    2.571    8.000    2.857 
#    0.000    1.429    0.000    0.000    0.000    0.000 
#    0.000    0.000    0.000    0.000    0.000    0.000 
#
# Total GULP energy -156270.380760 kJ/mol
# GULP energy per Si atom -5581.085027 kJ/mol
# Density = 2.456808 g / cm^3
# Si number density = 24.624129 Si / 1000 Ang^3
#
#
#
# Elastic Constant Matrix: (Units=GPa)
#
#
# Indices 1 2 3 4 5 6 
#
# 1 107.8256 38.2486 24.7434 0.0000 0.0000 0.0000
# 2 38.2486 169.5537 14.9121 0.0000 0.0000 0.0000
# 3 24.7434 14.9121 135.0262 0.0000 0.0000 0.0000
# 4 0.0000 0.0000 0.0000 -7.9191 0.0000 0.0000
# 5 0.0000 0.0000 0.0000 0.0000 4.4154 0.0000
# 6 0.0000 0.0000 0.0000 0.0000 0.0000 47.0946
#
#
#
# Elastic Compliance Matrix: (Units=1/GPa)
#
#
# Indices 1 2 3 4 5 6 
#
# 1 0.010441 -0.002208 -0.001669 0.000000 0.000000 0.000000
# 2 -0.002208 0.006423 -0.000305 0.000000 0.000000 0.000000
# 3 -0.001669 -0.000305 0.007746 0.000000 0.000000 0.000000
# 4 0.000000 0.000000 0.000000 -0.126277 0.000000 0.000000
# 5 0.000000 0.000000 0.000000 0.000000 0.226481 0.000000
# 6 0.000000 0.000000 0.000000 0.000000 0.000000 0.021234
#
#
# Mechanical properties :
#
#
# Convention : Reuss Voigt Hill
#
# Bulk Modulus (GPa) = 61.56043 63.13485 62.34764
# Shear Modulus (GPa) = 31.28396 31.01827 31.15112
#
# Velocity S-wave (km/s) = 3.56822 3.55303 3.56063
# Velocity P-wave (km/s) = 6.48310 6.52128 6.50222
#
# Compressibility (1/GPa) = 0.01624420
#
# Stress axis : x y z
#
# Youngs Moduli (GPa) = 95.77897 155.69493 129.10691
#
# Poissons Ratio (x) = 0.34384 0.21552
# Poissons Ratio (y) = 0.21152 0.03933
# Poissons Ratio (z) = 0.15989 0.04743
#
# Static dielectric constant tensor:
#      x y z
#    x 2.050770 0.000000 0.000000 
#    y 0.000000 1.912820 0.000000 
#    z 0.000000 0.000000 1.945890 
# 
# From -- ./inp_files/9913.got.cif
#   From: 2010.05.17/outbox.cif.g08.bks.cpg/sg37_5_cif.got.tgz:9913.got - 2010.06.03 17:53:42.
