data_PCOD9354983
_publ_section_title
;
Structure prediction by ZEFSAII (Michael W. Deem and Ramdas Pophale) SiO2 
 PCOD9354983
Probable space group: C C C 2
;
_chemical_formula_sum "Si O2"
_cell_formula_units_Z 40
_cell_length_a 13.062580
_cell_length_b 5.226590
_cell_length_c 22.819555
_cell_angle_alpha 90.000000
_cell_angle_beta 90.000000
_cell_angle_gamma 90.000000
_cell_volume 1557.953774
_symmetry_space_group_name_H-M "C C C 2"
_symmetry_group_IT_number 37
_symmetry_cell_setting 'orthorhombic'
loop_
_space_group_symop_operation_xyz
x,y,z
-x,-y,z
-x,y,1/2+z
x,-y,1/2+z
1/2+x,1/2+y,z
1/2-x,1/2-y,z
1/2-x,1/2+y,1/2+z
1/2+x,1/2-y,1/2+z
loop_
_atom_site_type_symbol
_atom_site_label
_atom_site_fract_x
_atom_site_fract_y
_atom_site_fract_z
Si Si1 0.121798 0.472527 0.675360
Si Si2 0.150586 0.900752 0.993267
Si Si3 0.885867 0.876878 0.874161
Si Si4 0.250000 0.750000 0.578901
Si Si5 0.500000 0.000000 0.944722
Si Si6 0.122267 0.025588 0.247801
O O1 0.191178 0.553266 0.621216
O O2 0.144308 0.189711 0.699298
O O3 0.000000 0.500000 0.662012
O O4 0.142499 0.686135 0.726278
O O5 0.250000 0.750000 0.012507
O O6 0.051203 0.720982 0.984809
O O7 0.172386 0.999417 0.927989
O O8 0.159073 0.133784 0.038556
O O9 0.838311 0.938771 0.811506
O O10 0.912390 0.596897 0.899501
O O11 0.000000 0.000000 0.873795
O O12 0.000000 0.000000 0.253408
#
# Coordination Sequence:
#
# PCOD9354983 Si02
#       6
#     8   8   8   4   4   8
#     4  10  24  47  73 108 145 200 252 311 381 443
#     4  11  25  47  70 104 148 192 246 316 372 452
#     4   9  20  40  73 111 141 186 234 303 386 456
#     4  12  28  50  70 102 154 202 266 320 358 456
#     4  10  22  44  74 108 144 192 244 294 400 460
#     4   9  20  41  76 110 146 185 245 311 380 460
#
# _framework density 25.674703000000001
#
# number of rings (size 3 to 8) (size 9 to 14) (size 15 to 20)
#    0.000    2.000    0.000    1.200   12.600    0.000 
#   16.200    2.000    0.000    0.000    0.000    0.000 
#    0.000    0.000    0.000    0.000    0.000    0.000 
#
# Total GULP energy -111799.763994 kJ/mol
# GULP energy per Si atom -5589.988200 kJ/mol
# Density = 2.561627 g / cm^3
# Si number density = 25.674703 Si / 1000 Ang^3
#
#
#
# Elastic Constant Matrix: (Units=GPa)
#
#
# Indices 1 2 3 4 5 6 
#
# 1 89.6809 8.1625 43.4075 0.0000 0.0000 0.0000
# 2 8.1625 125.8859 63.1824 0.0000 0.0000 0.0000
# 3 43.4075 63.1824 184.0194 0.0000 0.0000 0.0000
# 4 0.0000 0.0000 0.0000 10.1888 0.0000 0.0000
# 5 0.0000 0.0000 0.0000 0.0000 27.9266 0.0000
# 6 0.0000 0.0000 0.0000 0.0000 0.0000 35.0342
#
#
#
# Elastic Compliance Matrix: (Units=1/GPa)
#
#
# Indices 1 2 3 4 5 6 
#
# 1 0.012657 0.000819 -0.003267 0.000000 0.000000 0.000000
# 2 0.000819 0.009651 -0.003507 0.000000 0.000000 0.000000
# 3 -0.003267 -0.003507 0.007409 0.000000 0.000000 0.000000
# 4 0.000000 0.000000 0.000000 0.098147 0.000000 0.000000
# 5 0.000000 0.000000 0.000000 0.000000 0.035808 0.000000
# 6 0.000000 0.000000 0.000000 0.000000 0.000000 0.028544
#
#
# Mechanical properties :
#
#
# Convention : Reuss Voigt Hill
#
# Bulk Modulus (GPa) = 56.15593 69.89902 63.02747
# Shear Modulus (GPa) = 23.80268 33.61886 28.71077
#
# Velocity S-wave (km/s) = 3.04811 3.62251 3.34765
# Velocity P-wave (km/s) = 5.85727 6.69184 6.28841
#
# Compressibility (1/GPa) = 0.01780756
#
# Stress axis : x y z
#
# Youngs Moduli (GPa) = 79.00556 103.62042 134.97428
#
# Poissons Ratio (x) = -0.08486 0.44094
# Poissons Ratio (y) = -0.06470 0.47331
# Poissons Ratio (z) = 0.25810 0.36336
#
# Static dielectric constant tensor:
#      x y z
#    x 2.033320 0.000000 0.000000 
#    y 0.000000 2.058970 0.000000 
#    z 0.000000 0.000000 1.960270 
# 
# From -- ./inp_files/18818.got.cif
#   From: 2010.05.17/outbox.cif.g08.bks.cpg/sg37_10_cif.got.tgz:18818.got - 2010.06.03 17:53:42.
