data_PCOD9354829
_publ_section_title
;
Structure prediction by ZEFSAII (Michael W. Deem and Ramdas Pophale) SiO2 
 PCOD9354829
Probable space group: C C C 2
;
_chemical_formula_sum "Si O2"
_cell_formula_units_Z 44
_cell_length_a 24.052414
_cell_length_b 10.602910
_cell_length_c 8.729171
_cell_angle_alpha 90.000000
_cell_angle_beta 90.000000
_cell_angle_gamma 90.000000
_cell_volume 2226.161905
_symmetry_space_group_name_H-M "C C C 2"
_symmetry_group_IT_number 37
_symmetry_cell_setting 'orthorhombic'
loop_
_space_group_symop_operation_xyz
x,y,z
-x,-y,z
-x,y,1/2+z
x,-y,1/2+z
1/2+x,1/2+y,z
1/2-x,1/2-y,z
1/2-x,1/2+y,1/2+z
1/2+x,1/2-y,1/2+z
loop_
_atom_site_type_symbol
_atom_site_label
_atom_site_fract_x
_atom_site_fract_y
_atom_site_fract_z
Si Si1 0.791975 0.136303 0.933370
Si Si2 0.789814 0.127470 0.568306
Si Si3 0.020091 0.681269 0.543823
Si Si4 0.913032 0.835553 0.564687
Si Si5 0.000000 0.500000 0.797784
Si Si6 0.911059 0.099631 0.422858
O O1 0.750000 0.250000 0.949380
O O2 0.801879 0.116878 0.750728
O O3 0.848731 0.178049 0.017869
O O4 0.767747 0.007807 0.007924
O O5 0.750000 0.250000 0.543914
O O6 0.848130 0.130541 0.476222
O O7 0.036027 0.588973 0.405662
O O8 0.051733 0.810021 0.526588
O O9 0.954775 0.719191 0.537268
O O10 0.031830 0.598762 0.692153
O O11 0.917781 0.871508 0.743673
O O12 0.928237 0.957048 0.461555
#
# Coordination Sequence:
#
# PCOD9354829 Si02
#       6
#     8   8   8   8   4   8
#     4  10  22  41  62  90 120 157 201 250 299 356
#     4  10  22  41  62  90 120 157 201 250 299 356
#     4  11  23  42  60  88 121 161 196 242 300 355
#     4  11  23  38  64  90 118 155 201 251 297 350
#     4  10  24  42  58  82 132 158 196 240 288 368
#     4  11  23  38  64  90 118 155 201 251 297 350
#
# _framework density 19.764959000000001
#
# number of rings (size 3 to 8) (size 9 to 14) (size 15 to 20)
#    0.000    1.455    1.818    4.909    5.091    4.364 
#    6.545    0.000    0.000    0.000    0.000    0.000 
#    0.000    0.000    0.000    0.000    0.000    0.000 
#
# Total GULP energy -122702.261191 kJ/mol
# GULP energy per Si atom -5577.375509 kJ/mol
# Density = 1.971997 g / cm^3
# Si number density = 19.764959 Si / 1000 Ang^3
#
#
#
# Elastic Constant Matrix: (Units=GPa)
#
#
# Indices 1 2 3 4 5 6 
#
# 1 38.7502 39.1381 14.7901 0.0000 0.0000 0.0000
# 2 39.1381 98.3801 32.5995 0.0000 0.0000 0.0000
# 3 14.7901 32.5995 107.0224 0.0000 0.0000 0.0000
# 4 0.0000 0.0000 0.0000 33.3934 0.0000 0.0000
# 5 0.0000 0.0000 0.0000 0.0000 5.8126 0.0000
# 6 0.0000 0.0000 0.0000 0.0000 0.0000 22.6555
#
#
#
# Elastic Compliance Matrix: (Units=1/GPa)
#
#
# Indices 1 2 3 4 5 6 
#
# 1 0.043205 -0.016917 -0.000818 0.000000 0.000000 0.000000
# 2 -0.016917 0.017930 -0.003124 0.000000 0.000000 0.000000
# 3 -0.000818 -0.003124 0.010408 0.000000 0.000000 0.000000
# 4 0.000000 0.000000 0.000000 0.029946 0.000000 0.000000
# 5 0.000000 0.000000 0.000000 0.000000 0.172039 0.000000
# 6 0.000000 0.000000 0.000000 0.000000 0.000000 0.044139
#
#
# Mechanical properties :
#
#
# Convention : Reuss Voigt Hill
#
# Bulk Modulus (GPa) = 33.52767 46.35644 39.94206
# Shear Modulus (GPa) = 13.53817 22.88064 18.20941
#
# Velocity S-wave (km/s) = 2.62001 3.40610 3.03858
# Velocity P-wave (km/s) = 5.11396 6.24287 5.70640
#
# Compressibility (1/GPa) = 0.02982611
#
# Stress axis : x y z
#
# Youngs Moduli (GPa) = 23.14563 55.77338 96.07702
#
# Poissons Ratio (x) = 0.94352 0.07857
# Poissons Ratio (y) = 0.39155 0.30011
# Poissons Ratio (z) = 0.01893 0.17421
#
# Static dielectric constant tensor:
#      x y z
#    x 1.702560 0.000000 0.000000 
#    y 0.000000 1.828770 0.000000 
#    z 0.000000 0.000000 1.726930 
# 
# From -- ./inp_files/4573.got.cif
#   From: 2010.05.17/outbox.cif.g08.bks.cpg/sg37_3_cif.got.tgz:4573.got - 2010.06.03 17:53:42.
