data_PCOD9354554
_publ_section_title
;
Structure prediction by ZEFSAII (Michael W. Deem and Ramdas Pophale) SiO2 
 PCOD9354554
Probable space group: C C C 2
;
_chemical_formula_sum "Si O2"
_cell_formula_units_Z 64
_cell_length_a 13.571164
_cell_length_b 8.648116
_cell_length_c 28.235544
_cell_angle_alpha 90.000000
_cell_angle_beta 90.000000
_cell_angle_gamma 90.000000
_cell_volume 3313.864636
_symmetry_space_group_name_H-M "C C C 2"
_symmetry_group_IT_number 37
_symmetry_cell_setting 'orthorhombic'
loop_
_space_group_symop_operation_xyz
x,y,z
-x,-y,z
-x,y,1/2+z
x,-y,1/2+z
1/2+x,1/2+y,z
1/2-x,1/2-y,z
1/2-x,1/2+y,1/2+z
1/2+x,1/2-y,1/2+z
loop_
_atom_site_type_symbol
_atom_site_label
_atom_site_fract_x
_atom_site_fract_y
_atom_site_fract_z
Si Si1 0.949869 0.662858 0.433830
Si Si2 0.605051 0.082013 0.684051
Si Si3 0.645672 0.819496 0.333957
Si Si4 0.334468 0.879789 0.267286
Si Si5 0.848665 0.650413 0.076504
Si Si6 0.421433 0.622868 0.499506
Si Si7 0.468866 0.675794 0.751208
Si Si8 0.226036 0.586453 0.002883
O O1 0.926686 0.680000 0.378605
O O2 0.844854 0.643383 0.460416
O O3 0.000000 0.500000 0.442245
O O4 0.025282 0.789548 0.455526
O O5 0.625147 0.097080 0.628825
O O6 0.589205 0.250618 0.706949
O O7 0.500000 0.000000 0.688783
O O8 0.675774 0.980107 0.718361
O O9 0.750000 0.750000 0.349457
O O10 0.603187 0.701508 0.295224
O O11 0.656569 0.988384 0.308421
O O12 0.250000 0.750000 0.273902
O O13 0.435949 0.782777 0.262715
O O14 0.750000 0.750000 0.081889
O O15 0.832655 0.507184 0.042046
O O16 0.913848 0.760720 0.043453
O O17 0.500000 0.500000 0.515426
O O18 0.318470 0.528463 0.489509
O O19 0.500000 0.500000 0.744270
O O20 0.250000 0.750000 0.026331
#
# Coordination Sequence:
#
# PCOD9354554 Si02
#       8
#     8   8   8   8   8   8   8   8
#     4  12  24  43  67  90 126 173 211 268 330 381
#     4   9  21  37  63  90 127 166 211 260 311 386
#     4  11  24  42  63  95 126 164 210 263 317 386
#     4  10  21  42  64  95 131 168 209 261 321 379
#     4  10  23  40  60  93 126 166 218 261 321 380
#     4  11  24  41  64  91 125 170 213 273 321 387
#     4  10  21  41  64  93 129 167 208 259 318 375
#     4  11  23  42  62  92 127 163 219 265 322 385
#
# _framework density 19.312799999999999
#
# number of rings (size 3 to 8) (size 9 to 14) (size 15 to 20)
#    0.000    1.500    2.500    3.000    1.750    4.500 
#    4.500    5.000    0.000    0.000    0.000    0.000 
#    0.000    0.000    0.000    0.000    0.000    0.000 
#
# Total GULP energy -178311.545921 kJ/mol
# GULP energy per Si atom -5572.235810 kJ/mol
# Density = 1.926884 g / cm^3
# Si number density = 19.312800 Si / 1000 Ang^3
#
#
#
# Elastic Constant Matrix: (Units=GPa)
#
#
# Indices 1 2 3 4 5 6 
#
# 1 42.5806 21.7917 22.7270 0.0000 0.0000 0.0000
# 2 21.7917 143.8434 49.6894 0.0000 0.0000 0.0000
# 3 22.7270 49.6894 120.9235 0.0000 0.0000 0.0000
# 4 0.0000 0.0000 0.0000 59.8877 0.0000 0.0000
# 5 0.0000 0.0000 0.0000 0.0000 41.9778 0.0000
# 6 0.0000 0.0000 0.0000 0.0000 0.0000 37.7473
#
#
#
# Elastic Compliance Matrix: (Units=1/GPa)
#
#
# Indices 1 2 3 4 5 6 
#
# 1 0.026989 -0.002723 -0.003953 0.000000 0.000000 0.000000
# 2 -0.002723 0.008377 -0.002930 0.000000 0.000000 0.000000
# 3 -0.003953 -0.002930 0.010217 0.000000 0.000000 0.000000
# 4 0.000000 0.000000 0.000000 0.016698 0.000000 0.000000
# 5 0.000000 0.000000 0.000000 0.000000 0.023822 0.000000
# 6 0.000000 0.000000 0.000000 0.000000 0.000000 0.026492
#
#
# Mechanical properties :
#
#
# Convention : Reuss Voigt Hill
#
# Bulk Modulus (GPa) = 37.92391 55.08486 46.50439
# Shear Modulus (GPa) = 35.56254 42.13186 38.84720
#
# Velocity S-wave (km/s) = 4.29581 4.67577 4.48981
# Velocity P-wave (km/s) = 6.65467 7.59835 7.14211
#
# Compressibility (1/GPa) = 0.02636859
#
# Stress axis : x y z
#
# Youngs Moduli (GPa) = 37.05273 119.37722 97.87739
#
# Poissons Ratio (x) = 0.32506 0.38695
# Poissons Ratio (y) = 0.10089 0.28682
# Poissons Ratio (z) = 0.14649 0.34982
#
# Static dielectric constant tensor:
#      x y z
#    x 1.766910 0.000000 0.000000 
#    y 0.000000 1.514640 0.000000 
#    z 0.000000 0.000000 1.692910 
# 
# From -- ./inp_files/18449.got.cif
#   From: 2010.05.17/outbox.cif.g08.bks.cpg/sg37_10_cif.got.tgz:18449.got - 2010.06.03 17:53:42.
