data_PCOD9354315
_publ_section_title
;
Structure prediction by ZEFSAII (Michael W. Deem and Ramdas Pophale) SiO2 
 PCOD9354315
Probable space group: C C C 2
;
_chemical_formula_sum "Si O2"
_cell_formula_units_Z 60
_cell_length_a 12.132168
_cell_length_b 8.747284
_cell_length_c 25.122605
_cell_angle_alpha 90.000000
_cell_angle_beta 90.000000
_cell_angle_gamma 90.000000
_cell_volume 2666.099250
_symmetry_space_group_name_H-M "C C C 2"
_symmetry_group_IT_number 37
_symmetry_cell_setting 'orthorhombic'
loop_
_space_group_symop_operation_xyz
x,y,z
-x,-y,z
-x,y,1/2+z
x,-y,1/2+z
1/2+x,1/2+y,z
1/2-x,1/2-y,z
1/2-x,1/2+y,1/2+z
1/2+x,1/2-y,1/2+z
loop_
_atom_site_type_symbol
_atom_site_label
_atom_site_fract_x
_atom_site_fract_y
_atom_site_fract_z
Si Si1 0.750000 0.750000 0.811060
Si Si2 0.346673 0.365410 0.395017
Si Si3 0.597485 0.278563 0.407096
Si Si4 0.498810 0.350856 0.575755
Si Si5 0.629628 0.461287 0.775968
Si Si6 0.349748 0.864363 0.513749
Si Si7 0.619908 0.918725 0.606086
Si Si8 0.691518 0.593991 0.158425
O O1 0.647773 0.779199 0.851313
O O2 0.707653 0.609790 0.776944
O O3 0.250000 0.250000 0.414190
O O4 0.466648 0.296986 0.407526
O O5 0.353258 0.545982 0.413539
O O6 0.340304 0.375438 0.330503
O O7 0.631847 0.154715 0.451267
O O8 0.500000 0.500000 0.538620
O O9 0.545033 0.215997 0.539761
O O10 0.399299 0.262555 0.603657
O O11 0.587781 0.409712 0.618886
O O12 0.500000 0.500000 0.780699
O O13 0.650255 0.389742 0.718627
O O14 0.250000 0.750000 0.525602
O O15 0.338892 0.017666 0.548148
O O16 0.500000 0.000000 0.619568
O O17 0.713348 0.970435 0.647313
O O18 0.750000 0.750000 0.143235
#
# Coordination Sequence:
#
# PCOD9354315 Si02
#       8
#     4   8   8   8   8   8   8   8
#     4  10  20  44  66  96 136 174 224 288 346 410
#     4  10  21  45  65  99 138 173 227 289 349 415
#     4  10  21  41  71  94 138 179 223 288 351 414
#     4  11  24  41  64  94 132 169 226 286 337 408
#     4  11  23  41  67  95 133 179 223 289 350 411
#     4  11  20  42  69  92 133 184 217 275 356 410
#     4  10  21  44  63  91 135 173 228 282 336 420
#     4  12  22  42  66  91 128 182 222 279 351 411
#
# _framework density 22.504788999999999
#
# number of rings (size 3 to 8) (size 9 to 14) (size 15 to 20)
#    0.000    1.333    7.333    0.800    1.867    2.667 
#    7.200    2.667    0.000    0.000    0.000    0.000 
#    0.000    0.000    0.000    0.000    0.000    0.000 
#
# Total GULP energy -167267.581914 kJ/mol
# GULP energy per Si atom -5575.586064 kJ/mol
# Density = 2.245357 g / cm^3
# Si number density = 22.504789 Si / 1000 Ang^3
#
#
#
# Elastic Constant Matrix: (Units=GPa)
#
#
# Indices 1 2 3 4 5 6 
#
# 1 126.0371 38.8781 -3.8971 0.0000 0.0000 0.0000
# 2 38.8781 81.8891 -7.1720 0.0000 0.0000 0.0000
# 3 -3.8971 -7.1720 69.4926 0.0000 0.0000 0.0000
# 4 0.0000 0.0000 0.0000 43.7347 0.0000 0.0000
# 5 0.0000 0.0000 0.0000 0.0000 23.4090 0.0000
# 6 0.0000 0.0000 0.0000 0.0000 0.0000 45.6025
#
#
#
# Elastic Compliance Matrix: (Units=1/GPa)
#
#
# Indices 1 2 3 4 5 6 
#
# 1 0.009296 -0.004407 0.000066 0.000000 0.000000 0.000000
# 2 -0.004407 0.014413 0.001240 0.000000 0.000000 0.000000
# 3 0.000066 0.001240 0.014522 0.000000 0.000000 0.000000
# 4 0.000000 0.000000 0.000000 0.022865 0.000000 0.000000
# 5 0.000000 0.000000 0.000000 0.000000 0.042719 0.000000
# 6 0.000000 0.000000 0.000000 0.000000 0.000000 0.021929
#
#
# Mechanical properties :
#
#
# Convention : Reuss Voigt Hill
#
# Bulk Modulus (GPa) = 31.22191 37.00409 34.11300
# Shear Modulus (GPa) = 35.05808 39.18991 37.12399
#
# Velocity S-wave (km/s) = 3.95119 4.17754 4.06594
# Velocity P-wave (km/s) = 5.89232 6.30457 6.10192
#
# Compressibility (1/GPa) = 0.03202879
#
# Stress axis : x y z
#
# Youngs Moduli (GPa) = 107.57568 69.38287 68.86226
#
# Poissons Ratio (x) = 0.30580 -0.00457
# Poissons Ratio (y) = 0.47414 -0.08541
# Poissons Ratio (z) = -0.00715 -0.08606
#
# Static dielectric constant tensor:
#      x y z
#    x 1.917030 0.000000 0.000000 
#    y 0.000000 1.435520 0.000000 
#    z 0.000000 0.000000 1.830640 
# 
# From -- ./inp_files/19797.got.cif
#   From: 2010.05.17/outbox.cif.g08.bks.cpg/sg37_10_cif.got.tgz:19797.got - 2010.06.03 17:53:42.
