data_PCOD9354133
_publ_section_title
;
Structure prediction by ZEFSAII (Michael W. Deem and Ramdas Pophale) SiO2 
 PCOD9354133
Probable space group: C C C 2
;
_chemical_formula_sum "Si O2"
_cell_formula_units_Z 64
_cell_length_a 11.461024
_cell_length_b 15.542009
_cell_length_c 16.169864
_cell_angle_alpha 90.000000
_cell_angle_beta 90.000000
_cell_angle_gamma 90.000000
_cell_volume 2880.294833
_symmetry_space_group_name_H-M "C C C 2"
_symmetry_group_IT_number 37
_symmetry_cell_setting 'orthorhombic'
loop_
_space_group_symop_operation_xyz
x,y,z
-x,-y,z
-x,y,1/2+z
x,-y,1/2+z
1/2+x,1/2+y,z
1/2-x,1/2-y,z
1/2-x,1/2+y,1/2+z
1/2+x,1/2-y,1/2+z
loop_
_atom_site_type_symbol
_atom_site_label
_atom_site_fract_x
_atom_site_fract_y
_atom_site_fract_z
Si Si1 0.308870 0.658068 0.563710
Si Si2 0.361991 0.008814 0.828420
Si Si3 0.709021 0.348670 0.263723
Si Si4 0.264865 0.344218 0.529692
Si Si5 0.363531 0.010608 0.028088
Si Si6 0.030123 0.898351 0.407291
Si Si7 0.777748 0.158182 0.842493
Si Si8 0.530966 0.600818 0.621337
O O1 0.250000 0.750000 0.556445
O O2 0.206244 0.588448 0.569416
O O3 0.390615 0.633788 0.485193
O O4 0.408782 0.649812 0.633689
O O5 0.319452 0.089592 0.775599
O O6 0.500000 0.000000 0.817202
O O7 0.284697 0.925093 0.804015
O O8 0.343243 0.020801 0.928323
O O9 0.750000 0.250000 0.269071
O O10 0.625072 0.380313 0.336485
O O11 0.629527 0.369257 0.184661
O O12 0.250000 0.250000 0.567001
O O13 0.191450 0.423042 0.562540
O O14 0.221625 0.336273 0.435070
O O15 0.398488 0.375467 0.536672
O O16 0.500000 0.000000 0.041123
O O17 0.913151 0.855805 0.366220
O O18 0.000000 0.000000 0.416054
O O19 0.750000 0.250000 0.801356
O O20 0.500000 0.500000 0.624425
#
# Coordination Sequence:
#
# PCOD9354133 Si02
#       8
#     8   8   8   8   8   8   8   8
#     4  12  25  41  70 108 137 178 230 296 353 418
#     4  10  22  41  65  99 143 176 220 283 352 418
#     4  12  27  45  68  99 136 192 235 286 354 423
#     4  10  20  38  63  94 133 177 223 270 340 411
#     4  10  21  38  63 104 142 169 212 288 357 412
#     4  12  21  42  71 104 141 176 236 291 344 420
#     4  10  21  35  64 105 135 173 216 283 352 403
#     4  12  25  46  68  93 137 183 240 291 340 417
#
# _framework density 22.219946
#
# number of rings (size 3 to 8) (size 9 to 14) (size 15 to 20)
#    0.000    1.000    5.000    2.250    3.500    1.000 
#    0.000    2.500    0.000    0.000    0.000    0.000 
#    0.000    0.000    0.000    0.000    0.000    0.000 
#
# Total GULP energy -178545.981049 kJ/mol
# GULP energy per Si atom -5579.561908 kJ/mol
# Density = 2.216937 g / cm^3
# Si number density = 22.219946 Si / 1000 Ang^3
#
#
#
# Elastic Constant Matrix: (Units=GPa)
#
#
# Indices 1 2 3 4 5 6 
#
# 1 179.8408 100.1793 19.3468 0.0000 0.0000 0.0000
# 2 100.1793 233.2163 19.7577 0.0000 0.0000 0.0000
# 3 19.3468 19.7577 26.0874 0.0000 0.0000 0.0000
# 4 0.0000 0.0000 0.0000 37.6183 0.0000 0.0000
# 5 0.0000 0.0000 0.0000 0.0000 21.8728 0.0000
# 6 0.0000 0.0000 0.0000 0.0000 0.0000 44.8463
#
#
#
# Elastic Compliance Matrix: (Units=1/GPa)
#
#
# Indices 1 2 3 4 5 6 
#
# 1 0.007577 -0.002969 -0.003370 0.000000 0.000000 0.000000
# 2 -0.002969 0.005745 -0.002149 0.000000 0.000000 0.000000
# 3 -0.003370 -0.002149 0.042460 0.000000 0.000000 0.000000
# 4 0.000000 0.000000 0.000000 0.026583 0.000000 0.000000
# 5 0.000000 0.000000 0.000000 0.000000 0.045719 0.000000
# 6 0.000000 0.000000 0.000000 0.000000 0.000000 0.022298
#
#
# Mechanical properties :
#
#
# Convention : Reuss Voigt Hill
#
# Bulk Modulus (GPa) = 25.77018 79.74578 52.75798
# Shear Modulus (GPa) = 27.73222 40.85819 34.29521
#
# Velocity S-wave (km/s) = 3.53665 4.29278 3.93293
# Velocity P-wave (km/s) = 5.31978 7.78061 6.66476
#
# Compressibility (1/GPa) = 0.03880455
#
# Stress axis : x y z
#
# Youngs Moduli (GPa) = 131.97758 174.05241 23.55147
#
# Poissons Ratio (x) = 0.51680 0.07938
# Poissons Ratio (y) = 0.39187 0.05062
# Poissons Ratio (z) = 0.44483 0.37410
#
# Static dielectric constant tensor:
#      x y z
#    x 1.835210 0.000000 0.000000 
#    y 0.000000 1.697010 0.000000 
#    z 0.000000 0.000000 2.048390 
# 
# From -- ./inp_files/15084.got.cif
#   From: 2010.05.17/outbox.cif.g08.bks.cpg/sg37_8_cif.got.tgz:15084.got - 2010.06.03 17:53:42.
