data_PCOD9354121
_publ_section_title
;
Structure prediction by ZEFSAII (Michael W. Deem and Ramdas Pophale) SiO2 
 PCOD9354121
Probable space group: C C C 2
;
_chemical_formula_sum "Si O2"
_cell_formula_units_Z 48
_cell_length_a 13.638741
_cell_length_b 9.640173
_cell_length_c 15.407420
_cell_angle_alpha 90.000000
_cell_angle_beta 90.000000
_cell_angle_gamma 90.000000
_cell_volume 2025.764851
_symmetry_space_group_name_H-M "C C C 2"
_symmetry_group_IT_number 37
_symmetry_cell_setting 'orthorhombic'
loop_
_space_group_symop_operation_xyz
x,y,z
-x,-y,z
-x,y,1/2+z
x,-y,1/2+z
1/2+x,1/2+y,z
1/2-x,1/2-y,z
1/2-x,1/2+y,1/2+z
1/2+x,1/2-y,1/2+z
loop_
_atom_site_type_symbol
_atom_site_label
_atom_site_fract_x
_atom_site_fract_y
_atom_site_fract_z
Si Si1 0.617153 0.488710 0.435480
Si Si2 0.297605 0.468858 0.605397
Si Si3 0.896645 0.709487 0.382523
Si Si4 0.458921 0.852133 0.252690
Si Si5 0.760073 0.475028 0.294340
Si Si6 0.904681 0.325520 0.071999
O O1 0.500000 0.500000 0.433601
O O2 0.653031 0.439959 0.530071
O O3 0.650551 0.648320 0.416719
O O4 0.679297 0.416664 0.360313
O O5 0.292764 0.519319 0.704417
O O6 0.186222 0.431888 0.579083
O O7 0.359011 0.325349 0.597012
O O8 0.822885 0.600985 0.337628
O O9 0.942601 0.659042 0.474085
O O10 0.979288 0.749680 0.312192
O O11 0.479788 0.844688 0.150570
O O12 0.500000 0.000000 0.284114
O O13 0.342906 0.863144 0.266890
#
# Coordination Sequence:
#
# PCOD9354121 Si02
#       6
#     8   8   8   8   8   8
#     4  11  23  38  61  86 122 163 203 246 309 368
#     4   9  19  36  59  84 113 158 206 247 302 368
#     4  10  20  39  61  88 119 159 203 244 305 375
#     4   9  20  34  56  93 117 149 202 253 305 355
#     4  10  20  38  62  87 115 158 203 256 300 369
#     4   9  17  35  60  80 119 161 195 245 307 367
#
# _framework density 23.694754
#
# number of rings (size 3 to 8) (size 9 to 14) (size 15 to 20)
#    0.000    2.333    1.667    0.500    2.333    2.667 
#    6.000    0.000    0.000    0.000    0.000    0.000 
#    0.000    0.000    0.000    0.000    0.000    0.000 
#
# Total GULP energy -133739.269025 kJ/mol
# GULP energy per Si atom -5572.469543 kJ/mol
# Density = 2.364082 g / cm^3
# Si number density = 23.694754 Si / 1000 Ang^3
#
#
#
# Elastic Constant Matrix: (Units=GPa)
#
#
# Indices 1 2 3 4 5 6 
#
# 1 95.7835 -12.2905 78.6486 0.0000 0.0000 0.0000
# 2 -12.2905 31.9390 9.5734 0.0000 0.0000 0.0000
# 3 78.6486 9.5734 225.6274 0.0000 0.0000 0.0000
# 4 0.0000 0.0000 0.0000 4.8942 0.0000 0.0000
# 5 0.0000 0.0000 0.0000 0.0000 31.2369 0.0000
# 6 0.0000 0.0000 0.0000 0.0000 0.0000 21.0060
#
#
#
# Elastic Compliance Matrix: (Units=1/GPa)
#
#
# Indices 1 2 3 4 5 6 
#
# 1 0.016495 0.008175 -0.006097 0.000000 0.000000 0.000000
# 2 0.008175 0.035765 -0.004367 0.000000 0.000000 0.000000
# 3 -0.006097 -0.004367 0.006743 0.000000 0.000000 0.000000
# 4 0.000000 0.000000 0.000000 0.204322 0.000000 0.000000
# 5 0.000000 0.000000 0.000000 0.000000 0.032013 0.000000
# 6 0.000000 0.000000 0.000000 0.000000 0.000000 0.047605
#
#
# Mechanical properties :
#
#
# Convention : Reuss Voigt Hill
#
# Bulk Modulus (GPa) = 18.37400 56.13475 37.25438
# Shear Modulus (GPa) = 13.67383 29.92200 21.79792
#
# Velocity S-wave (km/s) = 2.40486 3.55746 3.03635
# Velocity P-wave (km/s) = 3.93477 6.37309 5.29616
#
# Compressibility (1/GPa) = 0.05442472
#
# Stress axis : x y z
#
# Youngs Moduli (GPa) = 60.62343 27.96065 148.31144
#
# Poissons Ratio (x) = -0.22858 0.90422
# Poissons Ratio (y) = -0.49560 0.64769
# Poissons Ratio (z) = 0.36961 0.12211
#
# Static dielectric constant tensor:
#      x y z
#    x 1.977530 0.000000 0.000000 
#    y 0.000000 2.122470 0.000000 
#    z 0.000000 0.000000 1.983430 
# 
# From -- ./inp_files/7797.got.cif
#   From: 2010.05.17/outbox.cif.g08.bks.cpg/sg37_4_cif.got.tgz:7797.got - 2010.06.03 17:53:42.
