data_PCOD9354539
_publ_section_title
;
Structure prediction by ZEFSAII (Michael W. Deem and Ramdas Pophale) SiO2 
 PCOD9354539
Probable space group: C C C 2
;
_chemical_formula_sum "Si O2"
_cell_formula_units_Z 60
_cell_length_a 21.415423
_cell_length_b 11.596427
_cell_length_c 12.000275
_cell_angle_alpha 90.000000
_cell_angle_beta 90.000000
_cell_angle_gamma 90.000000
_cell_volume 2980.176968
_symmetry_space_group_name_H-M "C C C 2"
_symmetry_group_IT_number 37
_symmetry_cell_setting 'orthorhombic'
loop_
_space_group_symop_operation_xyz
x,y,z
-x,-y,z
-x,y,1/2+z
x,-y,1/2+z
1/2+x,1/2+y,z
1/2-x,1/2-y,z
1/2-x,1/2+y,1/2+z
1/2+x,1/2-y,1/2+z
loop_
_atom_site_type_symbol
_atom_site_label
_atom_site_fract_x
_atom_site_fract_y
_atom_site_fract_z
Si Si1 0.500000 0.500000 0.823120
Si Si2 0.672297 0.124810 0.978708
Si Si3 0.685469 0.693862 0.798289
Si Si4 0.942321 0.559780 0.329445
Si Si5 0.190559 0.885855 0.044589
Si Si6 0.605905 0.409510 0.487054
Si Si7 0.467003 0.718891 0.675481
Si Si8 0.588353 0.150335 0.181227
O O1 0.449811 0.444123 0.905205
O O2 0.474935 0.600583 0.743347
O O3 0.624559 0.072423 0.889832
O O4 0.743061 0.079657 0.989097
O O5 0.674700 0.265681 0.980788
O O6 0.637554 0.103871 0.093916
O O7 0.750000 0.750000 0.831863
O O8 0.699732 0.638298 0.676660
O O9 0.661114 0.624356 0.903218
O O10 0.627690 0.778208 0.771076
O O11 0.951091 0.682654 0.267366
O O12 0.938932 0.461302 0.237403
O O13 0.000000 0.500000 0.401186
O O14 0.134101 0.975765 0.042704
O O15 0.580857 0.314215 0.575666
O O16 0.534231 0.766866 0.631508
#
# Coordination Sequence:
#
# PCOD9354539 Si02
#       8
#     4   8   8   8   8   8   8   8
#     4  12  24  42  68  96 136 178 210 280 344 402
#     4  10  21  40  69  91 131 181 228 262 341 396
#     4  11  22  44  66  95 133 175 227 273 339 402
#     4  10  24  42  65  95 134 174 223 283 333 396
#     4  10  22  42  65 101 129 181 225 274 326 418
#     4  12  26  38  72  98 135 175 221 281 342 397
#     4  11  25  43  61 103 134 168 228 280 337 401
#     4  10  22  42  65  92 130 175 225 275 327 407
#
# _framework density 20.133032
#
# number of rings (size 3 to 8) (size 9 to 14) (size 15 to 20)
#    0.000    1.333    4.000    2.000    9.333    2.667 
#    0.000    1.333    0.000    0.000    0.000    0.000 
#    0.000    0.000    0.000    0.000    0.000    0.000 
#
# Total GULP energy -167073.114180 kJ/mol
# GULP energy per Si atom -5569.103806 kJ/mol
# Density = 2.008721 g / cm^3
# Si number density = 20.133032 Si / 1000 Ang^3
#
#
#
# Elastic Constant Matrix: (Units=GPa)
#
#
# Indices 1 2 3 4 5 6 
#
# 1 99.6157 22.7377 26.8789 0.0000 0.0000 0.0000
# 2 22.7377 63.8820 31.9944 0.0000 0.0000 0.0000
# 3 26.8789 31.9944 48.9036 0.0000 0.0000 0.0000
# 4 0.0000 0.0000 0.0000 20.0926 0.0000 0.0000
# 5 0.0000 0.0000 0.0000 0.0000 24.8553 0.0000
# 6 0.0000 0.0000 0.0000 0.0000 0.0000 -32.9072
#
#
#
# Elastic Compliance Matrix: (Units=1/GPa)
#
#
# Indices 1 2 3 4 5 6 
#
# 1 0.011873 -0.001424 -0.005594 0.000000 0.000000 0.000000
# 2 -0.001424 0.023454 -0.014561 0.000000 0.000000 0.000000
# 3 -0.005594 -0.014561 0.033049 0.000000 0.000000 0.000000
# 4 0.000000 0.000000 0.000000 0.049770 0.000000 0.000000
# 5 0.000000 0.000000 0.000000 0.000000 0.040233 0.000000
# 6 0.000000 0.000000 0.000000 0.000000 0.000000 -0.030388
#
#
# Mechanical properties :
#
#
# Convention : Reuss Voigt Hill
#
# Bulk Modulus (GPa) = 39.65578 41.73592 40.69585
# Shear Modulus (GPa) = 27.84663 11.12749 19.48706
#
# Velocity S-wave (km/s) = 3.72308 2.35350 3.11451
# Velocity P-wave (km/s) = 6.18235 5.30664 5.76115
#
# Compressibility (1/GPa) = 0.02521701
#
# Stress axis : x y z
#
# Youngs Moduli (GPa) = 84.22410 42.63728 30.25772
#
# Poissons Ratio (x) = 0.06073 0.16926
# Poissons Ratio (y) = 0.11997 0.44059
# Poissons Ratio (z) = 0.47114 0.62085
#
# Static dielectric constant tensor:
#      x y z
#    x 5.032650 0.000000 0.000000 
#    y 0.000000 1.735160 0.000000 
#    z 0.000000 0.000000 1.733590 
# 
# From -- ./inp_files/7352.got.cif
#   From: 2010.05.17/outbox.cif.g08.bks.cpg/sg37_4_cif.got.tgz:7352.got - 2010.06.03 17:53:42.
