data_PCOD9354818
_publ_section_title
;
Structure prediction by ZEFSAII (Michael W. Deem and Ramdas Pophale) SiO2 
 PCOD9354818
Probable space group: C C C 2
;
_chemical_formula_sum "Si O2"
_cell_formula_units_Z 48
_cell_length_a 14.529798
_cell_length_b 8.970893
_cell_length_c 14.007663
_cell_angle_alpha 90.000000
_cell_angle_beta 90.000000
_cell_angle_gamma 90.000000
_cell_volume 1825.832520
_symmetry_space_group_name_H-M "C C C 2"
_symmetry_group_IT_number 37
_symmetry_cell_setting 'orthorhombic'
loop_
_space_group_symop_operation_xyz
x,y,z
-x,-y,z
-x,y,1/2+z
x,-y,1/2+z
1/2+x,1/2+y,z
1/2-x,1/2-y,z
1/2-x,1/2+y,1/2+z
1/2+x,1/2-y,1/2+z
loop_
_atom_site_type_symbol
_atom_site_label
_atom_site_fract_x
_atom_site_fract_y
_atom_site_fract_z
Si Si1 0.918472 0.615993 0.427160
Si Si2 0.845320 0.847395 0.856134
Si Si3 0.729195 0.420736 0.971183
Si Si4 0.720720 0.582600 0.670043
Si Si5 0.590622 0.107083 0.707032
Si Si6 0.470575 0.327702 0.039555
O O1 0.831964 0.518351 0.460328
O O2 0.909962 0.665340 0.316645
O O3 0.000000 0.500000 0.429336
O O4 0.936081 0.739995 0.507757
O O5 0.750000 0.750000 0.858647
O O6 0.860148 0.874650 0.744020
O O7 0.915546 0.803265 0.938308
O O8 0.826811 0.016567 0.885318
O O9 0.750000 0.250000 0.954273
O O10 0.691795 0.485769 0.069695
O O11 0.750000 0.750000 0.641462
O O12 0.812802 0.489274 0.700379
O O13 0.576522 0.236839 0.627456
O O14 0.500000 0.000000 0.696993
O O15 0.500000 0.500000 0.054512
#
# Coordination Sequence:
#
# PCOD9354818 Si02
#       6
#     8   8   8   8   8   8
#     4  11  23  44  75 102 140 190 254 308 373 453
#     4  11  23  43  68 101 141 184 241 301 373 444
#     4  11  22  43  67  97 139 184 232 294 361 444
#     4  10  22  40  71 107 141 186 247 307 380 452
#     4  11  24  45  77 109 143 201 258 314 385 465
#     4  12  27  47  68 108 155 197 246 320 386 459
#
# _framework density 26.289377999999999
#
# number of rings (size 3 to 8) (size 9 to 14) (size 15 to 20)
#    0.000    1.000    1.667    5.500    7.000    2.000 
#    6.000    0.000    0.000    0.000    0.000    0.000 
#    0.000    0.000    0.000    0.000    0.000    0.000 
#
# Total GULP energy -133863.232744 kJ/mol
# GULP energy per Si atom -5577.634698 kJ/mol
# Density = 2.622954 g / cm^3
# Si number density = 26.289378 Si / 1000 Ang^3
#
#
#
# Elastic Constant Matrix: (Units=GPa)
#
#
# Indices 1 2 3 4 5 6 
#
# 1 86.0113 14.7365 20.4082 0.0000 0.0000 0.0000
# 2 14.7365 139.9987 44.9671 0.0000 0.0000 0.0000
# 3 20.4082 44.9671 155.4873 0.0000 0.0000 0.0000
# 4 0.0000 0.0000 0.0000 32.3852 0.0000 0.0000
# 5 0.0000 0.0000 0.0000 0.0000 40.6341 0.0000
# 6 0.0000 0.0000 0.0000 0.0000 0.0000 20.9553
#
#
#
# Elastic Compliance Matrix: (Units=1/GPa)
#
#
# Indices 1 2 3 4 5 6 
#
# 1 0.012089 -0.000841 -0.001344 0.000000 0.000000 0.000000
# 2 -0.000841 0.007933 -0.002184 0.000000 0.000000 0.000000
# 3 -0.001344 -0.002184 0.007239 0.000000 0.000000 0.000000
# 4 0.000000 0.000000 0.000000 0.030878 0.000000 0.000000
# 5 0.000000 0.000000 0.000000 0.000000 0.024610 0.000000
# 6 0.000000 0.000000 0.000000 0.000000 0.000000 0.047721
#
#
# Mechanical properties :
#
#
# Convention : Reuss Voigt Hill
#
# Bulk Modulus (GPa) = 53.98186 60.19121 57.08654
# Shear Modulus (GPa) = 34.39219 38.88729 36.63974
#
# Velocity S-wave (km/s) = 3.62085 3.85021 3.73729
# Velocity P-wave (km/s) = 6.16920 6.53535 6.35492
#
# Compressibility (1/GPa) = 0.01852474
#
# Stress axis : x y z
#
# Youngs Moduli (GPa) = 82.71812 126.05758 138.13496
#
# Poissons Ratio (x) = 0.10601 0.18559
# Poissons Ratio (y) = 0.06957 0.30166
# Poissons Ratio (z) = 0.11113 0.27529
#
# Static dielectric constant tensor:
#      x y z
#    x 2.376950 0.000000 0.000000 
#    y 0.000000 2.160730 0.000000 
#    z 0.000000 0.000000 2.031530 
# 
# From -- ./inp_files/12549.got.cif
#   From: 2010.05.17/outbox.cif.g08.bks.cpg/sg37_7_cif.got.tgz:12549.got - 2010.06.03 17:53:42.
