data_PCOD9354077
_publ_section_title
;
Structure prediction by ZEFSAII (Michael W. Deem and Ramdas Pophale) SiO2 
 PCOD9354077
Probable space group: C C C 2
;
_chemical_formula_sum "Si O2"
_cell_formula_units_Z 40
_cell_length_a 5.017884
_cell_length_b 16.077171
_cell_length_c 22.889261
_cell_angle_alpha 90.000000
_cell_angle_beta 90.000000
_cell_angle_gamma 90.000000
_cell_volume 1846.554031
_symmetry_space_group_name_H-M "C C C 2"
_symmetry_group_IT_number 37
_symmetry_cell_setting 'orthorhombic'
loop_
_space_group_symop_operation_xyz
x,y,z
-x,-y,z
-x,y,1/2+z
x,-y,1/2+z
1/2+x,1/2+y,z
1/2-x,1/2-y,z
1/2-x,1/2+y,1/2+z
1/2+x,1/2-y,1/2+z
loop_
_atom_site_type_symbol
_atom_site_label
_atom_site_fract_x
_atom_site_fract_y
_atom_site_fract_z
Si Si1 0.314417 0.346455 0.241240
Si Si2 0.159076 0.587417 0.183481
Si Si3 0.500453 0.308197 0.366674
Si Si4 0.997863 0.601710 0.056980
Si Si5 0.503263 0.399683 0.985673
O O1 0.250000 0.250000 0.226096
O O2 0.530797 0.394647 0.199674
O O3 0.423058 0.353633 0.306675
O O4 0.015673 0.379939 0.236854
O O5 0.090799 0.629733 0.121155
O O6 0.000000 0.500000 0.175733
O O7 0.750000 0.250000 0.353949
O O8 0.560714 0.365223 0.422095
O O9 0.250000 0.250000 0.381716
O O10 0.000000 0.500000 0.056575
O O11 0.209778 0.628298 0.008442
O O12 0.708797 0.627393 0.034860
O O13 0.500000 0.500000 0.983504
#
# Coordination Sequence:
#
# PCOD9354077 Si02
#       5
#     8   8   8   8   8
#     4  11  23  41  60  85 122 161 196 243 306 358
#     4  11  22  39  64  90 118 155 202 247 293 359
#     4  11  23  41  60  81 117 157 191 237 297 350
#     4   9  19  36  58  86 119 150 183 239 303 344
#     4  10  20  37  61  86 113 149 194 238 286 349
#
# _framework density 21.661973
#
# number of rings (size 3 to 8) (size 9 to 14) (size 15 to 20)
#    0.000    1.600    0.000    6.000    0.000    4.800 
#    0.000   12.000    0.000    0.000    0.000    0.000 
#    0.000    0.000    0.000    0.000    0.000    0.000 
#
# Total GULP energy -111444.663882 kJ/mol
# GULP energy per Si atom -5572.233194 kJ/mol
# Density = 2.161267 g / cm^3
# Si number density = 21.661973 Si / 1000 Ang^3
#
#
#
# Elastic Constant Matrix: (Units=GPa)
#
#
# Indices 1 2 3 4 5 6 
#
# 1 90.3854 -6.6994 6.6974 0.0000 0.0000 0.0000
# 2 -6.6994 10.9317 6.8958 0.0000 0.0000 0.0000
# 3 6.6974 6.8958 107.4815 0.0000 0.0000 0.0000
# 4 0.0000 0.0000 0.0000 21.7415 0.0000 0.0000
# 5 0.0000 0.0000 0.0000 0.0000 32.7575 0.0000
# 6 0.0000 0.0000 0.0000 0.0000 0.0000 28.9650
#
#
#
# Elastic Compliance Matrix: (Units=1/GPa)
#
#
# Indices 1 2 3 4 5 6 
#
# 1 0.011748 0.007984 -0.001244 0.000000 0.000000 0.000000
# 2 0.007984 0.100762 -0.006962 0.000000 0.000000 0.000000
# 3 -0.001244 -0.006962 0.009828 0.000000 0.000000 0.000000
# 4 0.000000 0.000000 0.000000 0.045995 0.000000 0.000000
# 5 0.000000 0.000000 0.000000 0.000000 0.030527 0.000000
# 6 0.000000 0.000000 0.000000 0.000000 0.000000 0.034524
#
#
# Mechanical properties :
#
#
# Convention : Reuss Voigt Hill
#
# Bulk Modulus (GPa) = 8.20388 24.73181 16.46784
# Shear Modulus (GPa) = 18.21759 30.15311 24.18535
#
# Velocity S-wave (km/s) = 2.90314 3.73498 3.34502
# Velocity P-wave (km/s) = 3.87725 5.48106 4.74737
#
# Compressibility (1/GPa) = 0.12189355
#
# Stress axis : x y z
#
# Youngs Moduli (GPa) = 85.12268 9.92439 101.74860
#
# Poissons Ratio (x) = -0.07924 0.12661
# Poissons Ratio (y) = -0.67966 0.70840
# Poissons Ratio (z) = 0.10592 0.06910
#
# Static dielectric constant tensor:
#      x y z
#    x 1.775790 0.000000 0.000000 
#    y 0.000000 1.941550 0.000000 
#    z 0.000000 0.000000 1.777730 
# 
# From -- ./inp_files/13715.got.cif
#   From: 2010.05.17/outbox.cif.g08.bks.cpg/sg37_7_cif.got.tgz:13715.got - 2010.06.03 17:53:42.
