data_PCOD9354908
_publ_section_title
;
Structure prediction by ZEFSAII (Michael W. Deem and Ramdas Pophale) SiO2 
 PCOD9354908
Probable space group: C C C 2
;
_chemical_formula_sum "Si O2"
_cell_formula_units_Z 36
_cell_length_a 5.212455
_cell_length_b 20.162313
_cell_length_c 15.169575
_cell_angle_alpha 90.000000
_cell_angle_beta 90.000000
_cell_angle_gamma 90.000000
_cell_volume 1594.248748
_symmetry_space_group_name_H-M "C C C 2"
_symmetry_group_IT_number 37
_symmetry_cell_setting 'orthorhombic'
loop_
_space_group_symop_operation_xyz
x,y,z
-x,-y,z
-x,y,1/2+z
x,-y,1/2+z
1/2+x,1/2+y,z
1/2-x,1/2-y,z
1/2-x,1/2+y,1/2+z
1/2+x,1/2-y,1/2+z
loop_
_atom_site_type_symbol
_atom_site_label
_atom_site_fract_x
_atom_site_fract_y
_atom_site_fract_z
Si Si1 0.443651 0.639408 0.327620
Si Si2 0.500000 0.500000 0.768753
Si Si3 0.139879 0.356803 0.653223
Si Si4 0.000000 0.500000 0.147984
Si Si5 0.501260 0.295023 0.010342
Si Si6 0.750000 0.250000 0.718997
O O1 0.547076 0.565119 0.325573
O O2 0.211028 0.633656 0.256906
O O3 0.420301 0.659103 0.428348
O O4 0.609677 0.696603 0.280918
O O5 0.256843 0.499335 0.704918
O O6 0.016943 0.423760 0.610860
O O7 0.388328 0.336793 0.594299
O O8 0.952683 0.293817 0.663215
O O9 0.750000 0.250000 0.986049
O O10 0.250000 0.250000 0.018022
#
# Coordination Sequence:
#
# PCOD9354908 Si02
#       6
#     8   4   8   4   8   4
#     4  11  24  45  72 109 144 194 241 307 366 442
#     4  10  22  42  76 102 148 184 246 294 376 432
#     4  11  26  44  80 106 151 190 253 305 376 444
#     4  10  22  46  70 110 140 196 234 304 368 444
#     4  12  28  44  70 110 148 192 250 311 365 442
#     4  12  20  44  76 108 134 200 238 300 376 428
#
# _framework density 22.581168999999999
#
# number of rings (size 3 to 8) (size 9 to 14) (size 15 to 20)
#    0.000    0.889    3.333    3.333    6.222    0.000 
#    0.000    7.778    0.000    0.000    0.000    0.000 
#    0.000    0.000    0.000    0.000    0.000    0.000 
#
# Total GULP energy -100293.745318 kJ/mol
# GULP energy per Si atom -5571.874740 kJ/mol
# Density = 2.252977 g / cm^3
# Si number density = 22.581169 Si / 1000 Ang^3
#
#
#
# Elastic Constant Matrix: (Units=GPa)
#
#
# Indices 1 2 3 4 5 6 
#
# 1 115.3317 41.6066 20.2708 0.0000 0.0000 0.0000
# 2 41.6066 190.0197 24.8709 0.0000 0.0000 0.0000
# 3 20.2708 24.8709 89.2620 0.0000 0.0000 0.0000
# 4 0.0000 0.0000 0.0000 7.9508 0.0000 0.0000
# 5 0.0000 0.0000 0.0000 0.0000 -11.6272 0.0000
# 6 0.0000 0.0000 0.0000 0.0000 0.0000 37.9035
#
#
#
# Elastic Compliance Matrix: (Units=1/GPa)
#
#
# Indices 1 2 3 4 5 6 
#
# 1 0.009646 -0.001895 -0.001663 0.000000 0.000000 0.000000
# 2 -0.001895 0.005834 -0.001195 0.000000 0.000000 0.000000
# 3 -0.001663 -0.001195 0.011914 0.000000 0.000000 0.000000
# 4 0.000000 0.000000 0.000000 0.125773 0.000000 0.000000
# 5 0.000000 0.000000 0.000000 0.000000 -0.086005 0.000000
# 6 0.000000 0.000000 0.000000 0.000000 0.000000 0.026383
#
#
# Mechanical properties :
#
#
# Convention : Reuss Voigt Hill
#
# Bulk Modulus (GPa) = 55.90098 63.12333 59.51215
# Shear Modulus (GPa) = 45.86629 27.36975 36.61802
#
# Velocity S-wave (km/s) = 4.51174 3.48524 4.03130
# Velocity P-wave (km/s) = 7.20766 6.64910 6.93401
#
# Compressibility (1/GPa) = 0.01788878
#
# Stress axis : x y z
#
# Youngs Moduli (GPa) = 103.66608 171.41254 83.93763
#
# Poissons Ratio (x) = 0.32475 0.13957
# Poissons Ratio (y) = 0.19640 0.10033
# Poissons Ratio (z) = 0.17237 0.20488
#
# Static dielectric constant tensor:
#      x y z
#    x 1.873400 0.000000 0.000000 
#    y 0.000000 2.357870 0.000000 
#    z 0.000000 0.000000 1.899500 
# 
# From -- ./inp_files/9571.got.cif
#   From: 2010.05.17/outbox.cif.g08.bks.cpg/sg37_5_cif.got.tgz:9571.got - 2010.06.03 17:53:42.
