data_PCOD9354562
_publ_section_title
;
Structure prediction by ZEFSAII (Michael W. Deem and Ramdas Pophale) SiO2 
 PCOD9354562
Probable space group: C C C 2
;
_chemical_formula_sum "Si O2"
_cell_formula_units_Z 60
_cell_length_a 8.216424
_cell_length_b 26.253693
_cell_length_c 12.203416
_cell_angle_alpha 90.000000
_cell_angle_beta 90.000000
_cell_angle_gamma 90.000000
_cell_volume 2632.416844
_symmetry_space_group_name_H-M "C C C 2"
_symmetry_group_IT_number 37
_symmetry_cell_setting 'orthorhombic'
loop_
_space_group_symop_operation_xyz
x,y,z
-x,-y,z
-x,y,1/2+z
x,-y,1/2+z
1/2+x,1/2+y,z
1/2-x,1/2-y,z
1/2-x,1/2+y,1/2+z
1/2+x,1/2-y,1/2+z
loop_
_atom_site_type_symbol
_atom_site_label
_atom_site_fract_x
_atom_site_fract_y
_atom_site_fract_z
Si Si1 0.500000 0.000000 0.915401
Si Si2 0.274999 0.446851 0.780686
Si Si3 0.210669 0.669605 0.340546
Si Si4 0.595565 0.277651 0.144577
Si Si5 0.842679 0.414728 0.051499
Si Si6 0.453538 0.173530 0.176747
Si Si7 0.981745 0.057451 0.953750
Si Si8 0.152767 0.146667 0.064290
O O1 0.658392 0.987350 0.841539
O O2 0.472293 0.950609 0.991056
O O3 0.226659 0.389957 0.816367
O O4 0.236853 0.445942 0.652890
O O5 0.457399 0.447256 0.827922
O O6 0.331149 0.701431 0.260495
O O7 0.255807 0.676310 0.465824
O O8 0.028491 0.678292 0.298436
O O9 0.750000 0.250000 0.090056
O O10 0.463548 0.232700 0.144029
O O11 0.515802 0.325794 0.089126
O O12 0.927419 0.363688 0.102245
O O13 0.690009 0.414076 0.968071
O O14 0.275835 0.150255 0.165185
O O15 0.110179 0.090989 0.022063
O O16 0.000000 0.000000 0.995963
#
# Coordination Sequence:
#
# PCOD9354562 Si02
#       8
#     4   8   8   8   8   8   8   8
#     4  12  22  42  62  94 128 170 224 276 324 420
#     4  10  22  41  60  92 123 174 219 271 336 396
#     4   9  21  42  63  88 134 173 223 279 337 392
#     4  10  21  41  66  98 133 173 225 282 331 414
#     4  11  23  42  65  89 136 171 218 279 340 391
#     4  10  22  39  65  98 128 174 228 272 339 403
#     4  11  22  41  62  96 129 173 229 270 328 415
#     4  11  22  42  69  96 139 180 220 284 349 402
#
# _framework density 22.792743000000002
#
# number of rings (size 3 to 8) (size 9 to 14) (size 15 to 20)
#    0.000    1.600    1.333    4.800    0.000    3.733 
#    0.000   13.333    0.000    0.000    0.000    0.000 
#    0.000    0.000    0.000    0.000    0.000    0.000 
#
# Total GULP energy -167213.510730 kJ/mol
# GULP energy per Si atom -5573.783691 kJ/mol
# Density = 2.274087 g / cm^3
# Si number density = 22.792743 Si / 1000 Ang^3
#
#
#
# Elastic Constant Matrix: (Units=GPa)
#
#
# Indices 1 2 3 4 5 6 
#
# 1 79.0394 4.8561 18.2523 0.0000 0.0000 0.0000
# 2 4.8561 103.9540 4.5393 0.0000 0.0000 0.0000
# 3 18.2523 4.5393 68.9887 0.0000 0.0000 0.0000
# 4 0.0000 0.0000 0.0000 16.8397 0.0000 0.0000
# 5 0.0000 0.0000 0.0000 0.0000 16.7780 0.0000
# 6 0.0000 0.0000 0.0000 0.0000 0.0000 39.2871
#
#
#
# Elastic Compliance Matrix: (Units=1/GPa)
#
#
# Indices 1 2 3 4 5 6 
#
# 1 0.013499 -0.000476 -0.003540 0.000000 0.000000 0.000000
# 2 -0.000476 0.009664 -0.000510 0.000000 0.000000 0.000000
# 3 -0.003540 -0.000510 0.015465 0.000000 0.000000 0.000000
# 4 0.000000 0.000000 0.000000 0.059384 0.000000 0.000000
# 5 0.000000 0.000000 0.000000 0.000000 0.059602 0.000000
# 6 0.000000 0.000000 0.000000 0.000000 0.000000 0.025454
#
#
# Mechanical properties :
#
#
# Convention : Reuss Voigt Hill
#
# Bulk Modulus (GPa) = 33.81103 34.14195 33.97649
# Shear Modulus (GPa) = 24.75522 29.53659 27.14590
#
# Velocity S-wave (km/s) = 3.29918 3.60373 3.45481
# Velocity P-wave (km/s) = 5.42025 5.68574 5.55458
#
# Compressibility (1/GPa) = 0.02957614
#
# Stress axis : x y z
#
# Youngs Moduli (GPa) = 74.08151 103.47532 64.66105
#
# Poissons Ratio (x) = 0.04925 0.22890
# Poissons Ratio (y) = 0.03526 0.03297
# Poissons Ratio (z) = 0.26225 0.05277
#
# Static dielectric constant tensor:
#      x y z
#    x 1.938120 0.000000 0.000000 
#    y 0.000000 1.876860 0.000000 
#    z 0.000000 0.000000 1.894740 
# 
# From -- ./inp_files/6547.got.cif
#   From: 2010.05.17/outbox.cif.g08.bks.cpg/sg37_4_cif.got.tgz:6547.got - 2010.06.03 17:53:42.
