data_PCOD9354468
_publ_section_title
;
Structure prediction by ZEFSAII (Michael W. Deem and Ramdas Pophale) SiO2 
 PCOD9354468
Probable space group: C C C 2
;
_chemical_formula_sum "Si O2"
_cell_formula_units_Z 60
_cell_length_a 11.761162
_cell_length_b 8.235202
_cell_length_c 27.180282
_cell_angle_alpha 90.000000
_cell_angle_beta 90.000000
_cell_angle_gamma 90.000000
_cell_volume 2632.561022
_symmetry_space_group_name_H-M "C C C 2"
_symmetry_group_IT_number 37
_symmetry_cell_setting 'orthorhombic'
loop_
_space_group_symop_operation_xyz
x,y,z
-x,-y,z
-x,y,1/2+z
x,-y,1/2+z
1/2+x,1/2+y,z
1/2-x,1/2-y,z
1/2-x,1/2+y,1/2+z
1/2+x,1/2-y,1/2+z
loop_
_atom_site_type_symbol
_atom_site_label
_atom_site_fract_x
_atom_site_fract_y
_atom_site_fract_z
Si Si1 0.362973 0.549773 0.902650
Si Si2 0.500000 0.500000 0.259578
Si Si3 0.203504 0.080743 0.104468
Si Si4 0.877634 0.949764 0.510820
Si Si5 0.424755 0.778948 0.826650
Si Si6 0.815713 0.397616 0.326763
Si Si7 0.122240 0.824299 0.174445
Si Si8 0.416045 0.140850 0.580469
O O1 0.500000 0.500000 0.897095
O O2 0.370956 0.727583 0.878405
O O3 0.273430 0.440724 0.871024
O O4 0.315647 0.555413 0.958719
O O5 0.576367 0.615987 0.293754
O O6 0.564166 0.369469 0.225246
O O7 0.250000 0.250000 0.121272
O O8 0.147204 0.090052 0.051005
O O9 0.132080 0.995528 0.146153
O O10 0.301530 0.953588 0.092078
O O11 0.889060 0.782594 0.541610
O O12 0.000000 0.000000 0.493103
O O13 0.556149 0.829823 0.836235
O O14 0.351507 0.927242 0.804170
O O15 0.750000 0.250000 0.299830
O O16 0.250000 0.750000 0.180114
O O17 0.053376 0.715958 0.134154
O O18 0.500000 0.000000 0.563163
#
# Coordination Sequence:
#
# PCOD9354468 Si02
#       8
#     8   4   8   8   8   8   8   8
#     4  11  22  44  69  98 138 183 236 288 352 414
#     4  12  24  46  74  98 138 172 242 292 360 434
#     4  10  21  39  62  95 136 175 223 270 348 408
#     4  10  22  38  63  98 135 178 227 279 334 415
#     4  11  25  44  69 106 129 188 230 287 369 417
#     4  11  23  45  72  92 140 178 227 293 345 426
#     4   9  23  43  68  99 131 171 222 287 341 418
#     4  10  21  40  65  95 138 179 218 281 340 411
#
# _framework density 22.791494
#
# number of rings (size 3 to 8) (size 9 to 14) (size 15 to 20)
#    0.000    1.600    2.000    2.400    5.600    4.267 
#    7.200    2.667    0.000    0.000    0.000    0.000 
#    0.000    0.000    0.000    0.000    0.000    0.000 
#
# Total GULP energy -167119.399821 kJ/mol
# GULP energy per Si atom -5570.646661 kJ/mol
# Density = 2.273962 g / cm^3
# Si number density = 22.791494 Si / 1000 Ang^3
#
#
#
# Elastic Constant Matrix: (Units=GPa)
#
#
# Indices 1 2 3 4 5 6 
#
# 1 99.4936 20.9439 16.6801 0.0000 0.0000 0.0000
# 2 20.9439 110.4962 10.6382 0.0000 0.0000 0.0000
# 3 16.6801 10.6382 95.1052 0.0000 0.0000 0.0000
# 4 0.0000 0.0000 0.0000 35.8789 0.0000 0.0000
# 5 0.0000 0.0000 0.0000 0.0000 9.8035 0.0000
# 6 0.0000 0.0000 0.0000 0.0000 0.0000 49.6526
#
#
#
# Elastic Compliance Matrix: (Units=1/GPa)
#
#
# Indices 1 2 3 4 5 6 
#
# 1 0.010725 -0.001872 -0.001672 0.000000 0.000000 0.000000
# 2 -0.001872 0.009475 -0.000732 0.000000 0.000000 0.000000
# 3 -0.001672 -0.000732 0.010890 0.000000 0.000000 0.000000
# 4 0.000000 0.000000 0.000000 0.027872 0.000000 0.000000
# 5 0.000000 0.000000 0.000000 0.000000 0.102004 0.000000
# 6 0.000000 0.000000 0.000000 0.000000 0.000000 0.020140
#
#
# Mechanical properties :
#
#
# Convention : Reuss Voigt Hill
#
# Bulk Modulus (GPa) = 44.36584 44.62437 44.49511
# Shear Modulus (GPa) = 25.35887 36.18920 30.77404
#
# Velocity S-wave (km/s) = 3.33925 3.98909 3.67855
# Velocity P-wave (km/s) = 5.86308 6.39054 6.13249
#
# Compressibility (1/GPa) = 0.02253986
#
# Stress axis : x y z
#
# Youngs Moduli (GPa) = 93.23831 105.53713 91.83002
#
# Poissons Ratio (x) = 0.19756 0.15351
# Poissons Ratio (y) = 0.17454 0.06718
# Poissons Ratio (z) = 0.15586 0.07721
#
# Static dielectric constant tensor:
#      x y z
#    x 2.004560 0.000000 0.000000 
#    y 0.000000 1.819530 0.000000 
#    z 0.000000 0.000000 1.927160 
# 
# From -- ./inp_files/19790.got.cif
#   From: 2010.05.17/outbox.cif.g08.bks.cpg/sg37_10_cif.got.tgz:19790.got - 2010.06.03 17:53:42.
