data_PCOD9354657
_publ_section_title
;
Structure prediction by ZEFSAII (Michael W. Deem and Ramdas Pophale) SiO2 
 PCOD9354657
Probable space group: C C C 2
;
_chemical_formula_sum "Si O2"
_cell_formula_units_Z 48
_cell_length_a 11.687100
_cell_length_b 14.033357
_cell_length_c 14.729644
_cell_angle_alpha 90.000000
_cell_angle_beta 90.000000
_cell_angle_gamma 90.000000
_cell_volume 2415.797815
_symmetry_space_group_name_H-M "C C C 2"
_symmetry_group_IT_number 37
_symmetry_cell_setting 'orthorhombic'
loop_
_space_group_symop_operation_xyz
x,y,z
-x,-y,z
-x,y,1/2+z
x,-y,1/2+z
1/2+x,1/2+y,z
1/2-x,1/2-y,z
1/2-x,1/2+y,1/2+z
1/2+x,1/2-y,1/2+z
loop_
_atom_site_type_symbol
_atom_site_label
_atom_site_fract_x
_atom_site_fract_y
_atom_site_fract_z
Si Si1 0.750000 0.750000 0.056911
Si Si2 0.208867 0.956008 0.907454
Si Si3 0.085730 0.584501 0.468282
Si Si4 0.866915 0.800170 0.528670
Si Si5 0.596205 0.179222 0.848298
Si Si6 0.942079 0.810934 0.176694
Si Si7 0.500000 0.500000 0.285157
O O1 0.825227 0.819405 0.120176
O O2 0.849516 0.680750 0.010445
O O3 0.282645 0.876432 0.851831
O O4 0.111132 0.004339 0.848817
O O5 0.304192 0.027917 0.938098
O O6 0.156346 0.907568 0.997421
O O7 0.000000 0.500000 0.514431
O O8 0.008853 0.614403 0.381824
O O9 0.750000 0.750000 0.558244
O O10 0.900124 0.752051 0.433014
O O11 0.959687 0.785788 0.605025
O O12 0.575070 0.231179 0.754024
O O13 0.981069 0.907057 0.225251
#
# Coordination Sequence:
#
# PCOD9354657 Si02
#       7
#     4   8   8   8   8   8   4
#     4  12  26  44  72 102 138 192 228 298 352 436
#     4  10  23  42  71  94 138 178 220 283 350 414
#     4  10  24  45  74 103 135 184 239 286 357 424
#     4  10  22  43  67  92 133 177 214 279 343 407
#     4  10  21  49  69  92 134 181 224 279 346 415
#     4  12  26  41  67 104 134 177 237 280 350 419
#     4  12  26  38  64 104 136 176 226 282 342 416
#
# _framework density 19.869212999999998
#
# number of rings (size 3 to 8) (size 9 to 14) (size 15 to 20)
#    0.000    1.333    3.333    1.000    8.167    1.333 
#    0.000    4.167    0.000    0.000    0.000    0.000 
#    0.000    0.000    0.000    0.000    0.000    0.000 
#
# Total GULP energy -133638.833338 kJ/mol
# GULP energy per Si atom -5568.284722 kJ/mol
# Density = 1.982399 g / cm^3
# Si number density = 19.869213 Si / 1000 Ang^3
#
#
#
# Elastic Constant Matrix: (Units=GPa)
#
#
# Indices 1 2 3 4 5 6 
#
# 1 138.4464 43.6349 59.2732 0.0000 0.0000 0.0000
# 2 43.6349 86.4033 30.0960 0.0000 0.0000 0.0000
# 3 59.2732 30.0960 60.7611 0.0000 0.0000 0.0000
# 4 0.0000 0.0000 0.0000 16.9654 0.0000 0.0000
# 5 0.0000 0.0000 0.0000 0.0000 38.9680 0.0000
# 6 0.0000 0.0000 0.0000 0.0000 0.0000 36.2343
#
#
#
# Elastic Compliance Matrix: (Units=1/GPa)
#
#
# Indices 1 2 3 4 5 6 
#
# 1 0.012858 -0.002567 -0.011271 0.000000 0.000000 0.000000
# 2 -0.002567 0.014499 -0.004677 0.000000 0.000000 0.000000
# 3 -0.011271 -0.004677 0.029770 0.000000 0.000000 0.000000
# 4 0.000000 0.000000 0.000000 0.058943 0.000000 0.000000
# 5 0.000000 0.000000 0.000000 0.000000 0.025662 0.000000
# 6 0.000000 0.000000 0.000000 0.000000 0.000000 0.027598
#
#
# Mechanical properties :
#
#
# Convention : Reuss Voigt Hill
#
# Bulk Modulus (GPa) = 49.76310 61.29103 55.52706
# Shear Modulus (GPa) = 23.46747 28.60733 26.03740
#
# Velocity S-wave (km/s) = 3.44044 3.79856 3.62393
# Velocity P-wave (km/s) = 6.39389 7.08188 6.74666
#
# Compressibility (1/GPa) = 0.02009521
#
# Stress axis : x y z
#
# Youngs Moduli (GPa) = 77.77410 68.96844 33.59099
#
# Poissons Ratio (x) = 0.17707 0.37861
# Poissons Ratio (y) = 0.19967 0.15712
# Poissons Ratio (z) = 0.87661 0.32259
#
# Static dielectric constant tensor:
#      x y z
#    x 1.704570 0.000000 0.000000 
#    y 0.000000 1.816310 0.000000 
#    z 0.000000 0.000000 1.700470 
# 
# From -- ./inp_files/11534.got.cif
#   From: 2010.05.17/outbox.cif.g08.bks.cpg/sg37_6_cif.got.tgz:11534.got - 2010.06.03 17:53:42.
