data_PCOD9354356
_publ_section_title
;
Structure prediction by ZEFSAII (Michael W. Deem and Ramdas Pophale) SiO2 
 PCOD9354356
Probable space group: C C C 2
;
_chemical_formula_sum "Si O2"
_cell_formula_units_Z 56
_cell_length_a 5.003897
_cell_length_b 16.527449
_cell_length_c 33.490548
_cell_angle_alpha 90.000000
_cell_angle_beta 90.000000
_cell_angle_gamma 90.000000
_cell_volume 2769.723662
_symmetry_space_group_name_H-M "C C C 2"
_symmetry_group_IT_number 37
_symmetry_cell_setting 'orthorhombic'
loop_
_space_group_symop_operation_xyz
x,y,z
-x,-y,z
-x,y,1/2+z
x,-y,1/2+z
1/2+x,1/2+y,z
1/2-x,1/2-y,z
1/2-x,1/2+y,1/2+z
1/2+x,1/2-y,1/2+z
loop_
_atom_site_type_symbol
_atom_site_label
_atom_site_fract_x
_atom_site_fract_y
_atom_site_fract_z
Si Si1 0.992933 0.192447 0.316670
Si Si2 0.250423 0.442226 0.463141
Si Si3 0.495282 0.305844 0.906509
Si Si4 0.743803 0.846748 0.631447
Si Si5 0.754394 0.442314 0.052086
Si Si6 0.244060 0.944631 0.760908
Si Si7 0.252844 0.652415 0.682267
O O1 0.250000 0.250000 0.317258
O O2 0.099362 0.113908 0.293216
O O3 0.750000 0.250000 0.300661
O O4 0.909525 0.166923 0.361865
O O5 0.500000 0.500000 0.468909
O O6 0.375771 0.375983 0.433488
O O7 0.186907 0.407812 0.507495
O O8 0.000000 0.500000 0.450196
O O9 0.250000 0.250000 0.922840
O O10 0.750000 0.250000 0.900348
O O11 0.750000 0.750000 0.629888
O O12 0.789963 0.879443 0.587331
O O13 0.458176 0.871247 0.648461
O O14 0.962052 0.872098 0.664270
O O15 0.500000 0.500000 0.050597
O O16 0.000000 0.500000 0.062510
O O17 0.324695 0.888720 0.723696
O O18 0.500000 0.000000 0.773639
O O19 0.000000 0.000000 0.746652
O O20 0.250000 0.750000 0.687594
#
# Coordination Sequence:
#
# PCOD9354356 Si02
#       7
#     8   8   8   8   8   8   8
#     4  10  22  41  62  83 116 158 192 231 293 355
#     4  10  21  37  57  84 118 154 189 232 293 353
#     4  10  21  38  61  88 114 150 198 240 284 343
#     4  10  21  37  57  81 107 144 192 234 278 337
#     4  10  21  36  55  80 112 149 185 227 286 345
#     4  12  25  38  58  90 117 144 193 244 286 339
#     4  10  22  39  57  78 111 151 186 228 289 348
#
# _framework density 20.218623999999998
#
# number of rings (size 3 to 8) (size 9 to 14) (size 15 to 20)
#    0.000    1.714    0.000    3.857    0.000    6.857 
#    0.000    2.143    0.000    0.000    0.000    0.000 
#    0.000    0.000    0.000    0.000    0.000    0.000 
#
# Total GULP energy -156048.232740 kJ/mol
# GULP energy per Si atom -5573.151169 kJ/mol
# Density = 2.017261 g / cm^3
# Si number density = 20.218624 Si / 1000 Ang^3
#
#
#
# Elastic Constant Matrix: (Units=GPa)
#
#
# Indices 1 2 3 4 5 6 
#
# 1 126.4282 35.6743 8.0485 0.0000 0.0000 0.0000
# 2 35.6743 66.7461 61.1808 0.0000 0.0000 0.0000
# 3 8.0485 61.1808 100.1113 0.0000 0.0000 0.0000
# 4 0.0000 0.0000 0.0000 88.8641 0.0000 0.0000
# 5 0.0000 0.0000 0.0000 0.0000 26.7030 0.0000
# 6 0.0000 0.0000 0.0000 0.0000 0.0000 32.3952
#
#
#
# Elastic Compliance Matrix: (Units=1/GPa)
#
#
# Indices 1 2 3 4 5 6 
#
# 1 0.010688 -0.011198 0.005984 0.000000 0.000000 0.000000
# 2 -0.011198 0.045795 -0.027086 0.000000 0.000000 0.000000
# 3 0.005984 -0.027086 0.026061 0.000000 0.000000 0.000000
# 4 0.000000 0.000000 0.000000 0.011253 0.000000 0.000000
# 5 0.000000 0.000000 0.000000 0.000000 0.037449 0.000000
# 6 0.000000 0.000000 0.000000 0.000000 0.000000 0.030869
#
#
# Mechanical properties :
#
#
# Convention : Reuss Voigt Hill
#
# Bulk Modulus (GPa) = 55.72848 55.89919 55.81384
# Shear Modulus (GPa) = 21.48724 42.15126 31.81925
#
# Velocity S-wave (km/s) = 3.26351 4.57089 3.97137
# Velocity P-wave (km/s) = 6.46711 7.45418 6.97812
#
# Compressibility (1/GPa) = 0.01794415
#
# Stress axis : x y z
#
# Youngs Moduli (GPa) = 93.56011 21.83654 38.37159
#
# Poissons Ratio (x) = 0.24452 -0.22961
# Poissons Ratio (y) = 1.04765 1.03934
# Poissons Ratio (z) = -0.55985 0.59147
#
# Static dielectric constant tensor:
#      x y z
#    x 1.712620 0.000000 0.000000 
#    y 0.000000 1.703680 0.000000 
#    z 0.000000 0.000000 1.761620 
# 
# From -- ./inp_files/20164.got.cif
#   From: 2010.05.17/outbox.cif.g08.bks.cpg/sg37_11_cif.got.tgz:20164.got - 2010.06.03 17:53:42.
