data_PCOD9354842
_publ_section_title
;
Structure prediction by ZEFSAII (Michael W. Deem and Ramdas Pophale) SiO2 
 PCOD9354842
Probable space group: C C C 2
;
_chemical_formula_sum "Si O2"
_cell_formula_units_Z 60
_cell_length_a 24.251007
_cell_length_b 10.978258
_cell_length_c 10.035123
_cell_angle_alpha 90.000000
_cell_angle_beta 90.000000
_cell_angle_gamma 90.000000
_cell_volume 2671.689046
_symmetry_space_group_name_H-M "C C C 2"
_symmetry_group_IT_number 37
_symmetry_cell_setting 'orthorhombic'
loop_
_space_group_symop_operation_xyz
x,y,z
-x,-y,z
-x,y,1/2+z
x,-y,1/2+z
1/2+x,1/2+y,z
1/2-x,1/2-y,z
1/2-x,1/2+y,1/2+z
1/2+x,1/2-y,1/2+z
loop_
_atom_site_type_symbol
_atom_site_label
_atom_site_fract_x
_atom_site_fract_y
_atom_site_fract_z
Si Si1 0.080625 0.685070 0.750000
Si Si2 0.687058 0.985122 0.287450
Si Si3 0.814818 0.249666 0.385760
Si Si4 0.099662 0.107803 0.742027
Si Si5 0.000000 0.500000 0.140630
Si Si6 0.899223 0.119329 0.544933
Si Si7 0.582823 0.806041 0.540750
Si Si8 0.286530 0.868842 0.045043
O O1 0.137859 0.607125 0.748602
O O2 0.071343 0.774847 0.626868
O O3 0.077257 0.749651 0.893280
O O4 0.033292 0.588006 0.735853
O O5 0.660216 0.335744 0.270204
O O6 0.665351 0.111630 0.356956
O O7 0.720242 0.030337 0.159120
O O8 0.750000 0.250000 0.388752
O O9 0.840434 0.184207 0.514250
O O10 0.775563 0.578259 0.398800
O O11 0.069187 0.212967 0.659098
O O12 0.102710 0.993676 0.644466
O O13 0.079050 0.089985 0.894995
O O14 0.044328 0.576442 0.055932
O O15 0.647466 0.842590 0.549524
O O16 0.250000 0.750000 0.066839
#
# Coordination Sequence:
#
# PCOD9354842 Si02
#       8
#     8   8   8   8   4   8   8   8
#     4  11  24  43  71 109 144 192 244 312 389 445
#     4  11  22  43  68  99 147 187 246 307 362 447
#     4  10  22  41  65  97 139 195 247 304 371 436
#     4  10  22  43  70  96 145 191 243 309 370 455
#     4  12  24  44  78 112 142 194 250 326 386 450
#     4  10  23  43  69  98 144 194 246 302 377 451
#     4  11  24  42  72 106 151 187 255 311 387 451
#     4  11  23  43  68 103 147 197 242 303 374 447
#
# _framework density 22.457702999999999
#
# number of rings (size 3 to 8) (size 9 to 14) (size 15 to 20)
#    0.800    0.533    2.667    2.400    1.867    2.133 
#    4.800    2.667    0.000    4.000    0.000    0.000 
#    0.000    0.000    0.000    0.000    0.000    0.000 
#
# Total GULP energy -167404.008688 kJ/mol
# GULP energy per Si atom -5580.133623 kJ/mol
# Density = 2.240659 g / cm^3
# Si number density = 22.457703 Si / 1000 Ang^3
#
#
#
# Elastic Constant Matrix: (Units=GPa)
#
#
# Indices 1 2 3 4 5 6 
#
# 1 63.5322 26.9983 30.8292 0.0000 0.0000 0.0000
# 2 26.9983 100.9726 54.4292 0.0000 0.0000 0.0000
# 3 30.8292 54.4292 178.6181 0.0000 0.0000 0.0000
# 4 0.0000 0.0000 0.0000 52.2115 0.0000 0.0000
# 5 0.0000 0.0000 0.0000 0.0000 1.4913 0.0000
# 6 0.0000 0.0000 0.0000 0.0000 0.0000 22.1959
#
#
#
# Elastic Compliance Matrix: (Units=1/GPa)
#
#
# Indices 1 2 3 4 5 6 
#
# 1 0.018336 -0.003825 -0.001999 0.000000 0.000000 0.000000
# 2 -0.003825 0.012648 -0.003194 0.000000 0.000000 0.000000
# 3 -0.001999 -0.003194 0.006917 0.000000 0.000000 0.000000
# 4 0.000000 0.000000 0.000000 0.019153 0.000000 0.000000
# 5 0.000000 0.000000 0.000000 0.000000 0.670561 0.000000
# 6 0.000000 0.000000 0.000000 0.000000 0.000000 0.045053
#
#
# Mechanical properties :
#
#
# Convention : Reuss Voigt Hill
#
# Bulk Modulus (GPa) = 50.34143 63.07071 56.70607
# Shear Modulus (GPa) = 6.27096 30.57081 18.42089
#
# Velocity S-wave (km/s) = 1.67284 3.69353 2.86710
# Velocity P-wave (km/s) = 5.11820 6.80696 6.02207
#
# Compressibility (1/GPa) = 0.01986436
#
# Stress axis : x y z
#
# Youngs Moduli (GPa) = 54.53881 79.06309 144.57396
#
# Poissons Ratio (x) = 0.30241 0.28902
# Poissons Ratio (y) = 0.20861 0.46177
# Poissons Ratio (z) = 0.10903 0.25253
#
# Static dielectric constant tensor:
#      x y z
#    x 1.810060 0.000000 0.000000 
#    y 0.000000 1.842640 0.000000 
#    z 0.000000 0.000000 1.912110 
# 
# From -- ./inp_files/9205.got.cif
#   From: 2010.05.17/outbox.cif.g08.bks.cpg/sg37_5_cif.got.tgz:9205.got - 2010.06.03 17:53:42.
