data_PCOD9354651
_publ_section_title
;
Structure prediction by ZEFSAII (Michael W. Deem and Ramdas Pophale) SiO2 
 PCOD9354651
Probable space group: C C C 2
;
_chemical_formula_sum "Si O2"
_cell_formula_units_Z 48
_cell_length_a 5.682953
_cell_length_b 16.114662
_cell_length_c 23.915937
_cell_angle_alpha 90.000000
_cell_angle_beta 90.000000
_cell_angle_gamma 90.000000
_cell_volume 2190.194408
_symmetry_space_group_name_H-M "C C C 2"
_symmetry_group_IT_number 37
_symmetry_cell_setting 'orthorhombic'
loop_
_space_group_symop_operation_xyz
x,y,z
-x,-y,z
-x,y,1/2+z
x,-y,1/2+z
1/2+x,1/2+y,z
1/2-x,1/2-y,z
1/2-x,1/2+y,1/2+z
1/2+x,1/2-y,1/2+z
loop_
_atom_site_type_symbol
_atom_site_label
_atom_site_fract_x
_atom_site_fract_y
_atom_site_fract_z
Si Si1 0.594026 0.827958 0.917600
Si Si2 0.634696 0.661803 0.089117
Si Si3 0.250838 0.454063 0.993627
Si Si4 0.939670 0.096901 0.707554
Si Si5 0.750000 0.250000 0.012755
Si Si6 0.136410 0.663915 0.809657
Si Si7 0.750000 0.750000 0.735125
O O1 0.750000 0.750000 0.897245
O O2 0.776431 0.895008 0.940328
O O3 0.449960 0.872337 0.867952
O O4 0.429097 0.795638 0.968915
O O5 0.750000 0.750000 0.101835
O O6 0.659480 0.607831 0.145376
O O7 0.395080 0.687602 0.054363
O O8 0.777697 0.607703 0.045283
O O9 0.500000 0.500000 0.001913
O O10 0.000000 0.500000 0.987359
O O11 0.796743 0.117047 0.764614
O O12 0.117701 0.176406 0.703056
O O13 0.000000 0.000000 0.712771
O O14 0.250000 0.750000 0.829105
O O15 0.920602 0.695836 0.773070
#
# Coordination Sequence:
#
# PCOD9354651 Si02
#       7
#     8   8   8   8   4   8   4
#     4  12  23  44  75 103 145 200 257 316 382 477
#     4  12  24  45  75 106 145 200 260 324 390 478
#     4  12  27  47  69 115 160 198 252 323 405 474
#     4  11  26  48  70 108 150 196 260 325 396 474
#     4  12  21  42  78 114 140 195 266 318 392 478
#     4  10  22  43  73 101 138 195 257 314 384 457
#     4  10  21  46  70  98 136 189 254 310 374 462
#
# _framework density 21.915863000000002
#
# number of rings (size 3 to 8) (size 9 to 14) (size 15 to 20)
#    0.000    0.667    5.000    3.500    0.000    0.667 
#    9.000    0.000    0.000    0.000    0.000    0.000 
#    0.000    0.000    0.000    0.000    0.000    0.000 
#
# Total GULP energy -133625.162723 kJ/mol
# GULP energy per Si atom -5567.715113 kJ/mol
# Density = 2.186598 g / cm^3
# Si number density = 21.915863 Si / 1000 Ang^3
#
#
#
# Elastic Constant Matrix: (Units=GPa)
#
#
# Indices 1 2 3 4 5 6 
#
# 1 26.6449 61.8440 -73.8012 0.0000 0.0000 0.0000
# 2 61.8440 94.3246 143.6151 0.0000 0.0000 0.0000
# 3 -73.8012 143.6151 -137.9441 0.0000 0.0000 0.0000
# 4 0.0000 0.0000 0.0000 -194.5250 0.0000 0.0000
# 5 0.0000 0.0000 0.0000 0.0000 37.2449 0.0000
# 6 0.0000 0.0000 0.0000 0.0000 0.0000 35.4084
#
#
#
# Elastic Compliance Matrix: (Units=1/GPa)
#
#
# Indices 1 2 3 4 5 6 
#
# 1 0.015336 0.000943 -0.007223 0.000000 0.000000 0.000000
# 2 0.000943 0.004159 0.003826 0.000000 0.000000 0.000000
# 3 -0.007223 0.003826 0.000598 0.000000 0.000000 0.000000
# 4 0.000000 0.000000 0.000000 -0.005141 0.000000 0.000000
# 5 0.000000 0.000000 0.000000 0.000000 0.026849 0.000000
# 6 0.000000 0.000000 0.000000 0.000000 0.000000 0.028242
#
#
# Mechanical properties :
#
#
# Convention : Reuss Voigt Hill
#
# Bulk Modulus (GPa) = 65.86342 27.37124 46.61733
# Shear Modulus (GPa) = 62.48941 -34.28319 14.10311
#
# Velocity S-wave (km/s) = 5.34558 -3.95943 2.53951
# Velocity P-wave (km/s) = 8.25944 2.89593 5.46955
#
# Compressibility (1/GPa) = 0.01518293
#
# Stress axis : x y z
#
# Youngs Moduli (GPa) = 65.20744 240.44536 1672.53008
#
# Poissons Ratio (x) = -0.22670 12.08089
# Poissons Ratio (y) = -0.06148 -6.39828
# Poissons Ratio (z) = 0.47100 -0.91983
#
# Static dielectric constant tensor:
#      x y z
#    x 1.832480 0.000000 0.000000 
#    y 0.000000 3.076720 0.000000 
#    z 0.000000 0.000000 2.099100 
# 
# From -- ./inp_files/19383.got.cif
#   From: 2010.05.17/outbox.cif.g08.bks.cpg/sg37_10_cif.got.tgz:19383.got - 2010.06.03 17:53:42.
