data_PCOD9354675
_publ_section_title
;
Structure prediction by ZEFSAII (Michael W. Deem and Ramdas Pophale) SiO2 
 PCOD9354675
Probable space group: C C C 2
;
_chemical_formula_sum "Si O2"
_cell_formula_units_Z 40
_cell_length_a 17.461667
_cell_length_b 10.736601
_cell_length_c 8.907485
_cell_angle_alpha 90.000000
_cell_angle_beta 90.000000
_cell_angle_gamma 90.000000
_cell_volume 1669.965947
_symmetry_space_group_name_H-M "C C C 2"
_symmetry_group_IT_number 37
_symmetry_cell_setting 'orthorhombic'
loop_
_space_group_symop_operation_xyz
x,y,z
-x,-y,z
-x,y,1/2+z
x,-y,1/2+z
1/2+x,1/2+y,z
1/2-x,1/2-y,z
1/2-x,1/2+y,1/2+z
1/2+x,1/2-y,1/2+z
loop_
_atom_site_type_symbol
_atom_site_label
_atom_site_fract_x
_atom_site_fract_y
_atom_site_fract_z
Si Si1 0.140229 0.822888 0.773030
Si Si2 0.500000 0.000000 0.407418
Si Si3 0.154268 0.351361 0.542743
Si Si4 0.250000 0.750000 0.543764
Si Si5 0.477662 0.175370 0.149981
Si Si6 0.244744 0.463395 0.821878
O O1 0.181293 0.725762 0.658762
O O2 0.054676 0.808432 0.704058
O O3 0.185575 0.951622 0.761599
O O4 0.155674 0.775001 0.942014
O O5 0.458239 0.092862 0.295076
O O6 0.550747 0.094295 0.507465
O O7 0.204538 0.387156 0.687859
O O8 0.187384 0.451024 0.420881
O O9 0.068044 0.339112 0.612728
O O10 0.274702 0.638064 0.439196
#
# Coordination Sequence:
#
# PCOD9354675 Si02
#       6
#     8   4   8   4   8   8
#     4  12  26  48  74 117 162 200 263 336 397 486
#     4  10  22  36  64 112 152 194 258 320 378 460
#     4  12  24  46  75 112 157 204 263 331 396 472
#     4  12  28  44  76 106 156 206 268 320 404 474
#     4  11  24  40  69 114 153 200 255 333 393 450
#     4  12  27  47  76 118 153 212 264 331 398 479
#
# _framework density 23.952583000000001
#
# number of rings (size 3 to 8) (size 9 to 14) (size 15 to 20)
#    0.000    0.400    6.000    1.200   14.000    0.000 
#    0.000    0.000    0.000    9.600    0.000    0.000 
#    0.000    0.000    0.000    0.000    0.000    0.000 
#
# Total GULP energy -111372.086384 kJ/mol
# GULP energy per Si atom -5568.604319 kJ/mol
# Density = 2.389807 g / cm^3
# Si number density = 23.952583 Si / 1000 Ang^3
#
#
#
# Elastic Constant Matrix: (Units=GPa)
#
#
# Indices 1 2 3 4 5 6 
#
# 1 98.2600 50.3685 45.0410 0.0000 0.0000 0.0000
# 2 50.3685 74.5561 39.0988 0.0000 0.0000 0.0000
# 3 45.0410 39.0988 176.7880 0.0000 0.0000 0.0000
# 4 0.0000 0.0000 0.0000 32.4606 0.0000 0.0000
# 5 0.0000 0.0000 0.0000 0.0000 32.7664 0.0000
# 6 0.0000 0.0000 0.0000 0.0000 0.0000 30.3909
#
#
#
# Elastic Compliance Matrix: (Units=1/GPa)
#
#
# Indices 1 2 3 4 5 6 
#
# 1 0.016126 -0.009886 -0.001922 0.000000 0.000000 0.000000
# 2 -0.009886 0.021234 -0.002177 0.000000 0.000000 0.000000
# 3 -0.001922 -0.002177 0.006628 0.000000 0.000000 0.000000
# 4 0.000000 0.000000 0.000000 0.030807 0.000000 0.000000
# 5 0.000000 0.000000 0.000000 0.000000 0.030519 0.000000
# 6 0.000000 0.000000 0.000000 0.000000 0.000000 0.032905
#
#
# Mechanical properties :
#
#
# Convention : Reuss Voigt Hill
#
# Bulk Modulus (GPa) = 62.43794 68.73563 65.58679
# Shear Modulus (GPa) = 29.14989 33.46330 31.30659
#
# Velocity S-wave (km/s) = 3.49231 3.74179 3.61920
# Velocity P-wave (km/s) = 6.51042 6.88671 6.70121
#
# Compressibility (1/GPa) = 0.01601590
#
# Stress axis : x y z
#
# Youngs Moduli (GPa) = 62.01213 47.09528 150.88221
#
# Poissons Ratio (x) = 0.46560 0.28999
# Poissons Ratio (y) = 0.61308 0.32851
# Poissons Ratio (z) = 0.11918 0.10254
#
# Static dielectric constant tensor:
#      x y z
#    x 2.227720 0.000000 0.000000 
#    y 0.000000 2.033780 0.000000 
#    z 0.000000 0.000000 1.910750 
# 
# From -- ./inp_files/3901.got.cif
#   From: 2010.05.17/outbox.cif.g08.bks.cpg/sg37_2_cif.got.tgz:3901.got - 2010.06.03 17:53:42.
