data_PCOD9354445
_publ_section_title
;
Structure prediction by ZEFSAII (Michael W. Deem and Ramdas Pophale) SiO2 
 PCOD9354445
Probable space group: C C C 2
;
_chemical_formula_sum "Si O2"
_cell_formula_units_Z 40
_cell_length_a 8.485651
_cell_length_b 10.686311
_cell_length_c 21.486287
_cell_angle_alpha 90.000000
_cell_angle_beta 90.000000
_cell_angle_gamma 90.000000
_cell_volume 1948.383072
_symmetry_space_group_name_H-M "C C C 2"
_symmetry_group_IT_number 37
_symmetry_cell_setting 'orthorhombic'
loop_
_space_group_symop_operation_xyz
x,y,z
-x,-y,z
-x,y,1/2+z
x,-y,1/2+z
1/2+x,1/2+y,z
1/2-x,1/2-y,z
1/2-x,1/2+y,1/2+z
1/2+x,1/2-y,1/2+z
loop_
_atom_site_type_symbol
_atom_site_label
_atom_site_fract_x
_atom_site_fract_y
_atom_site_fract_z
Si Si1 0.035287 0.860917 0.742050
Si Si2 0.750000 0.750000 0.347924
Si Si3 0.500000 0.500000 0.968608
Si Si4 0.170280 0.435342 0.032589
Si Si5 0.036049 0.719377 0.418801
Si Si6 0.250000 0.750000 0.640811
Si Si7 0.750000 0.250000 0.312238
O O1 0.154156 0.840657 0.800853
O O2 0.104529 0.779245 0.686280
O O3 0.869843 0.819293 0.768981
O O4 0.000000 0.000000 0.720465
O O5 0.634413 0.822683 0.394790
O O6 0.482557 0.370093 0.929524
O O7 0.332354 0.503174 0.007606
O O8 0.218753 0.365746 0.095550
O O9 0.000000 0.500000 0.044421
O O10 0.113099 0.337694 0.979608
O O11 0.144499 0.675777 0.361529
#
# Coordination Sequence:
#
# PCOD9354445 Si02
#       7
#     8   4   4   8   8   4   4
#     4  10  24  43  67  90 130 183 219 280 337 387
#     4   9  22  38  64  98 132 167 218 266 336 415
#     4  12  22  42  70 102 140 184 210 276 354 406
#     4  12  26  44  71 101 135 178 225 284 342 406
#     4  11  21  41  66 104 138 169 219 273 339 418
#     4  11  25  50  60  98 133 165 250 280 316 415
#     4  10  21  38  66 100 129 166 220 266 324 410
#
# _framework density 20.529843
#
# number of rings (size 3 to 8) (size 9 to 14) (size 15 to 20)
#    0.000    1.200    4.000    1.200    7.000    3.200 
#    0.000    7.000    0.000    0.000    0.000    0.000 
#    0.000    0.000    0.000    0.000    0.000    0.000 
#
# Total GULP energy -111350.836819 kJ/mol
# GULP energy per Si atom -5567.541841 kJ/mol
# Density = 2.048312 g / cm^3
# Si number density = 20.529843 Si / 1000 Ang^3
#
#
#
# Elastic Constant Matrix: (Units=GPa)
#
#
# Indices 1 2 3 4 5 6 
#
# 1 156.3290 23.1842 45.7589 0.0000 0.0000 0.0000
# 2 23.1842 53.4284 27.2719 0.0000 0.0000 0.0000
# 3 45.7589 27.2719 115.7105 0.0000 0.0000 0.0000
# 4 0.0000 0.0000 0.0000 54.4765 0.0000 0.0000
# 5 0.0000 0.0000 0.0000 0.0000 97.6320 0.0000
# 6 0.0000 0.0000 0.0000 0.0000 0.0000 22.3645
#
#
#
# Elastic Compliance Matrix: (Units=1/GPa)
#
#
# Indices 1 2 3 4 5 6 
#
# 1 0.007409 -0.001955 -0.002469 0.000000 0.000000 0.000000
# 2 -0.001955 0.021792 -0.004363 0.000000 0.000000 0.000000
# 3 -0.002469 -0.004363 0.010647 0.000000 0.000000 0.000000
# 4 0.000000 0.000000 0.000000 0.018357 0.000000 0.000000
# 5 0.000000 0.000000 0.000000 0.000000 0.010243 0.000000
# 6 0.000000 0.000000 0.000000 0.000000 0.000000 0.044714
#
#
# Mechanical properties :
#
#
# Convention : Reuss Voigt Hill
#
# Bulk Modulus (GPa) = 44.89537 57.54422 51.21979
# Shear Modulus (GPa) = 36.18975 50.17812 43.18394
#
# Velocity S-wave (km/s) = 4.20311 4.94920 4.59134
# Velocity P-wave (km/s) = 6.74319 7.79422 7.28768
#
# Compressibility (1/GPa) = 0.02227401
#
# Stress axis : x y z
#
# Youngs Moduli (GPa) = 134.96210 45.88847 93.92155
#
# Poissons Ratio (x) = 0.08970 0.23193
# Poissons Ratio (y) = 0.26381 0.40979
# Poissons Ratio (z) = 0.33328 0.20022
#
# Static dielectric constant tensor:
#      x y z
#    x 1.843170 0.000000 0.000000 
#    y 0.000000 1.744790 0.000000 
#    z 0.000000 0.000000 1.703270 
# 
# From -- ./inp_files/14898.got.cif
#   From: 2010.05.17/outbox.cif.g08.bks.cpg/sg37_8_cif.got.tgz:14898.got - 2010.06.03 17:53:42.
