data_PCOD9354859
_publ_section_title
;
Structure prediction by ZEFSAII (Michael W. Deem and Ramdas Pophale) SiO2 
 PCOD9354859
Probable space group: C C C 2
;
_chemical_formula_sum "Si O2"
_cell_formula_units_Z 48
_cell_length_a 5.472651
_cell_length_b 14.295834
_cell_length_c 27.215097
_cell_angle_alpha 90.000000
_cell_angle_beta 90.000000
_cell_angle_gamma 90.000000
_cell_volume 2129.203329
_symmetry_space_group_name_H-M "C C C 2"
_symmetry_group_IT_number 37
_symmetry_cell_setting 'orthorhombic'
loop_
_space_group_symop_operation_xyz
x,y,z
-x,-y,z
-x,y,1/2+z
x,-y,1/2+z
1/2+x,1/2+y,z
1/2-x,1/2-y,z
1/2-x,1/2+y,1/2+z
1/2+x,1/2-y,1/2+z
loop_
_atom_site_type_symbol
_atom_site_label
_atom_site_fract_x
_atom_site_fract_y
_atom_site_fract_z
Si Si1 0.016183 0.108826 0.088450
Si Si2 0.006128 0.696878 0.227690
Si Si3 0.250000 0.250000 0.822675
Si Si4 0.866723 0.851726 0.384956
Si Si5 0.988879 0.606742 0.631441
Si Si6 0.000000 0.500000 0.413260
Si Si7 0.668136 0.641685 0.977069
O O1 0.253996 0.149796 0.114988
O O2 0.753383 0.147008 0.105486
O O3 0.082014 0.114055 0.031125
O O4 0.000000 0.000000 0.103406
O O5 0.250000 0.750000 0.209370
O O6 0.063093 0.696116 0.285841
O O7 0.009826 0.610681 0.190634
O O8 0.750000 0.750000 0.222118
O O9 0.387045 0.330977 0.853596
O O10 0.750000 0.750000 0.379438
O O11 0.938575 0.864060 0.441374
O O12 0.686705 0.939766 0.378922
O O13 0.000000 0.500000 0.614142
O O14 0.137368 0.573717 0.449758
O O15 0.750000 0.750000 0.977467
#
# Coordination Sequence:
#
# PCOD9354859 Si02
#       7
#     8   8   4   8   8   4   8
#     4  10  23  40  67 102 146 196 238 298 368 445
#     4  10  22  41  73  99 135 187 235 312 370 440
#     4  10  24  44  78  96 150 188 250 318 388 462
#     4  12  23  47  75 105 146 202 251 316 385 459
#     4  10  22  42  70  99 143 187 239 298 368 445
#     4  12  26  44  80 102 158 198 258 316 382 448
#     4  12  26  44  71 110 152 200 249 306 371 458
#
# _framework density 22.543644
#
# number of rings (size 3 to 8) (size 9 to 14) (size 15 to 20)
#    0.500    0.667    2.500    3.000    5.833    2.000 
#    0.000    0.000   27.500    0.000    0.000    0.000 
#    0.000    0.000    0.000    0.000    0.000    0.000 
#
# Total GULP energy -133709.915976 kJ/mol
# GULP energy per Si atom -5571.246499 kJ/mol
# Density = 2.249233 g / cm^3
# Si number density = 22.543644 Si / 1000 Ang^3
#
#
#
# Elastic Constant Matrix: (Units=GPa)
#
#
# Indices 1 2 3 4 5 6 
#
# 1 177.4095 62.2399 48.7582 0.0000 0.0000 0.0000
# 2 62.2399 116.8474 12.4347 0.0000 0.0000 0.0000
# 3 48.7582 12.4347 111.7501 0.0000 0.0000 0.0000
# 4 0.0000 0.0000 0.0000 15.3644 0.0000 0.0000
# 5 0.0000 0.0000 0.0000 0.0000 11.6376 0.0000
# 6 0.0000 0.0000 0.0000 0.0000 0.0000 16.9239
#
#
#
# Elastic Compliance Matrix: (Units=1/GPa)
#
#
# Indices 1 2 3 4 5 6 
#
# 1 0.007802 -0.003839 -0.002977 0.000000 0.000000 0.000000
# 2 -0.003839 0.010550 0.000501 0.000000 0.000000 0.000000
# 3 -0.002977 0.000501 0.010192 0.000000 0.000000 0.000000
# 4 0.000000 0.000000 0.000000 0.065086 0.000000 0.000000
# 5 0.000000 0.000000 0.000000 0.000000 0.085929 0.000000
# 6 0.000000 0.000000 0.000000 0.000000 0.000000 0.059088
#
#
# Mechanical properties :
#
#
# Convention : Reuss Voigt Hill
#
# Bulk Modulus (GPa) = 62.83892 72.54140 67.69016
# Shear Modulus (GPa) = 19.48720 27.62345 23.55533
#
# Velocity S-wave (km/s) = 2.94329 3.50427 3.23596
# Velocity P-wave (km/s) = 6.28375 6.97290 6.63727
#
# Compressibility (1/GPa) = 0.01591370
#
# Stress axis : x y z
#
# Youngs Moduli (GPa) = 128.17983 94.79024 98.12007
#
# Poissons Ratio (x) = 0.36388 0.29208
# Poissons Ratio (y) = 0.49205 -0.04916
# Poissons Ratio (z) = 0.38156 -0.04749
#
# Static dielectric constant tensor:
#      x y z
#    x 1.970950 0.000000 0.000000 
#    y 0.000000 1.865790 0.000000 
#    z 0.000000 0.000000 1.799180 
# 
# From -- ./inp_files/20129.got.cif
#   From: 2010.05.17/outbox.cif.g08.bks.cpg/sg37_11_cif.got.tgz:20129.got - 2010.06.03 17:53:42.
