data_PCOD9354585
_publ_section_title
;
Structure prediction by ZEFSAII (Michael W. Deem and Ramdas Pophale) SiO2 
 PCOD9354585
Probable space group: C C C 2
;
_chemical_formula_sum "Si O2"
_cell_formula_units_Z 52
_cell_length_a 22.507052
_cell_length_b 8.227677
_cell_length_c 14.952662
_cell_angle_alpha 90.000000
_cell_angle_beta 90.000000
_cell_angle_gamma 90.000000
_cell_volume 2768.945225
_symmetry_space_group_name_H-M "C C C 2"
_symmetry_group_IT_number 37
_symmetry_cell_setting 'orthorhombic'
loop_
_space_group_symop_operation_xyz
x,y,z
-x,-y,z
-x,y,1/2+z
x,-y,1/2+z
1/2+x,1/2+y,z
1/2-x,1/2-y,z
1/2-x,1/2+y,1/2+z
1/2+x,1/2-y,1/2+z
loop_
_atom_site_type_symbol
_atom_site_label
_atom_site_fract_x
_atom_site_fract_y
_atom_site_fract_z
Si Si1 0.383790 0.877650 0.551800
Si Si2 0.664553 0.917811 0.714172
Si Si3 0.807650 0.132264 0.829402
Si Si4 0.884145 0.418345 0.888885
Si Si5 0.302335 0.432849 0.671270
Si Si6 0.799738 0.109614 0.490756
Si Si7 0.500000 0.000000 0.976171
O O1 0.359570 0.704100 0.520647
O O2 0.361432 0.950117 0.644994
O O3 0.357173 0.003427 0.478459
O O4 0.454795 0.895049 0.536936
O O5 0.659242 0.730074 0.683670
O O6 0.736229 0.928792 0.715313
O O7 0.634712 0.962153 0.808334
O O8 0.750000 0.250000 0.824399
O O9 0.857884 0.244192 0.871296
O O10 0.828586 0.076948 0.731234
O O11 0.799213 0.978538 0.895177
O O12 0.953798 0.409414 0.911323
O O13 0.291408 0.476557 0.568603
O O14 0.750000 0.250000 0.495265
#
# Coordination Sequence:
#
# PCOD9354585 Si02
#       7
#     8   8   8   8   8   8   4
#     4  10  21  42  60  88 117 164 208 248 297 357
#     4  11  21  37  66  85 131 157 200 251 308 366
#     4  12  23  36  61  93 129 161 197 249 316 365
#     4  10  21  42  60  88 117 164 208 248 297 357
#     4  11  24  35  57 103 124 157 195 250 313 381
#     4  12  23  36  61  93 129 161 197 249 316 365
#     4   8  24  42  66  84 118 164 226 240 288 364
#
# _framework density 18.779714999999999
#
# number of rings (size 3 to 8) (size 9 to 14) (size 15 to 20)
#    0.923    0.308    3.077    4.154    4.308    0.615 
#    0.000    0.769    0.000    1.846    0.000    0.000 
#    0.000    0.000    0.000    0.000    0.000    0.000 
#
# Total GULP energy -144820.543933 kJ/mol
# GULP energy per Si atom -5570.020920 kJ/mol
# Density = 1.873697 g / cm^3
# Si number density = 18.779715 Si / 1000 Ang^3
#
#
#
# Elastic Constant Matrix: (Units=GPa)
#
#
# Indices 1 2 3 4 5 6 
#
# 1 66.9195 16.7844 -4.9369 0.0000 0.0000 0.0000
# 2 16.7844 70.0324 6.2352 0.0000 0.0000 0.0000
# 3 -4.9369 6.2352 71.0682 0.0000 0.0000 0.0000
# 4 0.0000 0.0000 0.0000 31.4290 0.0000 0.0000
# 5 0.0000 0.0000 0.0000 0.0000 13.2308 0.0000
# 6 0.0000 0.0000 0.0000 0.0000 0.0000 24.7273
#
#
#
# Elastic Compliance Matrix: (Units=1/GPa)
#
#
# Indices 1 2 3 4 5 6 
#
# 1 0.016049 -0.003977 0.001464 0.000000 0.000000 0.000000
# 2 -0.003977 0.015377 -0.001625 0.000000 0.000000 0.000000
# 3 0.001464 -0.001625 0.014315 0.000000 0.000000 0.000000
# 4 0.000000 0.000000 0.000000 0.031818 0.000000 0.000000
# 5 0.000000 0.000000 0.000000 0.000000 0.075581 0.000000
# 6 0.000000 0.000000 0.000000 0.000000 0.000000 0.040441
#
#
# Mechanical properties :
#
#
# Convention : Reuss Voigt Hill
#
# Bulk Modulus (GPa) = 26.69203 27.13172 26.91187
# Shear Modulus (GPa) = 23.32682 26.53992 24.93337
#
# Velocity S-wave (km/s) = 3.52821 3.76336 3.64768
# Velocity P-wave (km/s) = 5.55353 5.77604 5.66588
#
# Compressibility (1/GPa) = 0.03746437
#
# Stress axis : x y z
#
# Youngs Moduli (GPa) = 62.31030 65.03266 69.85550
#
# Poissons Ratio (x) = 0.25861 -0.10225
# Poissons Ratio (y) = 0.24779 0.11354
# Poissons Ratio (z) = -0.09121 0.10570
#
# Static dielectric constant tensor:
#      x y z
#    x 1.679560 0.000000 0.000000 
#    y 0.000000 1.711390 0.000000 
#    z 0.000000 0.000000 1.668660 
# 
# From -- ./inp_files/13099.got.cif
#   From: 2010.05.17/outbox.cif.g08.bks.cpg/sg37_7_cif.got.tgz:13099.got - 2010.06.03 17:53:42.
