data_PCOD9354758
_publ_section_title
;
Structure prediction by ZEFSAII (Michael W. Deem and Ramdas Pophale) SiO2 
 PCOD9354758
Probable space group: C C C 2
;
_chemical_formula_sum "Si O2"
_cell_formula_units_Z 64
_cell_length_a 22.512770
_cell_length_b 9.486135
_cell_length_c 14.798679
_cell_angle_alpha 90.000000
_cell_angle_beta 90.000000
_cell_angle_gamma 90.000000
_cell_volume 3160.393685
_symmetry_space_group_name_H-M "C C C 2"
_symmetry_group_IT_number 37
_symmetry_cell_setting 'orthorhombic'
loop_
_space_group_symop_operation_xyz
x,y,z
-x,-y,z
-x,y,1/2+z
x,-y,1/2+z
1/2+x,1/2+y,z
1/2-x,1/2-y,z
1/2-x,1/2+y,1/2+z
1/2+x,1/2-y,1/2+z
loop_
_atom_site_type_symbol
_atom_site_label
_atom_site_fract_x
_atom_site_fract_y
_atom_site_fract_z
Si Si1 0.215762 0.460226 0.473370
Si Si2 0.342512 0.747497 0.444894
Si Si3 0.030610 0.145377 0.732823
Si Si4 0.848017 0.974843 0.787379
Si Si5 0.719845 0.391447 0.622143
Si Si6 0.022318 0.659340 0.398285
Si Si7 0.960852 0.865974 0.527272
Si Si8 0.344143 0.673476 0.939010
O O1 0.195250 0.609303 0.432614
O O2 0.231614 0.506246 0.575604
O O3 0.278207 0.393852 0.441990
O O4 0.167115 0.338997 0.455940
O O5 0.329482 0.636956 0.364853
O O6 0.322664 0.671040 0.539872
O O7 0.411552 0.798401 0.436373
O O8 0.099114 0.106732 0.739499
O O9 0.017892 0.272991 0.798944
O O10 0.018101 0.169463 0.627998
O O11 0.000000 0.000000 0.763235
O O12 0.807263 0.027178 0.706401
O O13 0.867947 0.114916 0.843332
O O14 0.750000 0.250000 0.658633
O O15 0.000000 0.500000 0.396917
O O16 0.976719 0.740354 0.461788
O O17 0.890338 0.886534 0.513213
O O18 0.000000 0.000000 0.498361
#
# Coordination Sequence:
#
# PCOD9354758 Si02
#       8
#     8   8   8   8   8   8   8   8
#     4  10  22  41  64  90 133 168 207 267 323 392
#     4  10  22  42  65  93 128 172 212 264 329 381
#     4  10  23  39  63  97 121 164 217 265 313 381
#     4  11  22  37  68  91 125 166 218 265 317 387
#     4  10  22  39  65  93 129 169 216 264 325 391
#     4  11  23  41  66  92 130 170 209 263 326 390
#     4  11  23  41  68  94 127 165 217 270 320 377
#     4  11  22  39  68  91 127 169 215 264 326 374
#
# _framework density 20.250641999999999
#
# number of rings (size 3 to 8) (size 9 to 14) (size 15 to 20)
#    0.000    1.500    1.250    4.125    5.250    0.500 
#    0.000    6.250    8.250    0.000    0.000    0.000 
#    0.000    0.000    0.000    0.000    0.000    0.000 
#
# Total GULP energy -178355.650798 kJ/mol
# GULP energy per Si atom -5573.614087 kJ/mol
# Density = 2.020455 g / cm^3
# Si number density = 20.250642 Si / 1000 Ang^3
#
#
#
# Elastic Constant Matrix: (Units=GPa)
#
#
# Indices 1 2 3 4 5 6 
#
# 1 75.0175 46.8303 22.1473 0.0000 0.0000 0.0000
# 2 46.8303 174.2554 68.3850 0.0000 0.0000 0.0000
# 3 22.1473 68.3850 89.9468 0.0000 0.0000 0.0000
# 4 0.0000 0.0000 0.0000 28.1805 0.0000 0.0000
# 5 0.0000 0.0000 0.0000 0.0000 19.9393 0.0000
# 6 0.0000 0.0000 0.0000 0.0000 0.0000 28.8926
#
#
#
# Elastic Compliance Matrix: (Units=1/GPa)
#
#
# Indices 1 2 3 4 5 6 
#
# 1 0.016075 -0.003943 -0.000960 0.000000 0.000000 0.000000
# 2 -0.003943 0.009146 -0.005983 0.000000 0.000000 0.000000
# 3 -0.000960 -0.005983 0.015903 0.000000 0.000000 0.000000
# 4 0.000000 0.000000 0.000000 0.035485 0.000000 0.000000
# 5 0.000000 0.000000 0.000000 0.000000 0.050152 0.000000
# 6 0.000000 0.000000 0.000000 0.000000 0.000000 0.034611
#
#
# Mechanical properties :
#
#
# Convention : Reuss Voigt Hill
#
# Bulk Modulus (GPa) = 51.67478 68.21610 59.94544
# Shear Modulus (GPa) = 26.37179 28.85963 27.61571
#
# Velocity S-wave (km/s) = 3.61261 3.77917 3.69683
# Velocity P-wave (km/s) = 6.55548 7.26649 6.92012
#
# Compressibility (1/GPa) = 0.01935180
#
# Stress axis : x y z
#
# Youngs Moduli (GPa) = 62.20701 109.33254 62.88212
#
# Poissons Ratio (x) = 0.43114 0.06037
# Poissons Ratio (y) = 0.24531 0.37622
# Poissons Ratio (z) = 0.05972 0.65412
#
# Static dielectric constant tensor:
#      x y z
#    x 1.896250 0.000000 0.000000 
#    y 0.000000 1.693490 0.000000 
#    z 0.000000 0.000000 1.729220 
# 
# From -- ./inp_files/13161.got.cif
#   From: 2010.05.17/outbox.cif.g08.bks.cpg/sg37_7_cif.got.tgz:13161.got - 2010.06.03 17:53:42.
