data_PCOD9354353
_publ_section_title
;
Structure prediction by ZEFSAII (Michael W. Deem and Ramdas Pophale) SiO2 
 PCOD9354353
Probable space group: C C C 2
;
_chemical_formula_sum "Si O2"
_cell_formula_units_Z 64
_cell_length_a 25.358231
_cell_length_b 14.705039
_cell_length_c 8.843295
_cell_angle_alpha 90.000000
_cell_angle_beta 90.000000
_cell_angle_gamma 90.000000
_cell_volume 3297.609663
_symmetry_space_group_name_H-M "C C C 2"
_symmetry_group_IT_number 37
_symmetry_cell_setting 'orthorhombic'
loop_
_space_group_symop_operation_xyz
x,y,z
-x,-y,z
-x,y,1/2+z
x,-y,1/2+z
1/2+x,1/2+y,z
1/2-x,1/2-y,z
1/2-x,1/2+y,1/2+z
1/2+x,1/2-y,1/2+z
loop_
_atom_site_type_symbol
_atom_site_label
_atom_site_fract_x
_atom_site_fract_y
_atom_site_fract_z
Si Si1 0.696862 0.814496 0.305830
Si Si2 0.540572 0.584932 0.796560
Si Si3 0.576549 0.747897 0.302628
Si Si4 0.224545 0.350844 0.970903
Si Si5 0.303104 0.503417 0.568203
Si Si6 0.776785 0.649971 0.642445
Si Si7 0.498648 0.717476 0.548049
Si Si8 0.375770 0.440687 0.316890
O O1 0.750000 0.750000 0.306971
O O2 0.637697 0.773846 0.304579
O O3 0.698601 0.860974 0.473207
O O4 0.699969 0.863081 0.140191
O O5 0.500000 0.500000 0.798043
O O6 0.531514 0.650044 0.655291
O O7 0.596832 0.537579 0.796229
O O8 0.533626 0.649588 0.940069
O O9 0.539930 0.773150 0.445547
O O10 0.542863 0.770661 0.153155
O O11 0.581238 0.637918 0.308615
O O12 0.250000 0.250000 0.973536
O O13 0.194452 0.355896 0.807744
O O14 0.268814 0.428804 0.967482
O O15 0.265931 0.429903 0.644679
O O16 0.344753 0.445510 0.472318
O O17 0.333265 0.567868 0.685293
O O18 0.750000 0.750000 0.640894
#
# Coordination Sequence:
#
# PCOD9354353 Si02
#       8
#     8   8   8   8   8   8   8   8
#     4  10  21  39  60  81 120 157 203 259 318 369
#     4  11  20  30  44  67 105 153 199 256 292 326
#     4  11  22  38  55  84 113 167 207 255 317 359
#     4  10  21  39  57  82 122 159 205 259 313 371
#     4  12  22  36  53  90 114 163 214 256 298 388
#     4  10  21  39  57  82 122 159 205 259 313 371
#     4  10  21  36  50  72 114 151 212 254 296 365
#     4  12  21  28  53  73 114 156 213 251 294 342
#
# _framework density 19.407997000000002
#
# number of rings (size 3 to 8) (size 9 to 14) (size 15 to 20)
#    0.000    1.250    3.750    5.625    0.000    0.000 
#    4.500    0.000    0.000    0.000    0.000    0.000 
#    0.000    3.000    0.000    0.000    0.000    0.000 
#
# Total GULP energy -178138.950122 kJ/mol
# GULP energy per Si atom -5566.842191 kJ/mol
# Density = 1.936382 g / cm^3
# Si number density = 19.407997 Si / 1000 Ang^3
#
#
#
# Elastic Constant Matrix: (Units=GPa)
#
#
# Indices 1 2 3 4 5 6 
#
# 1 93.6065 9.3785 40.3590 0.0000 0.0000 0.0000
# 2 9.3785 21.5635 4.9920 0.0000 0.0000 0.0000
# 3 40.3590 4.9920 176.1380 0.0000 0.0000 0.0000
# 4 0.0000 0.0000 0.0000 -8.6499 0.0000 0.0000
# 5 0.0000 0.0000 0.0000 0.0000 27.2957 0.0000
# 6 0.0000 0.0000 0.0000 0.0000 0.0000 32.5215
#
#
#
# Elastic Compliance Matrix: (Units=1/GPa)
#
#
# Indices 1 2 3 4 5 6 
#
# 1 0.012316 -0.004734 -0.002688 0.000000 0.000000 0.000000
# 2 -0.004734 0.048501 -0.000290 0.000000 0.000000 0.000000
# 3 -0.002688 -0.000290 0.006301 0.000000 0.000000 0.000000
# 4 0.000000 0.000000 0.000000 -0.115609 0.000000 0.000000
# 5 0.000000 0.000000 0.000000 0.000000 0.036636 0.000000
# 6 0.000000 0.000000 0.000000 0.000000 0.000000 0.030749
#
#
# Mechanical properties :
#
#
# Convention : Reuss Voigt Hill
#
# Bulk Modulus (GPa) = 19.34443 44.52965 31.93704
# Shear Modulus (GPa) = 96.99332 26.00537 61.49935
#
# Velocity S-wave (km/s) = 7.07704 3.66448 5.63528
# Velocity P-wave (km/s) = 8.76174 6.39518 7.67028
#
# Compressibility (1/GPa) = 0.05169447
#
# Stress axis : x y z
#
# Youngs Moduli (GPa) = 81.19348 20.61820 158.69344
#
# Poissons Ratio (x) = 0.09761 0.42655
# Poissons Ratio (y) = 0.38440 0.04598
# Poissons Ratio (z) = 0.21824 0.00597
#
# Static dielectric constant tensor:
#      x y z
#    x 1.682190 0.000000 0.000000 
#    y 0.000000 1.660910 0.000000 
#    z 0.000000 0.000000 1.982010 
# 
# From -- ./inp_files/4651.got.cif
#   From: 2010.05.17/outbox.cif.g08.bks.cpg/sg37_3_cif.got.tgz:4651.got - 2010.06.03 17:53:42.
