data_PCOD9354968
_publ_section_title
;
Structure prediction by ZEFSAII (Michael W. Deem and Ramdas Pophale) SiO2 
 PCOD9354968
Probable space group: C C C 2
;
_chemical_formula_sum "Si O2"
_cell_formula_units_Z 40
_cell_length_a 5.086296
_cell_length_b 15.558795
_cell_length_c 21.215129
_cell_angle_alpha 90.000000
_cell_angle_beta 90.000000
_cell_angle_gamma 90.000000
_cell_volume 1678.893958
_symmetry_space_group_name_H-M "C C C 2"
_symmetry_group_IT_number 37
_symmetry_cell_setting 'orthorhombic'
loop_
_space_group_symop_operation_xyz
x,y,z
-x,-y,z
-x,y,1/2+z
x,-y,1/2+z
1/2+x,1/2+y,z
1/2-x,1/2-y,z
1/2-x,1/2+y,1/2+z
1/2+x,1/2-y,1/2+z
loop_
_atom_site_type_symbol
_atom_site_label
_atom_site_fract_x
_atom_site_fract_y
_atom_site_fract_z
Si Si1 0.548212 0.178973 0.992830
Si Si2 0.336996 0.652363 0.669339
Si Si3 0.750000 0.750000 0.877811
Si Si4 0.497170 0.399761 0.546746
Si Si5 0.000000 0.500000 0.195306
Si Si6 0.597430 0.410567 0.291601
O O1 0.750000 0.250000 0.023545
O O2 0.473928 0.217277 0.925534
O O3 0.269738 0.147697 0.023329
O O4 0.763048 0.105094 0.995213
O O5 0.250000 0.750000 0.663466
O O6 0.559210 0.638317 0.616726
O O7 0.397234 0.633141 0.742273
O O8 0.139229 0.573683 0.654682
O O9 0.681482 0.666137 0.836909
O O10 0.500000 0.500000 0.557743
O O11 0.188603 0.552725 0.242456
O O12 0.500000 0.500000 0.323261
#
# Coordination Sequence:
#
# PCOD9354968 Si02
#       6
#     8   8   4   8   4   8
#     4  12  26  51  73 108 148 207 261 313 386 460
#     4  11  24  44  77 113 155 199 247 323 404 479
#     4  12  26  50  74 104 154 208 266 328 378 474
#     4  12  27  50  78 114 156 199 259 326 394 474
#     4  10  22  44  70 116 148 194 250 310 402 482
#     4  10  24  46  72 116 145 199 254 320 397 466
#
# _framework density 23.825209000000001
#
# number of rings (size 3 to 8) (size 9 to 14) (size 15 to 20)
#    0.000    0.800    2.000    4.800    5.600    4.800 
#    9.000    0.000    0.000    0.000    0.000    0.000 
#    0.000    0.000    0.000    0.000    0.000    0.000 
#
# Total GULP energy -111434.503438 kJ/mol
# GULP energy per Si atom -5571.725172 kJ/mol
# Density = 2.377098 g / cm^3
# Si number density = 23.825209 Si / 1000 Ang^3
#
#
#
# Elastic Constant Matrix: (Units=GPa)
#
#
# Indices 1 2 3 4 5 6 
#
# 1 116.7389 46.4907 42.2122 0.0000 0.0000 0.0000
# 2 46.4907 195.5805 92.0707 0.0000 0.0000 0.0000
# 3 42.2122 92.0707 101.9354 0.0000 0.0000 0.0000
# 4 0.0000 0.0000 0.0000 0.5920 0.0000 0.0000
# 5 0.0000 0.0000 0.0000 0.0000 -109.6489 0.0000
# 6 0.0000 0.0000 0.0000 0.0000 0.0000 19.3575
#
#
#
# Elastic Compliance Matrix: (Units=1/GPa)
#
#
# Indices 1 2 3 4 5 6 
#
# 1 0.010138 -0.000754 -0.003517 0.000000 0.000000 0.000000
# 2 -0.000754 0.008951 -0.007773 0.000000 0.000000 0.000000
# 3 -0.003517 -0.007773 0.018287 0.000000 0.000000 0.000000
# 4 0.000000 0.000000 0.000000 1.689295 0.000000 0.000000
# 5 0.000000 0.000000 0.000000 0.000000 -0.009120 0.000000
# 6 0.000000 0.000000 0.000000 0.000000 0.000000 0.051660
#
#
# Mechanical properties :
#
#
# Convention : Reuss Voigt Hill
#
# Bulk Modulus (GPa) = 75.25250 86.20024 80.72637
# Shear Modulus (GPa) = 2.78129 -2.37448 0.20340
#
# Velocity S-wave (km/s) = 1.08162 -0.99939 0.29250
# Velocity P-wave (km/s) = 5.76313 5.90991 5.83698
#
# Compressibility (1/GPa) = 0.01328860
#
# Stress axis : x y z
#
# Youngs Moduli (GPa) = 98.63629 111.71513 54.68328
#
# Poissons Ratio (x) = 0.08426 0.19233
# Poissons Ratio (y) = 0.07440 0.42504
# Poissons Ratio (z) = 0.34691 0.86833
#
# Static dielectric constant tensor:
#      x y z
#    x 2.485090 0.000000 0.000000 
#    y 0.000000 2.590320 0.000000 
#    z 0.000000 0.000000 1.847210 
# 
# From -- ./inp_files/17899.got.cif
#   From: 2010.05.17/outbox.cif.g08.bks.cpg/sg37_9_cif.got.tgz:17899.got - 2010.06.03 17:53:42.
