data_PCOD9354618
_publ_section_title
;
Structure prediction by ZEFSAII (Michael W. Deem and Ramdas Pophale) SiO2 
 PCOD9354618
Probable space group: C C C 2
;
_chemical_formula_sum "Si O2"
_cell_formula_units_Z 48
_cell_length_a 7.617443
_cell_length_b 23.262501
_cell_length_c 12.404005
_cell_angle_alpha 90.000000
_cell_angle_beta 90.000000
_cell_angle_gamma 90.000000
_cell_volume 2197.999304
_symmetry_space_group_name_H-M "C C C 2"
_symmetry_group_IT_number 37
_symmetry_cell_setting 'orthorhombic'
loop_
_space_group_symop_operation_xyz
x,y,z
-x,-y,z
-x,y,1/2+z
x,-y,1/2+z
1/2+x,1/2+y,z
1/2-x,1/2-y,z
1/2-x,1/2+y,1/2+z
1/2+x,1/2-y,1/2+z
loop_
_atom_site_type_symbol
_atom_site_label
_atom_site_fract_x
_atom_site_fract_y
_atom_site_fract_z
Si Si1 0.656070 0.132334 0.753340
Si Si2 0.500000 0.500000 0.527158
Si Si3 0.750000 0.250000 0.764516
Si Si4 0.586332 0.708599 0.642545
Si Si5 0.633171 0.622640 0.039778
Si Si6 0.291989 0.989745 0.848196
Si Si7 0.251516 0.612327 0.292935
O O1 0.725450 0.187936 0.818306
O O2 0.722044 0.137554 0.630199
O O3 0.729336 0.072185 0.795822
O O4 0.448123 0.127870 0.764758
O O5 0.454515 0.562160 0.575684
O O6 0.328184 0.489545 0.453225
O O7 0.573114 0.255731 0.694158
O O8 0.750000 0.750000 0.623211
O O9 0.508358 0.673800 0.542127
O O10 0.633787 0.657394 0.726554
O O11 0.712195 0.618012 0.920625
O O12 0.500000 0.000000 0.870695
O O13 0.230015 0.043533 0.774485
#
# Coordination Sequence:
#
# PCOD9354618 Si02
#       7
#     8   4   4   8   8   8   8
#     4  10  21  43  68  96 142 180 226 288 336 418
#     4  10  22  42  64 106 140 172 236 290 344 430
#     4  10  22  40  66  96 132 172 234 268 332 422
#     4  11  23  47  68  97 141 182 229 294 338 418
#     4  10  25  41  70 105 135 182 240 280 354 426
#     4   9  21  40  67  97 137 175 230 282 343 414
#     4  10  22  47  66 102 138 180 227 295 347 410
#
# _framework density 21.838039999999999
#
# number of rings (size 3 to 8) (size 9 to 14) (size 15 to 20)
#    0.000    2.000    1.667    0.000   11.667    0.000 
#   16.500    4.167    0.000    0.000    0.000    0.000 
#    0.000    0.000    0.000    0.000    0.000    0.000 
#
# Total GULP energy -133937.125960 kJ/mol
# GULP energy per Si atom -5580.713582 kJ/mol
# Density = 2.178834 g / cm^3
# Si number density = 21.838040 Si / 1000 Ang^3
#
#
#
# Elastic Constant Matrix: (Units=GPa)
#
#
# Indices 1 2 3 4 5 6 
#
# 1 111.6392 57.7224 30.5737 0.0000 0.0000 0.0000
# 2 57.7224 186.4458 31.8094 0.0000 0.0000 0.0000
# 3 30.5737 31.8094 48.9713 0.0000 0.0000 0.0000
# 4 0.0000 0.0000 0.0000 48.6002 0.0000 0.0000
# 5 0.0000 0.0000 0.0000 0.0000 25.7029 0.0000
# 6 0.0000 0.0000 0.0000 0.0000 0.0000 47.2563
#
#
#
# Elastic Compliance Matrix: (Units=1/GPa)
#
#
# Indices 1 2 3 4 5 6 
#
# 1 0.011918 -0.002722 -0.005673 0.000000 0.000000 0.000000
# 2 -0.002722 0.006654 -0.002622 0.000000 0.000000 0.000000
# 3 -0.005673 -0.002622 0.025665 0.000000 0.000000 0.000000
# 4 0.000000 0.000000 0.000000 0.020576 0.000000 0.000000
# 5 0.000000 0.000000 0.000000 0.000000 0.038906 0.000000
# 6 0.000000 0.000000 0.000000 0.000000 0.000000 0.021161
#
#
# Mechanical properties :
#
#
# Convention : Reuss Voigt Hill
#
# Bulk Modulus (GPa) = 45.03967 65.25194 55.14580
# Shear Modulus (GPa) = 32.40105 39.44192 35.92149
#
# Velocity S-wave (km/s) = 3.85606 4.25445 4.06014
# Velocity P-wave (km/s) = 6.36355 7.35381 6.87653
#
# Compressibility (1/GPa) = 0.02220265
#
# Stress axis : x y z
#
# Youngs Moduli (GPa) = 83.90400 150.29393 38.96331
#
# Poissons Ratio (x) = 0.40910 0.22103
# Poissons Ratio (y) = 0.22839 0.10218
# Poissons Ratio (z) = 0.47597 0.39414
#
# Static dielectric constant tensor:
#      x y z
#    x 1.784600 0.000000 0.000000 
#    y 0.000000 1.870530 0.000000 
#    z 0.000000 0.000000 1.772720 
# 
# From -- ./inp_files/6415.got.cif
#   From: 2010.05.17/outbox.cif.g08.bks.cpg/sg37_4_cif.got.tgz:6415.got - 2010.06.03 17:53:42.
