data_PCOD9354372
_publ_section_title
;
Structure prediction by ZEFSAII (Michael W. Deem and Ramdas Pophale) SiO2 
 PCOD9354372
Probable space group: C C C 2
;
_chemical_formula_sum "Si O2"
_cell_formula_units_Z 32
_cell_length_a 15.097222
_cell_length_b 9.842011
_cell_length_c 7.557410
_cell_angle_alpha 90.000000
_cell_angle_beta 90.000000
_cell_angle_gamma 90.000000
_cell_volume 1122.933069
_symmetry_space_group_name_H-M "C C C 2"
_symmetry_group_IT_number 37
_symmetry_cell_setting 'orthorhombic'
loop_
_space_group_symop_operation_xyz
x,y,z
-x,-y,z
-x,y,1/2+z
x,-y,1/2+z
1/2+x,1/2+y,z
1/2-x,1/2-y,z
1/2-x,1/2+y,1/2+z
1/2+x,1/2-y,1/2+z
loop_
_atom_site_type_symbol
_atom_site_label
_atom_site_fract_x
_atom_site_fract_y
_atom_site_fract_z
Si Si1 0.107597 0.203066 0.080810
Si Si2 0.407554 0.688091 0.991582
Si Si3 0.777940 0.102578 0.266641
Si Si4 0.398819 0.002871 0.419551
O O1 0.121355 0.174368 0.287611
O O2 0.180341 0.139473 0.954854
O O3 0.106116 0.365140 0.035676
O O4 0.010866 0.158728 0.016186
O O5 0.397671 0.851867 0.018606
O O6 0.357588 0.588840 0.126387
O O7 0.750000 0.250000 0.195033
O O8 0.692762 0.009435 0.305483
O O9 0.500000 0.000000 0.338752
#
# Coordination Sequence:
#
# PCOD9354372 Si02
#       4
#     8   8   8   8
#     4  10  21  36  64 102 147 187 257 311 383 459
#     4  11  21  38  68 101 143 201 245 317 389 449
#     4  10  22  40  60 102 154 191 250 319 379 457
#     4   9  22  38  66 102 154 197 256 319 374 460
#
# _framework density 28.496801000000001
#
# number of rings (size 3 to 8) (size 9 to 14) (size 15 to 20)
#    0.000    2.000    2.500    0.000    7.000    6.000 
#    0.000    2.500    0.000    0.000    0.000   12.250 
#    0.000    0.000    0.000    0.000    0.000    0.000 
#
# Total GULP energy -89557.306076 kJ/mol
# GULP energy per Si atom -5597.331630 kJ/mol
# Density = 2.843194 g / cm^3
# Si number density = 28.496801 Si / 1000 Ang^3
#
#
#
# Elastic Constant Matrix: (Units=GPa)
#
#
# Indices 1 2 3 4 5 6 
#
# 1 260.5893 59.2334 81.9642 0.0000 0.0000 0.0000
# 2 59.2334 136.5906 14.4851 0.0000 0.0000 0.0000
# 3 81.9642 14.4851 163.5082 0.0000 0.0000 0.0000
# 4 0.0000 0.0000 0.0000 -20.3769 0.0000 0.0000
# 5 0.0000 0.0000 0.0000 0.0000 40.5353 0.0000
# 6 0.0000 0.0000 0.0000 0.0000 0.0000 48.5993
#
#
#
# Elastic Compliance Matrix: (Units=1/GPa)
#
#
# Indices 1 2 3 4 5 6 
#
# 1 0.005012 -0.001925 -0.002342 0.000000 0.000000 0.000000
# 2 -0.001925 0.008130 0.000245 0.000000 0.000000 0.000000
# 3 -0.002342 0.000245 0.007268 0.000000 0.000000 0.000000
# 4 0.000000 0.000000 0.000000 -0.049075 0.000000 0.000000
# 5 0.000000 0.000000 0.000000 0.000000 0.024670 0.000000
# 6 0.000000 0.000000 0.000000 0.000000 0.000000 0.020576
#
#
# Mechanical properties :
#
#
# Convention : Reuss Voigt Hill
#
# Bulk Modulus (GPa) = 80.86852 96.89483 88.88168
# Shear Modulus (GPa) = 173.93460 40.75189 107.34324
#
# Velocity S-wave (km/s) = 7.82106 3.78570 6.14413
# Velocity P-wave (km/s) = 10.48801 7.29277 9.03280
#
# Compressibility (1/GPa) = 0.01236575
#
# Stress axis : x y z
#
# Youngs Moduli (GPa) = 199.53908 123.00175 137.58810
#
# Poissons Ratio (x) = 0.23677 0.32219
# Poissons Ratio (y) = 0.38410 -0.03367
# Poissons Ratio (z) = 0.46726 -0.03010
#
# Static dielectric constant tensor:
#      x y z
#    x 2.239530 0.000000 0.000000 
#    y 0.000000 2.770160 0.000000 
#    z 0.000000 0.000000 2.256370 
# 
# From -- ./inp_files/3209.got.cif
#   From: 2010.05.17/outbox.cif.g08.bks.cpg/sg37_2_cif.got.tgz:3209.got - 2010.06.03 17:53:42.
