data_PCOD9354956
_publ_section_title
;
Structure prediction by ZEFSAII (Michael W. Deem and Ramdas Pophale) SiO2 
 PCOD9354956
Probable space group: C C C 2
;
_chemical_formula_sum "Si O2"
_cell_formula_units_Z 40
_cell_length_a 13.552426
_cell_length_b 6.166039
_cell_length_c 20.136921
_cell_angle_alpha 90.000000
_cell_angle_beta 90.000000
_cell_angle_gamma 90.000000
_cell_volume 1682.737519
_symmetry_space_group_name_H-M "C C C 2"
_symmetry_group_IT_number 37
_symmetry_cell_setting 'orthorhombic'
loop_
_space_group_symop_operation_xyz
x,y,z
-x,-y,z
-x,y,1/2+z
x,-y,1/2+z
1/2+x,1/2+y,z
1/2-x,1/2-y,z
1/2-x,1/2+y,1/2+z
1/2+x,1/2-y,1/2+z
loop_
_atom_site_type_symbol
_atom_site_label
_atom_site_fract_x
_atom_site_fract_y
_atom_site_fract_z
Si Si1 0.000000 0.000000 0.734620
Si Si2 0.859571 0.336831 0.309322
Si Si3 0.605759 0.384568 0.437601
Si Si4 0.750000 0.250000 0.958253
Si Si5 0.117170 0.553421 0.547396
Si Si6 0.604544 0.877971 0.190672
O O1 0.060419 0.171992 0.777789
O O2 0.920171 0.125637 0.691052
O O3 0.750000 0.250000 0.302224
O O4 0.887859 0.318677 0.386637
O O5 0.859776 0.550851 0.263624
O O6 0.500000 0.500000 0.435467
O O7 0.687624 0.566408 0.419447
O O8 0.627891 0.283305 0.509564
O O9 0.827360 0.373373 0.004949
O O10 0.157608 0.559190 0.622783
O O11 0.000000 0.500000 0.546922
O O12 0.500000 0.000000 0.184885
#
# Coordination Sequence:
#
# PCOD9354956 Si02
#       6
#     4   8   8   4   8   8
#     4  10  22  44  66  96 140 192 228 294 358 418
#     4  11  24  44  68 102 139 182 242 292 355 432
#     4  12  26  48  75 106 148 193 239 303 363 431
#     4  12  26  46  74 110 140 192 244 298 366 432
#     4  11  24  45  75 107 147 191 239 300 360 437
#     4   9  23  43  70 103 144 188 237 292 355 432
#
# _framework density 23.770788
#
# number of rings (size 3 to 8) (size 9 to 14) (size 15 to 20)
#    0.000    1.200    3.000    1.800    2.800    8.000 
#    7.200    0.000    0.000    0.000    0.000    0.000 
#    0.000    0.000    0.000    0.000    0.000    0.000 
#
# Total GULP energy -111740.736580 kJ/mol
# GULP energy per Si atom -5587.036829 kJ/mol
# Density = 2.371669 g / cm^3
# Si number density = 23.770788 Si / 1000 Ang^3
#
#
#
# Elastic Constant Matrix: (Units=GPa)
#
#
# Indices 1 2 3 4 5 6 
#
# 1 99.2220 15.2131 10.0921 0.0000 0.0000 0.0000
# 2 15.2131 77.3771 41.1303 0.0000 0.0000 0.0000
# 3 10.0921 41.1303 123.4245 0.0000 0.0000 0.0000
# 4 0.0000 0.0000 0.0000 3.6509 0.0000 0.0000
# 5 0.0000 0.0000 0.0000 0.0000 87.6743 0.0000
# 6 0.0000 0.0000 0.0000 0.0000 0.0000 34.6905
#
#
#
# Elastic Compliance Matrix: (Units=1/GPa)
#
#
# Indices 1 2 3 4 5 6 
#
# 1 0.010396 -0.001935 -0.000205 0.000000 0.000000 0.000000
# 2 -0.001935 0.016066 -0.005196 0.000000 0.000000 0.000000
# 3 -0.000205 -0.005196 0.009850 0.000000 0.000000 0.000000
# 4 0.000000 0.000000 0.000000 0.273907 0.000000 0.000000
# 5 0.000000 0.000000 0.000000 0.000000 0.011406 0.000000
# 6 0.000000 0.000000 0.000000 0.000000 0.000000 0.028826
#
#
# Mechanical properties :
#
#
# Convention : Reuss Voigt Hill
#
# Bulk Modulus (GPa) = 46.20930 48.09940 47.15435
# Shear Modulus (GPa) = 13.42870 40.77568 27.10219
#
# Velocity S-wave (km/s) = 2.37939 4.14619 3.38027
# Velocity P-wave (km/s) = 5.19908 6.57266 5.92580
#
# Compressibility (1/GPa) = 0.02164067
#
# Stress axis : x y z
#
# Youngs Moduli (GPa) = 96.19134 62.24357 101.51961
#
# Poissons Ratio (x) = 0.12043 0.02084
# Poissons Ratio (y) = 0.18611 0.52746
# Poissons Ratio (z) = 0.01975 0.32340
#
# Static dielectric constant tensor:
#      x y z
#    x 1.904280 0.000000 0.000000 
#    y 0.000000 1.949500 0.000000 
#    z 0.000000 0.000000 1.961440 
# 
# From -- ./inp_files/18806.got.cif
#   From: 2010.05.17/outbox.cif.g08.bks.cpg/sg37_10_cif.got.tgz:18806.got - 2010.06.03 17:53:42.
