data_PCOD9354056
_publ_section_title
;
Structure prediction by ZEFSAII (Michael W. Deem and Ramdas Pophale) SiO2 
 PCOD9354056
Probable space group: C C C 2
;
_chemical_formula_sum "Si O2"
_cell_formula_units_Z 64
_cell_length_a 16.338330
_cell_length_b 21.257285
_cell_length_c 8.563896
_cell_angle_alpha 90.000000
_cell_angle_beta 90.000000
_cell_angle_gamma 90.000000
_cell_volume 2974.314193
_symmetry_space_group_name_H-M "C C C 2"
_symmetry_group_IT_number 37
_symmetry_cell_setting 'orthorhombic'
loop_
_space_group_symop_operation_xyz
x,y,z
-x,-y,z
-x,y,1/2+z
x,-y,1/2+z
1/2+x,1/2+y,z
1/2-x,1/2-y,z
1/2-x,1/2+y,1/2+z
1/2+x,1/2-y,1/2+z
loop_
_atom_site_type_symbol
_atom_site_label
_atom_site_fract_x
_atom_site_fract_y
_atom_site_fract_z
Si Si1 0.184967 0.463281 0.143500
Si Si2 0.461644 0.145768 0.896823
Si Si3 0.889938 0.329584 0.699601
Si Si4 0.457666 0.430905 0.039562
Si Si5 0.194470 0.973550 0.392390
Si Si6 0.734567 0.814671 0.450530
Si Si7 0.112467 0.102940 0.381805
Si Si8 0.105636 0.588601 0.098492
O O1 0.135389 0.404518 0.211707
O O2 0.246451 0.503188 0.254282
O O3 0.126713 0.516251 0.072917
O O4 0.245862 0.438612 0.011429
O O5 0.524707 0.183925 0.788125
O O6 0.411293 0.102164 0.780016
O O7 0.404297 0.182668 0.017449
O O8 0.523383 0.106693 0.006870
O O9 0.818762 0.297775 0.797194
O O10 0.500000 0.500000 0.057711
O O11 0.415454 0.412729 0.203736
O O12 0.390220 0.434882 0.899355
O O13 0.531353 0.386811 0.983500
O O14 0.159421 0.041187 0.448047
O O15 0.750000 0.750000 0.541385
O O16 0.819840 0.844211 0.397864
O O17 0.678847 0.865543 0.542001
#
# Coordination Sequence:
#
# PCOD9354056 Si02
#       8
#     8   8   8   8   8   8   8   8
#     4  12  20  31  57  86 126 153 199 240 294 369
#     4   9  20  36  57  83 122 149 201 240 303 360
#     4  10  20  37  57  87 116 160 195 249 305 355
#     4  10  21  33  57  84 121 153 184 243 304 363
#     4  11  19  32  52  84 123 157 184 235 296 362
#     4  11  23  43  63  82 118 161 206 253 299 362
#     4  11  21  38  54  83 112 150 200 234 298 359
#     4  10  21  36  58  87 115 159 195 250 304 355
#
# _framework density 21.517567
#
# number of rings (size 3 to 8) (size 9 to 14) (size 15 to 20)
#    0.000    1.500    3.750    2.625    1.750    3.000 
#    0.000    5.625    0.000    0.000    0.000    0.000 
#    0.000    0.000    0.000    0.000    0.000    0.000 
#
# Total GULP energy -178392.587390 kJ/mol
# GULP energy per Si atom -5574.768356 kJ/mol
# Density = 2.146859 g / cm^3
# Si number density = 21.517567 Si / 1000 Ang^3
#
#
#
# Elastic Constant Matrix: (Units=GPa)
#
#
# Indices 1 2 3 4 5 6 
#
# 1 100.7630 14.2064 30.6555 0.0000 0.0000 0.0000
# 2 14.2064 43.3145 -3.3143 0.0000 0.0000 0.0000
# 3 30.6555 -3.3143 75.3686 0.0000 0.0000 0.0000
# 4 0.0000 0.0000 0.0000 10.6569 0.0000 0.0000
# 5 0.0000 0.0000 0.0000 0.0000 38.5731 0.0000
# 6 0.0000 0.0000 0.0000 0.0000 0.0000 5.9378
#
#
#
# Elastic Compliance Matrix: (Units=1/GPa)
#
#
# Indices 1 2 3 4 5 6 
#
# 1 0.012093 -0.004357 -0.005111 0.000000 0.000000 0.000000
# 2 -0.004357 0.024735 0.002860 0.000000 0.000000 0.000000
# 3 -0.005111 0.002860 0.015473 0.000000 0.000000 0.000000
# 4 0.000000 0.000000 0.000000 0.093836 0.000000 0.000000
# 5 0.000000 0.000000 0.000000 0.000000 0.025925 0.000000
# 6 0.000000 0.000000 0.000000 0.000000 0.000000 0.168412
#
#
# Mechanical properties :
#
#
# Convention : Reuss Voigt Hill
#
# Bulk Modulus (GPa) = 25.58518 33.61571 29.60045
# Shear Modulus (GPa) = 13.63446 22.89346 18.26396
#
# Velocity S-wave (km/s) = 2.51996 3.26535 2.91657
# Velocity P-wave (km/s) = 4.51476 5.46563 5.01279
#
# Compressibility (1/GPa) = 0.03908512
#
# Stress axis : x y z
#
# Youngs Moduli (GPa) = 82.68963 40.42856 64.63059
#
# Poissons Ratio (x) = 0.17617 0.33030
# Poissons Ratio (y) = 0.36032 -0.18485
# Poissons Ratio (z) = 0.42259 -0.11563
#
# Static dielectric constant tensor:
#      x y z
#    x 1.815540 0.000000 0.000000 
#    y 0.000000 1.758750 0.000000 
#    z 0.000000 0.000000 1.862160 
# 
# From -- ./inp_files/3748.got.cif
#   From: 2010.05.17/outbox.cif.g08.bks.cpg/sg37_2_cif.got.tgz:3748.got - 2010.06.03 17:53:42.
