data_PCOD9354553
_publ_section_title
;
Structure prediction by ZEFSAII (Michael W. Deem and Ramdas Pophale) SiO2 
 PCOD9354553
Probable space group: C C C 2
;
_chemical_formula_sum "Si O2"
_cell_formula_units_Z 64
_cell_length_a 6.760491
_cell_length_b 18.573414
_cell_length_c 27.095822
_cell_angle_alpha 90.000000
_cell_angle_beta 90.000000
_cell_angle_gamma 90.000000
_cell_volume 3402.297679
_symmetry_space_group_name_H-M "C C C 2"
_symmetry_group_IT_number 37
_symmetry_cell_setting 'orthorhombic'
loop_
_space_group_symop_operation_xyz
x,y,z
-x,-y,z
-x,y,1/2+z
x,-y,1/2+z
1/2+x,1/2+y,z
1/2-x,1/2-y,z
1/2-x,1/2+y,1/2+z
1/2+x,1/2-y,1/2+z
loop_
_atom_site_type_symbol
_atom_site_label
_atom_site_fract_x
_atom_site_fract_y
_atom_site_fract_z
Si Si1 0.617085 0.924809 0.523150
Si Si2 0.449954 0.920407 0.280275
Si Si3 0.103358 0.075373 0.852808
Si Si4 0.235925 0.164700 0.044940
Si Si5 0.481126 0.417169 0.466001
Si Si6 0.437002 0.580286 0.111552
Si Si7 0.660395 0.327326 0.787557
Si Si8 0.168391 0.169516 0.707200
O O1 0.453384 0.866428 0.536454
O O2 0.748079 0.904073 0.475188
O O3 0.773432 0.928216 0.568264
O O4 0.500000 0.000000 0.516400
O O5 0.324708 0.926189 0.331211
O O6 0.655955 0.880724 0.286505
O O7 0.315416 0.875237 0.242603
O O8 0.500000 0.000000 0.261727
O O9 0.067292 0.081831 0.911058
O O10 0.993062 0.142041 0.827322
O O11 0.000000 0.000000 0.837020
O O12 0.250000 0.250000 0.051459
O O13 0.124045 0.123761 0.089360
O O14 0.105248 0.139154 0.998042
O O15 0.500000 0.500000 0.485075
O O16 0.500000 0.500000 0.126958
O O17 0.354242 0.626293 0.156693
O O18 0.750000 0.250000 0.799344
O O19 0.540196 0.325427 0.736191
O O20 0.250000 0.250000 0.699848
#
# Coordination Sequence:
#
# PCOD9354553 Si02
#       8
#     8   8   8   8   8   8   8   8
#     4  11  20  42  68  86 126 172 206 253 320 371
#     4  11  23  42  66  90 127 168 210 261 321 378
#     4  10  22  40  64  96 124 159 218 263 308 384
#     4  11  24  42  62  94 128 165 209 266 315 373
#     4  10  21  41  64  93 124 163 214 259 308 381
#     4  11  25  41  64  95 127 164 216 263 310 382
#     4  11  23  44  63  89 128 170 206 263 328 380
#     4  11  26  42  63  94 128 167 215 267 319 382
#
# _framework density 18.810817
#
# number of rings (size 3 to 8) (size 9 to 14) (size 15 to 20)
#    0.000    1.250    5.000    0.750    3.500    4.500 
#    4.500    0.000    0.000    0.000    0.000    0.000 
#    0.000    0.000    0.000    0.000    0.000    0.000 
#
# Total GULP energy -178658.784930 kJ/mol
# GULP energy per Si atom -5583.087029 kJ/mol
# Density = 1.876800 g / cm^3
# Si number density = 18.810817 Si / 1000 Ang^3
#
#
#
# Elastic Constant Matrix: (Units=GPa)
#
#
# Indices 1 2 3 4 5 6 
#
# 1 109.1760 42.0098 27.0707 0.0000 0.0000 0.0000
# 2 42.0098 151.3815 34.4557 0.0000 0.0000 0.0000
# 3 27.0707 34.4557 88.2663 0.0000 0.0000 0.0000
# 4 0.0000 0.0000 0.0000 14.9978 0.0000 0.0000
# 5 0.0000 0.0000 0.0000 0.0000 9.2539 0.0000
# 6 0.0000 0.0000 0.0000 0.0000 0.0000 38.9867
#
#
#
# Elastic Compliance Matrix: (Units=1/GPa)
#
#
# Indices 1 2 3 4 5 6 
#
# 1 0.010672 -0.002433 -0.002323 0.000000 0.000000 0.000000
# 2 -0.002433 0.007805 -0.002301 0.000000 0.000000 0.000000
# 3 -0.002323 -0.002301 0.012940 0.000000 0.000000 0.000000
# 4 0.000000 0.000000 0.000000 0.066676 0.000000 0.000000
# 5 0.000000 0.000000 0.000000 0.000000 0.108062 0.000000
# 6 0.000000 0.000000 0.000000 0.000000 0.000000 0.025650
#
#
# Mechanical properties :
#
#
# Convention : Reuss Voigt Hill
#
# Bulk Modulus (GPa) = 57.79294 61.76624 59.77959
# Shear Modulus (GPa) = 19.86608 29.00020 24.43314
#
# Velocity S-wave (km/s) = 3.25329 3.93068 3.60792
# Velocity P-wave (km/s) = 6.70088 7.31485 7.01459
#
# Compressibility (1/GPa) = 0.01730315
#
# Stress axis : x y z
#
# Youngs Moduli (GPa) = 93.70604 128.13066 77.28019
#
# Poissons Ratio (x) = 0.31170 0.17955
# Poissons Ratio (y) = 0.22796 0.17778
# Poissons Ratio (z) = 0.21771 0.29476
#
# Static dielectric constant tensor:
#      x y z
#    x 1.656740 0.000000 0.000000 
#    y 0.000000 1.629040 0.000000 
#    z 0.000000 0.000000 1.653420 
# 
# From -- ./inp_files/20258.got.cif
#   From: 2010.05.17/outbox.cif.g08.bks.cpg/sg37_11_cif.got.tgz:20258.got - 2010.06.03 17:53:42.
