data_PCOD9354998
_publ_section_title
;
Structure prediction by ZEFSAII (Michael W. Deem and Ramdas Pophale) SiO2 
 PCOD9354998
Probable space group: C C C 2
;
_chemical_formula_sum "Si O2"
_cell_formula_units_Z 56
_cell_length_a 19.584377
_cell_length_b 12.129691
_cell_length_c 10.940920
_cell_angle_alpha 90.000000
_cell_angle_beta 90.000000
_cell_angle_gamma 90.000000
_cell_volume 2599.042258
_symmetry_space_group_name_H-M "C C C 2"
_symmetry_group_IT_number 37
_symmetry_cell_setting 'orthorhombic'
loop_
_space_group_symop_operation_xyz
x,y,z
-x,-y,z
-x,y,1/2+z
x,-y,1/2+z
1/2+x,1/2+y,z
1/2-x,1/2-y,z
1/2-x,1/2+y,1/2+z
1/2+x,1/2-y,1/2+z
loop_
_atom_site_type_symbol
_atom_site_label
_atom_site_fract_x
_atom_site_fract_y
_atom_site_fract_z
Si Si1 0.394739 0.406197 0.604940
Si Si2 0.826569 0.718130 0.743146
Si Si3 0.964704 0.752093 0.423643
Si Si4 0.381745 0.358001 0.205607
Si Si5 0.113898 0.684026 0.492995
Si Si6 0.634973 0.936793 0.522756
Si Si7 0.273121 0.377142 0.411557
O O1 0.373157 0.324207 0.713315
O O2 0.452562 0.345047 0.527091
O O3 0.408806 0.527615 0.651603
O O4 0.329649 0.407603 0.512774
O O5 0.750000 0.750000 0.711302
O O6 0.832182 0.688213 0.883848
O O7 0.848393 0.620570 0.652106
O O8 0.935719 0.803373 0.299018
O O9 0.917633 0.646791 0.457656
O O10 0.042374 0.716427 0.429999
O O11 0.312855 0.385943 0.282945
O O12 0.368787 0.269932 0.099255
O O13 0.108113 0.559538 0.540900
O O14 0.703761 0.941294 0.440657
O O15 0.250000 0.250000 0.423941
#
# Coordination Sequence:
#
# PCOD9354998 Si02
#       7
#     8   8   8   8   8   8   8
#     4  10  22  45  73 101 141 197 242 293 361 438
#     4  11  24  47  72 105 149 185 239 302 367 430
#     4  10  25  52  70 102 149 195 241 298 377 426
#     4  11  27  44  72 105 147 194 254 299 356 444
#     4  12  30  44  73 117 139 188 255 299 361 440
#     4  11  23  48  76 103 146 197 232 303 373 438
#     4  11  20  45  75 102 149 195 236 295 378 426
#
# _framework density 21.546399000000001
#
# number of rings (size 3 to 8) (size 9 to 14) (size 15 to 20)
#    0.000    1.143    5.714    0.429   12.000    2.286 
#    0.000    0.000    0.000    0.000    0.000    0.000 
#    0.000    0.000    0.000    0.000    0.000    0.000 
#
# Total GULP energy -156655.399142 kJ/mol
# GULP energy per Si atom -5594.835684 kJ/mol
# Density = 2.149736 g / cm^3
# Si number density = 21.546399 Si / 1000 Ang^3
#
#
#
# Elastic Constant Matrix: (Units=GPa)
#
#
# Indices 1 2 3 4 5 6 
#
# 1 52.9815 9.7031 3.5599 0.0000 0.0000 0.0000
# 2 9.7031 170.9505 66.6994 0.0000 0.0000 0.0000
# 3 3.5599 66.6994 93.2491 0.0000 0.0000 0.0000
# 4 0.0000 0.0000 0.0000 11.8454 0.0000 0.0000
# 5 0.0000 0.0000 0.0000 0.0000 19.4633 0.0000
# 6 0.0000 0.0000 0.0000 0.0000 0.0000 18.7678
#
#
#
# Elastic Compliance Matrix: (Units=1/GPa)
#
#
# Indices 1 2 3 4 5 6 
#
# 1 0.019073 -0.001108 0.000064 0.000000 0.000000 0.000000
# 2 -0.001108 0.008178 -0.005808 0.000000 0.000000 0.000000
# 3 0.000064 -0.005808 0.014876 0.000000 0.000000 0.000000
# 4 0.000000 0.000000 0.000000 0.084421 0.000000 0.000000
# 5 0.000000 0.000000 0.000000 0.000000 0.051379 0.000000
# 6 0.000000 0.000000 0.000000 0.000000 0.000000 0.053283
#
#
# Mechanical properties :
#
#
# Convention : Reuss Voigt Hill
#
# Bulk Modulus (GPa) = 35.18040 53.01176 44.09608
# Shear Modulus (GPa) = 19.65511 25.82987 22.74249
#
# Velocity S-wave (km/s) = 3.02358 3.46613 3.25239
# Velocity P-wave (km/s) = 5.34346 6.37775 5.88338
#
# Compressibility (1/GPa) = 0.02842492
#
# Stress axis : x y z
#
# Youngs Moduli (GPa) = 52.42996 122.27242 67.22418
#
# Poissons Ratio (x) = 0.13543 -0.00431
# Poissons Ratio (y) = 0.05807 0.39041
# Poissons Ratio (z) = -0.00336 0.71011
#
# Static dielectric constant tensor:
#      x y z
#    x 1.814040 0.000000 0.000000 
#    y 0.000000 1.748690 0.000000 
#    z 0.000000 0.000000 1.769310 
# 
# From -- ./inp_files/8580.got.cif
#   From: 2010.05.17/outbox.cif.g08.bks.cpg/sg37_5_cif.got.tgz:8580.got - 2010.06.03 17:53:42.
