data_PCOD9354774
_publ_section_title
;
Structure prediction by ZEFSAII (Michael W. Deem and Ramdas Pophale) SiO2 
 PCOD9354774
Probable space group: C C C 2
;
_chemical_formula_sum "Si O2"
_cell_formula_units_Z 56
_cell_length_a 20.613534
_cell_length_b 13.294875
_cell_length_c 9.795278
_cell_angle_alpha 90.000000
_cell_angle_beta 90.000000
_cell_angle_gamma 90.000000
_cell_volume 2684.438622
_symmetry_space_group_name_H-M "C C C 2"
_symmetry_group_IT_number 37
_symmetry_cell_setting 'orthorhombic'
loop_
_space_group_symop_operation_xyz
x,y,z
-x,-y,z
-x,y,1/2+z
x,-y,1/2+z
1/2+x,1/2+y,z
1/2-x,1/2-y,z
1/2-x,1/2+y,1/2+z
1/2+x,1/2-y,1/2+z
loop_
_atom_site_type_symbol
_atom_site_label
_atom_site_fract_x
_atom_site_fract_y
_atom_site_fract_z
Si Si1 0.417932 0.125980 0.752170
Si Si2 0.180493 0.209448 0.796608
Si Si3 0.560851 0.791156 0.304428
Si Si4 0.179149 0.789558 0.621394
Si Si5 0.923161 0.480789 0.985250
Si Si6 0.442072 0.570507 0.913020
Si Si7 0.862308 0.010513 0.169412
O O1 0.375736 0.224507 0.728937
O O2 0.493635 0.160543 0.746926
O O3 0.403354 0.040824 0.639576
O O4 0.399167 0.074834 0.896742
O O5 0.250000 0.250000 0.755323
O O6 0.175137 0.095216 0.751699
O O7 0.172556 0.221526 0.958885
O O8 0.617236 0.760887 0.197265
O O9 0.588003 0.876808 0.404687
O O10 0.543154 0.687785 0.385124
O O11 0.250000 0.750000 0.664530
O O12 0.176758 0.908546 0.648526
O O13 0.000000 0.500000 0.988287
O O14 0.500000 0.500000 0.963983
O O15 0.420825 0.522844 0.768769
O O16 0.386583 0.556138 0.026425
#
# Coordination Sequence:
#
# PCOD9354774 Si02
#       7
#     8   8   8   8   8   8   8
#     4  11  24  42  69  98 140 175 233 278 346 400
#     4  11  25  46  68 100 137 181 225 281 340 406
#     4  10  23  38  69  96 136 175 229 277 338 403
#     4  10  24  45  71  98 136 181 225 277 345 406
#     4  10  22  40  62 102 135 177 222 284 333 404
#     4  11  22  38  65  99 134 176 219 281 344 401
#     4  11  22  43  65  99 134 173 229 276 332 410
#
# _framework density 20.860973000000001
#
# number of rings (size 3 to 8) (size 9 to 14) (size 15 to 20)
#    0.000    1.429    1.429    3.429    6.000    3.429 
#    2.571    6.429    0.000    0.000    0.000    0.000 
#    0.000    0.000    0.000    0.000    0.000    0.000 
#
# Total GULP energy -156394.904710 kJ/mol
# GULP energy per Si atom -5585.532311 kJ/mol
# Density = 2.081349 g / cm^3
# Si number density = 20.860973 Si / 1000 Ang^3
#
#
#
# Elastic Constant Matrix: (Units=GPa)
#
#
# Indices 1 2 3 4 5 6 
#
# 1 78.6169 39.3757 26.4326 0.0000 0.0000 0.0000
# 2 39.3757 126.0332 24.9727 0.0000 0.0000 0.0000
# 3 26.4326 24.9727 69.6739 0.0000 0.0000 0.0000
# 4 0.0000 0.0000 0.0000 38.5173 0.0000 0.0000
# 5 0.0000 0.0000 0.0000 0.0000 22.2392 0.0000
# 6 0.0000 0.0000 0.0000 0.0000 0.0000 -5.7792
#
#
#
# Elastic Compliance Matrix: (Units=1/GPa)
#
#
# Indices 1 2 3 4 5 6 
#
# 1 0.016406 -0.004190 -0.004722 0.000000 0.000000 0.000000
# 2 -0.004190 0.009611 -0.001855 0.000000 0.000000 0.000000
# 3 -0.004722 -0.001855 0.016809 0.000000 0.000000 0.000000
# 4 0.000000 0.000000 0.000000 0.025962 0.000000 0.000000
# 5 0.000000 0.000000 0.000000 0.000000 0.044966 0.000000
# 6 0.000000 0.000000 0.000000 0.000000 0.000000 -0.173036
#
#
# Mechanical properties :
#
#
# Convention : Reuss Voigt Hill
#
# Bulk Modulus (GPa) = 46.96768 50.65401 48.81085
# Shear Modulus (GPa) = -163.13651 23.23167 -69.95242
#
# Velocity S-wave (km/s) = -8.85277 3.34075 -5.79702
# Velocity P-wave (km/s) = 9.05162 6.26221 4.62151
#
# Compressibility (1/GPa) = 0.02129124
#
# Stress axis : x y z
#
# Youngs Moduli (GPa) = 60.95237 104.04672 59.49160
#
# Poissons Ratio (x) = 0.43595 0.28094
# Poissons Ratio (y) = 0.25539 0.11037
# Poissons Ratio (z) = 0.28784 0.19303
#
# Static dielectric constant tensor:
#      x y z
#    x 1.674770 0.000000 0.000000 
#    y 0.000000 1.734210 0.000000 
#    z 0.000000 0.000000 1.772330 
# 
# From -- ./inp_files/4382.got.cif
#   From: 2010.05.17/outbox.cif.g08.bks.cpg/sg37_3_cif.got.tgz:4382.got - 2010.06.03 17:53:42.
