data_PCOD9354384
_publ_section_title
;
Structure prediction by ZEFSAII (Michael W. Deem and Ramdas Pophale) SiO2 
 PCOD9354384
Probable space group: C C C 2
;
_chemical_formula_sum "Si O2"
_cell_formula_units_Z 36
_cell_length_a 14.246671
_cell_length_b 5.333823
_cell_length_c 20.681200
_cell_angle_alpha 90.000000
_cell_angle_beta 90.000000
_cell_angle_gamma 90.000000
_cell_volume 1571.548287
_symmetry_space_group_name_H-M "C C C 2"
_symmetry_group_IT_number 37
_symmetry_cell_setting 'orthorhombic'
loop_
_space_group_symop_operation_xyz
x,y,z
-x,-y,z
-x,y,1/2+z
x,-y,1/2+z
1/2+x,1/2+y,z
1/2-x,1/2-y,z
1/2-x,1/2+y,1/2+z
1/2+x,1/2-y,1/2+z
loop_
_atom_site_type_symbol
_atom_site_label
_atom_site_fract_x
_atom_site_fract_y
_atom_site_fract_z
Si Si1 0.898560 0.772811 0.972570
Si Si2 0.000000 0.000000 0.590875
Si Si3 0.638057 0.746153 0.267357
Si Si4 0.892768 0.726650 0.417114
Si Si5 0.135673 0.255090 0.691200
O O1 0.853835 0.505974 0.958194
O O2 0.998649 0.749579 0.936663
O O3 0.849648 0.009596 0.939425
O O4 0.929796 0.838900 0.045165
O O5 0.069026 0.177526 0.631913
O O6 0.750000 0.750000 0.267101
O O7 0.610417 0.803576 0.340599
O O8 0.613459 0.467427 0.242922
O O9 0.610362 0.972591 0.219731
O O10 0.250000 0.250000 0.678270
#
# Coordination Sequence:
#
# PCOD9354384 Si02
#       5
#     8   4   8   8   8
#     4   9  20  33  53  82 109 144 200 246 286 365
#     4  10  22  40  62  84 120 166 204 250 310 362
#     4  10  21  37  57  86 121 154 196 252 311 371
#     4   9  17  34  54  76 111 142 183 250 297 343
#     4  10  23  39  59  89 122 158 203 251 303 376
#
# _framework density 22.907343999999998
#
# number of rings (size 3 to 8) (size 9 to 14) (size 15 to 20)
#    0.000    2.667    0.000    1.333    0.000   13.333 
#    0.000    4.444    0.000    5.333    0.000    0.000 
#    0.000    0.000    0.000    0.000    0.000    0.000 
#
# Total GULP energy -100465.513488 kJ/mol
# GULP energy per Si atom -5581.417416 kJ/mol
# Density = 2.285521 g / cm^3
# Si number density = 22.907344 Si / 1000 Ang^3
#
#
#
# Elastic Constant Matrix: (Units=GPa)
#
#
# Indices 1 2 3 4 5 6 
#
# 1 103.9658 14.9238 30.5226 0.0000 0.0000 0.0000
# 2 14.9238 175.3521 49.3835 0.0000 0.0000 0.0000
# 3 30.5226 49.3835 144.6215 0.0000 0.0000 0.0000
# 4 0.0000 0.0000 0.0000 44.6740 0.0000 0.0000
# 5 0.0000 0.0000 0.0000 0.0000 -520.8993 0.0000
# 6 0.0000 0.0000 0.0000 0.0000 0.0000 -5.1260
#
#
#
# Elastic Compliance Matrix: (Units=1/GPa)
#
#
# Indices 1 2 3 4 5 6 
#
# 1 0.010267 -0.000292 -0.002067 0.000000 0.000000 0.000000
# 2 -0.000292 0.006318 -0.002096 0.000000 0.000000 0.000000
# 3 -0.002067 -0.002096 0.008067 0.000000 0.000000 0.000000
# 4 0.000000 0.000000 0.000000 0.022384 0.000000 0.000000
# 5 0.000000 0.000000 0.000000 0.000000 -0.001920 0.000000
# 6 0.000000 0.000000 0.000000 0.000000 0.000000 -0.195084
#
#
# Mechanical properties :
#
#
# Convention : Reuss Voigt Hill
#
# Bulk Modulus (GPa) = 63.52338 68.17768 65.85053
# Shear Modulus (GPa) = -36.81605 -74.32961 -55.57283
#
# Velocity S-wave (km/s) = -4.01330 -5.70249 -4.93077
# Velocity P-wave (km/s) = 2.51302 3.67843 1.89942
#
# Compressibility (1/GPa) = 0.01574224
#
# Stress axis : x y z
#
# Youngs Moduli (GPa) = 97.39613 158.28152 123.96852
#
# Poissons Ratio (x) = 0.04616 0.25629
# Poissons Ratio (y) = 0.02840 0.25981
# Poissons Ratio (z) = 0.20135 0.33173
#
# Static dielectric constant tensor:
#      x y z
#    x 1.873730 0.000000 0.000000 
#    y 0.000000 2.022640 0.000000 
#    z 0.000000 0.000000 1.833560 
# 
# From -- ./inp_files/17025.got.cif
#   From: 2010.05.17/outbox.cif.g08.bks.cpg/sg37_9_cif.got.tgz:17025.got - 2010.06.03 17:53:42.
