data_PCOD9354441
_publ_section_title
;
Structure prediction by ZEFSAII (Michael W. Deem and Ramdas Pophale) SiO2 
 PCOD9354441
Probable space group: C C C 2
;
_chemical_formula_sum "Si O2"
_cell_formula_units_Z 48
_cell_length_a 8.228197
_cell_length_b 14.993499
_cell_length_c 17.313832
_cell_angle_alpha 90.000000
_cell_angle_beta 90.000000
_cell_angle_gamma 90.000000
_cell_volume 2135.998165
_symmetry_space_group_name_H-M "C C C 2"
_symmetry_group_IT_number 37
_symmetry_cell_setting 'orthorhombic'
loop_
_space_group_symop_operation_xyz
x,y,z
-x,-y,z
-x,y,1/2+z
x,-y,1/2+z
1/2+x,1/2+y,z
1/2-x,1/2-y,z
1/2-x,1/2+y,1/2+z
1/2+x,1/2-y,1/2+z
loop_
_atom_site_type_symbol
_atom_site_label
_atom_site_fract_x
_atom_site_fract_y
_atom_site_fract_z
Si Si1 0.420454 0.765621 0.046230
Si Si2 0.367765 0.079842 0.992882
Si Si3 0.593681 0.593277 0.118714
Si Si4 0.856837 0.335651 0.214283
Si Si5 0.228926 0.345256 0.272574
Si Si6 0.192689 0.523026 0.331387
O O1 0.250000 0.750000 0.004856
O O2 0.491998 0.672094 0.076754
O O3 0.375856 0.825731 0.122334
O O4 0.544714 0.824752 0.998412
O O5 0.276359 0.072527 0.911027
O O6 0.500000 0.000000 0.996885
O O7 0.245942 0.071861 0.063881
O O8 0.500000 0.500000 0.130791
O O9 0.661798 0.638608 0.196692
O O10 0.750000 0.250000 0.238358
O O11 0.772597 0.420976 0.253955
O O12 0.040737 0.342208 0.245292
O O13 0.250000 0.250000 0.309642
O O14 0.271921 0.426705 0.327571
O O15 0.000000 0.500000 0.330988
#
# Coordination Sequence:
#
# PCOD9354441 Si02
#       6
#     8   8   8   8   8   8
#     4  11  23  41  69 100 130 173 228 277 338 388
#     4  11  23  44  67  98 136 180 217 268 345 394
#     4  12  25  41  68 102 135 173 228 281 329 400
#     4  10  21  38  64  99 126 169 222 269 328 391
#     4  11  21  41  66  98 134 171 221 283 328 390
#     4   9  23  41  64  97 133 178 218 265 335 406
#
# _framework density 22.471927999999998
#
# number of rings (size 3 to 8) (size 9 to 14) (size 15 to 20)
#    0.000    1.333    3.333    1.500    7.000    1.333 
#    0.000   15.000    0.000    0.000    0.000    0.000 
#    0.000    0.000    0.000    0.000    0.000    0.000 
#
# Total GULP energy -134089.153198 kJ/mol
# GULP energy per Si atom -5587.048050 kJ/mol
# Density = 2.242078 g / cm^3
# Si number density = 22.471928 Si / 1000 Ang^3
#
#
#
# Elastic Constant Matrix: (Units=GPa)
#
#
# Indices 1 2 3 4 5 6 
#
# 1 72.1688 31.1569 5.1012 0.0000 0.0000 0.0000
# 2 31.1569 168.6410 48.6526 0.0000 0.0000 0.0000
# 3 5.1012 48.6526 74.1531 0.0000 0.0000 0.0000
# 4 0.0000 0.0000 0.0000 -7.2481 0.0000 0.0000
# 5 0.0000 0.0000 0.0000 0.0000 -9.4525 0.0000
# 6 0.0000 0.0000 0.0000 0.0000 0.0000 38.8970
#
#
#
# Elastic Compliance Matrix: (Units=1/GPa)
#
#
# Indices 1 2 3 4 5 6 
#
# 1 0.015115 -0.003074 0.000977 0.000000 0.000000 0.000000
# 2 -0.003074 0.007940 -0.004998 0.000000 0.000000 0.000000
# 3 0.000977 -0.004998 0.016697 0.000000 0.000000 0.000000
# 4 0.000000 0.000000 0.000000 -0.137968 0.000000 0.000000
# 5 0.000000 0.000000 0.000000 0.000000 -0.105792 0.000000
# 6 0.000000 0.000000 0.000000 0.000000 0.000000 0.025709
#
#
# Mechanical properties :
#
#
# Convention : Reuss Voigt Hill
#
# Bulk Modulus (GPa) = 39.12046 53.86493 46.49269
# Shear Modulus (GPa) = -32.13596 19.77609 -6.17994
#
# Velocity S-wave (km/s) = -3.78570 2.96976 -1.66013
# Velocity P-wave (km/s) = 1.28932 5.98174 4.13031
#
# Compressibility (1/GPa) = 0.02556207
#
# Stress axis : x y z
#
# Youngs Moduli (GPa) = 66.16110 125.95076 59.88935
#
# Poissons Ratio (x) = 0.38723 -0.05854
# Poissons Ratio (y) = 0.20341 0.29931
# Poissons Ratio (z) = -0.06467 0.62947
#
# Static dielectric constant tensor:
#      x y z
#    x 1.867450 0.000000 0.000000 
#    y 0.000000 1.873390 0.000000 
#    z 0.000000 0.000000 1.816060 
# 
# From -- ./inp_files/14509.got.cif
#   From: 2010.05.17/outbox.cif.g08.bks.cpg/sg37_8_cif.got.tgz:14509.got - 2010.06.03 17:53:42.
