data_PCOD9354613
_publ_section_title
;
Structure prediction by ZEFSAII (Michael W. Deem and Ramdas Pophale) SiO2 
 PCOD9354613
Probable space group: C C C 2
;
_chemical_formula_sum "Si O2"
_cell_formula_units_Z 60
_cell_length_a 11.517564
_cell_length_b 25.460536
_cell_length_c 8.856392
_cell_angle_alpha 90.000000
_cell_angle_beta 90.000000
_cell_angle_gamma 90.000000
_cell_volume 2597.078084
_symmetry_space_group_name_H-M "C C C 2"
_symmetry_group_IT_number 37
_symmetry_cell_setting 'orthorhombic'
loop_
_space_group_symop_operation_xyz
x,y,z
-x,-y,z
-x,y,1/2+z
x,-y,1/2+z
1/2+x,1/2+y,z
1/2-x,1/2-y,z
1/2-x,1/2+y,1/2+z
1/2+x,1/2-y,1/2+z
loop_
_atom_site_type_symbol
_atom_site_label
_atom_site_fract_x
_atom_site_fract_y
_atom_site_fract_z
Si Si1 0.122019 0.796148 0.209700
Si Si2 0.750000 0.250000 0.688854
Si Si3 0.864960 0.446962 0.652604
Si Si4 0.474591 0.354763 0.437031
Si Si5 0.166510 0.134871 0.150232
Si Si6 0.122735 0.554254 0.013945
Si Si7 0.527059 0.204626 0.857460
Si Si8 0.869984 0.660967 0.653606
O O1 0.258079 0.804976 0.196358
O O2 0.071382 0.842322 0.312243
O O3 0.063868 0.748616 0.302817
O O4 0.072479 0.806414 0.040908
O O5 0.808607 0.197497 0.614271
O O6 0.647969 0.222419 0.783903
O O7 0.779255 0.399128 0.615605
O O8 0.820876 0.502788 0.588368
O O9 0.989994 0.441766 0.573592
O O10 0.875401 0.449881 0.833774
O O11 0.367605 0.370010 0.328052
O O12 0.554471 0.385477 0.556941
O O13 0.175861 0.607747 0.079609
O O14 0.461798 0.153684 0.788499
O O15 0.554260 0.191396 0.028201
#
# Coordination Sequence:
#
# PCOD9354613 Si02
#       8
#     8   4   8   8   8   8   8   8
#     4  11  23  43  66  95 142 187 235 291 345 417
#     4  12  22  38  68  96 150 182 228 290 342 424
#     4  11  24  45  73 106 137 184 234 306 376 437
#     4  10  21  43  66  99 141 192 236 281 352 412
#     4  11  24  43  71 105 146 195 242 294 359 438
#     4  11  23  44  72 103 141 176 237 305 374 438
#     4  12  26  40  67  99 140 187 240 278 351 435
#     4  12  27  44  67 102 142 187 237 294 359 429
#
# _framework density 23.102886999999999
#
# number of rings (size 3 to 8) (size 9 to 14) (size 15 to 20)
#    0.000    0.800    2.667    6.800    1.867    4.267 
#    0.000    0.000    0.000   13.600    0.000    0.000 
#    0.000    0.000    0.000    0.000    0.000    0.000 
#
# Total GULP energy -167418.404387 kJ/mol
# GULP energy per Si atom -5580.613480 kJ/mol
# Density = 2.305030 g / cm^3
# Si number density = 23.102887 Si / 1000 Ang^3
#
#
#
# Elastic Constant Matrix: (Units=GPa)
#
#
# Indices 1 2 3 4 5 6 
#
# 1 117.0874 16.6588 36.9592 0.0000 0.0000 0.0000
# 2 16.6588 81.7587 13.1352 0.0000 0.0000 0.0000
# 3 36.9592 13.1352 75.2518 0.0000 0.0000 0.0000
# 4 0.0000 0.0000 0.0000 26.4542 0.0000 0.0000
# 5 0.0000 0.0000 0.0000 0.0000 25.0145 0.0000
# 6 0.0000 0.0000 0.0000 0.0000 0.0000 32.9079
#
#
#
# Elastic Compliance Matrix: (Units=1/GPa)
#
#
# Indices 1 2 3 4 5 6 
#
# 1 0.010243 -0.001316 -0.004801 0.000000 0.000000 0.000000
# 2 -0.001316 0.012753 -0.001580 0.000000 0.000000 0.000000
# 3 -0.004801 -0.001580 0.015923 0.000000 0.000000 0.000000
# 4 0.000000 0.000000 0.000000 0.037801 0.000000 0.000000
# 5 0.000000 0.000000 0.000000 0.000000 0.039977 0.000000
# 6 0.000000 0.000000 0.000000 0.000000 0.000000 0.030388
#
#
# Mechanical properties :
#
#
# Convention : Reuss Voigt Hill
#
# Bulk Modulus (GPa) = 42.50752 45.28938 43.89845
# Shear Modulus (GPa) = 29.35646 30.69830 30.02738
#
# Velocity S-wave (km/s) = 3.56853 3.64918 3.60908
# Velocity P-wave (km/s) = 5.95134 6.11565 6.03405
#
# Compressibility (1/GPa) = 0.02352525
#
# Stress axis : x y z
#
# Youngs Moduli (GPa) = 97.62401 78.41277 62.80390
#
# Poissons Ratio (x) = 0.10317 0.30154
# Poissons Ratio (y) = 0.12845 0.09922
# Poissons Ratio (z) = 0.46872 0.12388
#
# Static dielectric constant tensor:
#      x y z
#    x 1.878460 0.000000 0.000000 
#    y 0.000000 1.983270 0.000000 
#    z 0.000000 0.000000 1.955830 
# 
# From -- ./inp_files/3040.got.cif
#   From: 2010.05.17/outbox.cif.g08.bks.cpg/sg37_2_cif.got.tgz:3040.got - 2010.06.03 17:53:42.
