data_PCOD9354439
_publ_section_title
;
Structure prediction by ZEFSAII (Michael W. Deem and Ramdas Pophale) SiO2 
 PCOD9354439
Probable space group: C C C 2
;
_chemical_formula_sum "Si O2"
_cell_formula_units_Z 56
_cell_length_a 10.524937
_cell_length_b 12.590605
_cell_length_c 19.586405
_cell_angle_alpha 90.000000
_cell_angle_beta 90.000000
_cell_angle_gamma 90.000000
_cell_volume 2595.498813
_symmetry_space_group_name_H-M "C C C 2"
_symmetry_group_IT_number 37
_symmetry_cell_setting 'orthorhombic'
loop_
_space_group_symop_operation_xyz
x,y,z
-x,-y,z
-x,y,1/2+z
x,-y,1/2+z
1/2+x,1/2+y,z
1/2-x,1/2-y,z
1/2-x,1/2+y,1/2+z
1/2+x,1/2-y,1/2+z
loop_
_atom_site_type_symbol
_atom_site_label
_atom_site_fract_x
_atom_site_fract_y
_atom_site_fract_z
Si Si1 0.704733 0.523640 0.177830
Si Si2 0.367439 0.329474 0.847982
Si Si3 0.537533 0.334852 0.197954
Si Si4 0.375881 0.184092 0.125021
Si Si5 0.475786 0.793295 0.475638
Si Si6 0.000000 0.500000 0.401358
Si Si7 0.747755 0.557835 0.336107
Si Si8 0.250000 0.250000 0.431340
O O1 0.665084 0.399265 0.176376
O O2 0.574757 0.590709 0.167342
O O3 0.821863 0.564415 0.132236
O O4 0.736726 0.558075 0.255199
O O5 0.250000 0.250000 0.831300
O O6 0.456129 0.332031 0.780457
O O7 0.426124 0.286653 0.917922
O O8 0.319784 0.449159 0.858190
O O9 0.495707 0.219404 0.171135
O O10 0.250000 0.250000 0.146909
O O11 0.413550 0.218144 0.048992
O O12 0.440278 0.909668 0.448013
O O13 0.629128 0.785583 0.475734
O O14 0.104556 0.447261 0.354498
O O15 0.702731 0.656854 0.380703
#
# Coordination Sequence:
#
# PCOD9354439 Si02
#       8
#     8   8   8   8   8   4   8   4
#     4   9  19  37  63  91 127 166 214 274 328 388
#     4  11  21  38  65  97 129 164 217 279 322 384
#     4   9  20  38  58  95 129 160 223 270 322 398
#     4  10  22  39  64  89 125 180 212 270 336 401
#     4  11  23  43  61  93 130 172 217 266 331 400
#     4  10  22  38  60  88 134 160 208 256 322 400
#     4  10  21  38  64  98 123 166 211 269 325 382
#     4  10  24  40  64  90 130 170 214 274 324 388
#
# _framework density 21.575814999999999
#
# number of rings (size 3 to 8) (size 9 to 14) (size 15 to 20)
#    0.000    2.000    1.429    1.286    7.000    1.714 
#    6.429    5.000    0.000    0.000    0.000    0.000 
#    0.000    0.000    0.000    0.000    0.000    0.000 
#
# Total GULP energy -156141.256862 kJ/mol
# GULP energy per Si atom -5576.473459 kJ/mol
# Density = 2.152671 g / cm^3
# Si number density = 21.575815 Si / 1000 Ang^3
#
#
#
# Elastic Constant Matrix: (Units=GPa)
#
#
# Indices 1 2 3 4 5 6 
#
# 1 63.3777 20.8742 38.7972 0.0000 0.0000 0.0000
# 2 20.8742 90.7173 37.5159 0.0000 0.0000 0.0000
# 3 38.7972 37.5159 76.5316 0.0000 0.0000 0.0000
# 4 0.0000 0.0000 0.0000 21.0618 0.0000 0.0000
# 5 0.0000 0.0000 0.0000 0.0000 29.9181 0.0000
# 6 0.0000 0.0000 0.0000 0.0000 0.0000 21.1546
#
#
#
# Elastic Compliance Matrix: (Units=1/GPa)
#
#
# Indices 1 2 3 4 5 6 
#
# 1 0.022903 -0.000588 -0.011323 0.000000 0.000000 0.000000
# 2 -0.000588 0.013841 -0.006487 0.000000 0.000000 0.000000
# 3 -0.011323 -0.006487 0.021986 0.000000 0.000000 0.000000
# 4 0.000000 0.000000 0.000000 0.047479 0.000000 0.000000
# 5 0.000000 0.000000 0.000000 0.000000 0.033425 0.000000
# 6 0.000000 0.000000 0.000000 0.000000 0.000000 0.047271
#
#
# Mechanical properties :
#
#
# Convention : Reuss Voigt Hill
#
# Bulk Modulus (GPa) = 45.58675 47.22235 46.40455
# Shear Modulus (GPa) = 21.64389 23.32287 22.48338
#
# Velocity S-wave (km/s) = 3.17070 3.29138 3.23160
# Velocity P-wave (km/s) = 5.88039 6.03146 5.95640
#
# Compressibility (1/GPa) = 0.02193620
#
# Stress axis : x y z
#
# Youngs Moduli (GPa) = 43.66208 72.24822 45.48279
#
# Poissons Ratio (x) = 0.04246 0.51498
# Poissons Ratio (y) = 0.02566 0.29505
# Poissons Ratio (z) = 0.49437 0.46868
#
# Static dielectric constant tensor:
#      x y z
#    x 1.842890 0.000000 0.000000 
#    y 0.000000 1.840060 0.000000 
#    z 0.000000 0.000000 1.756420 
# 
# From -- ./inp_files/16902.got.cif
#   From: 2010.05.17/outbox.cif.g08.bks.cpg/sg37_9_cif.got.tgz:16902.got - 2010.06.03 17:53:42.
