data_PCOD9354426
_publ_section_title
;
Structure prediction by ZEFSAII (Michael W. Deem and Ramdas Pophale) SiO2 
 PCOD9354426
Probable space group: C C C 2
;
_chemical_formula_sum "Si O2"
_cell_formula_units_Z 48
_cell_length_a 9.264623
_cell_length_b 15.736757
_cell_length_c 15.239641
_cell_angle_alpha 90.000000
_cell_angle_beta 90.000000
_cell_angle_gamma 90.000000
_cell_volume 2221.865301
_symmetry_space_group_name_H-M "C C C 2"
_symmetry_group_IT_number 37
_symmetry_cell_setting 'orthorhombic'
loop_
_space_group_symop_operation_xyz
x,y,z
-x,-y,z
-x,y,1/2+z
x,-y,1/2+z
1/2+x,1/2+y,z
1/2-x,1/2-y,z
1/2-x,1/2+y,1/2+z
1/2+x,1/2-y,1/2+z
loop_
_atom_site_type_symbol
_atom_site_label
_atom_site_fract_x
_atom_site_fract_y
_atom_site_fract_z
Si Si1 0.957078 0.089168 0.927970
Si Si2 0.175195 0.657658 0.867104
Si Si3 0.403713 0.757891 0.376303
Si Si4 0.411167 0.759941 0.172727
Si Si5 0.100407 0.416037 0.176128
Si Si6 0.569403 0.586998 0.126434
O O1 0.786951 0.105098 0.924519
O O2 0.030350 0.164645 0.875689
O O3 0.000000 0.000000 0.887938
O O4 0.018061 0.092533 0.025771
O O5 0.250000 0.750000 0.847077
O O6 0.142123 0.608701 0.776967
O O7 0.024908 0.680206 0.914074
O O8 0.250000 0.750000 0.421615
O O9 0.385760 0.784563 0.275028
O O10 0.250000 0.750000 0.132836
O O11 0.507881 0.837183 0.137957
O O12 0.502758 0.672856 0.167942
O O13 0.257895 0.421382 0.131802
O O14 0.000000 0.500000 0.172849
O O15 0.500000 0.500000 0.163554
#
# Coordination Sequence:
#
# PCOD9354426 Si02
#       6
#     8   8   8   8   8   8
#     4  10  22  37  55  81 115 157 198 240 294 357
#     4   9  19  38  61  84 115 154 197 246 300 358
#     4   9  19  36  57  86 114 144 193 244 294 354
#     4  10  21  38  62  90 119 153 198 248 301 358
#     4  11  22  38  63  93 122 155 201 258 309 358
#     4  11  23  39  56  84 123 163 203 244 300 363
#
# _framework density 21.603470000000002
#
# number of rings (size 3 to 8) (size 9 to 14) (size 15 to 20)
#    0.000    2.000    0.000    4.500    0.000   10.000 
#    0.000    3.333    0.000    0.000    0.000    0.000 
#    0.000    0.000    0.000    0.000    0.000    0.000 
#
# Total GULP energy -133909.190728 kJ/mol
# GULP energy per Si atom -5579.549614 kJ/mol
# Density = 2.155430 g / cm^3
# Si number density = 21.603470 Si / 1000 Ang^3
#
#
#
# Elastic Constant Matrix: (Units=GPa)
#
#
# Indices 1 2 3 4 5 6 
#
# 1 246.5473 90.6427 30.8539 0.0000 0.0000 0.0000
# 2 90.6427 130.1082 5.4518 0.0000 0.0000 0.0000
# 3 30.8539 5.4518 51.3673 0.0000 0.0000 0.0000
# 4 0.0000 0.0000 0.0000 23.6695 0.0000 0.0000
# 5 0.0000 0.0000 0.0000 0.0000 -10.2392 0.0000
# 6 0.0000 0.0000 0.0000 0.0000 0.0000 37.5390
#
#
#
# Elastic Compliance Matrix: (Units=1/GPa)
#
#
# Indices 1 2 3 4 5 6 
#
# 1 0.005914 -0.003989 -0.003129 0.000000 0.000000 0.000000
# 2 -0.003989 0.010411 0.001291 0.000000 0.000000 0.000000
# 3 -0.003129 0.001291 0.021210 0.000000 0.000000 0.000000
# 4 0.000000 0.000000 0.000000 0.042248 0.000000 0.000000
# 5 0.000000 0.000000 0.000000 0.000000 -0.097664 0.000000
# 6 0.000000 0.000000 0.000000 0.000000 0.000000 0.026639
#
#
# Mechanical properties :
#
#
# Convention : Reuss Voigt Hill
#
# Bulk Modulus (GPa) = 38.63812 75.76883 57.20347
# Shear Modulus (GPa) = 172.17933 30.26550 101.22241
#
# Velocity S-wave (km/s) = 8.93716 3.74699 6.85248
# Velocity P-wave (km/s) = 11.15442 7.33952 9.44166
#
# Compressibility (1/GPa) = 0.02588118
#
# Stress axis : x y z
#
# Youngs Moduli (GPa) = 169.08485 96.05292 47.14749
#
# Poissons Ratio (x) = 0.38317 0.14752
# Poissons Ratio (y) = 0.67450 -0.06087
# Poissons Ratio (z) = 0.52907 -0.12402
#
# Static dielectric constant tensor:
#      x y z
#    x 1.868400 0.000000 0.000000 
#    y 0.000000 1.775360 0.000000 
#    z 0.000000 0.000000 1.815560 
# 
# From -- ./inp_files/14467.got.cif
#   From: 2010.05.17/outbox.cif.g08.bks.cpg/sg37_8_cif.got.tgz:14467.got - 2010.06.03 17:53:42.
