data_PCOD9354434
_publ_section_title
;
Structure prediction by ZEFSAII (Michael W. Deem and Ramdas Pophale) SiO2 
 PCOD9354434
Probable space group: C C C 2
;
_chemical_formula_sum "Si O2"
_cell_formula_units_Z 64
_cell_length_a 17.286899
_cell_length_b 12.980858
_cell_length_c 13.290361
_cell_angle_alpha 90.000000
_cell_angle_beta 90.000000
_cell_angle_gamma 90.000000
_cell_volume 2982.340810
_symmetry_space_group_name_H-M "C C C 2"
_symmetry_group_IT_number 37
_symmetry_cell_setting 'orthorhombic'
loop_
_space_group_symop_operation_xyz
x,y,z
-x,-y,z
-x,y,1/2+z
x,-y,1/2+z
1/2+x,1/2+y,z
1/2-x,1/2-y,z
1/2-x,1/2+y,1/2+z
1/2+x,1/2-y,1/2+z
loop_
_atom_site_type_symbol
_atom_site_label
_atom_site_fract_x
_atom_site_fract_y
_atom_site_fract_z
Si Si1 0.852006 0.475986 0.074580
Si Si2 0.709857 0.617209 0.450468
Si Si3 0.886426 0.910236 0.735391
Si Si4 0.099632 0.745614 0.056361
Si Si5 0.048236 0.202637 0.920304
Si Si6 0.912376 0.035386 0.549349
Si Si7 0.728340 0.988896 0.273369
Si Si8 0.923343 0.433330 0.389110
O O1 0.899588 0.371001 0.096657
O O2 0.808654 0.531707 0.165217
O O3 0.781725 0.428737 0.010667
O O4 0.905506 0.547481 0.006946
O O5 0.674410 0.723394 0.489684
O O6 0.642721 0.536354 0.482755
O O7 0.731922 0.604047 0.334249
O O8 0.898354 0.821204 0.651964
O O9 0.796163 0.924288 0.765971
O O10 0.901611 0.012581 0.667868
O O11 0.940443 0.880415 0.829666
O O12 0.031018 0.770683 0.978640
O O13 0.098080 0.151152 0.010303
O O14 0.070759 0.311829 0.873443
O O15 0.000000 0.000000 0.527211
O O16 0.653017 0.027141 0.333324
O O17 0.000000 0.500000 0.362291
#
# Coordination Sequence:
#
# PCOD9354434 Si02
#       8
#     8   8   8   8   8   8   8   8
#     4  11  22  44  70  92 139 185 230 286 335 408
#     4  10  21  38  64 100 136 171 227 283 340 406
#     4  11  24  41  70 105 133 180 231 282 351 431
#     4  11  22  42  69 101 137 185 232 281 350 416
#     4  12  24  45  68 101 142 187 224 287 348 416
#     4  11  21  41  65 103 140 175 222 276 351 416
#     4  11  23  42  72 101 133 184 229 292 346 411
#     4  11  26  47  70  98 137 184 237 286 342 408
#
# _framework density 21.459651999999998
#
# number of rings (size 3 to 8) (size 9 to 14) (size 15 to 20)
#    0.000    1.000    7.500    1.125    0.000    3.500 
#    2.250    0.000    5.500    0.000    0.000    0.000 
#    0.000    0.000    0.000    0.000    0.000    0.000 
#
# Total GULP energy -178315.921129 kJ/mol
# GULP energy per Si atom -5572.372535 kJ/mol
# Density = 2.141081 g / cm^3
# Si number density = 21.459652 Si / 1000 Ang^3
#
#
#
# Elastic Constant Matrix: (Units=GPa)
#
#
# Indices 1 2 3 4 5 6 
#
# 1 98.8581 2.2420 22.8648 0.0000 0.0000 0.0000
# 2 2.2420 52.8070 16.1411 0.0000 0.0000 0.0000
# 3 22.8648 16.1411 110.1622 0.0000 0.0000 0.0000
# 4 0.0000 0.0000 0.0000 23.4433 0.0000 0.0000
# 5 0.0000 0.0000 0.0000 0.0000 45.1642 0.0000
# 6 0.0000 0.0000 0.0000 0.0000 0.0000 18.9087
#
#
#
# Elastic Compliance Matrix: (Units=1/GPa)
#
#
# Indices 1 2 3 4 5 6 
#
# 1 0.010628 0.000234 -0.002240 0.000000 0.000000 0.000000
# 2 0.000234 0.019830 -0.002954 0.000000 0.000000 0.000000
# 3 -0.002240 -0.002954 0.009975 0.000000 0.000000 0.000000
# 4 0.000000 0.000000 0.000000 0.042656 0.000000 0.000000
# 5 0.000000 0.000000 0.000000 0.000000 0.022141 0.000000
# 6 0.000000 0.000000 0.000000 0.000000 0.000000 0.052886
#
#
# Mechanical properties :
#
#
# Convention : Reuss Voigt Hill
#
# Bulk Modulus (GPa) = 32.77375 38.25812 35.51594
# Shear Modulus (GPa) = 28.05698 32.20853 30.13276
#
# Velocity S-wave (km/s) = 3.61976 3.87833 3.75128
# Velocity P-wave (km/s) = 5.72500 6.15808 5.94548
#
# Compressibility (1/GPa) = 0.03051223
#
# Stress axis : x y z
#
# Youngs Moduli (GPa) = 94.08804 50.42899 100.24751
#
# Poissons Ratio (x) = -0.01178 0.22457
# Poissons Ratio (y) = -0.02197 0.29613
# Poissons Ratio (z) = 0.21078 0.14896
#
# Static dielectric constant tensor:
#      x y z
#    x 1.813910 0.000000 0.000000 
#    y 0.000000 1.827880 0.000000 
#    z 0.000000 0.000000 1.833910 
# 
# From -- ./inp_files/8357.got.cif
#   From: 2010.05.17/outbox.cif.g08.bks.cpg/sg37_5_cif.got.tgz:8357.got - 2010.06.03 17:53:42.
