data_PCOD9354548
_publ_section_title
;
Structure prediction by ZEFSAII (Michael W. Deem and Ramdas Pophale) SiO2 
 PCOD9354548
Probable space group: C C C 2
;
_chemical_formula_sum "Si O2"
_cell_formula_units_Z 60
_cell_length_a 11.400410
_cell_length_b 7.511304
_cell_length_c 28.135778
_cell_angle_alpha 90.000000
_cell_angle_beta 90.000000
_cell_angle_gamma 90.000000
_cell_volume 2409.321401
_symmetry_space_group_name_H-M "C C C 2"
_symmetry_group_IT_number 37
_symmetry_cell_setting 'orthorhombic'
loop_
_space_group_symop_operation_xyz
x,y,z
-x,-y,z
-x,y,1/2+z
x,-y,1/2+z
1/2+x,1/2+y,z
1/2-x,1/2-y,z
1/2-x,1/2+y,1/2+z
1/2+x,1/2-y,1/2+z
loop_
_atom_site_type_symbol
_atom_site_label
_atom_site_fract_x
_atom_site_fract_y
_atom_site_fract_z
Si Si1 0.623259 0.207593 0.764310
Si Si2 0.599657 0.851406 0.057506
Si Si3 0.750000 0.750000 0.621902
Si Si4 0.126101 0.415497 0.164503
Si Si5 0.881825 0.690509 0.800048
Si Si6 0.370780 0.517836 0.436329
Si Si7 0.649137 0.469161 0.038813
Si Si8 0.621028 0.904177 0.910515
O O1 0.750000 0.250000 0.786810
O O2 0.500862 0.288828 0.782863
O O3 0.635631 0.222066 0.707618
O O4 0.614035 0.999679 0.775194
O O5 0.571955 0.649616 0.042589
O O6 0.718601 0.942553 0.038298
O O7 0.500000 0.000000 0.050602
O O8 0.623226 0.824368 0.113588
O O9 0.790874 0.587111 0.655204
O O10 0.657016 0.664297 0.583870
O O11 0.000000 0.500000 0.172528
O O12 0.750000 0.750000 0.789024
O O13 0.890479 0.666479 0.856640
O O14 0.500000 0.500000 0.412600
O O15 0.368933 0.405168 0.484844
O O16 0.368864 0.731827 0.443826
O O17 0.243987 0.487819 0.411873
O O18 0.500000 0.000000 0.922545
#
# Coordination Sequence:
#
# PCOD9354548 Si02
#       8
#     8   8   4   8   8   8   8   8
#     4  11  25  41  70 107 137 181 234 293 350 426
#     4   9  19  37  67  92 131 192 232 291 347 425
#     4  10  24  40  68  96 142 198 234 296 360 424
#     4  10  21  41  62  96 137 180 239 285 347 412
#     4  11  23  48  70  97 143 181 223 291 359 427
#     4  11  26  42  67 104 140 175 233 298 346 436
#     4  10  22  41  62 100 139 181 242 288 363 422
#     4  11  23  47  70  99 135 183 228 288 362 421
#
# _framework density 24.903279000000001
#
# number of rings (size 3 to 8) (size 9 to 14) (size 15 to 20)
#    0.000    1.600    4.000    1.600    4.667    8.533 
#    0.000    0.000    0.000    0.000    0.000    0.000 
#    0.000    0.000    0.000    0.000    0.000    0.000 
#
# Total GULP energy -167306.791421 kJ/mol
# GULP energy per Si atom -5576.893047 kJ/mol
# Density = 2.484660 g / cm^3
# Si number density = 24.903279 Si / 1000 Ang^3
#
#
#
# Elastic Constant Matrix: (Units=GPa)
#
#
# Indices 1 2 3 4 5 6 
#
# 1 222.5422 20.8265 28.8825 0.0000 0.0000 0.0000
# 2 20.8265 61.4612 -5.1446 0.0000 0.0000 0.0000
# 3 28.8825 -5.1446 99.5948 0.0000 0.0000 0.0000
# 4 0.0000 0.0000 0.0000 35.9186 0.0000 0.0000
# 5 0.0000 0.0000 0.0000 0.0000 13.9787 0.0000
# 6 0.0000 0.0000 0.0000 0.0000 0.0000 46.4262
#
#
#
# Elastic Compliance Matrix: (Units=1/GPa)
#
#
# Indices 1 2 3 4 5 6 
#
# 1 0.004854 -0.001770 -0.001499 0.000000 0.000000 0.000000
# 2 -0.001770 0.016987 0.001391 0.000000 0.000000 0.000000
# 3 -0.001499 0.001391 0.010547 0.000000 0.000000 0.000000
# 4 0.000000 0.000000 0.000000 0.027841 0.000000 0.000000
# 5 0.000000 0.000000 0.000000 0.000000 0.071538 0.000000
# 6 0.000000 0.000000 0.000000 0.000000 0.000000 0.021540
#
#
# Mechanical properties :
#
#
# Convention : Reuss Voigt Hill
#
# Bulk Modulus (GPa) = 34.92739 52.52525 43.72632
# Shear Modulus (GPa) = 30.01092 41.86695 35.93894
#
# Velocity S-wave (km/s) = 3.47522 4.10467 3.80299
# Velocity P-wave (km/s) = 5.49168 6.60317 6.07291
#
# Compressibility (1/GPa) = 0.02863083
#
# Stress axis : x y z
#
# Youngs Moduli (GPa) = 206.02655 58.86967 94.81149
#
# Poissons Ratio (x) = 0.10421 0.14213
# Poissons Ratio (y) = 0.36471 -0.13186
# Poissons Ratio (z) = 0.30884 -0.08188
#
# Static dielectric constant tensor:
#      x y z
#    x 2.252170 0.000000 0.000000 
#    y 0.000000 1.976270 0.000000 
#    z 0.000000 0.000000 2.043470 
# 
# From -- ./inp_files/19787.got.cif
#   From: 2010.05.17/outbox.cif.g08.bks.cpg/sg37_10_cif.got.tgz:19787.got - 2010.06.03 17:53:42.
