data_PCOD9354790
_publ_section_title
;
Structure prediction by ZEFSAII (Michael W. Deem and Ramdas Pophale) SiO2 
 PCOD9354790
Probable space group: C C C 2
;
_chemical_formula_sum "Si O2"
_cell_formula_units_Z 60
_cell_length_a 8.353984
_cell_length_b 24.327759
_cell_length_c 13.354567
_cell_angle_alpha 90.000000
_cell_angle_beta 90.000000
_cell_angle_gamma 90.000000
_cell_volume 2714.098189
_symmetry_space_group_name_H-M "C C C 2"
_symmetry_group_IT_number 37
_symmetry_cell_setting 'orthorhombic'
loop_
_space_group_symop_operation_xyz
x,y,z
-x,-y,z
-x,y,1/2+z
x,-y,1/2+z
1/2+x,1/2+y,z
1/2-x,1/2-y,z
1/2-x,1/2+y,1/2+z
1/2+x,1/2-y,1/2+z
loop_
_atom_site_type_symbol
_atom_site_label
_atom_site_fract_x
_atom_site_fract_y
_atom_site_fract_z
Si Si1 0.818397 0.102001 0.130990
Si Si2 0.942011 0.382364 0.621393
Si Si3 0.775948 0.690189 0.288559
Si Si4 0.727954 0.628986 0.850311
Si Si5 0.662170 0.035322 0.466335
Si Si6 0.000000 0.000000 0.533894
Si Si7 0.448283 0.208226 0.946780
Si Si8 0.464050 0.329357 0.460040
O O1 0.624552 0.095901 0.132211
O O2 0.848906 0.122225 0.243063
O O3 0.855494 0.148870 0.048942
O O4 0.930715 0.050228 0.102611
O O5 0.854573 0.355213 0.716787
O O6 0.846750 0.432362 0.571852
O O7 0.945049 0.333494 0.539062
O O8 0.750000 0.750000 0.237092
O O9 0.619530 0.674001 0.351358
O O10 0.893845 0.701242 0.381200
O O11 0.847056 0.579487 0.876172
O O12 0.814309 0.687148 0.868335
O O13 0.601604 0.626600 0.940441
O O14 0.500000 0.000000 0.460058
O O15 0.838391 0.008174 0.466345
O O16 0.455440 0.270744 0.983465
#
# Coordination Sequence:
#
# PCOD9354790 Si02
#       8
#     8   8   8   8   8   4   8   8
#     4  12  25  46  72 103 142 190 248 301 372 440
#     4  11  23  43  72 100 140 190 237 298 366 441
#     4  10  22  40  65 102 143 189 233 282 362 442
#     4  11  25  44  72 106 138 187 239 304 365 445
#     4  11  25  48  74 102 138 186 239 309 374 432
#     4  12  26  50  72 100 140 186 250 306 374 442
#     4  10  22  42  66 102 142 185 232 286 358 439
#     4  11  24  43  69 103 148 187 233 299 359 442
#
# _framework density 22.106791000000001
#
# number of rings (size 3 to 8) (size 9 to 14) (size 15 to 20)
#    0.000    1.067    5.333    0.400    1.867    4.800 
#    4.800    0.000    0.000    0.000    0.000    0.000 
#    0.000    0.000    0.000    0.000    0.000    0.000 
#
# Total GULP energy -167255.135896 kJ/mol
# GULP energy per Si atom -5575.171197 kJ/mol
# Density = 2.205648 g / cm^3
# Si number density = 22.106791 Si / 1000 Ang^3
#
#
#
# Elastic Constant Matrix: (Units=GPa)
#
#
# Indices 1 2 3 4 5 6 
#
# 1 101.0719 47.0098 19.3285 0.0000 0.0000 0.0000
# 2 47.0098 88.6329 40.8798 0.0000 0.0000 0.0000
# 3 19.3285 40.8798 78.0891 0.0000 0.0000 0.0000
# 4 0.0000 0.0000 0.0000 18.3363 0.0000 0.0000
# 5 0.0000 0.0000 0.0000 0.0000 27.8984 0.0000
# 6 0.0000 0.0000 0.0000 0.0000 0.0000 33.1717
#
#
#
# Elastic Compliance Matrix: (Units=1/GPa)
#
#
# Indices 1 2 3 4 5 6 
#
# 1 0.013150 -0.007216 0.000523 0.000000 0.000000 0.000000
# 2 -0.007216 0.018833 -0.008073 0.000000 0.000000 0.000000
# 3 0.000523 -0.008073 0.016903 0.000000 0.000000 0.000000
# 4 0.000000 0.000000 0.000000 0.054537 0.000000 0.000000
# 5 0.000000 0.000000 0.000000 0.000000 0.035844 0.000000
# 6 0.000000 0.000000 0.000000 0.000000 0.000000 0.030146
#
#
# Mechanical properties :
#
#
# Convention : Reuss Voigt Hill
#
# Bulk Modulus (GPa) = 51.67025 53.58112 52.62568
# Shear Modulus (GPa) = 24.34310 26.58633 25.46471
#
# Velocity S-wave (km/s) = 3.32197 3.47166 3.39764
# Velocity P-wave (km/s) = 6.17558 6.35295 6.26489
#
# Compressibility (1/GPa) = 0.01935350
#
# Stress axis : x y z
#
# Youngs Moduli (GPa) = 76.04487 53.09783 59.16152
#
# Poissons Ratio (x) = 0.38314 -0.03091
# Poissons Ratio (y) = 0.54871 0.47762
# Poissons Ratio (z) = -0.03973 0.42867
#
# Static dielectric constant tensor:
#      x y z
#    x 1.932770 0.000000 0.000000 
#    y 0.000000 1.862470 0.000000 
#    z 0.000000 0.000000 1.763940 
# 
# From -- ./inp_files/6528.got.cif
#   From: 2010.05.17/outbox.cif.g08.bks.cpg/sg37_4_cif.got.tgz:6528.got - 2010.06.03 17:53:42.
