data_PCOD9354927
_publ_section_title
;
Structure prediction by ZEFSAII (Michael W. Deem and Ramdas Pophale) SiO2 
 PCOD9354927
Probable space group: C C C 2
;
_chemical_formula_sum "Si O2"
_cell_formula_units_Z 64
_cell_length_a 23.041843
_cell_length_b 7.027957
_cell_length_c 14.846837
_cell_angle_alpha 90.000000
_cell_angle_beta 90.000000
_cell_angle_gamma 90.000000
_cell_volume 2404.253458
_symmetry_space_group_name_H-M "C C C 2"
_symmetry_group_IT_number 37
_symmetry_cell_setting 'orthorhombic'
loop_
_space_group_symop_operation_xyz
x,y,z
-x,-y,z
-x,y,1/2+z
x,-y,1/2+z
1/2+x,1/2+y,z
1/2-x,1/2-y,z
1/2-x,1/2+y,1/2+z
1/2+x,1/2-y,1/2+z
loop_
_atom_site_type_symbol
_atom_site_label
_atom_site_fract_x
_atom_site_fract_y
_atom_site_fract_z
Si Si1 0.449753 0.284596 0.947950
Si Si2 0.076986 0.940598 0.631361
Si Si3 0.160606 0.253335 0.580843
Si Si4 0.935616 0.159368 0.838449
Si Si5 0.719495 0.510974 0.428799
Si Si6 0.310442 0.667158 0.268566
Si Si7 0.643510 0.986520 0.875658
Si Si8 0.687827 0.793463 0.082169
O O1 0.424504 0.477001 0.902484
O O2 0.505915 0.252666 0.885187
O O3 0.402568 0.115364 0.943813
O O4 0.460683 0.340560 0.052401
O O5 0.057561 0.917170 0.735267
O O6 0.135130 0.813546 0.627553
O O7 0.097291 0.154034 0.598629
O O8 0.111324 0.325201 0.344585
O O9 0.192949 0.155255 0.664041
O O10 0.191359 0.165789 0.494178
O O11 0.687726 0.512657 0.332168
O O12 0.789051 0.520011 0.406841
O O13 0.698272 0.323356 0.486602
O O14 0.250000 0.750000 0.300439
O O15 0.355237 0.831101 0.295118
O O16 0.672632 0.019759 0.084276
O O17 0.750000 0.750000 0.128310
#
# Coordination Sequence:
#
# PCOD9354927 Si02
#       8
#     8   8   8   8   8   8   8   8
#     4  11  26  49  76 108 152 188 270 348 395 470
#     4  11  26  47  76 115 154 203 268 332 400 486
#     4  11  25  45  75 110 158 214 247 311 395 468
#     4  11  27  50  79 110 145 209 266 328 418 474
#     4  10  24  44  72 110 162 203 255 310 380 471
#     4  10  22  43  67 107 156 193 253 308 361 466
#     4  11  22  48  75 108 156 208 251 327 396 471
#     4  11  24  43  72 117 162 201 255 311 384 493
#
# _framework density 26.619492000000001
#
# number of rings (size 3 to 8) (size 9 to 14) (size 15 to 20)
#    0.000    1.250    0.000    5.250    3.500    7.000 
#    4.500    5.000    0.000    0.000    0.000    0.000 
#    0.000    0.000    0.000    0.000    0.000    0.000 
#
# Total GULP energy -178518.926809 kJ/mol
# GULP energy per Si atom -5578.716463 kJ/mol
# Density = 2.655890 g / cm^3
# Si number density = 26.619492 Si / 1000 Ang^3
#
#
#
# Elastic Constant Matrix: (Units=GPa)
#
#
# Indices 1 2 3 4 5 6 
#
# 1 164.3564 64.4712 43.9564 0.0000 0.0000 0.0000
# 2 64.4712 201.8140 53.4964 0.0000 0.0000 0.0000
# 3 43.9564 53.4964 204.4739 0.0000 0.0000 0.0000
# 4 0.0000 0.0000 0.0000 31.0167 0.0000 0.0000
# 5 0.0000 0.0000 0.0000 0.0000 34.1743 0.0000
# 6 0.0000 0.0000 0.0000 0.0000 0.0000 37.3122
#
#
#
# Elastic Compliance Matrix: (Units=1/GPa)
#
#
# Indices 1 2 3 4 5 6 
#
# 1 0.007145 -0.002015 -0.001009 0.000000 0.000000 0.000000
# 2 -0.002015 0.005893 -0.001109 0.000000 0.000000 0.000000
# 3 -0.001009 -0.001109 0.005397 0.000000 0.000000 0.000000
# 4 0.000000 0.000000 0.000000 0.032241 0.000000 0.000000
# 5 0.000000 0.000000 0.000000 0.000000 0.029262 0.000000
# 6 0.000000 0.000000 0.000000 0.000000 0.000000 0.026801
#
#
# Mechanical properties :
#
#
# Convention : Reuss Voigt Hill
#
# Bulk Modulus (GPa) = 98.32663 99.38802 98.85733
# Shear Modulus (GPa) = 42.23242 47.74865 44.99054
#
# Velocity S-wave (km/s) = 3.98744 4.23986 4.11559
# Velocity P-wave (km/s) = 7.63004 7.83493 7.73317
#
# Compressibility (1/GPa) = 0.01017018
#
# Stress axis : x y z
#
# Youngs Moduli (GPa) = 139.96739 169.70418 185.27235
#
# Poissons Ratio (x) = 0.34195 0.18688
# Poissons Ratio (y) = 0.28203 0.20538
# Poissons Ratio (z) = 0.14118 0.18812
#
# Static dielectric constant tensor:
#      x y z
#    x 2.307320 0.000000 0.000000 
#    y 0.000000 2.186480 0.000000 
#    z 0.000000 0.000000 2.133550 
# 
# From -- ./inp_files/9101.got.cif
#   From: 2010.05.17/outbox.cif.g08.bks.cpg/sg37_5_cif.got.tgz:9101.got - 2010.06.03 17:53:42.
