data_PCOD9354879
_publ_section_title
;
Structure prediction by ZEFSAII (Michael W. Deem and Ramdas Pophale) SiO2 
 PCOD9354879
Probable space group: C C C 2
;
_chemical_formula_sum "Si O2"
_cell_formula_units_Z 44
_cell_length_a 15.971464
_cell_length_b 13.120614
_cell_length_c 8.756376
_cell_angle_alpha 90.000000
_cell_angle_beta 90.000000
_cell_angle_gamma 90.000000
_cell_volume 1834.945999
_symmetry_space_group_name_H-M "C C C 2"
_symmetry_group_IT_number 37
_symmetry_cell_setting 'orthorhombic'
loop_
_space_group_symop_operation_xyz
x,y,z
-x,-y,z
-x,y,1/2+z
x,-y,1/2+z
1/2+x,1/2+y,z
1/2-x,1/2-y,z
1/2-x,1/2+y,1/2+z
1/2+x,1/2-y,1/2+z
loop_
_atom_site_type_symbol
_atom_site_label
_atom_site_fract_x
_atom_site_fract_y
_atom_site_fract_z
Si Si1 0.479248 0.209105 0.401080
Si Si2 0.165242 0.934018 0.138814
Si Si3 0.000000 0.500000 0.717217
Si Si4 0.426279 0.581594 0.823207
Si Si5 0.840504 0.246188 0.391590
Si Si6 0.350278 0.893299 0.111187
O O1 0.490355 0.103107 0.312218
O O2 0.456995 0.304705 0.295987
O O3 0.569774 0.239681 0.471254
O O4 0.400869 0.188730 0.511632
O O5 0.155579 0.852171 0.277437
O O6 0.257265 0.922946 0.064873
O O7 0.148316 0.043361 0.215266
O O8 0.100943 0.921631 0.000234
O O9 0.915218 0.513862 0.621197
O O10 0.500000 0.500000 0.799229
O O11 0.750000 0.250000 0.473781
O O12 0.837611 0.342137 0.275855
#
# Coordination Sequence:
#
# PCOD9354879 Si02
#       6
#     8   8   4   8   8   8
#     4  11  22  42  71  97 139 196 243 298 376 448
#     4  11  24  43  68 107 143 186 241 303 370 448
#     4  10  24  42  68  96 138 180 262 294 366 442
#     4  12  25  42  72 105 147 187 241 302 381 450
#     4   9  19  40  66  95 134 182 232 295 361 433
#     4  10  22  42  67  97 136 189 238 301 368 430
#
# _framework density 23.978908000000001
#
# number of rings (size 3 to 8) (size 9 to 14) (size 15 to 20)
#    0.000    1.455    3.636    1.091    2.545    0.000 
#    3.273    0.000    0.000    0.000    0.000    0.000 
#    0.000    0.000    0.000    0.000    0.000    0.000 
#
# Total GULP energy -122909.619588 kJ/mol
# GULP energy per Si atom -5586.800890 kJ/mol
# Density = 2.392433 g / cm^3
# Si number density = 23.978908 Si / 1000 Ang^3
#
#
#
# Elastic Constant Matrix: (Units=GPa)
#
#
# Indices 1 2 3 4 5 6 
#
# 1 169.9902 60.1323 30.7592 0.0000 0.0000 0.0000
# 2 60.1323 131.6805 31.5532 0.0000 0.0000 0.0000
# 3 30.7592 31.5532 55.1563 0.0000 0.0000 0.0000
# 4 0.0000 0.0000 0.0000 18.6925 0.0000 0.0000
# 5 0.0000 0.0000 0.0000 0.0000 22.6406 0.0000
# 6 0.0000 0.0000 0.0000 0.0000 0.0000 19.6156
#
#
#
# Elastic Compliance Matrix: (Units=1/GPa)
#
#
# Indices 1 2 3 4 5 6 
#
# 1 0.007304 -0.002734 -0.002509 0.000000 0.000000 0.000000
# 2 -0.002734 0.009824 -0.004095 0.000000 0.000000 0.000000
# 3 -0.002509 -0.004095 0.021872 0.000000 0.000000 0.000000
# 4 0.000000 0.000000 0.000000 0.053497 0.000000 0.000000
# 5 0.000000 0.000000 0.000000 0.000000 0.044168 0.000000
# 6 0.000000 0.000000 0.000000 0.000000 0.000000 0.050980
#
#
# Mechanical properties :
#
#
# Convention : Reuss Voigt Hill
#
# Bulk Modulus (GPa) = 49.20468 66.85738 58.03103
# Shear Modulus (GPa) = 23.46347 27.81523 25.63935
#
# Velocity S-wave (km/s) = 3.13150 3.40955 3.27348
# Velocity P-wave (km/s) = 5.79996 6.59108 6.20814
#
# Compressibility (1/GPa) = 0.02032327
#
# Stress axis : x y z
#
# Youngs Moduli (GPa) = 136.91392 101.79178 45.71997
#
# Poissons Ratio (x) = 0.27831 0.11471
# Poissons Ratio (y) = 0.37434 0.18723
# Poissons Ratio (z) = 0.34353 0.41686
#
# Static dielectric constant tensor:
#      x y z
#    x 2.011770 0.000000 0.000000 
#    y 0.000000 1.927630 0.000000 
#    z 0.000000 0.000000 1.944000 
# 
# From -- ./inp_files/7755.got.cif
#   From: 2010.05.17/outbox.cif.g08.bks.cpg/sg37_4_cif.got.tgz:7755.got - 2010.06.03 17:53:42.
