data_PCOD9354996
_publ_section_title
;
Structure prediction by ZEFSAII (Michael W. Deem and Ramdas Pophale) SiO2 
 PCOD9354996
Probable space group: C C C 2
;
_chemical_formula_sum "Si O2"
_cell_formula_units_Z 40
_cell_length_a 10.160794
_cell_length_b 19.929099
_cell_length_c 9.133371
_cell_angle_alpha 90.000000
_cell_angle_beta 90.000000
_cell_angle_gamma 90.000000
_cell_volume 1849.466249
_symmetry_space_group_name_H-M "C C C 2"
_symmetry_group_IT_number 37
_symmetry_cell_setting 'orthorhombic'
loop_
_space_group_symop_operation_xyz
x,y,z
-x,-y,z
-x,y,1/2+z
x,-y,1/2+z
1/2+x,1/2+y,z
1/2-x,1/2-y,z
1/2-x,1/2+y,1/2+z
1/2+x,1/2-y,1/2+z
loop_
_atom_site_type_symbol
_atom_site_label
_atom_site_fract_x
_atom_site_fract_y
_atom_site_fract_z
Si Si1 0.073193 0.430957 0.687880
Si Si2 0.500000 0.500000 0.083459
Si Si3 0.901999 0.656074 0.400896
Si Si4 0.609769 0.725544 0.943067
Si Si5 0.250000 0.750000 0.732412
Si Si6 0.144174 0.075728 0.835477
O O1 0.108708 0.385040 0.549211
O O2 0.204110 0.434851 0.787970
O O3 0.000000 0.500000 0.644139
O O4 0.965585 0.392026 0.782082
O O5 0.610220 0.528692 0.973954
O O6 0.439865 0.554768 0.193381
O O7 0.769937 0.686083 0.334479
O O8 0.995941 0.721491 0.411630
O O9 0.750000 0.750000 0.877087
O O10 0.601998 0.649876 0.887621
O O11 0.633854 0.732768 0.117960
#
# Coordination Sequence:
#
# PCOD9354996 Si02
#       6
#     8   4   8   8   4   8
#     4  12  27  46  75 110 150 193 245 307 376 452
#     4  10  28  48  72 110 144 204 250 296 370 450
#     4  12  25  46  74 111 141 194 247 300 384 427
#     4  10  22  45  72 102 145 183 240 309 356 438
#     4  10  24  44  74 102 148 182 244 316 364 438
#     4  11  26  49  74 105 151 195 250 304 370 445
#
# _framework density 21.627862
#
# number of rings (size 3 to 8) (size 9 to 14) (size 15 to 20)
#    0.600    0.400    4.000    0.600    8.400    3.200 
#    0.000    0.000    0.000    0.000    0.000    0.000 
#    0.000    0.000    0.000    0.000    0.000    0.000 
#
# Total GULP energy -111703.356755 kJ/mol
# GULP energy per Si atom -5585.167838 kJ/mol
# Density = 2.157864 g / cm^3
# Si number density = 21.627862 Si / 1000 Ang^3
#
#
#
# Elastic Constant Matrix: (Units=GPa)
#
#
# Indices 1 2 3 4 5 6 
#
# 1 24.5218 32.8144 3.7201 0.0000 0.0000 0.0000
# 2 32.8144 124.6524 63.4267 0.0000 0.0000 0.0000
# 3 3.7201 63.4267 126.3129 0.0000 0.0000 0.0000
# 4 0.0000 0.0000 0.0000 -88.9361 0.0000 0.0000
# 5 0.0000 0.0000 0.0000 0.0000 81.0646 0.0000
# 6 0.0000 0.0000 0.0000 0.0000 0.0000 38.2043
#
#
#
# Elastic Compliance Matrix: (Units=1/GPa)
#
#
# Indices 1 2 3 4 5 6 
#
# 1 0.070958 -0.023662 0.009792 0.000000 0.000000 0.000000
# 2 -0.023662 0.018666 -0.008676 0.000000 0.000000 0.000000
# 3 0.009792 -0.008676 0.011985 0.000000 0.000000 0.000000
# 4 0.000000 0.000000 0.000000 -0.011244 0.000000 0.000000
# 5 0.000000 0.000000 0.000000 0.000000 0.012336 0.000000
# 6 0.000000 0.000000 0.000000 0.000000 0.000000 0.026175
#
#
# Mechanical properties :
#
#
# Convention : Reuss Voigt Hill
#
# Bulk Modulus (GPa) = 17.69386 52.82328 35.25857
# Shear Modulus (GPa) = 25.93269 17.76829 21.85049
#
# Velocity S-wave (km/s) = 3.46647 2.86937 3.18196
# Velocity P-wave (km/s) = 4.92146 5.95437 5.46238
#
# Compressibility (1/GPa) = 0.05651677
#
# Stress axis : x y z
#
# Youngs Moduli (GPa) = 14.09282 53.57399 83.43764
#
# Poissons Ratio (x) = 1.26766 -0.81700
# Poissons Ratio (y) = 0.33346 0.72390
# Poissons Ratio (z) = -0.13799 0.46480
#
# Static dielectric constant tensor:
#      x y z
#    x 1.790620 0.000000 0.000000 
#    y 0.000000 2.651820 0.000000 
#    z 0.000000 0.000000 1.752620 
# 
# From -- ./inp_files/2757.got.cif
#   From: 2010.05.17/outbox.cif.g08.bks.cpg/sg37_2_cif.got.tgz:2757.got - 2010.06.03 17:53:42.
