data_PCOD9354727
_publ_section_title
;
Structure prediction by ZEFSAII (Michael W. Deem and Ramdas Pophale) SiO2 
 PCOD9354727
Probable space group: C C C 2
;
_chemical_formula_sum "Si O2"
_cell_formula_units_Z 64
_cell_length_a 29.845473
_cell_length_b 7.510263
_cell_length_c 12.251476
_cell_angle_alpha 90.000000
_cell_angle_beta 90.000000
_cell_angle_gamma 90.000000
_cell_volume 2746.135898
_symmetry_space_group_name_H-M "C C C 2"
_symmetry_group_IT_number 37
_symmetry_cell_setting 'orthorhombic'
loop_
_space_group_symop_operation_xyz
x,y,z
-x,-y,z
-x,y,1/2+z
x,-y,1/2+z
1/2+x,1/2+y,z
1/2-x,1/2-y,z
1/2-x,1/2+y,1/2+z
1/2+x,1/2-y,1/2+z
loop_
_atom_site_type_symbol
_atom_site_label
_atom_site_fract_x
_atom_site_fract_y
_atom_site_fract_z
Si Si1 0.365333 0.702711 0.538230
Si Si2 0.456483 0.260121 0.919831
Si Si3 0.697114 0.277193 0.904836
Si Si4 0.377570 0.875216 0.769805
Si Si5 0.829503 0.130786 0.133367
Si Si6 0.700525 0.694790 0.862074
Si Si7 0.553760 0.168803 0.955814
Si Si8 0.082535 0.745049 0.200868
O O1 0.413705 0.651150 0.482169
O O2 0.379133 0.806529 0.646115
O O3 0.326623 0.566835 0.584416
O O4 0.337132 0.787214 0.437884
O O5 0.508416 0.284384 0.948376
O O6 0.452783 0.300163 0.790999
O O7 0.452023 0.045269 0.940480
O O8 0.750000 0.250000 0.910490
O O9 0.671722 0.156098 0.817935
O O10 0.690579 0.482837 0.870710
O O11 0.675912 0.250628 0.025106
O O12 0.410877 0.784894 0.859497
O O13 0.393071 0.076619 0.755084
O O14 0.802090 0.216622 0.231202
O O15 0.879195 0.112269 0.182483
O O16 0.750000 0.750000 0.898945
O O17 0.567844 0.194310 0.080446
#
# Coordination Sequence:
#
# PCOD9354727 Si02
#       8
#     8   8   8   8   8   8   8   8
#     4  11  23  43  67  91 133 174 212 270 327 390
#     4  10  22  38  65  99 130 168 218 272 329 380
#     4  11  25  43  64  97 130 165 217 273 327 389
#     4  11  23  41  66  96 129 171 218 271 328 385
#     4  11  23  44  66  91 133 172 215 264 332 394
#     4  11  25  43  67  96 129 172 218 267 329 396
#     4  10  22  38  66 101 130 166 221 278 320 385
#     4  11  22  39  69  94 128 175 219 267 329 395
#
# _framework density 23.305472999999999
#
# number of rings (size 3 to 8) (size 9 to 14) (size 15 to 20)
#    0.000    1.250    5.000    0.375    3.500    2.500 
#    0.000    0.625    0.000    0.000    0.000    0.000 
#    0.000    0.000    0.000    0.000    0.000    0.000 
#
# Total GULP energy -178363.154014 kJ/mol
# GULP energy per Si atom -5573.848563 kJ/mol
# Density = 2.325243 g / cm^3
# Si number density = 23.305473 Si / 1000 Ang^3
#
#
#
# Elastic Constant Matrix: (Units=GPa)
#
#
# Indices 1 2 3 4 5 6 
#
# 1 125.7094 -2.0177 61.1310 0.0000 0.0000 0.0000
# 2 -2.0177 28.4554 17.0856 0.0000 0.0000 0.0000
# 3 61.1310 17.0856 188.4582 0.0000 0.0000 0.0000
# 4 0.0000 0.0000 0.0000 26.2813 0.0000 0.0000
# 5 0.0000 0.0000 0.0000 0.0000 28.0284 0.0000
# 6 0.0000 0.0000 0.0000 0.0000 0.0000 17.6284
#
#
#
# Elastic Compliance Matrix: (Units=1/GPa)
#
#
# Indices 1 2 3 4 5 6 
#
# 1 0.009638 0.002708 -0.003372 0.000000 0.000000 0.000000
# 2 0.002708 0.037927 -0.004317 0.000000 0.000000 0.000000
# 3 -0.003372 -0.004317 0.006791 0.000000 0.000000 0.000000
# 4 0.000000 0.000000 0.000000 0.038050 0.000000 0.000000
# 5 0.000000 0.000000 0.000000 0.000000 0.035678 0.000000
# 6 0.000000 0.000000 0.000000 0.000000 0.000000 0.056727
#
#
# Mechanical properties :
#
#
# Convention : Reuss Voigt Hill
#
# Bulk Modulus (GPa) = 22.52525 55.00230 38.76378
# Shear Modulus (GPa) = 23.85834 32.14921 28.00377
#
# Velocity S-wave (km/s) = 3.20304 3.71815 3.47017
# Velocity P-wave (km/s) = 4.83378 6.48727 5.72058
#
# Compressibility (1/GPa) = 0.04439463
#
# Stress axis : x y z
#
# Youngs Moduli (GPa) = 103.75601 26.36666 147.24702
#
# Poissons Ratio (x) = -0.07140 0.49649
# Poissons Ratio (y) = -0.28097 0.63564
# Poissons Ratio (z) = 0.34985 0.11382
#
# Static dielectric constant tensor:
#      x y z
#    x 1.914430 0.000000 0.000000 
#    y 0.000000 1.928530 0.000000 
#    z 0.000000 0.000000 1.913860 
# 
# From -- ./inp_files/6612.got.cif
#   From: 2010.05.17/outbox.cif.g08.bks.cpg/sg37_4_cif.got.tgz:6612.got - 2010.06.03 17:53:42.
