data_PCOD9354674
_publ_section_title
;
Structure prediction by ZEFSAII (Michael W. Deem and Ramdas Pophale) SiO2 
 PCOD9354674
Probable space group: C C C 2
;
_chemical_formula_sum "Si O2"
_cell_formula_units_Z 48
_cell_length_a 24.629694
_cell_length_b 5.127329
_cell_length_c 15.536236
_cell_angle_alpha 90.000000
_cell_angle_beta 90.000000
_cell_angle_gamma 90.000000
_cell_volume 1961.986484
_symmetry_space_group_name_H-M "C C C 2"
_symmetry_group_IT_number 37
_symmetry_cell_setting 'orthorhombic'
loop_
_space_group_symop_operation_xyz
x,y,z
-x,-y,z
-x,y,1/2+z
x,-y,1/2+z
1/2+x,1/2+y,z
1/2-x,1/2-y,z
1/2-x,1/2+y,1/2+z
1/2+x,1/2-y,1/2+z
loop_
_atom_site_type_symbol
_atom_site_label
_atom_site_fract_x
_atom_site_fract_y
_atom_site_fract_z
Si Si1 0.658198 0.061672 0.126830
Si Si2 0.441942 0.950869 0.749772
Si Si3 0.500000 0.500000 0.030975
Si Si4 0.302184 0.100763 0.798236
Si Si5 0.500000 0.000000 0.412846
Si Si6 0.370537 0.590350 0.842612
Si Si7 0.120870 0.937952 0.539876
O O1 0.705187 0.023829 0.197631
O O2 0.656829 0.343346 0.085437
O O3 0.603844 0.034097 0.184711
O O4 0.649544 0.837927 0.056244
O O5 0.452418 0.076233 0.845175
O O6 0.422325 0.670103 0.784781
O O7 0.500000 0.000000 0.707041
O O8 0.489511 0.755036 0.972684
O O9 0.441602 0.444109 0.075143
O O10 0.250000 0.250000 0.836375
O O11 0.343238 0.342442 0.799926
O O12 0.329457 0.843111 0.839822
O O13 0.382388 0.514197 0.940160
#
# Coordination Sequence:
#
# PCOD9354674 Si02
#       7
#     8   8   4   8   4   8   8
#     4  11  25  41  64 100 138 179 215 288 337 413
#     4   9  21  40  62  94 132 176 230 266 323 394
#     4  12  24  36  62  92 146 188 222 260 332 390
#     4  11  25  49  77 100 128 177 239 296 359 408
#     4  10  22  36  60  92 124 188 226 276 298 386
#     4  11  23  44  72 101 135 179 236 287 337 418
#     4  12  25  41  63 101 146 179 221 268 343 402
#
# _framework density 24.465001999999998
#
# number of rings (size 3 to 8) (size 9 to 14) (size 15 to 20)
#    0.500    0.667    1.667    4.500    7.000    1.333 
#    0.000    3.333    0.000    0.000    0.000    0.000 
#    0.000    0.000    0.000    0.000    0.000    0.000 
#
# Total GULP energy -133976.580441 kJ/mol
# GULP energy per Si atom -5582.357518 kJ/mol
# Density = 2.440932 g / cm^3
# Si number density = 24.465002 Si / 1000 Ang^3
#
#
#
# Elastic Constant Matrix: (Units=GPa)
#
#
# Indices 1 2 3 4 5 6 
#
# 1 37.9721 37.4251 5.6620 0.0000 0.0000 0.0000
# 2 37.4251 129.5242 22.2212 0.0000 0.0000 0.0000
# 3 5.6620 22.2212 68.6120 0.0000 0.0000 0.0000
# 4 0.0000 0.0000 0.0000 41.7861 0.0000 0.0000
# 5 0.0000 0.0000 0.0000 0.0000 -1.5223 0.0000
# 6 0.0000 0.0000 0.0000 0.0000 0.0000 33.5899
#
#
#
# Elastic Compliance Matrix: (Units=1/GPa)
#
#
# Indices 1 2 3 4 5 6 
#
# 1 0.036833 -0.010717 0.000431 0.000000 0.000000 0.000000
# 2 -0.010717 0.011293 -0.002773 0.000000 0.000000 0.000000
# 3 0.000431 -0.002773 0.015437 0.000000 0.000000 0.000000
# 4 0.000000 0.000000 0.000000 0.023931 0.000000 0.000000
# 5 0.000000 0.000000 0.000000 0.000000 -0.656892 0.000000
# 6 0.000000 0.000000 0.000000 0.000000 0.000000 0.029771
#
#
# Mechanical properties :
#
#
# Convention : Reuss Voigt Hill
#
# Bulk Modulus (GPa) = 26.70495 40.74721 33.72608
# Shear Modulus (GPa) = -9.97948 26.15741 8.08896
#
# Velocity S-wave (km/s) = -2.02187 3.27337 1.82031
# Velocity P-wave (km/s) = 2.34279 5.56580 4.27006
#
# Compressibility (1/GPa) = 0.03744624
#
# Stress axis : x y z
#
# Youngs Moduli (GPa) = 27.14948 88.55205 64.77854
#
# Poissons Ratio (x) = 0.94898 -0.02793
# Poissons Ratio (y) = 0.29095 0.17963
# Poissons Ratio (z) = -0.01171 0.24555
#
# Static dielectric constant tensor:
#      x y z
#    x 2.144490 0.000000 0.000000 
#    y 0.000000 1.914310 0.000000 
#    z 0.000000 0.000000 1.963490 
# 
# From -- ./inp_files/13279.got.cif
#   From: 2010.05.17/outbox.cif.g08.bks.cpg/sg37_7_cif.got.tgz:13279.got - 2010.06.03 17:53:42.
