data_PCOD9354494
_publ_section_title
;
Structure prediction by ZEFSAII (Michael W. Deem and Ramdas Pophale) SiO2 
 PCOD9354494
Probable space group: C C C 2
;
_chemical_formula_sum "Si O2"
_cell_formula_units_Z 40
_cell_length_a 7.762827
_cell_length_b 17.873963
_cell_length_c 13.112059
_cell_angle_alpha 90.000000
_cell_angle_beta 90.000000
_cell_angle_gamma 90.000000
_cell_volume 1819.330738
_symmetry_space_group_name_H-M "C C C 2"
_symmetry_group_IT_number 37
_symmetry_cell_setting 'orthorhombic'
loop_
_space_group_symop_operation_xyz
x,y,z
-x,-y,z
-x,y,1/2+z
x,-y,1/2+z
1/2+x,1/2+y,z
1/2-x,1/2-y,z
1/2-x,1/2+y,1/2+z
1/2+x,1/2-y,1/2+z
loop_
_atom_site_type_symbol
_atom_site_label
_atom_site_fract_x
_atom_site_fract_y
_atom_site_fract_z
Si Si1 0.193434 0.835806 0.497010
Si Si2 0.374509 0.573573 0.063163
Si Si3 0.850905 0.095759 0.282082
Si Si4 0.771309 0.838821 0.223147
Si Si5 0.675839 0.957206 0.363626
O O1 0.250000 0.750000 0.493993
O O2 0.228225 0.867472 0.384119
O O3 0.268027 0.864342 0.606439
O O4 0.994562 0.860034 0.517724
O O5 0.500000 0.500000 0.079115
O O6 0.281697 0.598711 0.166630
O O7 0.239122 0.553549 0.977519
O O8 0.037545 0.134474 0.260265
O O9 0.820993 0.008536 0.309410
O O10 0.750000 0.750000 0.227074
O O11 0.652903 0.880501 0.303391
O O12 0.500000 0.000000 0.359323
#
# Coordination Sequence:
#
# PCOD9354494 Si02
#       5
#     8   8   8   8   8
#     4  10  21  39  72 101 131 173 223 281 347 401
#     4  11  21  41  69 100 133 177 230 278 337 398
#     4  11  22  42  73  95 133 179 225 273 341 399
#     4  10  22  44  71 101 134 174 225 283 341 401
#     4  12  25  42  67 103 140 181 229 277 328 404
#
# _framework density 21.986108000000002
#
# number of rings (size 3 to 8) (size 9 to 14) (size 15 to 20)
#    0.000    1.200    4.000    3.000    0.000    2.400 
#    0.000    1.000    0.000    0.000    0.000    0.000 
#    0.000    0.000    0.000    0.000    0.000    0.000 
#
# Total GULP energy -111398.891430 kJ/mol
# GULP energy per Si atom -5569.944571 kJ/mol
# Density = 2.193607 g / cm^3
# Si number density = 21.986108 Si / 1000 Ang^3
#
#
#
# Elastic Constant Matrix: (Units=GPa)
#
#
# Indices 1 2 3 4 5 6 
#
# 1 71.6787 31.5463 39.9478 0.0000 0.0000 0.0000
# 2 31.5463 112.7789 61.6273 0.0000 0.0000 0.0000
# 3 39.9478 61.6273 217.3306 0.0000 0.0000 0.0000
# 4 0.0000 0.0000 0.0000 54.9308 0.0000 0.0000
# 5 0.0000 0.0000 0.0000 0.0000 -47.4790 0.0000
# 6 0.0000 0.0000 0.0000 0.0000 0.0000 23.1525
#
#
#
# Elastic Compliance Matrix: (Units=1/GPa)
#
#
# Indices 1 2 3 4 5 6 
#
# 1 0.016654 -0.003533 -0.002059 0.000000 0.000000 0.000000
# 2 -0.003533 0.011242 -0.002539 0.000000 0.000000 0.000000
# 3 -0.002059 -0.002539 0.005700 0.000000 0.000000 0.000000
# 4 0.000000 0.000000 0.000000 0.018205 0.000000 0.000000
# 5 0.000000 0.000000 0.000000 0.000000 -0.021062 0.000000
# 6 0.000000 0.000000 0.000000 0.000000 0.000000 0.043192
#
#
# Mechanical properties :
#
#
# Convention : Reuss Voigt Hill
#
# Bulk Modulus (GPa) = 57.69019 74.22567 65.95793
# Shear Modulus (GPa) = 52.09950 24.03196 38.06573
#
# Velocity S-wave (km/s) = 4.87319 3.30972 4.16547
# Velocity P-wave (km/s) = 7.61317 6.95983 7.29382
#
# Compressibility (1/GPa) = 0.01733397
#
# Stress axis : x y z
#
# Youngs Moduli (GPa) = 60.04654 88.94952 175.44977
#
# Poissons Ratio (x) = 0.31427 0.36130
# Poissons Ratio (y) = 0.21215 0.44538
# Poissons Ratio (z) = 0.12365 0.22580
#
# Static dielectric constant tensor:
#      x y z
#    x 1.853560 0.000000 0.000000 
#    y 0.000000 1.820600 0.000000 
#    z 0.000000 0.000000 1.828450 
# 
# From -- ./inp_files/6124.got.cif
#   From: 2010.05.17/outbox.cif.g08.bks.cpg/sg37_4_cif.got.tgz:6124.got - 2010.06.03 17:53:42.
