data_PCOD9354390
_publ_section_title
;
Structure prediction by ZEFSAII (Michael W. Deem and Ramdas Pophale) SiO2 
 PCOD9354390
Probable space group: C C C 2
;
_chemical_formula_sum "Si O2"
_cell_formula_units_Z 48
_cell_length_a 5.065576
_cell_length_b 15.274549
_cell_length_c 29.019196
_cell_angle_alpha 90.000000
_cell_angle_beta 90.000000
_cell_angle_gamma 90.000000
_cell_volume 2245.342555
_symmetry_space_group_name_H-M "C C C 2"
_symmetry_group_IT_number 37
_symmetry_cell_setting 'orthorhombic'
loop_
_space_group_symop_operation_xyz
x,y,z
-x,-y,z
-x,y,1/2+z
x,-y,1/2+z
1/2+x,1/2+y,z
1/2-x,1/2-y,z
1/2-x,1/2+y,1/2+z
1/2+x,1/2-y,1/2+z
loop_
_atom_site_type_symbol
_atom_site_label
_atom_site_fract_x
_atom_site_fract_y
_atom_site_fract_z
Si Si1 0.502814 0.606266 0.754960
Si Si2 0.002778 0.312842 0.909337
Si Si3 0.499050 0.185854 0.511810
Si Si4 0.246038 0.554784 0.085183
Si Si5 0.502732 0.689807 0.156852
Si Si6 0.992433 0.395531 0.811212
O O1 0.500000 0.500000 0.751807
O O2 0.434361 0.643347 0.705049
O O3 0.284219 0.635546 0.791376
O O4 0.779110 0.636151 0.776780
O O5 0.750000 0.250000 0.907073
O O6 0.016560 0.372460 0.864577
O O7 0.250000 0.250000 0.906751
O O8 0.019880 0.354397 0.960364
O O9 0.250000 0.250000 0.511323
O O10 0.418403 0.111856 0.548149
O O11 0.750000 0.250000 0.521352
O O12 0.500000 0.500000 0.065709
O O13 0.398530 0.618581 0.120443
O O14 0.000000 0.500000 0.107537
O O15 0.250000 0.750000 0.164992
O O16 0.750000 0.750000 0.141505
O O17 0.000000 0.500000 0.807810
#
# Coordination Sequence:
#
# PCOD9354390 Si02
#       6
#     8   8   8   8   8   8
#     4  10  22  40  60  86 124 164 205 255 312 369
#     4  10  21  37  61  90 123 162 204 253 309 367
#     4  10  22  43  66  92 128 168 209 262 321 378
#     4  12  26  44  68  97 127 167 215 269 326 387
#     4  12  26  43  66  95 126 166 211 263 321 383
#     4  10  21  37  59  88 123 163 203 252 308 368
#
# _framework density 21.377585
#
# number of rings (size 3 to 8) (size 9 to 14) (size 15 to 20)
#    0.000    1.333    0.000    5.000    0.000    8.000 
#    0.000    2.500    0.000    0.000    0.000    0.000 
#    0.000    0.000    0.000    0.000    0.000    0.000 
#
# Total GULP energy -134062.100052 kJ/mol
# GULP energy per Si atom -5585.920835 kJ/mol
# Density = 2.132893 g / cm^3
# Si number density = 21.377585 Si / 1000 Ang^3
#
#
#
# Elastic Constant Matrix: (Units=GPa)
#
#
# Indices 1 2 3 4 5 6 
#
# 1 145.2955 30.4203 26.2459 0.0000 0.0000 0.0000
# 2 30.4203 54.8687 44.3095 0.0000 0.0000 0.0000
# 3 26.2459 44.3095 136.2829 0.0000 0.0000 0.0000
# 4 0.0000 0.0000 0.0000 4.7464 0.0000 0.0000
# 5 0.0000 0.0000 0.0000 0.0000 45.6630 0.0000
# 6 0.0000 0.0000 0.0000 0.0000 0.0000 27.1252
#
#
#
# Elastic Compliance Matrix: (Units=1/GPa)
#
#
# Indices 1 2 3 4 5 6 
#
# 1 0.007788 -0.004213 -0.000130 0.000000 0.000000 0.000000
# 2 -0.004213 0.026993 -0.007965 0.000000 0.000000 0.000000
# 3 -0.000130 -0.007965 0.009952 0.000000 0.000000 0.000000
# 4 0.000000 0.000000 0.000000 0.210688 0.000000 0.000000
# 5 0.000000 0.000000 0.000000 0.000000 0.021900 0.000000
# 6 0.000000 0.000000 0.000000 0.000000 0.000000 0.036866
#
#
# Mechanical properties :
#
#
# Convention : Reuss Voigt Hill
#
# Bulk Modulus (GPa) = 49.70712 59.82207 54.76460
# Shear Modulus (GPa) = 14.47143 31.20501 22.83822
#
# Velocity S-wave (km/s) = 2.60464 3.82476 3.27207
# Velocity P-wave (km/s) = 5.68753 6.89560 6.32049
#
# Compressibility (1/GPa) = 0.02011784
#
# Stress axis : x y z
#
# Youngs Moduli (GPa) = 128.40179 37.04655 100.47854
#
# Poissons Ratio (x) = 0.15607 0.01308
# Poissons Ratio (y) = 0.54092 0.80030
# Poissons Ratio (z) = 0.01671 0.29507
#
# Static dielectric constant tensor:
#      x y z
#    x 1.748100 0.000000 0.000000 
#    y 0.000000 1.705110 0.000000 
#    z 0.000000 0.000000 1.805030 
# 
# From -- ./inp_files/19313.got.cif
#   From: 2010.05.17/outbox.cif.g08.bks.cpg/sg37_10_cif.got.tgz:19313.got - 2010.06.03 17:53:42.
