data_PCOD9354076
_publ_section_title
;
Structure prediction by ZEFSAII (Michael W. Deem and Ramdas Pophale) SiO2 
 PCOD9354076
Probable space group: C C C 2
;
_chemical_formula_sum "Si O2"
_cell_formula_units_Z 52
_cell_length_a 14.871688
_cell_length_b 13.613557
_cell_length_c 11.027329
_cell_angle_alpha 90.000000
_cell_angle_beta 90.000000
_cell_angle_gamma 90.000000
_cell_volume 2232.555231
_symmetry_space_group_name_H-M "C C C 2"
_symmetry_group_IT_number 37
_symmetry_cell_setting 'orthorhombic'
loop_
_space_group_symop_operation_xyz
x,y,z
-x,-y,z
-x,y,1/2+z
x,-y,1/2+z
1/2+x,1/2+y,z
1/2-x,1/2-y,z
1/2-x,1/2+y,1/2+z
1/2+x,1/2-y,1/2+z
loop_
_atom_site_type_symbol
_atom_site_label
_atom_site_fract_x
_atom_site_fract_y
_atom_site_fract_z
Si Si1 0.346356 0.783980 0.907060
Si Si2 0.367787 0.174131 0.807156
Si Si3 0.425051 0.715440 0.661413
Si Si4 0.064769 0.589342 0.526892
Si Si5 0.892873 0.854170 0.635020
Si Si6 0.210334 0.448985 0.586632
Si Si7 0.250000 0.250000 0.015015
O O1 0.250000 0.750000 0.858647
O O2 0.411344 0.751523 0.798649
O O3 0.369409 0.715932 0.021674
O O4 0.325159 0.891944 0.964192
O O5 0.379092 0.284290 0.754162
O O6 0.331102 0.111039 0.698011
O O7 0.297860 0.180064 0.917527
O O8 0.442866 0.116018 0.883911
O O9 0.464087 0.812207 0.594785
O O10 0.499343 0.630706 0.640983
O O11 0.329392 0.702208 0.594743
O O12 0.160222 0.552569 0.582472
O O13 0.000000 0.500000 0.554224
O O14 0.817703 0.938922 0.613712
#
# Coordination Sequence:
#
# PCOD9354076 Si02
#       7
#     8   8   8   8   8   8   4
#     4   9  19  37  56  84 121 157 207 263 314 376
#     4  10  20  37  61  82 121 160 220 249 307 391
#     4  11  23  37  61  93 125 155 215 269 320 379
#     4  11  25  36  55  94 133 164 194 267 342 382
#     4  10  21  37  64  86 119 175 218 253 312 395
#     4  10  21  39  57  85 126 178 200 255 333 392
#     4  10  20  38  56  92 116 160 206 280 308 358
#
# _framework density 23.291696999999999
#
# number of rings (size 3 to 8) (size 9 to 14) (size 15 to 20)
#    0.000    1.846    2.308    2.769    8.615    0.615 
#    0.000    0.000    0.000    3.692    0.000    4.308 
#    0.000    0.000    0.000    0.000    0.000    0.000 
#
# Total GULP energy -144805.042653 kJ/mol
# GULP energy per Si atom -5569.424717 kJ/mol
# Density = 2.323868 g / cm^3
# Si number density = 23.291697 Si / 1000 Ang^3
#
#
#
# Elastic Constant Matrix: (Units=GPa)
#
#
# Indices 1 2 3 4 5 6 
#
# 1 146.4651 18.9598 31.0817 0.0000 0.0000 0.0000
# 2 18.9598 32.3848 0.4894 0.0000 0.0000 0.0000
# 3 31.0817 0.4894 94.3340 0.0000 0.0000 0.0000
# 4 0.0000 0.0000 0.0000 -16.9158 0.0000 0.0000
# 5 0.0000 0.0000 0.0000 0.0000 -59.6427 0.0000
# 6 0.0000 0.0000 0.0000 0.0000 0.0000 44.4122
#
#
#
# Elastic Compliance Matrix: (Units=1/GPa)
#
#
# Indices 1 2 3 4 5 6 
#
# 1 0.007980 -0.004633 -0.002605 0.000000 0.000000 0.000000
# 2 -0.004633 0.033570 0.001352 0.000000 0.000000 0.000000
# 3 -0.002605 0.001352 0.011452 0.000000 0.000000 0.000000
# 4 0.000000 0.000000 0.000000 -0.059116 0.000000 0.000000
# 5 0.000000 0.000000 0.000000 0.000000 -0.016767 0.000000
# 6 0.000000 0.000000 0.000000 0.000000 0.000000 0.022516
#
#
# Mechanical properties :
#
#
# Convention : Reuss Voigt Hill
#
# Bulk Modulus (GPa) = 24.25351 41.58285 32.91818
# Shear Modulus (GPa) = 198.79865 8.41429 103.60647
#
# Velocity S-wave (km/s) = 9.24862 1.90274 6.67673
# Velocity P-wave (km/s) = 11.15728 4.76645 8.57916
#
# Compressibility (1/GPa) = 0.04123115
#
# Stress axis : x y z
#
# Youngs Moduli (GPa) = 125.31124 29.78816 87.32074
#
# Poissons Ratio (x) = 0.13800 0.22750
# Poissons Ratio (y) = 0.58052 -0.11808
# Poissons Ratio (z) = 0.32647 -0.04028
#
# Static dielectric constant tensor:
#      x y z
#    x 2.703930 0.000000 0.000000 
#    y 0.000000 1.879950 0.000000 
#    z 0.000000 0.000000 1.865590 
# 
# From -- ./inp_files/7933.got.cif
#   From: 2010.05.17/outbox.cif.g08.bks.cpg/sg37_4_cif.got.tgz:7933.got - 2010.06.03 17:53:42.
