data_PCOD9354926
_publ_section_title
;
Structure prediction by ZEFSAII (Michael W. Deem and Ramdas Pophale) SiO2 
 PCOD9354926
Probable space group: C C C 2
;
_chemical_formula_sum "Si O2"
_cell_formula_units_Z 60
_cell_length_a 18.335086
_cell_length_b 5.347130
_cell_length_c 26.945559
_cell_angle_alpha 90.000000
_cell_angle_beta 90.000000
_cell_angle_gamma 90.000000
_cell_volume 2641.744986
_symmetry_space_group_name_H-M "C C C 2"
_symmetry_group_IT_number 37
_symmetry_cell_setting 'orthorhombic'
loop_
_space_group_symop_operation_xyz
x,y,z
-x,-y,z
-x,y,1/2+z
x,-y,1/2+z
1/2+x,1/2+y,z
1/2-x,1/2-y,z
1/2-x,1/2+y,1/2+z
1/2+x,1/2-y,1/2+z
loop_
_atom_site_type_symbol
_atom_site_label
_atom_site_fract_x
_atom_site_fract_y
_atom_site_fract_z
Si Si1 0.084030 0.099057 0.416890
Si Si2 0.299255 0.500516 0.503239
Si Si3 0.458804 0.226413 0.271024
Si Si4 0.567575 0.685845 0.162730
Si Si5 0.206669 0.013059 0.714140
Si Si6 0.324130 0.611059 0.820527
Si Si7 0.931536 0.813282 0.056095
Si Si8 0.500000 0.000000 0.467512
O O1 0.126218 0.028358 0.366631
O O2 0.061765 0.381841 0.431742
O O3 0.143140 0.024303 0.458189
O O4 0.000000 0.000000 0.418417
O O5 0.250000 0.750000 0.498280
O O6 0.355296 0.543014 0.548683
O O7 0.250000 0.250000 0.506535
O O8 0.500000 0.500000 0.275626
O O9 0.445931 0.166856 0.213234
O O10 0.379456 0.202272 0.294224
O O11 0.500000 0.000000 0.295942
O O12 0.500000 0.500000 0.158417
O O13 0.637779 0.526721 0.178894
O O14 0.574167 0.820068 0.109722
O O15 0.250000 0.750000 0.714170
O O16 0.188265 0.065869 0.772644
O O17 0.250000 0.250000 0.695353
O O18 0.250000 0.750000 0.836241
O O19 0.951044 0.652612 0.007629
O O20 0.000000 0.000000 0.057372
#
# Coordination Sequence:
#
# PCOD9354926 Si02
#       8
#     8   8   8   8   8   8   8   4
#     4  12  25  47  70 100 135 189 239 295 364 431
#     4  12  26  45  69 100 137 176 231 296 350 420
#     4  10  22  43  66  99 135 177 224 279 337 408
#     4   9  22  40  68 101 134 179 237 287 340 421
#     4  10  23  47  70  99 150 191 228 288 363 433
#     4  10  24  43  66 101 135 183 229 288 350 429
#     4  11  23  45  67 100 138 190 235 295 365 428
#     4  12  22  44  74  92 144 184 248 294 372 422
#
# _framework density 22.712260000000001
#
# number of rings (size 3 to 8) (size 9 to 14) (size 15 to 20)
#    0.000    1.333    2.667    1.600    1.867   11.733 
#    7.200    0.000    0.000    0.000    0.000    0.000 
#    0.000    0.000    0.000    0.000    0.000    0.000 
#
# Total GULP energy -167011.467961 kJ/mol
# GULP energy per Si atom -5567.048932 kJ/mol
# Density = 2.266057 g / cm^3
# Si number density = 22.712260 Si / 1000 Ang^3
#
#
#
# Elastic Constant Matrix: (Units=GPa)
#
#
# Indices 1 2 3 4 5 6 
#
# 1 183.9176 60.1360 30.4482 0.0000 0.0000 0.0000
# 2 60.1360 82.2589 4.3618 0.0000 0.0000 0.0000
# 3 30.4482 4.3618 69.5699 0.0000 0.0000 0.0000
# 4 0.0000 0.0000 0.0000 40.7884 0.0000 0.0000
# 5 0.0000 0.0000 0.0000 0.0000 127.5459 0.0000
# 6 0.0000 0.0000 0.0000 0.0000 0.0000 50.0543
#
#
#
# Elastic Compliance Matrix: (Units=1/GPa)
#
#
# Indices 1 2 3 4 5 6 
#
# 1 0.007738 -0.005495 -0.003042 0.000000 0.000000 0.000000
# 2 -0.005495 0.016100 0.001396 0.000000 0.000000 0.000000
# 3 -0.003042 0.001396 0.015618 0.000000 0.000000 0.000000
# 4 0.000000 0.000000 0.000000 0.024517 0.000000 0.000000
# 5 0.000000 0.000000 0.000000 0.000000 0.007840 0.000000
# 6 0.000000 0.000000 0.000000 0.000000 0.000000 0.019978
#
#
# Mechanical properties :
#
#
# Convention : Reuss Voigt Hill
#
# Bulk Modulus (GPa) = 39.72599 58.40428 49.06513
# Shear Modulus (GPa) = 43.68143 59.73110 51.70626
#
# Velocity S-wave (km/s) = 4.39025 5.13382 4.77653
# Velocity P-wave (km/s) = 6.57480 7.80463 7.21596
#
# Compressibility (1/GPa) = 0.02517244
#
# Stress axis : x y z
#
# Youngs Moduli (GPa) = 129.23806 62.11115 64.02921
#
# Poissons Ratio (x) = 0.34132 0.19477
# Poissons Ratio (y) = 0.71021 -0.08936
# Poissons Ratio (z) = 0.39313 -0.08669
#
# Static dielectric constant tensor:
#      x y z
#    x 1.963880 0.000000 0.000000 
#    y 0.000000 2.083620 0.000000 
#    z 0.000000 0.000000 1.949130 
# 
# From -- ./inp_files/20004.got.cif
#   From: 2010.05.17/outbox.cif.g08.bks.cpg/sg37_11_cif.got.tgz:20004.got - 2010.06.03 17:53:42.
