data_PCOD9354244
_publ_section_title
;
Structure prediction by ZEFSAII (Michael W. Deem and Ramdas Pophale) SiO2 
 PCOD9354244
Probable space group: C C C 2
;
_chemical_formula_sum "Si O2"
_cell_formula_units_Z 40
_cell_length_a 27.129338
_cell_length_b 7.274735
_cell_length_c 8.975024
_cell_angle_alpha 90.000000
_cell_angle_beta 90.000000
_cell_angle_gamma 90.000000
_cell_volume 1771.299470
_symmetry_space_group_name_H-M "C C C 2"
_symmetry_group_IT_number 37
_symmetry_cell_setting 'orthorhombic'
loop_
_space_group_symop_operation_xyz
x,y,z
-x,-y,z
-x,y,1/2+z
x,-y,1/2+z
1/2+x,1/2+y,z
1/2-x,1/2-y,z
1/2-x,1/2+y,1/2+z
1/2+x,1/2-y,1/2+z
loop_
_atom_site_type_symbol
_atom_site_label
_atom_site_fract_x
_atom_site_fract_y
_atom_site_fract_z
Si Si1 0.500000 0.500000 0.986470
Si Si2 0.336989 0.586730 0.605119
Si Si3 0.320903 0.165177 0.536914
Si Si4 0.645847 0.884339 0.845231
Si Si5 0.250000 0.250000 0.310796
Si Si6 0.429688 0.381449 0.727395
O O1 0.458860 0.418665 0.878506
O O2 0.530423 0.369229 0.096939
O O3 0.325654 0.382899 0.545089
O O4 0.340981 0.728873 0.467919
O O5 0.293478 0.659742 0.712793
O O6 0.389314 0.542829 0.689063
O O7 0.316918 0.094893 0.705060
O O8 0.275235 0.112943 0.431530
O O9 0.363175 0.066034 0.440775
O O10 0.600043 0.804068 0.754418
#
# Coordination Sequence:
#
# PCOD9354244 Si02
#       6
#     4   8   8   8   4   8
#     4  10  20  40  78 120 146 192 256 322 384 474
#     4  11  25  48  72 104 151 203 252 325 384 462
#     4  11  26  44  68 103 147 196 255 317 376 461
#     4  11  24  46  70 102 145 206 241 311 391 462
#     4  12  28  44  74 108 144 210 270 314 392 468
#     4  10  21  43  74 115 147 194 257 307 397 461
#
# _framework density 22.582291999999999
#
# number of rings (size 3 to 8) (size 9 to 14) (size 15 to 20)
#    0.000    1.200    2.000    3.600    8.400    0.800 
#    0.000    0.000    0.000   14.400    0.000    0.000 
#    0.000    0.000    0.000    0.000    0.000    0.000 
#
# Total GULP energy -111572.535576 kJ/mol
# GULP energy per Si atom -5578.626779 kJ/mol
# Density = 2.253089 g / cm^3
# Si number density = 22.582292 Si / 1000 Ang^3
#
#
#
# Elastic Constant Matrix: (Units=GPa)
#
#
# Indices 1 2 3 4 5 6 
#
# 1 111.5327 33.4908 86.2076 0.0000 0.0000 0.0000
# 2 33.4908 103.4960 68.4816 0.0000 0.0000 0.0000
# 3 86.2076 68.4816 202.7374 0.0000 0.0000 0.0000
# 4 0.0000 0.0000 0.0000 38.7014 0.0000 0.0000
# 5 0.0000 0.0000 0.0000 0.0000 44.8353 0.0000
# 6 0.0000 0.0000 0.0000 0.0000 0.0000 13.9024
#
#
#
# Elastic Compliance Matrix: (Units=1/GPa)
#
#
# Indices 1 2 3 4 5 6 
#
# 1 0.013398 -0.000729 -0.005451 0.000000 0.000000 0.000000
# 2 -0.000729 0.012483 -0.003907 0.000000 0.000000 0.000000
# 3 -0.005451 -0.003907 0.008570 0.000000 0.000000 0.000000
# 4 0.000000 0.000000 0.000000 0.025839 0.000000 0.000000
# 5 0.000000 0.000000 0.000000 0.000000 0.022304 0.000000
# 6 0.000000 0.000000 0.000000 0.000000 0.000000 0.071930
#
#
# Mechanical properties :
#
#
# Convention : Reuss Voigt Hill
#
# Bulk Modulus (GPa) = 70.03659 88.23623 79.13641
# Shear Modulus (GPa) = 27.86200 34.79355 31.32778
#
# Velocity S-wave (km/s) = 3.51636 3.92949 3.72865
# Velocity P-wave (km/s) = 6.89693 7.72955 7.32508
#
# Compressibility (1/GPa) = 0.01427825
#
# Stress axis : x y z
#
# Youngs Moduli (GPa) = 74.63797 80.10870 116.68693
#
# Poissons Ratio (x) = 0.05838 0.63605
# Poissons Ratio (y) = 0.05439 0.45586
# Poissons Ratio (z) = 0.40684 0.31296
#
# Static dielectric constant tensor:
#      x y z
#    x 2.012310 0.000000 0.000000 
#    y 0.000000 1.838880 0.000000 
#    z 0.000000 0.000000 1.890140 
# 
# From -- ./inp_files/2302.got.cif
#   From: 2010.05.17/outbox.cif.g08.bks.cpg/sg37_2_cif.got.tgz:2302.got - 2010.06.03 17:53:42.
