data_PCOD9354920
_publ_section_title
;
Structure prediction by ZEFSAII (Michael W. Deem and Ramdas Pophale) SiO2 
 PCOD9354920
Probable space group: C C C 2
;
_chemical_formula_sum "Si O2"
_cell_formula_units_Z 60
_cell_length_a 24.968677
_cell_length_b 10.621845
_cell_length_c 9.311157
_cell_angle_alpha 90.000000
_cell_angle_beta 90.000000
_cell_angle_gamma 90.000000
_cell_volume 2469.443764
_symmetry_space_group_name_H-M "C C C 2"
_symmetry_group_IT_number 37
_symmetry_cell_setting 'orthorhombic'
loop_
_space_group_symop_operation_xyz
x,y,z
-x,-y,z
-x,y,1/2+z
x,-y,1/2+z
1/2+x,1/2+y,z
1/2-x,1/2-y,z
1/2-x,1/2+y,1/2+z
1/2+x,1/2-y,1/2+z
loop_
_atom_site_type_symbol
_atom_site_label
_atom_site_fract_x
_atom_site_fract_y
_atom_site_fract_z
Si Si1 0.250000 0.750000 0.440341
Si Si2 0.067815 0.270536 0.828601
Si Si3 0.873870 0.475259 0.893971
Si Si4 0.705493 0.541134 0.747860
Si Si5 0.807223 0.406099 0.632603
Si Si6 0.871553 0.949176 0.504337
Si Si7 0.436511 0.513150 0.771397
Si Si8 0.977792 0.633187 0.539368
O O1 0.257455 0.634732 0.335698
O O2 0.199362 0.720558 0.540953
O O3 0.111339 0.382337 0.842282
O O4 0.082417 0.124297 0.832781
O O5 0.041776 0.286370 0.672277
O O6 0.024522 0.301958 0.950153
O O7 0.843696 0.398884 0.771475
O O8 0.928516 0.408653 0.939724
O O9 0.835172 0.492120 0.029785
O O10 0.747007 0.446058 0.673514
O O11 0.669808 0.607218 0.623265
O O12 0.669176 0.482900 0.874214
O O13 0.919215 0.894275 0.402076
O O14 0.905403 0.033536 0.621484
O O15 0.500000 0.500000 0.751702
O O16 0.000000 0.500000 0.600496
#
# Coordination Sequence:
#
# PCOD9354920 Si02
#       8
#     4   8   8   8   8   8   8   8
#     4  12  26  44  78 100 142 190 232 306 382 404
#     4  11  25  41  70 100 138 189 229 293 366 416
#     4  11  23  44  69 103 140 180 236 298 355 426
#     4  11  23  49  70 101 139 184 234 293 357 430
#     4  12  24  44  72 104 141 178 242 306 350 442
#     4  10  24  45  72  89 140 185 220 289 350 411
#     4  11  26  46  69 101 140 182 241 291 345 427
#     4  10  22  43  65  99 142 180 230 293 358 426
#
# _framework density 24.296968
#
# number of rings (size 3 to 8) (size 9 to 14) (size 15 to 20)
#    0.000    1.067    4.000    1.600    9.333    0.000 
#    4.800    1.333    0.000    0.000    0.000    0.000 
#    0.000    0.000    0.000    0.000    0.000    0.000 
#
# Total GULP energy -167480.452227 kJ/mol
# GULP energy per Si atom -5582.681741 kJ/mol
# Density = 2.424167 g / cm^3
# Si number density = 24.296968 Si / 1000 Ang^3
#
#
#
# Elastic Constant Matrix: (Units=GPa)
#
#
# Indices 1 2 3 4 5 6 
#
# 1 88.9929 1.8106 27.5043 0.0000 0.0000 0.0000
# 2 1.8106 57.2423 7.3742 0.0000 0.0000 0.0000
# 3 27.5043 7.3742 147.3905 0.0000 0.0000 0.0000
# 4 0.0000 0.0000 0.0000 18.0748 0.0000 0.0000
# 5 0.0000 0.0000 0.0000 0.0000 34.7655 0.0000
# 6 0.0000 0.0000 0.0000 0.0000 0.0000 21.5827
#
#
#
# Elastic Compliance Matrix: (Units=1/GPa)
#
#
# Indices 1 2 3 4 5 6 
#
# 1 0.011925 -0.000091 -0.002221 0.000000 0.000000 0.000000
# 2 -0.000091 0.017584 -0.000863 0.000000 0.000000 0.000000
# 3 -0.002221 -0.000863 0.007242 0.000000 0.000000 0.000000
# 4 0.000000 0.000000 0.000000 0.055326 0.000000 0.000000
# 5 0.000000 0.000000 0.000000 0.000000 0.028764 0.000000
# 6 0.000000 0.000000 0.000000 0.000000 0.000000 0.046333
#
#
# Mechanical properties :
#
#
# Convention : Reuss Voigt Hill
#
# Bulk Modulus (GPa) = 32.89285 40.77822 36.83553
# Shear Modulus (GPa) = 27.22459 32.01369 29.61914
#
# Velocity S-wave (km/s) = 3.35101 3.63381 3.49527
# Velocity P-wave (km/s) = 5.34224 5.86735 5.61094
#
# Compressibility (1/GPa) = 0.03040174
#
# Stress axis : x y z
#
# Youngs Moduli (GPa) = 83.85708 56.87112 138.07818
#
# Poissons Ratio (x) = 0.00518 0.30664
# Poissons Ratio (y) = 0.00764 0.11912
# Poissons Ratio (z) = 0.18623 0.04906
#
# Static dielectric constant tensor:
#      x y z
#    x 1.985600 0.000000 0.000000 
#    y 0.000000 2.658180 0.000000 
#    z 0.000000 0.000000 1.880050 
# 
# From -- ./inp_files/4805.got.cif
#   From: 2010.05.17/outbox.cif.g08.bks.cpg/sg37_3_cif.got.tgz:4805.got - 2010.06.03 17:53:42.
