data_PCOD9354303
_publ_section_title
;
Structure prediction by ZEFSAII (Michael W. Deem and Ramdas Pophale) SiO2 
 PCOD9354303
Probable space group: C C C 2
;
_chemical_formula_sum "Si O2"
_cell_formula_units_Z 48
_cell_length_a 9.479785
_cell_length_b 16.826207
_cell_length_c 12.903925
_cell_angle_alpha 90.000000
_cell_angle_beta 90.000000
_cell_angle_gamma 90.000000
_cell_volume 2058.289911
_symmetry_space_group_name_H-M "C C C 2"
_symmetry_group_IT_number 37
_symmetry_cell_setting 'orthorhombic'
loop_
_space_group_symop_operation_xyz
x,y,z
-x,-y,z
-x,y,1/2+z
x,-y,1/2+z
1/2+x,1/2+y,z
1/2-x,1/2-y,z
1/2-x,1/2+y,1/2+z
1/2+x,1/2-y,1/2+z
loop_
_atom_site_type_symbol
_atom_site_label
_atom_site_fract_x
_atom_site_fract_y
_atom_site_fract_z
Si Si1 0.837357 0.478950 0.312370
Si Si2 0.044790 0.235374 0.709031
Si Si3 0.660882 0.658389 0.906491
Si Si4 0.750000 0.250000 0.039345
Si Si5 0.624249 0.445095 0.150933
Si Si6 0.750000 0.750000 0.110843
Si Si7 0.640681 0.594193 0.428678
O O1 0.788580 0.398702 0.371953
O O2 0.774945 0.461328 0.199993
O O3 0.746455 0.554292 0.349995
O O4 0.000000 0.500000 0.318788
O O5 0.109935 0.229604 0.825862
O O6 0.134438 0.282419 0.621929
O O7 0.071933 0.144442 0.671758
O O8 0.884154 0.261047 0.687602
O O9 0.521042 0.604467 0.898152
O O10 0.692141 0.686735 0.023934
O O11 0.692344 0.319318 0.966735
O O12 0.500000 0.500000 0.192788
O O13 0.642315 0.459318 0.030473
#
# Coordination Sequence:
#
# PCOD9354303 Si02
#       7
#     8   8   8   4   8   4   8
#     4  11  25  40  67 105 134 178 232 297 354 420
#     4  10  23  41  66 102 137 184 239 291 349 434
#     4  11  23  45  70 100 142 188 239 291 356 436
#     4  10  21  43  62  96 142 180 225 289 360 414
#     4  10  20  43  68  93 132 177 231 282 356 425
#     4  12  23  43  72 102 138 196 239 291 362 416
#     4  11  23  43  73  97 137 187 229 286 357 429
#
# _framework density 23.320329999999998
#
# number of rings (size 3 to 8) (size 9 to 14) (size 15 to 20)
#    0.000    1.333    3.333    4.000    2.333    1.333 
#    0.000   11.667    0.000    0.000    0.000    0.000 
#    0.000    0.000    0.000    0.000    0.000    0.000 
#
# Total GULP energy -133923.103325 kJ/mol
# GULP energy per Si atom -5580.129305 kJ/mol
# Density = 2.326725 g / cm^3
# Si number density = 23.320330 Si / 1000 Ang^3
#
#
#
# Elastic Constant Matrix: (Units=GPa)
#
#
# Indices 1 2 3 4 5 6 
#
# 1 209.9366 46.5897 36.2593 0.0000 0.0000 0.0000
# 2 46.5897 78.3150 24.1313 0.0000 0.0000 0.0000
# 3 36.2593 24.1313 79.5970 0.0000 0.0000 0.0000
# 4 0.0000 0.0000 0.0000 26.9114 0.0000 0.0000
# 5 0.0000 0.0000 0.0000 0.0000 27.5734 0.0000
# 6 0.0000 0.0000 0.0000 0.0000 0.0000 44.9574
#
#
#
# Elastic Compliance Matrix: (Units=1/GPa)
#
#
# Indices 1 2 3 4 5 6 
#
# 1 0.005696 -0.002856 -0.001729 0.000000 0.000000 0.000000
# 2 -0.002856 0.015516 -0.003403 0.000000 0.000000 0.000000
# 3 -0.001729 -0.003403 0.014383 0.000000 0.000000 0.000000
# 4 0.000000 0.000000 0.000000 0.037159 0.000000 0.000000
# 5 0.000000 0.000000 0.000000 0.000000 0.036267 0.000000
# 6 0.000000 0.000000 0.000000 0.000000 0.000000 0.022243
#
#
# Mechanical properties :
#
#
# Convention : Reuss Voigt Hill
#
# Bulk Modulus (GPa) = 50.97042 64.64546 57.80794
# Shear Modulus (GPa) = 32.51419 37.27966 34.89693
#
# Velocity S-wave (km/s) = 3.73801 4.00258 3.87255
# Velocity P-wave (km/s) = 6.36666 7.01011 6.69612
#
# Compressibility (1/GPa) = 0.01961922
#
# Stress axis : x y z
#
# Youngs Moduli (GPa) = 175.57190 64.44782 69.52851
#
# Poissons Ratio (x) = 0.18404 0.12020
# Poissons Ratio (y) = 0.50137 0.23662
# Poissons Ratio (z) = 0.30354 0.21933
#
# Static dielectric constant tensor:
#      x y z
#    x 1.908780 0.000000 0.000000 
#    y 0.000000 1.958370 0.000000 
#    z 0.000000 0.000000 1.929370 
# 
# From -- ./inp_files/10641.got.cif
#   From: 2010.05.17/outbox.cif.g08.bks.cpg/sg37_6_cif.got.tgz:10641.got - 2010.06.03 17:53:42.
