data_PCOD9354631
_publ_section_title
;
Structure prediction by ZEFSAII (Michael W. Deem and Ramdas Pophale) SiO2 
 PCOD9354631
Probable space group: C C C 2
;
_chemical_formula_sum "Si O2"
_cell_formula_units_Z 60
_cell_length_a 9.018314
_cell_length_b 17.803218
_cell_length_c 16.274284
_cell_angle_alpha 90.000000
_cell_angle_beta 90.000000
_cell_angle_gamma 90.000000
_cell_volume 2612.917833
_symmetry_space_group_name_H-M "C C C 2"
_symmetry_group_IT_number 37
_symmetry_cell_setting 'orthorhombic'
loop_
_space_group_symop_operation_xyz
x,y,z
-x,-y,z
-x,y,1/2+z
x,-y,1/2+z
1/2+x,1/2+y,z
1/2-x,1/2-y,z
1/2-x,1/2+y,1/2+z
1/2+x,1/2-y,1/2+z
loop_
_atom_site_type_symbol
_atom_site_label
_atom_site_fract_x
_atom_site_fract_y
_atom_site_fract_z
Si Si1 0.326451 0.938641 0.663380
Si Si2 0.715936 0.950208 0.970210
Si Si3 0.228516 0.838001 0.785672
Si Si4 0.250000 0.750000 0.312652
Si Si5 0.913181 0.610280 0.420367
Si Si6 0.297601 0.326367 0.551261
Si Si7 0.971208 0.847000 0.915258
Si Si8 0.161929 0.396253 0.699465
O O1 0.290412 0.953924 0.568682
O O2 0.212145 0.879116 0.700066
O O3 0.491343 0.900794 0.666506
O O4 0.318675 0.014483 0.719774
O O5 0.583719 0.895605 0.941612
O O6 0.866241 0.917864 0.933062
O O7 0.666234 0.030943 0.937655
O O8 0.250000 0.750000 0.777487
O O9 0.379157 0.867835 0.827889
O O10 0.100107 0.860273 0.848742
O O11 0.121631 0.780546 0.372891
O O12 0.199307 0.674490 0.260010
O O13 0.827562 0.666070 0.480589
O O14 0.250000 0.250000 0.594569
O O15 0.450276 0.328316 0.502006
O O16 0.272196 0.386520 0.621668
#
# Coordination Sequence:
#
# PCOD9354631 Si02
#       8
#     8   8   8   4   8   8   8   8
#     4  11  24  47  77 108 140 191 255 301 366 447
#     4  11  23  43  73 108 136 184 247 298 356 441
#     4  11  26  48  69 102 148 191 234 304 375 428
#     4  12  28  46  68 108 152 194 248 298 382 448
#     4  10  21  43  73 101 138 184 242 290 357 442
#     4  11  22  44  70 101 141 191 231 301 372 423
#     4  11  28  43  69 105 148 193 244 303 362 446
#     4  11  23  45  77 105 143 192 242 307 365 446
#
# _framework density 22.962834000000001
#
# number of rings (size 3 to 8) (size 9 to 14) (size 15 to 20)
#    0.000    1.067    3.333    3.200    7.467    4.267 
#    3.600    1.333    0.000    0.000    0.000    0.000 
#    0.000    0.000    0.000    0.000    0.000    0.000 
#
# Total GULP energy -167542.686796 kJ/mol
# GULP energy per Si atom -5584.756227 kJ/mol
# Density = 2.291057 g / cm^3
# Si number density = 22.962834 Si / 1000 Ang^3
#
#
#
# Elastic Constant Matrix: (Units=GPa)
#
#
# Indices 1 2 3 4 5 6 
#
# 1 93.2969 45.3829 32.8180 0.0000 0.0000 0.0000
# 2 45.3829 118.6380 59.1105 0.0000 0.0000 0.0000
# 3 32.8180 59.1105 100.2535 0.0000 0.0000 0.0000
# 4 0.0000 0.0000 0.0000 37.4936 0.0000 0.0000
# 5 0.0000 0.0000 0.0000 0.0000 18.3456 0.0000
# 6 0.0000 0.0000 0.0000 0.0000 0.0000 30.7763
#
#
#
# Elastic Compliance Matrix: (Units=1/GPa)
#
#
# Indices 1 2 3 4 5 6 
#
# 1 0.013429 -0.004173 -0.001936 0.000000 0.000000 0.000000
# 2 -0.004173 0.013232 -0.006436 0.000000 0.000000 0.000000
# 3 -0.001936 -0.006436 0.014403 0.000000 0.000000 0.000000
# 4 0.000000 0.000000 0.000000 0.026671 0.000000 0.000000
# 5 0.000000 0.000000 0.000000 0.000000 0.054509 0.000000
# 6 0.000000 0.000000 0.000000 0.000000 0.000000 0.032493
#
#
# Mechanical properties :
#
#
# Convention : Reuss Voigt Hill
#
# Bulk Modulus (GPa) = 62.59533 65.20123 63.89828
# Shear Modulus (GPa) = 27.00519 28.98158 27.99338
#
# Velocity S-wave (km/s) = 3.43306 3.55647 3.49531
# Velocity P-wave (km/s) = 6.55997 6.73205 6.64657
#
# Compressibility (1/GPa) = 0.01597563
#
# Stress axis : x y z
#
# Youngs Moduli (GPa) = 74.46522 75.57639 69.43028
#
# Poissons Ratio (x) = 0.31535 0.13441
# Poissons Ratio (y) = 0.31071 0.44683
# Poissons Ratio (z) = 0.14415 0.48638
#
# Static dielectric constant tensor:
#      x y z
#    x 1.903730 0.000000 0.000000 
#    y 0.000000 2.020290 0.000000 
#    z 0.000000 0.000000 1.863180 
# 
# From -- ./inp_files/14696.got.cif
#   From: 2010.05.17/outbox.cif.g08.bks.cpg/sg37_8_cif.got.tgz:14696.got - 2010.06.03 17:53:42.
