data_PCOD9354189
_publ_section_title
;
Structure prediction by ZEFSAII (Michael W. Deem and Ramdas Pophale) SiO2 
 PCOD9354189
Probable space group: C C C 2
;
_chemical_formula_sum "Si O2"
_cell_formula_units_Z 64
_cell_length_a 14.732850
_cell_length_b 9.059935
_cell_length_c 21.447698
_cell_angle_alpha 90.000000
_cell_angle_beta 90.000000
_cell_angle_gamma 90.000000
_cell_volume 2862.810061
_symmetry_space_group_name_H-M "C C C 2"
_symmetry_group_IT_number 37
_symmetry_cell_setting 'orthorhombic'
loop_
_space_group_symop_operation_xyz
x,y,z
-x,-y,z
-x,y,1/2+z
x,-y,1/2+z
1/2+x,1/2+y,z
1/2-x,1/2-y,z
1/2-x,1/2+y,1/2+z
1/2+x,1/2-y,1/2+z
loop_
_atom_site_type_symbol
_atom_site_label
_atom_site_fract_x
_atom_site_fract_y
_atom_site_fract_z
Si Si1 0.247767 0.082777 0.442170
Si Si2 0.316172 0.360238 0.309529
Si Si3 0.590235 0.083942 0.512533
Si Si4 0.846913 0.168737 0.242061
Si Si5 0.173285 0.034061 0.139175
Si Si6 0.097540 0.068913 0.006428
Si Si7 0.478111 0.847099 0.786103
Si Si8 0.875726 0.631200 0.157816
O O1 0.250000 0.250000 0.467269
O O2 0.249168 0.097908 0.367545
O O3 0.324812 0.989941 0.476984
O O4 0.149702 0.009072 0.450941
O O5 0.250000 0.250000 0.271235
O O6 0.340873 0.511948 0.276856
O O7 0.408692 0.266809 0.319250
O O8 0.590533 0.257103 0.496904
O O9 0.592320 0.081461 0.588618
O O10 0.500000 0.000000 0.492317
O O11 0.750000 0.250000 0.246078
O O12 0.928807 0.264092 0.268986
O O13 0.865080 0.112527 0.171355
O O14 0.126844 0.189756 0.156302
O O15 0.277249 0.054685 0.159260
O O16 0.161060 0.031320 0.065437
O O17 0.000000 0.000000 0.017854
O O18 0.429797 0.897843 0.721090
O O19 0.500000 0.000000 0.821314
#
# Coordination Sequence:
#
# PCOD9354189 Si02
#       8
#     8   8   8   8   8   8   8   8
#     4  11  25  48  71 102 139 190 245 305 355 422
#     4  11  25  48  74  99 142 187 240 302 360 425
#     4  11  23  43  70 105 145 187 243 294 364 431
#     4  12  26  42  68 106 143 188 237 291 362 434
#     4  10  21  38  63  99 145 186 225 288 354 425
#     4  11  24  41  68 101 142 187 238 295 359 425
#     4  12  25  44  71 107 144 184 239 293 366 438
#     4  10  20  39  68 100 146 189 224 291 363 427
#
# _framework density 22.355657999999998
#
# number of rings (size 3 to 8) (size 9 to 14) (size 15 to 20)
#    0.000    1.000    2.500    4.125    3.500    2.500 
#    2.250    7.500    0.000    0.000    0.000    0.000 
#    0.000    0.000    0.000    0.000    0.000    0.000 
#
# Total GULP energy -178762.729884 kJ/mol
# GULP energy per Si atom -5586.335309 kJ/mol
# Density = 2.230478 g / cm^3
# Si number density = 22.355658 Si / 1000 Ang^3
#
#
#
# Elastic Constant Matrix: (Units=GPa)
#
#
# Indices 1 2 3 4 5 6 
#
# 1 130.3081 58.6018 25.4581 0.0000 0.0000 0.0000
# 2 58.6018 153.4631 28.4245 0.0000 0.0000 0.0000
# 3 25.4581 28.4245 52.4471 0.0000 0.0000 0.0000
# 4 0.0000 0.0000 0.0000 0.4668 0.0000 0.0000
# 5 0.0000 0.0000 0.0000 0.0000 15.1183 0.0000
# 6 0.0000 0.0000 0.0000 0.0000 0.0000 45.1616
#
#
#
# Elastic Compliance Matrix: (Units=1/GPa)
#
#
# Indices 1 2 3 4 5 6 
#
# 1 0.009670 -0.003138 -0.002993 0.000000 0.000000 0.000000
# 2 -0.003138 0.008262 -0.002954 0.000000 0.000000 0.000000
# 3 -0.002993 -0.002954 0.022121 0.000000 0.000000 0.000000
# 4 0.000000 0.000000 0.000000 2.142455 0.000000 0.000000
# 5 0.000000 0.000000 0.000000 0.000000 0.066145 0.000000
# 6 0.000000 0.000000 0.000000 0.000000 0.000000 0.022143
#
#
# Mechanical properties :
#
#
# Convention : Reuss Voigt Hill
#
# Bulk Modulus (GPa) = 45.70077 62.35410 54.02744
# Shear Modulus (GPa) = 2.17745 27.06493 14.62119
#
# Velocity S-wave (km/s) = 0.98799 3.48322 2.56017
# Velocity P-wave (km/s) = 4.66781 6.64300 5.74099
#
# Compressibility (1/GPa) = 0.02188147
#
# Stress axis : x y z
#
# Youngs Moduli (GPa) = 103.41008 121.03877 45.20628
#
# Poissons Ratio (x) = 0.37986 0.13531
# Poissons Ratio (y) = 0.32453 0.13355
# Poissons Ratio (z) = 0.30952 0.35758
#
# Static dielectric constant tensor:
#      x y z
#    x 1.809940 0.000000 0.000000 
#    y 0.000000 1.832510 0.000000 
#    z 0.000000 0.000000 1.885670 
# 
# From -- ./inp_files/18928.got.cif
#   From: 2010.05.17/outbox.cif.g08.bks.cpg/sg37_10_cif.got.tgz:18928.got - 2010.06.03 17:53:42.
