data_PCOD9354075
_publ_section_title
;
Structure prediction by ZEFSAII (Michael W. Deem and Ramdas Pophale) SiO2 
 PCOD9354075
Probable space group: C C C 2
;
_chemical_formula_sum "Si O2"
_cell_formula_units_Z 40
_cell_length_a 11.281023
_cell_length_b 19.496502
_cell_length_c 8.750741
_cell_angle_alpha 90.000000
_cell_angle_beta 90.000000
_cell_angle_gamma 90.000000
_cell_volume 1924.642241
_symmetry_space_group_name_H-M "C C C 2"
_symmetry_group_IT_number 37
_symmetry_cell_setting 'orthorhombic'
loop_
_space_group_symop_operation_xyz
x,y,z
-x,-y,z
-x,y,1/2+z
x,-y,1/2+z
1/2+x,1/2+y,z
1/2-x,1/2-y,z
1/2-x,1/2+y,1/2+z
1/2+x,1/2-y,1/2+z
loop_
_atom_site_type_symbol
_atom_site_label
_atom_site_fract_x
_atom_site_fract_y
_atom_site_fract_z
Si Si1 0.883760 0.342424 0.930410
Si Si2 0.500000 0.500000 0.239365
Si Si3 0.578848 0.262149 0.409542
Si Si4 0.118843 0.627781 0.583849
Si Si5 0.750000 0.250000 0.128926
Si Si6 0.363308 0.584166 0.488261
O O1 0.865509 0.375407 0.765656
O O2 0.947228 0.268576 0.897088
O O3 0.772584 0.318714 0.030425
O O4 0.983113 0.383739 0.028251
O O5 0.409879 0.542022 0.344497
O O6 0.575013 0.550964 0.134474
O O7 0.638194 0.205444 0.520748
O O8 0.639151 0.257183 0.243518
O O9 0.592783 0.337831 0.470908
O O10 0.221264 0.583991 0.504682
#
# Coordination Sequence:
#
# PCOD9354075 Si02
#       6
#     8   4   8   8   4   8
#     4  10  22  34  58 109 128 165 204 245 374 399
#     4  10  28  44  62  98 114 202 234 260 320 384
#     4  10  20  37  61 100 130 163 202 283 339 391
#     4  10  21  39  64  98 137 159 208 282 346 403
#     4  12  20  34  58  98 142 162 200 258 348 414
#     4  11  23  44  65  87 138 167 238 274 317 397
#
# _framework density 20.783082
#
# number of rings (size 3 to 8) (size 9 to 14) (size 15 to 20)
#    1.200    0.400    4.000    0.000    8.400    0.000 
#    3.600    0.000    0.000    3.600    0.000    0.000 
#    0.000    0.000    0.000    0.000    0.000    0.000 
#
# Total GULP energy -111551.358493 kJ/mol
# GULP energy per Si atom -5577.567925 kJ/mol
# Density = 2.073578 g / cm^3
# Si number density = 20.783082 Si / 1000 Ang^3
#
#
#
# Elastic Constant Matrix: (Units=GPa)
#
#
# Indices 1 2 3 4 5 6 
#
# 1 44.3532 2.9642 9.6119 0.0000 0.0000 0.0000
# 2 2.9642 35.8448 20.2414 0.0000 0.0000 0.0000
# 3 9.6119 20.2414 113.3893 0.0000 0.0000 0.0000
# 4 0.0000 0.0000 0.0000 -1.5542 0.0000 0.0000
# 5 0.0000 0.0000 0.0000 0.0000 52.8992 0.0000
# 6 0.0000 0.0000 0.0000 0.0000 0.0000 28.7765
#
#
#
# Elastic Compliance Matrix: (Units=1/GPa)
#
#
# Indices 1 2 3 4 5 6 
#
# 1 0.022994 -0.000891 -0.001790 0.000000 0.000000 0.000000
# 2 -0.000891 0.031060 -0.005469 0.000000 0.000000 0.000000
# 3 -0.001790 -0.005469 0.009947 0.000000 0.000000 0.000000
# 4 0.000000 0.000000 0.000000 -0.643400 0.000000 0.000000
# 5 0.000000 0.000000 0.000000 0.000000 0.018904 0.000000
# 6 0.000000 0.000000 0.000000 0.000000 0.000000 0.034751
#
#
# Mechanical properties :
#
#
# Convention : Reuss Voigt Hill
#
# Bulk Modulus (GPa) = 20.96379 28.80248 24.88314
# Shear Modulus (GPa) = -10.13080 26.74227 8.30574
#
# Velocity S-wave (km/s) = -2.21023 3.59100 2.00127
# Velocity P-wave (km/s) = 1.89614 5.57516 4.16400
#
# Compressibility (1/GPa) = 0.04770129
#
# Stress axis : x y z
#
# Youngs Moduli (GPa) = 43.49009 32.19570 100.53055
#
# Poissons Ratio (x) = 0.02867 0.17997
# Poissons Ratio (y) = 0.03873 0.54981
# Poissons Ratio (z) = 0.07785 0.17608
#
# Static dielectric constant tensor:
#      x y z
#    x 1.780790 0.000000 0.000000 
#    y 0.000000 1.712570 0.000000 
#    z 0.000000 0.000000 1.748470 
# 
# From -- ./inp_files/2745.got.cif
#   From: 2010.05.17/outbox.cif.g08.bks.cpg/sg37_2_cif.got.tgz:2745.got - 2010.06.03 17:53:42.
