data_PCOD9354092
_publ_section_title
;
Structure prediction by ZEFSAII (Michael W. Deem and Ramdas Pophale) SiO2 
 PCOD9354092
Probable space group: C C C 2
;
_chemical_formula_sum "Si O2"
_cell_formula_units_Z 48
_cell_length_a 11.480421
_cell_length_b 13.792349
_cell_length_c 17.164982
_cell_angle_alpha 90.000000
_cell_angle_beta 90.000000
_cell_angle_gamma 90.000000
_cell_volume 2717.937118
_symmetry_space_group_name_H-M "C C C 2"
_symmetry_group_IT_number 37
_symmetry_cell_setting 'orthorhombic'
loop_
_space_group_symop_operation_xyz
x,y,z
-x,-y,z
-x,y,1/2+z
x,-y,1/2+z
1/2+x,1/2+y,z
1/2-x,1/2-y,z
1/2-x,1/2+y,1/2+z
1/2+x,1/2-y,1/2+z
loop_
_atom_site_type_symbol
_atom_site_label
_atom_site_fract_x
_atom_site_fract_y
_atom_site_fract_z
Si Si1 0.717244 0.138051 0.448300
Si Si2 0.031002 0.613405 0.576024
Si Si3 0.200406 0.353728 0.642722
Si Si4 0.267856 0.860651 0.703794
Si Si5 0.864438 0.473690 0.296658
Si Si6 0.364093 0.475567 0.078260
O O1 0.750000 0.250000 0.435472
O O2 0.599147 0.139256 0.498653
O O3 0.691072 0.082005 0.368978
O O4 0.809144 0.079075 0.502978
O O5 0.119727 0.632527 0.646825
O O6 0.000000 0.500000 0.575689
O O7 0.909582 0.666252 0.587350
O O8 0.250000 0.250000 0.665466
O O9 0.151231 0.409218 0.718645
O O10 0.290002 0.427443 0.600238
O O11 0.250000 0.750000 0.724782
O O12 0.163007 0.903677 0.651197
O O13 0.294243 0.928568 0.776706
O O14 0.000000 0.500000 0.308920
O O15 0.500000 0.500000 0.070055
#
# Coordination Sequence:
#
# PCOD9354092 Si02
#       6
#     8   8   8   8   8   8
#     4  11  24  39  62  86 122 165 201 242 306 359
#     4  11  17  39  61  92 114 156 207 253 280 350
#     4  11  22  35  62  95 120 148 206 250 298 347
#     4  10  20  37  64  88 119 155 202 247 301 353
#     4  11  21  41  62  88 121 155 203 254 293 357
#     4  10  22  38  58  88 125 159 196 250 297 351
#
# _framework density 17.660454000000001
#
# number of rings (size 3 to 8) (size 9 to 14) (size 15 to 20)
#    0.000    1.333    6.667    3.000    4.667    0.000 
#    0.000    5.833    0.000    0.000    0.000    0.000 
#    0.000    0.000    0.000    0.000    0.000    0.000 
#
# Total GULP energy -133933.775763 kJ/mol
# GULP energy per Si atom -5580.573990 kJ/mol
# Density = 1.762026 g / cm^3
# Si number density = 17.660454 Si / 1000 Ang^3
#
#
#
# Elastic Constant Matrix: (Units=GPa)
#
#
# Indices 1 2 3 4 5 6 
#
# 1 121.0980 52.2587 55.9811 0.0000 0.0000 0.0000
# 2 52.2587 159.2016 65.6017 0.0000 0.0000 0.0000
# 3 55.9811 65.6017 109.5539 0.0000 0.0000 0.0000
# 4 0.0000 0.0000 0.0000 11.2446 0.0000 0.0000
# 5 0.0000 0.0000 0.0000 0.0000 12.2595 0.0000
# 6 0.0000 0.0000 0.0000 0.0000 0.0000 17.5864
#
#
#
# Elastic Compliance Matrix: (Units=1/GPa)
#
#
# Indices 1 2 3 4 5 6 
#
# 1 0.011165 -0.001744 -0.004661 0.000000 0.000000 0.000000
# 2 -0.001744 0.008612 -0.004265 0.000000 0.000000 0.000000
# 3 -0.004661 -0.004265 0.014064 0.000000 0.000000 0.000000
# 4 0.000000 0.000000 0.000000 0.088931 0.000000 0.000000
# 5 0.000000 0.000000 0.000000 0.000000 0.081569 0.000000
# 6 0.000000 0.000000 0.000000 0.000000 0.000000 0.056862
#
#
# Mechanical properties :
#
#
# Convention : Reuss Voigt Hill
#
# Bulk Modulus (GPa) = 80.00374 81.94850 80.97612
# Shear Modulus (GPa) = 17.43922 22.61891 20.02907
#
# Velocity S-wave (km/s) = 3.14582 3.58266 3.37132
# Velocity P-wave (km/s) = 7.65469 7.97602 7.81701
#
# Compressibility (1/GPa) = 0.01249942
#
# Stress axis : x y z
#
# Youngs Moduli (GPa) = 89.56467 116.12316 71.10584
#
# Poissons Ratio (x) = 0.20258 0.33140
# Poissons Ratio (y) = 0.15625 0.30328
# Poissons Ratio (z) = 0.41743 0.49529
#
# Static dielectric constant tensor:
#      x y z
#    x 1.619710 0.000000 0.000000 
#    y 0.000000 1.616290 0.000000 
#    z 0.000000 0.000000 1.594750 
# 
# From -- ./inp_files/14997.got.cif
#   From: 2010.05.17/outbox.cif.g08.bks.cpg/sg37_8_cif.got.tgz:14997.got - 2010.06.03 17:53:42.
