data_PCOD9354232
_publ_section_title
;
Structure prediction by ZEFSAII (Michael W. Deem and Ramdas Pophale) SiO2 
 PCOD9354232
Probable space group: C C C 2
;
_chemical_formula_sum "Si O2"
_cell_formula_units_Z 48
_cell_length_a 5.222173
_cell_length_b 13.269343
_cell_length_c 28.274625
_cell_angle_alpha 90.000000
_cell_angle_beta 90.000000
_cell_angle_gamma 90.000000
_cell_volume 1959.284619
_symmetry_space_group_name_H-M "C C C 2"
_symmetry_group_IT_number 37
_symmetry_cell_setting 'orthorhombic'
loop_
_space_group_symop_operation_xyz
x,y,z
-x,-y,z
-x,y,1/2+z
x,-y,1/2+z
1/2+x,1/2+y,z
1/2-x,1/2-y,z
1/2-x,1/2+y,1/2+z
1/2+x,1/2-y,1/2+z
loop_
_atom_site_type_symbol
_atom_site_label
_atom_site_fract_x
_atom_site_fract_y
_atom_site_fract_z
Si Si1 0.000000 0.500000 0.930501
Si Si2 0.848527 0.096973 0.163768
Si Si3 0.105145 0.642264 0.256796
Si Si4 0.190265 0.632803 0.065089
Si Si5 0.801245 0.871251 0.003907
Si Si6 0.750000 0.750000 0.193688
Si Si7 0.998544 0.320767 0.859688
O O1 0.077872 0.390404 0.041495
O O2 0.776760 0.553607 0.961396
O O3 0.751453 0.079685 0.217122
O O4 0.025019 0.197287 0.164876
O O5 0.659145 0.104622 0.120042
O O6 0.000000 0.000000 0.149373
O O7 0.250000 0.750000 0.257889
O O8 0.066587 0.619054 0.311222
O O9 0.843669 0.663994 0.229411
O O10 0.250000 0.750000 0.067004
O O11 0.428604 0.605591 0.029773
O O12 0.750000 0.750000 0.991245
O O13 0.421470 0.904329 0.898273
O O14 0.250000 0.250000 0.870800
O O15 0.750000 0.250000 0.851201
#
# Coordination Sequence:
#
# PCOD9354232 Si02
#       7
#     4   8   8   8   8   4   8
#     4  12  28  48  82 108 144 194 252 316 380 442
#     4  11  25  38  67 105 141 185 244 293 348 443
#     4   9  20  43  66  99 142 188 229 292 357 435
#     4  10  23  45  69  99 144 192 237 295 368 434
#     4  10  25  45  71 103 145 190 243 306 369 438
#     4  10  20  40  68  88 140 186 232 274 366 408
#     4  11  26  49  76 109 149 191 246 307 377 446
#
# _framework density 24.498739
#
# number of rings (size 3 to 8) (size 9 to 14) (size 15 to 20)
#    0.000    1.667    0.833    2.000    8.167    7.333 
#    0.000    0.000    0.000    0.000    0.000    0.000 
#    0.000    0.000    0.000    0.000    0.000    0.000 
#
# Total GULP energy -133900.983358 kJ/mol
# GULP energy per Si atom -5579.207640 kJ/mol
# Density = 2.444298 g / cm^3
# Si number density = 24.498739 Si / 1000 Ang^3
#
#
#
# Elastic Constant Matrix: (Units=GPa)
#
#
# Indices 1 2 3 4 5 6 
#
# 1 97.2854 7.4430 28.6493 0.0000 0.0000 0.0000
# 2 7.4430 104.8418 42.0735 0.0000 0.0000 0.0000
# 3 28.6493 42.0735 143.1734 0.0000 0.0000 0.0000
# 4 0.0000 0.0000 0.0000 6.1066 0.0000 0.0000
# 5 0.0000 0.0000 0.0000 0.0000 -42.4788 0.0000
# 6 0.0000 0.0000 0.0000 0.0000 0.0000 30.3504
#
#
#
# Elastic Compliance Matrix: (Units=1/GPa)
#
#
# Indices 1 2 3 4 5 6 
#
# 1 0.010924 0.000115 -0.002220 0.000000 0.000000 0.000000
# 2 0.000115 0.010815 -0.003201 0.000000 0.000000 0.000000
# 3 -0.002220 -0.003201 0.008369 0.000000 0.000000 0.000000
# 4 0.000000 0.000000 0.000000 0.163756 0.000000 0.000000
# 5 0.000000 0.000000 0.000000 0.000000 -0.023541 0.000000
# 6 0.000000 0.000000 0.000000 0.000000 0.000000 0.032949
#
#
# Mechanical properties :
#
#
# Convention : Reuss Voigt Hill
#
# Bulk Modulus (GPa) = 51.29059 55.73693 53.51376
# Shear Modulus (GPa) = 22.68791 16.60462 19.64627
#
# Velocity S-wave (km/s) = 3.04647 2.60623 2.83491
# Velocity P-wave (km/s) = 5.77547 5.64420 5.71021
#
# Compressibility (1/GPa) = 0.01949676
#
# Stress axis : x y z
#
# Youngs Moduli (GPa) = 91.54235 92.46753 119.48284
#
# Poissons Ratio (x) = -0.01066 0.26522
# Poissons Ratio (y) = -0.01055 0.38248
# Poissons Ratio (z) = 0.20320 0.29600
#
# Static dielectric constant tensor:
#      x y z
#    x 2.011620 0.000000 0.000000 
#    y 0.000000 2.006810 0.000000 
#    z 0.000000 0.000000 1.966140 
# 
# From -- ./inp_files/19364.got.cif
#   From: 2010.05.17/outbox.cif.g08.bks.cpg/sg37_10_cif.got.tgz:19364.got - 2010.06.03 17:53:42.
