data_PCOD9354909
_publ_section_title
;
Structure prediction by ZEFSAII (Michael W. Deem and Ramdas Pophale) SiO2 
 PCOD9354909
Probable space group: C C C 2
;
_chemical_formula_sum "Si O2"
_cell_formula_units_Z 28
_cell_length_a 5.202677
_cell_length_b 13.993659
_cell_length_c 17.140096
_cell_angle_alpha 90.000000
_cell_angle_beta 90.000000
_cell_angle_gamma 90.000000
_cell_volume 1247.875911
_symmetry_space_group_name_H-M "C C C 2"
_symmetry_group_IT_number 37
_symmetry_cell_setting 'orthorhombic'
loop_
_space_group_symop_operation_xyz
x,y,z
-x,-y,z
-x,y,1/2+z
x,-y,1/2+z
1/2+x,1/2+y,z
1/2-x,1/2-y,z
1/2-x,1/2+y,1/2+z
1/2+x,1/2-y,1/2+z
loop_
_atom_site_type_symbol
_atom_site_label
_atom_site_fract_x
_atom_site_fract_y
_atom_site_fract_z
Si Si1 0.136664 0.900558 0.284670
Si Si2 0.250000 0.250000 0.048179
Si Si3 0.250000 0.750000 0.153568
Si Si4 0.500000 0.000000 0.402886
Si Si5 0.603000 0.652808 0.438012
O O1 0.201748 0.839600 0.210020
O O2 0.370632 0.926201 0.342252
O O3 0.958408 0.845335 0.346235
O O4 0.000000 0.000000 0.263541
O O5 0.494902 0.230175 0.102947
O O6 0.348246 0.336111 0.991535
O O7 0.720187 0.941171 0.448783
O O8 0.750000 0.750000 0.456083
#
# Coordination Sequence:
#
# PCOD9354909 Si02
#       5
#     8   4   4   4   8
#     4  10  24  43  77 104 139 187 254 308 356 431
#     4  12  27  44  73 102 154 200 236 298 385 456
#     4  12  27  46  71 108 152 198 238 296 385 456
#     4  10  22  42  78 106 140 182 262 318 358 420
#     4  11  22  46  74 108 139 192 255 303 363 441
#
# _framework density 22.438127999999999
#
# number of rings (size 3 to 8) (size 9 to 14) (size 15 to 20)
#    0.000    1.143    1.429    4.286   10.000    0.000 
#    0.000    8.571    0.000    0.000    0.000    0.000 
#    0.000    0.000    0.000    0.000    0.000    0.000 
#
# Total GULP energy -78205.584445 kJ/mol
# GULP energy per Si atom -5586.113175 kJ/mol
# Density = 2.238706 g / cm^3
# Si number density = 22.438128 Si / 1000 Ang^3
#
#
#
# Elastic Constant Matrix: (Units=GPa)
#
#
# Indices 1 2 3 4 5 6 
#
# 1 163.5260 74.1942 83.2967 0.0000 0.0000 0.0000
# 2 74.1942 112.0727 92.1834 0.0000 0.0000 0.0000
# 3 83.2967 92.1834 153.9258 0.0000 0.0000 0.0000
# 4 0.0000 0.0000 0.0000 1.9821 0.0000 0.0000
# 5 0.0000 0.0000 0.0000 0.0000 17.6112 0.0000
# 6 0.0000 0.0000 0.0000 0.0000 0.0000 42.6955
#
#
#
# Elastic Compliance Matrix: (Units=1/GPa)
#
#
# Indices 1 2 3 4 5 6 
#
# 1 0.009254 -0.003956 -0.002639 0.000000 0.000000 0.000000
# 2 -0.003956 0.019276 -0.009404 0.000000 0.000000 0.000000
# 3 -0.002639 -0.009404 0.013556 0.000000 0.000000 0.000000
# 4 0.000000 0.000000 0.000000 0.504507 0.000000 0.000000
# 5 0.000000 0.000000 0.000000 0.000000 0.056782 0.000000
# 6 0.000000 0.000000 0.000000 0.000000 0.000000 0.023422
#
#
# Mechanical properties :
#
#
# Convention : Reuss Voigt Hill
#
# Bulk Modulus (GPa) = 99.10494 103.20813 101.15653
# Shear Modulus (GPa) = 7.55107 24.44777 15.99942
#
# Velocity S-wave (km/s) = 1.83646 3.30444 2.67319
# Velocity P-wave (km/s) = 6.98289 7.78818 7.39650
#
# Compressibility (1/GPa) = 0.01009031
#
# Stress axis : x y z
#
# Youngs Moduli (GPa) = 108.05819 51.87671 73.76715
#
# Poissons Ratio (x) = 0.20523 0.19465
# Poissons Ratio (y) = 0.42749 0.69367
# Poissons Ratio (z) = 0.28513 0.48782
#
# Static dielectric constant tensor:
#      x y z
#    x 2.126540 0.000000 0.000000 
#    y 0.000000 1.868470 0.000000 
#    z 0.000000 0.000000 1.780240 
# 
# From -- ./inp_files/9410.got.cif
#   From: 2010.05.17/outbox.cif.g08.bks.cpg/sg37_5_cif.got.tgz:9410.got - 2010.06.03 17:53:42.
