data_PCOD9354368
_publ_section_title
;
Structure prediction by ZEFSAII (Michael W. Deem and Ramdas Pophale) SiO2 
 PCOD9354368
Probable space group: C C C 2
;
_chemical_formula_sum "Si O2"
_cell_formula_units_Z 48
_cell_length_a 13.621386
_cell_length_b 13.169173
_cell_length_c 11.859892
_cell_angle_alpha 90.000000
_cell_angle_beta 90.000000
_cell_angle_gamma 90.000000
_cell_volume 2127.455757
_symmetry_space_group_name_H-M "C C C 2"
_symmetry_group_IT_number 37
_symmetry_cell_setting 'orthorhombic'
loop_
_space_group_symop_operation_xyz
x,y,z
-x,-y,z
-x,y,1/2+z
x,-y,1/2+z
1/2+x,1/2+y,z
1/2-x,1/2-y,z
1/2-x,1/2+y,1/2+z
1/2+x,1/2-y,1/2+z
loop_
_atom_site_type_symbol
_atom_site_label
_atom_site_fract_x
_atom_site_fract_y
_atom_site_fract_z
Si Si1 0.832499 0.327567 0.634360
Si Si2 0.625596 0.166453 0.973562
Si Si3 0.956228 0.184540 0.802123
Si Si4 0.722244 0.564004 0.331937
Si Si5 0.617938 0.941062 0.916881
Si Si6 0.638395 0.779609 0.734413
O O1 0.750000 0.250000 0.590042
O O2 0.901562 0.258128 0.711880
O O3 0.780136 0.410454 0.715703
O O4 0.887356 0.381342 0.533202
O O5 0.562774 0.256024 0.918792
O O6 0.733586 0.149007 0.918046
O O7 0.580671 0.056844 0.934813
O O8 0.633160 0.183812 0.105599
O O9 0.891674 0.082990 0.811528
O O10 0.067724 0.184661 0.763030
O O11 0.764975 0.463966 0.389032
O O12 0.594425 0.870729 0.810800
O O13 0.750000 0.750000 0.760164
#
# Coordination Sequence:
#
# PCOD9354368 Si02
#       6
#     8   8   8   8   8   8
#     4   9  17  36  58  86 122 158 197 249 308 372
#     4   9  21  40  63  85 123 155 200 251 323 367
#     4  10  21  39  62  87 119 171 206 241 310 393
#     4   8  18  38  64  82 118 165 201 237 315 377
#     4  10  21  36  60  94 125 152 199 263 316 357
#     4  12  25  40  60  91 128 162 209 264 308 366
#
# _framework density 22.562159999999999
#
# number of rings (size 3 to 8) (size 9 to 14) (size 15 to 20)
#    1.000    1.333    0.000    4.000    2.333    0.667 
#    0.000    0.833    0.000    0.000    0.000    0.000 
#    0.000    0.000    0.000    0.000    0.000    0.000 
#
# Total GULP energy -133818.874943 kJ/mol
# GULP energy per Si atom -5575.786456 kJ/mol
# Density = 2.251081 g / cm^3
# Si number density = 22.562160 Si / 1000 Ang^3
#
#
#
# Elastic Constant Matrix: (Units=GPa)
#
#
# Indices 1 2 3 4 5 6 
#
# 1 88.7715 -18.6757 -8.6628 0.0000 0.0000 0.0000
# 2 -18.6757 31.1790 5.9928 0.0000 0.0000 0.0000
# 3 -8.6628 5.9928 124.2631 0.0000 0.0000 0.0000
# 4 0.0000 0.0000 0.0000 12.1790 0.0000 0.0000
# 5 0.0000 0.0000 0.0000 0.0000 7.1977 0.0000
# 6 0.0000 0.0000 0.0000 0.0000 0.0000 37.3782
#
#
#
# Elastic Compliance Matrix: (Units=1/GPa)
#
#
# Indices 1 2 3 4 5 6 
#
# 1 0.012924 0.007639 0.000533 0.000000 0.000000 0.000000
# 2 0.007639 0.036888 -0.001246 0.000000 0.000000 0.000000
# 3 0.000533 -0.001246 0.008145 0.000000 0.000000 0.000000
# 4 0.000000 0.000000 0.000000 0.082109 0.000000 0.000000
# 5 0.000000 0.000000 0.000000 0.000000 0.138933 0.000000
# 6 0.000000 0.000000 0.000000 0.000000 0.000000 0.026754
#
#
# Mechanical properties :
#
#
# Convention : Reuss Voigt Hill
#
# Bulk Modulus (GPa) = 13.92631 22.39135 18.15883
# Shear Modulus (GPa) = 15.83092 29.05493 22.44292
#
# Velocity S-wave (km/s) = 2.65176 3.59245 3.15733
# Velocity P-wave (km/s) = 3.94482 5.21089 4.62142
#
# Compressibility (1/GPa) = 0.07180651
#
# Stress axis : x y z
#
# Youngs Moduli (GPa) = 77.37599 27.10910 122.77949
#
# Poissons Ratio (x) = -0.20708 -0.06539
# Poissons Ratio (y) = -0.59106 0.15304
# Poissons Ratio (z) = -0.04121 0.03379
#
# Static dielectric constant tensor:
#      x y z
#    x 2.029410 0.000000 0.000000 
#    y 0.000000 1.877850 0.000000 
#    z 0.000000 0.000000 1.788700 
# 
# From -- ./inp_files/7805.got.cif
#   From: 2010.05.17/outbox.cif.g08.bks.cpg/sg37_4_cif.got.tgz:7805.got - 2010.06.03 17:53:42.
