data_PCOD9354115
_publ_section_title
;
Structure prediction by ZEFSAII (Michael W. Deem and Ramdas Pophale) SiO2 
 PCOD9354115
Probable space group: C C C 2
;
_chemical_formula_sum "Si O2"
_cell_formula_units_Z 52
_cell_length_a 9.492675
_cell_length_b 11.754639
_cell_length_c 20.133965
_cell_angle_alpha 90.000000
_cell_angle_beta 90.000000
_cell_angle_gamma 90.000000
_cell_volume 2246.607568
_symmetry_space_group_name_H-M "C C C 2"
_symmetry_group_IT_number 37
_symmetry_cell_setting 'orthorhombic'
loop_
_space_group_symop_operation_xyz
x,y,z
-x,-y,z
-x,y,1/2+z
x,-y,1/2+z
1/2+x,1/2+y,z
1/2-x,1/2-y,z
1/2-x,1/2+y,1/2+z
1/2+x,1/2-y,1/2+z
loop_
_atom_site_type_symbol
_atom_site_label
_atom_site_fract_x
_atom_site_fract_y
_atom_site_fract_z
Si Si1 0.890049 0.102229 0.168320
Si Si2 0.907799 0.886239 0.398258
Si Si3 0.017754 0.136327 0.535626
Si Si4 0.909738 0.750245 0.260108
Si Si5 0.750000 0.750000 0.014274
Si Si6 0.329110 0.873266 0.276390
Si Si7 0.160346 0.464355 0.922378
O O1 0.867067 0.146596 0.093529
O O2 0.752393 0.076291 0.212431
O O3 0.984889 0.188737 0.209912
O O4 0.000000 0.000000 0.161642
O O5 0.969285 0.817341 0.460577
O O6 0.903322 0.815289 0.331026
O O7 0.760878 0.927003 0.429878
O O8 0.000000 0.000000 0.384454
O O9 0.876562 0.200026 0.558686
O O10 0.000000 0.000000 0.525192
O O11 0.750000 0.750000 0.236126
O O12 0.001400 0.636776 0.270749
O O13 0.795128 0.641250 0.968961
O O14 0.250000 0.750000 0.284748
O O15 0.305543 0.933402 0.346029
O O16 0.000000 0.500000 0.932079
#
# Coordination Sequence:
#
# PCOD9354115 Si02
#       7
#     8   8   8   8   4   8   8
#     4  10  22  40  64  86 126 179 223 270 340 408
#     4  11  20  40  64  93 130 171 219 271 332 407
#     4  10  22  41  70  94 129 182 229 265 349 411
#     4  11  22  37  61  95 130 165 223 274 333 401
#     4  12  22  44  72  98 142 180 214 302 346 396
#     4  10  20  38  61  93 131 175 219 271 341 399
#     4  12  23  38  68 107 138 170 226 284 344 408
#
# _framework density 23.146008999999999
#
# number of rings (size 3 to 8) (size 9 to 14) (size 15 to 20)
#    0.000    1.231    3.846    5.077    1.077    0.000 
#    0.000    6.923    0.000    0.923    0.000    0.000 
#    0.000    0.000    0.000    0.000    0.000    0.000 
#
# Total GULP energy -145074.812087 kJ/mol
# GULP energy per Si atom -5579.800465 kJ/mol
# Density = 2.309333 g / cm^3
# Si number density = 23.146009 Si / 1000 Ang^3
#
#
#
# Elastic Constant Matrix: (Units=GPa)
#
#
# Indices 1 2 3 4 5 6 
#
# 1 128.6501 11.7810 -8.2101 0.0000 0.0000 0.0000
# 2 11.7810 46.6544 6.9701 0.0000 0.0000 0.0000
# 3 -8.2101 6.9701 74.8912 0.0000 0.0000 0.0000
# 4 0.0000 0.0000 0.0000 27.8684 0.0000 0.0000
# 5 0.0000 0.0000 0.0000 0.0000 22.2976 0.0000
# 6 0.0000 0.0000 0.0000 0.0000 0.0000 36.8225
#
#
#
# Elastic Compliance Matrix: (Units=1/GPa)
#
#
# Indices 1 2 3 4 5 6 
#
# 1 0.008043 -0.002193 0.001086 0.000000 0.000000 0.000000
# 2 -0.002193 0.022335 -0.002319 0.000000 0.000000 0.000000
# 3 0.001086 -0.002319 0.013688 0.000000 0.000000 0.000000
# 4 0.000000 0.000000 0.000000 0.035883 0.000000 0.000000
# 5 0.000000 0.000000 0.000000 0.000000 0.044848 0.000000
# 6 0.000000 0.000000 0.000000 0.000000 0.000000 0.027157
#
#
# Mechanical properties :
#
#
# Convention : Reuss Voigt Hill
#
# Bulk Modulus (GPa) = 26.87286 30.14197 28.50741
# Shear Modulus (GPa) = 29.20381 33.37467 31.28924
#
# Velocity S-wave (km/s) = 3.55593 3.80138 3.68070
# Velocity P-wave (km/s) = 5.33805 5.68490 5.51421
#
# Compressibility (1/GPa) = 0.03721227
#
# Stress axis : x y z
#
# Youngs Moduli (GPa) = 124.32918 44.77372 73.05887
#
# Poissons Ratio (x) = 0.09820 -0.07933
# Poissons Ratio (y) = 0.27269 0.16943
# Poissons Ratio (z) = -0.13501 0.10384
#
# Static dielectric constant tensor:
#      x y z
#    x 2.443510 0.000000 0.000000 
#    y 0.000000 1.888110 0.000000 
#    z 0.000000 0.000000 1.975870 
# 
# From -- ./inp_files/16391.got.cif
#   From: 2010.05.17/outbox.cif.g08.bks.cpg/sg37_9_cif.got.tgz:16391.got - 2010.06.03 17:53:42.
