data_PCOD9354419
_publ_section_title
;
Structure prediction by ZEFSAII (Michael W. Deem and Ramdas Pophale) SiO2 
 PCOD9354419
Probable space group: C C C 2
;
_chemical_formula_sum "Si O2"
_cell_formula_units_Z 64
_cell_length_a 15.325943
_cell_length_b 20.583019
_cell_length_c 8.390097
_cell_angle_alpha 90.000000
_cell_angle_beta 90.000000
_cell_angle_gamma 90.000000
_cell_volume 2646.691135
_symmetry_space_group_name_H-M "C C C 2"
_symmetry_group_IT_number 37
_symmetry_cell_setting 'orthorhombic'
loop_
_space_group_symop_operation_xyz
x,y,z
-x,-y,z
-x,y,1/2+z
x,-y,1/2+z
1/2+x,1/2+y,z
1/2-x,1/2-y,z
1/2-x,1/2+y,1/2+z
1/2+x,1/2-y,1/2+z
loop_
_atom_site_type_symbol
_atom_site_label
_atom_site_fract_x
_atom_site_fract_y
_atom_site_fract_z
Si Si1 0.075474 0.842896 0.172030
Si Si2 0.070634 0.052309 0.204459
Si Si3 0.166747 0.710155 0.758337
Si Si4 0.677047 0.553092 0.512189
Si Si5 0.546756 0.735568 0.984660
Si Si6 0.873021 0.593606 0.083984
Si Si7 0.969890 0.365204 0.955647
Si Si8 0.861882 0.513424 0.375450
O O1 0.157934 0.888375 0.134183
O O2 0.078948 0.813265 0.348565
O O3 0.990765 0.889810 0.147065
O O4 0.048753 0.786814 0.047754
O O5 0.126731 0.074259 0.353019
O O6 0.131211 0.012488 0.081437
O O7 0.000000 0.000000 0.266067
O O8 0.250000 0.750000 0.810965
O O9 0.105715 0.755069 0.643658
O O10 0.190503 0.650538 0.637072
O O11 0.118724 0.671718 0.901187
O O12 0.773582 0.538711 0.456417
O O13 0.536780 0.806719 0.903338
O O14 0.856153 0.530686 0.190249
O O15 0.971429 0.620441 0.116295
O O16 0.870525 0.563006 0.909564
O O17 0.940811 0.439550 0.925460
#
# Coordination Sequence:
#
# PCOD9354419 Si02
#       8
#     8   8   8   8   8   8   8   8
#     4  11  22  39  67  94 137 189 240 296 364 459
#     4  10  21  38  60  91 134 183 236 289 356 452
#     4  10  23  45  70 106 144 186 243 320 385 450
#     4  11  23  39  62 102 138 181 237 301 378 435
#     4  11  22  41  66 100 131 188 245 295 363 459
#     4  10  24  45  71 102 138 191 247 296 374 457
#     4  10  23  43  72  95 135 186 250 296 364 457
#     4  11  24  44  67 103 141 183 239 319 377 431
#
# _framework density 24.181137
#
# number of rings (size 3 to 8) (size 9 to 14) (size 15 to 20)
#    0.000    1.500    2.500    2.250    1.750   10.000 
#    2.250    0.000    0.000    0.000    0.000    0.000 
#    0.000    0.000    0.000    0.000    0.000    0.000 
#
# Total GULP energy -178151.000626 kJ/mol
# GULP energy per Si atom -5567.218770 kJ/mol
# Density = 2.412610 g / cm^3
# Si number density = 24.181137 Si / 1000 Ang^3
#
#
#
# Elastic Constant Matrix: (Units=GPa)
#
#
# Indices 1 2 3 4 5 6 
#
# 1 82.4615 27.3647 24.4601 0.0000 0.0000 0.0000
# 2 27.3647 120.1108 27.3457 0.0000 0.0000 0.0000
# 3 24.4601 27.3457 50.0257 0.0000 0.0000 0.0000
# 4 0.0000 0.0000 0.0000 55.2930 0.0000 0.0000
# 5 0.0000 0.0000 0.0000 0.0000 25.6721 0.0000
# 6 0.0000 0.0000 0.0000 0.0000 0.0000 20.3292
#
#
#
# Elastic Compliance Matrix: (Units=1/GPa)
#
#
# Indices 1 2 3 4 5 6 
#
# 1 0.014569 -0.001939 -0.006064 0.000000 0.000000 0.000000
# 2 -0.001939 0.009767 -0.004391 0.000000 0.000000 0.000000
# 3 -0.006064 -0.004391 0.025355 0.000000 0.000000 0.000000
# 4 0.000000 0.000000 0.000000 0.018085 0.000000 0.000000
# 5 0.000000 0.000000 0.000000 0.000000 0.038953 0.000000
# 6 0.000000 0.000000 0.000000 0.000000 0.000000 0.049190
#
#
# Mechanical properties :
#
#
# Convention : Reuss Voigt Hill
#
# Bulk Modulus (GPa) = 40.15441 45.65991 42.90716
# Shear Modulus (GPa) = 26.45397 31.82070 29.13734
#
# Velocity S-wave (km/s) = 3.31114 3.63151 3.47502
# Velocity P-wave (km/s) = 5.59106 6.04213 5.82096
#
# Compressibility (1/GPa) = 0.02490386
#
# Stress axis : x y z
#
# Youngs Moduli (GPa) = 68.63949 102.38500 39.44015
#
# Poissons Ratio (x) = 0.19849 0.23915
# Poissons Ratio (y) = 0.13307 0.17318
# Poissons Ratio (z) = 0.41621 0.44958
#
# Static dielectric constant tensor:
#      x y z
#    x 1.969980 0.000000 0.000000 
#    y 0.000000 2.061090 0.000000 
#    z 0.000000 0.000000 2.029490 
# 
# From -- ./inp_files/4160.got.cif
#   From: 2010.05.17/outbox.cif.g08.bks.cpg/sg37_3_cif.got.tgz:4160.got - 2010.06.03 17:53:42.
