data_PCOD9354666
_publ_section_title
;
Structure prediction by ZEFSAII (Michael W. Deem and Ramdas Pophale) SiO2 
 PCOD9354666
Probable space group: C C C 2
;
_chemical_formula_sum "Si O2"
_cell_formula_units_Z 52
_cell_length_a 20.130586
_cell_length_b 14.544984
_cell_length_c 8.420961
_cell_angle_alpha 90.000000
_cell_angle_beta 90.000000
_cell_angle_gamma 90.000000
_cell_volume 2465.649392
_symmetry_space_group_name_H-M "C C C 2"
_symmetry_group_IT_number 37
_symmetry_cell_setting 'orthorhombic'
loop_
_space_group_symop_operation_xyz
x,y,z
-x,-y,z
-x,y,1/2+z
x,-y,1/2+z
1/2+x,1/2+y,z
1/2-x,1/2-y,z
1/2-x,1/2+y,1/2+z
1/2+x,1/2-y,1/2+z
loop_
_atom_site_type_symbol
_atom_site_label
_atom_site_fract_x
_atom_site_fract_y
_atom_site_fract_z
Si Si1 0.952086 0.114448 0.880680
Si Si2 0.567190 0.121745 0.616615
Si Si3 0.540462 0.267630 0.182367
Si Si4 0.624133 0.516224 0.104264
Si Si5 0.704126 0.611157 0.836828
Si Si6 0.341755 0.179592 0.860505
Si Si7 0.500000 0.000000 0.357217
O O1 0.907360 0.089669 0.726589
O O2 0.022334 0.147625 0.802366
O O3 0.938998 0.194867 0.009680
O O4 0.933323 0.026464 0.991754
O O5 0.528870 0.213161 0.668800
O O6 0.636298 0.147269 0.535886
O O7 0.525826 0.079128 0.471082
O O8 0.558456 0.044576 0.751256
O O9 0.594095 0.195527 0.248569
O O10 0.660747 0.434865 0.199066
O O11 0.680734 0.559665 0.994585
O O12 0.684296 0.716451 0.862657
O O13 0.782815 0.613406 0.803264
#
# Coordination Sequence:
#
# PCOD9354666 Si02
#       7
#     8   8   8   8   8   8   4
#     4  11  24  38  68  96 136 161 216 262 340 385
#     4  11  21  39  60  90 123 161 207 260 323 376
#     4  12  22  40  65  98 128 172 204 273 332 402
#     4  10  23  44  64  98 127 171 214 275 314 397
#     4  10  23  43  66  87 127 169 223 259 321 374
#     4  11  22  40  67  87 126 172 211 263 316 392
#     4  10  22  36  58  88 124 156 204 256 310 378
#
# _framework density 21.089777000000002
#
# number of rings (size 3 to 8) (size 9 to 14) (size 15 to 20)
#    0.000    1.231    4.615    0.923    0.000    3.077 
#    0.000    0.000   23.692    0.000    0.000    0.000 
#    0.000    0.000    0.000    0.000    0.000    0.000 
#
# Total GULP energy -144917.361303 kJ/mol
# GULP energy per Si atom -5573.744665 kJ/mol
# Density = 2.104178 g / cm^3
# Si number density = 21.089777 Si / 1000 Ang^3
#
#
#
# Elastic Constant Matrix: (Units=GPa)
#
#
# Indices 1 2 3 4 5 6 
#
# 1 107.5607 27.6620 34.4417 0.0000 0.0000 0.0000
# 2 27.6620 73.5736 35.3341 0.0000 0.0000 0.0000
# 3 34.4417 35.3341 114.5370 0.0000 0.0000 0.0000
# 4 0.0000 0.0000 0.0000 -91.5661 0.0000 0.0000
# 5 0.0000 0.0000 0.0000 0.0000 24.8612 0.0000
# 6 0.0000 0.0000 0.0000 0.0000 0.0000 35.5026
#
#
#
# Elastic Compliance Matrix: (Units=1/GPa)
#
#
# Indices 1 2 3 4 5 6 
#
# 1 0.010802 -0.002936 -0.002342 0.000000 0.000000 0.000000
# 2 -0.002936 0.016754 -0.004286 0.000000 0.000000 0.000000
# 3 -0.002342 -0.004286 0.010757 0.000000 0.000000 0.000000
# 4 0.000000 0.000000 0.000000 -0.010921 0.000000 0.000000
# 5 0.000000 0.000000 0.000000 0.000000 0.040223 0.000000
# 6 0.000000 0.000000 0.000000 0.000000 0.000000 0.028167
#
#
# Mechanical properties :
#
#
# Convention : Reuss Voigt Hill
#
# Bulk Modulus (GPa) = 52.12466 54.50519 53.31493
# Shear Modulus (GPa) = 41.21789 6.97511 24.09650
#
# Velocity S-wave (km/s) = 4.42566 1.82058 3.38386
# Velocity P-wave (km/s) = 7.13334 5.50634 6.37198
#
# Compressibility (1/GPa) = 0.01918478
#
# Stress axis : x y z
#
# Youngs Moduli (GPa) = 92.57267 59.68713 92.96064
#
# Poissons Ratio (x) = 0.17527 0.21775
# Poissons Ratio (y) = 0.27184 0.39839
# Poissons Ratio (z) = 0.21684 0.25579
#
# Static dielectric constant tensor:
#      x y z
#    x 1.708340 0.000000 0.000000 
#    y 0.000000 1.963420 0.000000 
#    z 0.000000 0.000000 1.764860 
# 
# From -- ./inp_files/4361.got.cif
#   From: 2010.05.17/outbox.cif.g08.bks.cpg/sg37_3_cif.got.tgz:4361.got - 2010.06.03 17:53:42.
