data_PCOD9354469
_publ_section_title
;
Structure prediction by ZEFSAII (Michael W. Deem and Ramdas Pophale) SiO2 
 PCOD9354469
Probable space group: C C C 2
;
_chemical_formula_sum "Si O2"
_cell_formula_units_Z 40
_cell_length_a 9.768801
_cell_length_b 16.667586
_cell_length_c 10.259311
_cell_angle_alpha 90.000000
_cell_angle_beta 90.000000
_cell_angle_gamma 90.000000
_cell_volume 1670.444929
_symmetry_space_group_name_H-M "C C C 2"
_symmetry_group_IT_number 37
_symmetry_cell_setting 'orthorhombic'
loop_
_space_group_symop_operation_xyz
x,y,z
-x,-y,z
-x,y,1/2+z
x,-y,1/2+z
1/2+x,1/2+y,z
1/2-x,1/2-y,z
1/2-x,1/2+y,1/2+z
1/2+x,1/2-y,1/2+z
loop_
_atom_site_type_symbol
_atom_site_label
_atom_site_fract_x
_atom_site_fract_y
_atom_site_fract_z
Si Si1 0.311353 0.825704 0.680290
Si Si2 0.536331 0.729500 0.523958
Si Si3 0.857724 0.175556 0.289030
Si Si4 0.786912 0.558801 0.970434
Si Si5 0.396152 0.894116 0.938968
O O1 0.250000 0.750000 0.757723
O O2 0.400266 0.772695 0.581149
O O3 0.229950 0.890452 0.593221
O O4 0.393048 0.877867 0.784463
O O5 0.485126 0.691930 0.388139
O O6 0.590197 0.674900 0.641094
O O7 0.629424 0.808844 0.505751
O O8 0.750000 0.250000 0.301371
O O9 0.782090 0.096727 0.342857
O O10 0.788245 0.463001 0.974564
O O11 0.949312 0.579144 0.970437
#
# Coordination Sequence:
#
# PCOD9354469 Si02
#       5
#     8   8   8   8   8
#     4  11  19  37  61  88 132 177 222 280 347 402
#     4  11  21  38  66 101 132 183 235 273 343 430
#     4  12  21  41  66 103 142 184 228 289 345 416
#     4  10  21  39  62  97 142 175 211 304 359 388
#     4  10  22  37  63 105 129 169 235 291 344 412
#
# _framework density 23.945717999999999
#
# number of rings (size 3 to 8) (size 9 to 14) (size 15 to 20)
#    0.000    1.200    8.000    0.000    0.000    8.800 
#    0.000    0.000    0.000    1.200   15.600    0.000 
#    0.000    0.000    0.000    0.000    0.000    0.000 
#
# Total GULP energy -111576.200822 kJ/mol
# GULP energy per Si atom -5578.810041 kJ/mol
# Density = 2.389122 g / cm^3
# Si number density = 23.945718 Si / 1000 Ang^3
#
#
#
# Elastic Constant Matrix: (Units=GPa)
#
#
# Indices 1 2 3 4 5 6 
#
# 1 52.7450 44.4240 34.9892 0.0000 0.0000 0.0000
# 2 44.4240 126.3785 30.0926 0.0000 0.0000 0.0000
# 3 34.9892 30.0926 106.7054 0.0000 0.0000 0.0000
# 4 0.0000 0.0000 0.0000 2.6362 0.0000 0.0000
# 5 0.0000 0.0000 0.0000 0.0000 48.4853 0.0000
# 6 0.0000 0.0000 0.0000 0.0000 0.0000 34.9308
#
#
#
# Elastic Compliance Matrix: (Units=1/GPa)
#
#
# Indices 1 2 3 4 5 6 
#
# 1 0.032110 -0.009412 -0.007875 0.000000 0.000000 0.000000
# 2 -0.009412 0.011241 -0.000084 0.000000 0.000000 0.000000
# 3 -0.007875 -0.000084 0.011977 0.000000 0.000000 0.000000
# 4 0.000000 0.000000 0.000000 0.379334 0.000000 0.000000
# 5 0.000000 0.000000 0.000000 0.000000 0.020625 0.000000
# 6 0.000000 0.000000 0.000000 0.000000 0.000000 0.028628
#
#
# Mechanical properties :
#
#
# Convention : Reuss Voigt Hill
#
# Bulk Modulus (GPa) = 48.57359 56.09339 52.33349
# Shear Modulus (GPa) = 9.51438 28.96535 19.23987
#
# Velocity S-wave (km/s) = 1.99548 3.48174 2.83764
# Velocity P-wave (km/s) = 5.06341 6.29599 5.71304
#
# Compressibility (1/GPa) = 0.02058732
#
# Stress axis : x y z
#
# Youngs Moduli (GPa) = 31.14271 88.95822 83.49041
#
# Poissons Ratio (x) = 0.83729 0.65746
# Poissons Ratio (y) = 0.29312 0.00701
# Poissons Ratio (z) = 0.24524 0.00747
#
# Static dielectric constant tensor:
#      x y z
#    x 2.063220 0.000000 0.000000 
#    y 0.000000 1.984840 0.000000 
#    z 0.000000 0.000000 1.938870 
# 
# From -- ./inp_files/2729.got.cif
#   From: 2010.05.17/outbox.cif.g08.bks.cpg/sg37_2_cif.got.tgz:2729.got - 2010.06.03 17:53:42.
