data_PCOD9354547
_publ_section_title
;
Structure prediction by ZEFSAII (Michael W. Deem and Ramdas Pophale) SiO2 
 PCOD9354547
Probable space group: C C C 2
;
_chemical_formula_sum "Si O2"
_cell_formula_units_Z 64
_cell_length_a 8.565759
_cell_length_b 26.913753
_cell_length_c 13.201721
_cell_angle_alpha 90.000000
_cell_angle_beta 90.000000
_cell_angle_gamma 90.000000
_cell_volume 3043.481484
_symmetry_space_group_name_H-M "C C C 2"
_symmetry_group_IT_number 37
_symmetry_cell_setting 'orthorhombic'
loop_
_space_group_symop_operation_xyz
x,y,z
-x,-y,z
-x,y,1/2+z
x,-y,1/2+z
1/2+x,1/2+y,z
1/2-x,1/2-y,z
1/2-x,1/2+y,1/2+z
1/2+x,1/2-y,1/2+z
loop_
_atom_site_type_symbol
_atom_site_label
_atom_site_fract_x
_atom_site_fract_y
_atom_site_fract_z
Si Si1 0.367529 0.294319 0.651410
Si Si2 0.787488 0.941358 0.869877
Si Si3 0.663570 0.526466 0.511077
Si Si4 0.239961 0.638493 0.970121
Si Si5 0.333116 0.298203 0.026011
Si Si6 0.596553 0.117864 0.537393
Si Si7 0.909190 0.545420 0.679960
Si Si8 0.004017 0.145038 0.840449
O O1 0.250000 0.250000 0.681724
O O2 0.281674 0.324065 0.560919
O O3 0.534438 0.279350 0.603170
O O4 0.419183 0.330217 0.742635
O O5 0.690963 0.931812 0.769086
O O6 0.947926 0.912749 0.846972
O O7 0.704161 0.915986 0.965857
O O8 0.801201 0.998126 0.905696
O O9 0.500000 0.500000 0.543726
O O10 0.677335 0.585948 0.499513
O O11 0.798311 0.519816 0.595173
O O12 0.320826 0.652407 0.863657
O O13 0.053974 0.633734 0.970623
O O14 0.250000 0.250000 0.982391
O O15 0.203808 0.335991 0.070671
O O16 0.416767 0.328336 0.936866
O O17 0.520114 0.085553 0.626814
O O18 0.000000 0.500000 0.729028
#
# Coordination Sequence:
#
# PCOD9354547 Si02
#       8
#     8   8   8   8   8   8   8   8
#     4  11  23  42  68  95 131 164 219 275 335 400
#     4  11  23  40  58  91 129 171 212 267 326 388
#     4  11  22  42  61  89 131 172 221 268 324 404
#     4  10  22  39  65  91 126 172 214 269 329 394
#     4  10  22  41  67  91 125 166 211 266 334 392
#     4  10  22  42  61  90 131 169 218 270 324 399
#     4  11  24  37  61  90 127 176 221 267 334 386
#     4  10  21  41  62  94 124 165 214 263 326 392
#
# _framework density 21.028549000000002
#
# number of rings (size 3 to 8) (size 9 to 14) (size 15 to 20)
#    0.000    1.500    2.500    2.625    3.500    1.500 
#    2.250    5.000    0.000    0.000    0.000    0.000 
#    0.000    0.000    0.000    0.000    0.000    0.000 
#
# Total GULP energy -178423.820074 kJ/mol
# GULP energy per Si atom -5575.744377 kJ/mol
# Density = 2.098069 g / cm^3
# Si number density = 21.028549 Si / 1000 Ang^3
#
#
#
# Elastic Constant Matrix: (Units=GPa)
#
#
# Indices 1 2 3 4 5 6 
#
# 1 58.7326 12.7329 -22.2373 0.0000 0.0000 0.0000
# 2 12.7329 64.5051 -2.7264 0.0000 0.0000 0.0000
# 3 -22.2373 -2.7264 36.9878 0.0000 0.0000 0.0000
# 4 0.0000 0.0000 0.0000 20.6579 0.0000 0.0000
# 5 0.0000 0.0000 0.0000 0.0000 2.5468 0.0000
# 6 0.0000 0.0000 0.0000 0.0000 0.0000 34.5862
#
#
#
# Elastic Compliance Matrix: (Units=1/GPa)
#
#
# Indices 1 2 3 4 5 6 
#
# 1 0.023015 -0.003971 0.013544 0.000000 0.000000 0.000000
# 2 -0.003971 0.016236 -0.001190 0.000000 0.000000 0.000000
# 3 0.013544 -0.001190 0.035091 0.000000 0.000000 0.000000
# 4 0.000000 0.000000 0.000000 0.048408 0.000000 0.000000
# 5 0.000000 0.000000 0.000000 0.000000 0.392655 0.000000
# 6 0.000000 0.000000 0.000000 0.000000 0.000000 0.028913
#
#
# Mechanical properties :
#
#
# Convention : Reuss Voigt Hill
#
# Bulk Modulus (GPa) = 10.97589 15.08489 13.03039
# Shear Modulus (GPa) = 8.96184 23.05525 16.00854
#
# Velocity S-wave (km/s) = 2.06664 3.31475 2.76212
# Velocity P-wave (km/s) = 3.30538 4.67324 4.04751
#
# Compressibility (1/GPa) = 0.09110876
#
# Stress axis : x y z
#
# Youngs Moduli (GPa) = 43.44954 61.59113 28.49731
#
# Poissons Ratio (x) = 0.24455 -0.38597
# Poissons Ratio (y) = 0.17252 0.03392
# Poissons Ratio (z) = -0.58849 0.07332
#
# Static dielectric constant tensor:
#      x y z
#    x 1.806350 0.000000 0.000000 
#    y 0.000000 1.768660 0.000000 
#    z 0.000000 0.000000 1.727760 
# 
# From -- ./inp_files/6617.got.cif
#   From: 2010.05.17/outbox.cif.g08.bks.cpg/sg37_4_cif.got.tgz:6617.got - 2010.06.03 17:53:42.
