data_PCOD9354858
_publ_section_title
;
Structure prediction by ZEFSAII (Michael W. Deem and Ramdas Pophale) SiO2 
 PCOD9354858
Probable space group: C C C 2
;
_chemical_formula_sum "Si O2"
_cell_formula_units_Z 56
_cell_length_a 19.399756
_cell_length_b 8.075328
_cell_length_c 13.882078
_cell_angle_alpha 90.000000
_cell_angle_beta 90.000000
_cell_angle_gamma 90.000000
_cell_volume 2174.757911
_symmetry_space_group_name_H-M "C C C 2"
_symmetry_group_IT_number 37
_symmetry_cell_setting 'orthorhombic'
loop_
_space_group_symop_operation_xyz
x,y,z
-x,-y,z
-x,y,1/2+z
x,-y,1/2+z
1/2+x,1/2+y,z
1/2-x,1/2-y,z
1/2-x,1/2+y,1/2+z
1/2+x,1/2-y,1/2+z
loop_
_atom_site_type_symbol
_atom_site_label
_atom_site_fract_x
_atom_site_fract_y
_atom_site_fract_z
Si Si1 0.898999 0.677306 0.403090
Si Si2 0.500000 0.000000 0.833334
Si Si3 0.171356 0.788412 0.565635
Si Si4 0.356182 0.477745 0.264608
Si Si5 0.025708 0.215886 0.693705
Si Si6 0.966735 0.166557 0.489410
Si Si7 0.852651 0.585148 0.601301
Si Si8 0.250000 0.250000 0.748126
O O1 0.869947 0.823010 0.335900
O O2 0.848114 0.658778 0.493571
O O3 0.917664 0.493216 0.365061
O O4 0.979614 0.698702 0.446246
O O5 0.511352 0.165752 0.768038
O O6 0.250000 0.750000 0.535303
O O7 0.168874 0.908027 0.659389
O O8 0.115703 0.842858 0.484839
O O9 0.143242 0.609914 0.596808
O O10 0.428052 0.575344 0.244646
O O11 0.299578 0.614000 0.297853
O O12 0.078692 0.337077 0.641911
O O13 0.978558 0.163956 0.604599
O O14 0.000000 0.000000 0.449128
O O15 0.796177 0.642686 0.675689
#
# Coordination Sequence:
#
# PCOD9354858 Si02
#       8
#     8   4   8   8   8   8   8   4
#     4  11  26  42  70 106 154 190 253 336 397 442
#     4  12  24  40  64 112 146 188 236 326 396 448
#     4  12  23  42  79 106 144 201 259 304 385 489
#     4  11  23  45  74 111 143 205 261 329 385 462
#     4  10  22  41  72  98 139 191 262 308 367 463
#     4  11  23  42  71 105 141 195 251 319 384 455
#     4  10  22  45  68 102 143 193 254 310 377 462
#     4  10  22  46  74 100 148 206 264 304 378 490
#
# _framework density 25.749991999999999
#
# number of rings (size 3 to 8) (size 9 to 14) (size 15 to 20)
#    0.000    1.143    2.857    3.429    2.000    2.286 
#    1.286    0.000    1.571    0.000    0.000    0.000 
#    0.000    0.000    0.000    0.000    0.000    0.000 
#
# Total GULP energy -156305.789669 kJ/mol
# GULP energy per Si atom -5582.349631 kJ/mol
# Density = 2.569138 g / cm^3
# Si number density = 25.749992 Si / 1000 Ang^3
#
#
#
# Elastic Constant Matrix: (Units=GPa)
#
#
# Indices 1 2 3 4 5 6 
#
# 1 139.3425 43.7598 39.7745 0.0000 0.0000 0.0000
# 2 43.7598 71.5409 2.5474 0.0000 0.0000 0.0000
# 3 39.7745 2.5474 80.0842 0.0000 0.0000 0.0000
# 4 0.0000 0.0000 0.0000 8.0232 0.0000 0.0000
# 5 0.0000 0.0000 0.0000 0.0000 -332.2909 0.0000
# 6 0.0000 0.0000 0.0000 0.0000 0.0000 20.0510
#
#
#
# Elastic Compliance Matrix: (Units=1/GPa)
#
#
# Indices 1 2 3 4 5 6 
#
# 1 0.010602 -0.006305 -0.005065 0.000000 0.000000 0.000000
# 2 -0.006305 0.017743 0.002567 0.000000 0.000000 0.000000
# 3 -0.005065 0.002567 0.014921 0.000000 0.000000 0.000000
# 4 0.000000 0.000000 0.000000 0.124638 0.000000 0.000000
# 5 0.000000 0.000000 0.000000 0.000000 -0.003009 0.000000
# 6 0.000000 0.000000 0.000000 0.000000 0.000000 0.049873
#
#
# Mechanical properties :
#
#
# Convention : Reuss Voigt Hill
#
# Bulk Modulus (GPa) = 38.97085 51.45902 45.21493
# Shear Modulus (GPa) = 20.75313 -47.18427 -13.21557
#
# Velocity S-wave (km/s) = 2.84200 -4.28530 -2.26791
# Velocity P-wave (km/s) = 5.09279 2.11129 3.27711
#
# Compressibility (1/GPa) = 0.02566020
#
# Stress axis : x y z
#
# Youngs Moduli (GPa) = 94.31811 56.35980 67.02013
#
# Poissons Ratio (x) = 0.35534 0.33947
# Poissons Ratio (y) = 0.59466 -0.17204
# Poissons Ratio (z) = 0.47774 -0.14467
#
# Static dielectric constant tensor:
#      x y z
#    x 2.525190 0.000000 0.000000 
#    y 0.000000 2.244670 0.000000 
#    z 0.000000 0.000000 2.215460 
# 
# From -- ./inp_files/12991.got.cif
#   From: 2010.05.17/outbox.cif.g08.bks.cpg/sg37_7_cif.got.tgz:12991.got - 2010.06.03 17:53:42.
