data_PCOD9354645
_publ_section_title
;
Structure prediction by ZEFSAII (Michael W. Deem and Ramdas Pophale) SiO2 
 PCOD9354645
Probable space group: C C C 2
;
_chemical_formula_sum "Si O2"
_cell_formula_units_Z 64
_cell_length_a 27.279891
_cell_length_b 8.233443
_cell_length_c 13.497617
_cell_angle_alpha 90.000000
_cell_angle_beta 90.000000
_cell_angle_gamma 90.000000
_cell_volume 3031.665033
_symmetry_space_group_name_H-M "C C C 2"
_symmetry_group_IT_number 37
_symmetry_cell_setting 'orthorhombic'
loop_
_space_group_symop_operation_xyz
x,y,z
-x,-y,z
-x,y,1/2+z
x,-y,1/2+z
1/2+x,1/2+y,z
1/2-x,1/2-y,z
1/2-x,1/2+y,1/2+z
1/2+x,1/2-y,1/2+z
loop_
_atom_site_type_symbol
_atom_site_label
_atom_site_fract_x
_atom_site_fract_y
_atom_site_fract_z
Si Si1 0.442004 0.745163 0.555210
Si Si2 0.410882 0.918010 0.110944
Si Si3 0.874773 0.845440 0.738742
Si Si4 0.195161 0.926712 0.056401
Si Si5 0.338771 0.744646 0.440566
Si Si6 0.449668 0.406148 0.260317
Si Si7 0.805153 0.561486 0.544110
Si Si8 0.970902 0.331802 0.926410
O O1 0.393488 0.752912 0.488299
O O2 0.441318 0.617987 0.643379
O O3 0.489044 0.725820 0.486081
O O4 0.442607 0.918826 0.613494
O O5 0.415201 0.779128 0.193154
O O6 0.352901 0.957390 0.113687
O O7 0.425922 0.851866 0.002630
O O8 0.841913 0.912770 0.648884
O O9 0.842562 0.762326 0.822727
O O10 0.903911 0.987126 0.794081
O O11 0.191332 0.748008 0.005051
O O12 0.251401 0.946441 0.091665
O O13 0.183432 0.080235 0.987421
O O14 0.310754 0.908996 0.471304
O O15 0.500000 0.500000 0.275352
O O16 0.453353 0.245503 0.325321
O O17 0.000000 0.500000 0.910199
#
# Coordination Sequence:
#
# PCOD9354645 Si02
#       8
#     8   8   8   8   8   8   8   8
#     4  10  22  41  63  91 130 174 216 272 329 396
#     4   9  21  42  64  89 125 171 216 278 330 384
#     4  11  24  39  66  99 129 176 219 281 328 410
#     4  10  21  45  66  94 136 169 223 279 345 390
#     4  11  22  42  67  98 135 175 227 268 349 401
#     4  12  25  37  61  96 130 170 218 267 328 403
#     4   9  21  41  69  91 126 177 214 283 331 397
#     4  10  23  41  65  91 128 176 221 270 330 404
#
# _framework density 21.110513000000001
#
# number of rings (size 3 to 8) (size 9 to 14) (size 15 to 20)
#    0.000    1.750    1.250    1.875    3.500    8.000 
#    9.000    0.000    2.750    0.000    0.000    0.000 
#    0.000    0.000    0.000    0.000    0.000    0.000 
#
# Total GULP energy -178533.617649 kJ/mol
# GULP energy per Si atom -5579.175552 kJ/mol
# Density = 2.106246 g / cm^3
# Si number density = 21.110513 Si / 1000 Ang^3
#
#
#
# Elastic Constant Matrix: (Units=GPa)
#
#
# Indices 1 2 3 4 5 6 
#
# 1 82.0932 17.5343 10.4474 0.0000 0.0000 0.0000
# 2 17.5343 93.3914 37.5236 0.0000 0.0000 0.0000
# 3 10.4474 37.5236 78.7185 0.0000 0.0000 0.0000
# 4 0.0000 0.0000 0.0000 9.4646 0.0000 0.0000
# 5 0.0000 0.0000 0.0000 0.0000 10.4480 0.0000
# 6 0.0000 0.0000 0.0000 0.0000 0.0000 30.3950
#
#
#
# Elastic Compliance Matrix: (Units=1/GPa)
#
#
# Indices 1 2 3 4 5 6 
#
# 1 0.012720 -0.002115 -0.000680 0.000000 0.000000 0.000000
# 2 -0.002115 0.013596 -0.006200 0.000000 0.000000 0.000000
# 3 -0.000680 -0.006200 0.015749 0.000000 0.000000 0.000000
# 4 0.000000 0.000000 0.000000 0.105657 0.000000 0.000000
# 5 0.000000 0.000000 0.000000 0.000000 0.095712 0.000000
# 6 0.000000 0.000000 0.000000 0.000000 0.000000 0.032900
#
#
# Mechanical properties :
#
#
# Convention : Reuss Voigt Hill
#
# Bulk Modulus (GPa) = 41.53774 42.80152 42.16963
# Shear Modulus (GPa) = 16.53719 22.64137 19.58928
#
# Velocity S-wave (km/s) = 2.80190 3.27848 3.04951
# Velocity P-wave (km/s) = 5.49423 5.88645 5.69372
#
# Compressibility (1/GPa) = 0.02407449
#
# Stress axis : x y z
#
# Youngs Moduli (GPa) = 78.61926 73.55182 63.49505
#
# Poissons Ratio (x) = 0.15555 0.04318
# Poissons Ratio (y) = 0.16627 0.39368
# Poissons Ratio (z) = 0.05346 0.45604
#
# Static dielectric constant tensor:
#      x y z
#    x 1.775530 0.000000 0.000000 
#    y 0.000000 1.844530 0.000000 
#    z 0.000000 0.000000 1.727950 
# 
# From -- ./inp_files/9236.got.cif
#   From: 2010.05.17/outbox.cif.g08.bks.cpg/sg37_5_cif.got.tgz:9236.got - 2010.06.03 17:53:42.
