data_PCOD9354925
_publ_section_title
;
Structure prediction by ZEFSAII (Michael W. Deem and Ramdas Pophale) SiO2 
 PCOD9354925
Probable space group: C C C 2
;
_chemical_formula_sum "Si O2"
_cell_formula_units_Z 56
_cell_length_a 21.885826
_cell_length_b 9.251062
_cell_length_c 12.946152
_cell_angle_alpha 90.000000
_cell_angle_beta 90.000000
_cell_angle_gamma 90.000000
_cell_volume 2621.170282
_symmetry_space_group_name_H-M "C C C 2"
_symmetry_group_IT_number 37
_symmetry_cell_setting 'orthorhombic'
loop_
_space_group_symop_operation_xyz
x,y,z
-x,-y,z
-x,y,1/2+z
x,-y,1/2+z
1/2+x,1/2+y,z
1/2-x,1/2-y,z
1/2-x,1/2+y,1/2+z
1/2+x,1/2-y,1/2+z
loop_
_atom_site_type_symbol
_atom_site_label
_atom_site_fract_x
_atom_site_fract_y
_atom_site_fract_z
Si Si1 0.433761 0.767378 0.506190
Si Si2 0.535616 0.860202 0.342564
Si Si3 0.649448 0.667178 0.661227
Si Si4 0.556560 0.409632 0.702139
Si Si5 0.119884 0.438019 0.529181
Si Si6 0.188092 0.822970 0.386936
Si Si7 0.258896 0.592840 0.977555
O O1 0.484657 0.795932 0.420483
O O2 0.455982 0.650306 0.587678
O O3 0.371622 0.715512 0.451595
O O4 0.415442 0.917598 0.563338
O O5 0.561246 0.734231 0.270371
O O6 0.590422 0.909262 0.417181
O O7 0.500000 0.000000 0.294917
O O8 0.610230 0.526454 0.691296
O O9 0.613827 0.798964 0.604229
O O10 0.676936 0.722078 0.768988
O O11 0.700893 0.618468 0.580145
O O12 0.500000 0.500000 0.744823
O O13 0.192135 0.462186 0.511931
O O14 0.250000 0.750000 0.427219
O O15 0.203923 0.990756 0.401369
O O16 0.250000 0.750000 0.928552
#
# Coordination Sequence:
#
# PCOD9354925 Si02
#       7
#     8   8   8   8   8   8   8
#     4  11  24  44  70  96 138 181 230 292 342 424
#     4  10  25  45  70 100 132 182 233 285 354 415
#     4  11  25  41  68 103 140 182 230 286 345 421
#     4  12  26  42  67 102 135 179 225 287 344 414
#     4  10  22  45  69  96 135 182 227 287 345 407
#     4  12  23  43  67 100 138 184 235 282 355 412
#     4  10  22  43  66  97 139 181 222 282 345 409
#
# _framework density 21.364504
#
# number of rings (size 3 to 8) (size 9 to 14) (size 15 to 20)
#    0.000    1.143    2.857    3.000    4.000    8.000 
#    2.571    0.714    0.000    0.000    0.000    0.000 
#    0.000    0.000    0.000    0.000    0.000    0.000 
#
# Total GULP energy -156408.603395 kJ/mol
# GULP energy per Si atom -5586.021550 kJ/mol
# Density = 2.131588 g / cm^3
# Si number density = 21.364504 Si / 1000 Ang^3
#
#
#
# Elastic Constant Matrix: (Units=GPa)
#
#
# Indices 1 2 3 4 5 6 
#
# 1 74.7137 28.2780 3.4252 0.0000 0.0000 0.0000
# 2 28.2780 108.1412 24.2160 0.0000 0.0000 0.0000
# 3 3.4252 24.2160 43.5320 0.0000 0.0000 0.0000
# 4 0.0000 0.0000 0.0000 109.2130 0.0000 0.0000
# 5 0.0000 0.0000 0.0000 0.0000 13.5589 0.0000
# 6 0.0000 0.0000 0.0000 0.0000 0.0000 36.5529
#
#
#
# Elastic Compliance Matrix: (Units=1/GPa)
#
#
# Indices 1 2 3 4 5 6 
#
# 1 0.014904 -0.004152 0.001137 0.000000 0.000000 0.000000
# 2 -0.004152 0.011720 -0.006193 0.000000 0.000000 0.000000
# 3 0.001137 -0.006193 0.026327 0.000000 0.000000 0.000000
# 4 0.000000 0.000000 0.000000 0.009156 0.000000 0.000000
# 5 0.000000 0.000000 0.000000 0.000000 0.073752 0.000000
# 6 0.000000 0.000000 0.000000 0.000000 0.000000 0.027358
#
#
# Mechanical properties :
#
#
# Convention : Reuss Voigt Hill
#
# Bulk Modulus (GPa) = 28.95601 37.58057 33.26829
# Shear Modulus (GPa) = 25.88750 43.22948 34.55849
#
# Velocity S-wave (km/s) = 3.48473 4.50313 4.02626
# Velocity P-wave (km/s) = 5.45655 6.68326 6.10081
#
# Compressibility (1/GPa) = 0.03453515
#
# Stress axis : x y z
#
# Youngs Moduli (GPa) = 67.09754 85.32762 37.98377
#
# Poissons Ratio (x) = 0.35426 -0.04318
# Poissons Ratio (y) = 0.27857 0.23522
# Poissons Ratio (z) = -0.07628 0.52841
#
# Static dielectric constant tensor:
#      x y z
#    x 1.766260 0.000000 0.000000 
#    y 0.000000 1.819810 0.000000 
#    z 0.000000 0.000000 1.746280 
# 
# From -- ./inp_files/12936.got.cif
#   From: 2010.05.17/outbox.cif.g08.bks.cpg/sg37_7_cif.got.tgz:12936.got - 2010.06.03 17:53:42.
