data_PCOD9354868
_publ_section_title
;
Structure prediction by ZEFSAII (Michael W. Deem and Ramdas Pophale) SiO2 
 PCOD9354868
Probable space group: C C C 2
;
_chemical_formula_sum "Si O2"
_cell_formula_units_Z 48
_cell_length_a 13.416524
_cell_length_b 17.745837
_cell_length_c 9.194922
_cell_angle_alpha 90.000000
_cell_angle_beta 90.000000
_cell_angle_gamma 90.000000
_cell_volume 2189.195514
_symmetry_space_group_name_H-M "C C C 2"
_symmetry_group_IT_number 37
_symmetry_cell_setting 'orthorhombic'
loop_
_space_group_symop_operation_xyz
x,y,z
-x,-y,z
-x,y,1/2+z
x,-y,1/2+z
1/2+x,1/2+y,z
1/2-x,1/2-y,z
1/2-x,1/2+y,1/2+z
1/2+x,1/2-y,1/2+z
loop_
_atom_site_type_symbol
_atom_site_label
_atom_site_fract_x
_atom_site_fract_y
_atom_site_fract_z
Si Si1 0.380623 0.561539 0.369840
Si Si2 0.540796 0.788102 0.954212
Si Si3 0.229674 0.661659 0.555148
Si Si4 0.327835 0.572740 0.058251
Si Si5 0.535139 0.314948 0.194206
Si Si6 0.689652 0.172246 0.893729
O O1 0.313092 0.613684 0.473641
O O2 0.320280 0.542421 0.222313
O O3 0.389223 0.486661 0.463608
O O4 0.472736 0.610683 0.300227
O O5 0.574447 0.746102 0.807363
O O6 0.427012 0.812344 0.923583
O O7 0.619770 0.852516 0.989385
O O8 0.541796 0.730500 0.093749
O O9 0.250000 0.750000 0.526284
O O10 0.219918 0.652501 0.727895
O O11 0.390190 0.649544 0.078603
O O12 0.226661 0.601716 0.988806
O O13 0.750000 0.250000 0.924880
#
# Coordination Sequence:
#
# PCOD9354868 Si02
#       6
#     8   8   8   8   8   8
#     4  10  22  42  66  89 128 173 215 258 323 377
#     4  12  22  42  64 102 126 166 216 272 320 382
#     4  11  22  37  66  93 130 165 215 268 318 382
#     4  10  22  42  66  89 128 173 215 258 323 377
#     4  10  24  41  64  92 131 170 216 273 310 390
#     4  11  22  37  66  93 130 165 215 268 318 382
#
# _framework density 21.925863
#
# number of rings (size 3 to 8) (size 9 to 14) (size 15 to 20)
#    1.000    0.333    5.000    1.000    2.333    2.000 
#    3.000    3.333    0.000    4.000    0.000    0.000 
#    0.000    0.000    0.000    0.000    0.000    0.000 
#
# Total GULP energy -133639.686050 kJ/mol
# GULP energy per Si atom -5568.320252 kJ/mol
# Density = 2.187596 g / cm^3
# Si number density = 21.925863 Si / 1000 Ang^3
#
#
#
# Elastic Constant Matrix: (Units=GPa)
#
#
# Indices 1 2 3 4 5 6 
#
# 1 69.5181 17.5456 16.4793 0.0000 0.0000 0.0000
# 2 17.5456 50.0057 46.2392 0.0000 0.0000 0.0000
# 3 16.4793 46.2392 130.6050 0.0000 0.0000 0.0000
# 4 0.0000 0.0000 0.0000 37.5825 0.0000 0.0000
# 5 0.0000 0.0000 0.0000 0.0000 12.5658 0.0000
# 6 0.0000 0.0000 0.0000 0.0000 0.0000 19.4191
#
#
#
# Elastic Compliance Matrix: (Units=1/GPa)
#
#
# Indices 1 2 3 4 5 6 
#
# 1 0.015783 -0.005495 -0.000046 0.000000 0.000000 0.000000
# 2 -0.005495 0.031644 -0.010510 0.000000 0.000000 0.000000
# 3 -0.000046 -0.010510 0.011383 0.000000 0.000000 0.000000
# 4 0.000000 0.000000 0.000000 0.026608 0.000000 0.000000
# 5 0.000000 0.000000 0.000000 0.000000 0.079581 0.000000
# 6 0.000000 0.000000 0.000000 0.000000 0.000000 0.051496
#
#
# Mechanical properties :
#
#
# Convention : Reuss Voigt Hill
#
# Bulk Modulus (GPa) = 37.44186 45.62853 41.53519
# Shear Modulus (GPa) = 19.41750 25.23779 22.32765
#
# Velocity S-wave (km/s) = 2.97913 3.39640 3.19458
# Velocity P-wave (km/s) = 5.38026 6.01965 5.70892
#
# Compressibility (1/GPa) = 0.02670808
#
# Stress axis : x y z
#
# Youngs Moduli (GPa) = 63.36110 31.60147 87.84761
#
# Poissons Ratio (x) = 0.17366 0.00403
# Poissons Ratio (y) = 0.34819 0.92326
# Poissons Ratio (z) = 0.00291 0.33213
#
# Static dielectric constant tensor:
#      x y z
#    x 1.923240 0.000000 0.000000 
#    y 0.000000 1.798590 0.000000 
#    z 0.000000 0.000000 1.812130 
# 
# From -- ./inp_files/3514.got.cif
#   From: 2010.05.17/outbox.cif.g08.bks.cpg/sg37_2_cif.got.tgz:3514.got - 2010.06.03 17:53:42.
