data_PCOD9354161
_publ_section_title
;
Structure prediction by ZEFSAII (Michael W. Deem and Ramdas Pophale) SiO2 
 PCOD9354161
Probable space group: C C C 2
;
_chemical_formula_sum "Si O2"
_cell_formula_units_Z 28
_cell_length_a 7.283239
_cell_length_b 17.578383
_cell_length_c 8.978721
_cell_angle_alpha 90.000000
_cell_angle_beta 90.000000
_cell_angle_gamma 90.000000
_cell_volume 1149.523783
_symmetry_space_group_name_H-M "C C C 2"
_symmetry_group_IT_number 37
_symmetry_cell_setting 'orthorhombic'
loop_
_space_group_symop_operation_xyz
x,y,z
-x,-y,z
-x,y,1/2+z
x,-y,1/2+z
1/2+x,1/2+y,z
1/2-x,1/2-y,z
1/2-x,1/2+y,1/2+z
1/2+x,1/2-y,1/2+z
loop_
_atom_site_type_symbol
_atom_site_label
_atom_site_fract_x
_atom_site_fract_y
_atom_site_fract_z
Si Si1 0.139748 0.403822 0.395690
Si Si2 0.977497 0.092848 0.724137
Si Si3 0.000000 0.500000 0.127402
Si Si4 0.745187 0.340426 0.442205
O O1 0.336487 0.373950 0.351010
O O2 0.076380 0.438740 0.239714
O O3 0.157941 0.470631 0.517032
O O4 0.961885 0.360527 0.453982
O O5 0.883919 0.123030 0.571791
O O6 0.168469 0.128646 0.782929
O O7 0.000000 0.000000 0.730454
O O8 0.750000 0.250000 0.449917
#
# Coordination Sequence:
#
# PCOD9354161 Si02
#       4
#     8   8   4   8
#     4  11  24  44  73 110 153 197 252 325 387 450
#     4  12  28  51  84 114 152 206 276 321 387 478
#     4  10  20  38  74 106 140 186 244 312 380 430
#     4  12  31  49  76 117 160 209 259 327 405 471
#
# _framework density 24.357914000000001
#
# number of rings (size 3 to 8) (size 9 to 14) (size 15 to 20)
#    0.000    0.571    2.857    4.286   12.000    0.000 
#    0.000    0.000    0.000    0.000    0.000    0.000 
#    0.000    0.000    0.000    0.000    0.000    0.000 
#
# Total GULP energy -78130.448469 kJ/mol
# GULP energy per Si atom -5580.746319 kJ/mol
# Density = 2.430247 g / cm^3
# Si number density = 24.357914 Si / 1000 Ang^3
#
#
#
# Elastic Constant Matrix: (Units=GPa)
#
#
# Indices 1 2 3 4 5 6 
#
# 1 131.8005 41.7948 34.9352 0.0000 0.0000 0.0000
# 2 41.7948 137.7262 41.5064 0.0000 0.0000 0.0000
# 3 34.9352 41.5064 137.9187 0.0000 0.0000 0.0000
# 4 0.0000 0.0000 0.0000 13.7641 0.0000 0.0000
# 5 0.0000 0.0000 0.0000 0.0000 56.2694 0.0000
# 6 0.0000 0.0000 0.0000 0.0000 0.0000 25.8351
#
#
#
# Elastic Compliance Matrix: (Units=1/GPa)
#
#
# Indices 1 2 3 4 5 6 
#
# 1 0.008685 -0.002169 -0.001547 0.000000 0.000000 0.000000
# 2 -0.002169 0.008527 -0.002017 0.000000 0.000000 0.000000
# 3 -0.001547 -0.002017 0.008249 0.000000 0.000000 0.000000
# 4 0.000000 0.000000 0.000000 0.072653 0.000000 0.000000
# 5 0.000000 0.000000 0.000000 0.000000 0.017772 0.000000
# 6 0.000000 0.000000 0.000000 0.000000 0.000000 0.038707
#
#
# Mechanical properties :
#
#
# Convention : Reuss Voigt Hill
#
# Bulk Modulus (GPa) = 71.45282 71.54647 71.49964
# Shear Modulus (GPa) = 29.28701 38.45434 33.87067
#
# Velocity S-wave (km/s) = 3.47127 3.97762 3.73304
# Velocity P-wave (km/s) = 6.74274 7.10859 6.92808
#
# Compressibility (1/GPa) = 0.01399525
#
# Stress axis : x y z
#
# Youngs Moduli (GPa) = 115.13792 117.27648 121.22029
#
# Poissons Ratio (x) = 0.25442 0.18754
# Poissons Ratio (y) = 0.24978 0.24446
# Poissons Ratio (z) = 0.17813 0.23650
#
# Static dielectric constant tensor:
#      x y z
#    x 2.210630 0.000000 0.000000 
#    y 0.000000 2.007330 0.000000 
#    z 0.000000 0.000000 1.938740 
# 
# From -- ./inp_files/2010.got.cif
#   From: 2010.05.17/outbox.cif.g08.bks.cpg/sg37_2_cif.got.tgz:2010.got - 2010.06.03 17:53:42.
