data_PCOD9354311
_publ_section_title
;
Structure prediction by ZEFSAII (Michael W. Deem and Ramdas Pophale) SiO2 
 PCOD9354311
Probable space group: C C C 2
;
_chemical_formula_sum "Si O2"
_cell_formula_units_Z 52
_cell_length_a 25.843008
_cell_length_b 8.584238
_cell_length_c 10.553168
_cell_angle_alpha 90.000000
_cell_angle_beta 90.000000
_cell_angle_gamma 90.000000
_cell_volume 2341.141502
_symmetry_space_group_name_H-M "C C C 2"
_symmetry_group_IT_number 37
_symmetry_cell_setting 'orthorhombic'
loop_
_space_group_symop_operation_xyz
x,y,z
-x,-y,z
-x,y,1/2+z
x,-y,1/2+z
1/2+x,1/2+y,z
1/2-x,1/2-y,z
1/2-x,1/2+y,1/2+z
1/2+x,1/2-y,1/2+z
loop_
_atom_site_type_symbol
_atom_site_label
_atom_site_fract_x
_atom_site_fract_y
_atom_site_fract_z
Si Si1 0.083810 0.796528 0.522570
Si Si2 0.093060 0.814929 0.805178
Si Si3 0.250000 0.250000 0.600217
Si Si4 0.822989 0.981878 0.445482
Si Si5 0.119543 0.526331 0.941465
Si Si6 0.000000 0.000000 0.907414
Si Si7 0.750000 0.750000 0.025225
Si Si8 0.682853 0.983182 0.187530
O O1 0.088700 0.743269 0.666975
O O2 0.127147 0.932601 0.508647
O O3 0.095290 0.646413 0.435497
O O4 0.028516 0.870030 0.491373
O O5 0.086433 0.678066 0.908179
O O6 0.148010 0.903186 0.825894
O O7 0.046129 0.932831 0.823018
O O8 0.292964 0.341595 0.516293
O O9 0.275444 0.118997 0.685187
O O10 0.781073 0.121098 0.444504
O O11 0.162274 0.536909 0.829126
O O12 0.141463 0.539806 0.082756
O O13 0.790341 0.663342 0.118365
#
# Coordination Sequence:
#
# PCOD9354311 Si02
#       8
#     8   8   4   8   8   4   4   8
#     4  11  24  48  70 103 137 179 227 296 351 427
#     4  11  23  46  72 101 136 181 226 297 353 420
#     4  10  22  40  62 100 136 192 238 274 332 412
#     4  10  21  40  64  95 144 182 232 285 341 402
#     4  12  23  45  69  97 141 181 231 287 351 400
#     4  10  26  48  74 104 130 172 232 288 372 430
#     4  10  20  44  62 102 144 190 242 284 332 410
#     4  11  24  42  64 101 139 192 236 287 333 404
#
# _framework density 22.211386999999998
#
# number of rings (size 3 to 8) (size 9 to 14) (size 15 to 20)
#    0.000    1.231    4.615    0.462    0.000    4.308 
#   13.846    1.538    0.000    0.000    0.000    0.000 
#    0.000    0.000    0.000    0.000    0.000    0.000 
#
# Total GULP energy -145170.518351 kJ/mol
# GULP energy per Si atom -5583.481475 kJ/mol
# Density = 2.216083 g / cm^3
# Si number density = 22.211387 Si / 1000 Ang^3
#
#
#
# Elastic Constant Matrix: (Units=GPa)
#
#
# Indices 1 2 3 4 5 6 
#
# 1 91.2744 35.3131 20.9491 0.0000 0.0000 0.0000
# 2 35.3131 120.7949 21.5643 0.0000 0.0000 0.0000
# 3 20.9491 21.5643 78.4619 0.0000 0.0000 0.0000
# 4 0.0000 0.0000 0.0000 25.9126 0.0000 0.0000
# 5 0.0000 0.0000 0.0000 0.0000 -2.4027 0.0000
# 6 0.0000 0.0000 0.0000 0.0000 0.0000 37.1891
#
#
#
# Elastic Compliance Matrix: (Units=1/GPa)
#
#
# Indices 1 2 3 4 5 6 
#
# 1 0.012808 -0.003295 -0.002514 0.000000 0.000000 0.000000
# 2 -0.003295 0.009554 -0.001746 0.000000 0.000000 0.000000
# 3 -0.002514 -0.001746 0.013896 0.000000 0.000000 0.000000
# 4 0.000000 0.000000 0.000000 0.038591 0.000000 0.000000
# 5 0.000000 0.000000 0.000000 0.000000 -0.416202 0.000000
# 6 0.000000 0.000000 0.000000 0.000000 0.000000 0.026890
#
#
# Mechanical properties :
#
#
# Convention : Reuss Voigt Hill
#
# Bulk Modulus (GPa) = 47.28779 49.57602 48.43191
# Shear Modulus (GPa) = -17.10547 26.32011 4.60732
#
# Velocity S-wave (km/s) = -2.77812 3.44609 1.44181
# Velocity P-wave (km/s) = 3.32348 6.18083 4.96226
#
# Compressibility (1/GPa) = 0.02114711
#
# Stress axis : x y z
#
# Youngs Moduli (GPa) = 78.07648 104.67306 71.96278
#
# Poissons Ratio (x) = 0.34495 0.18091
# Poissons Ratio (y) = 0.25730 0.12563
# Poissons Ratio (z) = 0.19628 0.18274
#
# Static dielectric constant tensor:
#      x y z
#    x 1.862880 0.000000 0.000000 
#    y 0.000000 1.855730 0.000000 
#    z 0.000000 0.000000 1.799110 
# 
# From -- ./inp_files/9061.got.cif
#   From: 2010.05.17/outbox.cif.g08.bks.cpg/sg37_5_cif.got.tgz:9061.got - 2010.06.03 17:53:42.
