data_PCOD9354997
_publ_section_title
;
Structure prediction by ZEFSAII (Michael W. Deem and Ramdas Pophale) SiO2 
 PCOD9354997
Probable space group: C C C 2
;
_chemical_formula_sum "Si O2"
_cell_formula_units_Z 48
_cell_length_a 15.683965
_cell_length_b 15.637753
_cell_length_c 9.020545
_cell_angle_alpha 90.000000
_cell_angle_beta 90.000000
_cell_angle_gamma 90.000000
_cell_volume 2212.396644
_symmetry_space_group_name_H-M "C C C 2"
_symmetry_group_IT_number 37
_symmetry_cell_setting 'orthorhombic'
loop_
_space_group_symop_operation_xyz
x,y,z
-x,-y,z
-x,y,1/2+z
x,-y,1/2+z
1/2+x,1/2+y,z
1/2-x,1/2-y,z
1/2-x,1/2+y,1/2+z
1/2+x,1/2-y,1/2+z
loop_
_atom_site_type_symbol
_atom_site_label
_atom_site_fract_x
_atom_site_fract_y
_atom_site_fract_z
Si Si1 0.963930 0.905663 0.814930
Si Si2 0.801775 0.516863 0.955819
Si Si3 0.504311 0.710531 0.069493
Si Si4 0.849455 0.668319 0.471685
Si Si5 0.170570 0.691641 0.620789
Si Si6 0.719949 0.412710 0.167389
O O1 0.868113 0.899498 0.750736
O O2 0.006420 0.823502 0.736408
O O3 0.982330 0.878492 0.982560
O O4 0.000000 0.000000 0.286871
O O5 0.865864 0.435707 0.965325
O O6 0.824288 0.597029 0.055857
O O7 0.714503 0.479358 0.030273
O O8 0.783217 0.547740 0.790494
O O9 0.421999 0.768184 0.031640
O O10 0.586800 0.767901 0.050235
O O11 0.768394 0.663901 0.583426
O O12 0.830895 0.690339 0.300280
O O13 0.250000 0.750000 0.573901
#
# Coordination Sequence:
#
# PCOD9354997 Si02
#       6
#     8   8   8   8   8   8
#     4  12  29  46  72 105 156 193 246 312 383 460
#     4  10  22  45  72 106 139 193 244 297 369 438
#     4  12  28  47  70 113 143 196 249 310 381 431
#     4  10  24  47  72 105 147 187 248 302 371 441
#     4  12  26  46  74 106 149 192 248 304 361 458
#     4  10  24  42  76 103 142 194 242 296 376 450
#
# _framework density 21.695927999999999
#
# number of rings (size 3 to 8) (size 9 to 14) (size 15 to 20)
#    1.000    0.000    3.333    1.500   11.667    0.667 
#    0.000    1.667    0.000    0.000    0.000    0.000 
#    0.000    0.000    0.000    0.000    0.000    0.000 
#
# Total GULP energy -133707.975313 kJ/mol
# GULP energy per Si atom -5571.165638 kJ/mol
# Density = 2.164655 g / cm^3
# Si number density = 21.695928 Si / 1000 Ang^3
#
#
#
# Elastic Constant Matrix: (Units=GPa)
#
#
# Indices 1 2 3 4 5 6 
#
# 1 96.4459 54.3699 -1.4210 0.0000 0.0000 0.0000
# 2 54.3699 150.4629 14.4678 0.0000 0.0000 0.0000
# 3 -1.4210 14.4678 59.2442 0.0000 0.0000 0.0000
# 4 0.0000 0.0000 0.0000 22.2388 0.0000 0.0000
# 5 0.0000 0.0000 0.0000 0.0000 16.3484 0.0000
# 6 0.0000 0.0000 0.0000 0.0000 0.0000 32.8677
#
#
#
# Elastic Compliance Matrix: (Units=1/GPa)
#
#
# Indices 1 2 3 4 5 6 
#
# 1 0.013152 -0.004898 0.001512 0.000000 0.000000 0.000000
# 2 -0.004898 0.008630 -0.002225 0.000000 0.000000 0.000000
# 3 0.001512 -0.002225 0.017459 0.000000 0.000000 0.000000
# 4 0.000000 0.000000 0.000000 0.044966 0.000000 0.000000
# 5 0.000000 0.000000 0.000000 0.000000 0.061168 0.000000
# 6 0.000000 0.000000 0.000000 0.000000 0.000000 0.030425
#
#
# Mechanical properties :
#
#
# Convention : Reuss Voigt Hill
#
# Bulk Modulus (GPa) = 35.69105 48.99848 42.34476
# Shear Modulus (GPa) = 25.46317 30.20674 27.83495
#
# Velocity S-wave (km/s) = 3.42956 3.73537 3.58573
# Velocity P-wave (km/s) = 5.67175 6.42162 6.05830
#
# Compressibility (1/GPa) = 0.02801823
#
# Stress axis : x y z
#
# Youngs Moduli (GPa) = 76.03517 115.87615 57.27738
#
# Poissons Ratio (x) = 0.56753 -0.08658
# Poissons Ratio (y) = 0.37240 0.12744
# Poissons Ratio (z) = -0.11493 0.25782
#
# Static dielectric constant tensor:
#      x y z
#    x 1.827240 0.000000 0.000000 
#    y 0.000000 1.719480 0.000000 
#    z 0.000000 0.000000 1.769820 
# 
# From -- ./inp_files/3478.got.cif
#   From: 2010.05.17/outbox.cif.g08.bks.cpg/sg37_2_cif.got.tgz:3478.got - 2010.06.03 17:53:42.
