data_PCOD9354200
_publ_section_title
;
Structure prediction by ZEFSAII (Michael W. Deem and Ramdas Pophale) SiO2 
 PCOD9354200
Probable space group: C C C 2
;
_chemical_formula_sum "Si O2"
_cell_formula_units_Z 40
_cell_length_a 18.363788
_cell_length_b 10.713736
_cell_length_c 8.854146
_cell_angle_alpha 90.000000
_cell_angle_beta 90.000000
_cell_angle_gamma 90.000000
_cell_volume 1742.006977
_symmetry_space_group_name_H-M "C C C 2"
_symmetry_group_IT_number 37
_symmetry_cell_setting 'orthorhombic'
loop_
_space_group_symop_operation_xyz
x,y,z
-x,-y,z
-x,y,1/2+z
x,-y,1/2+z
1/2+x,1/2+y,z
1/2-x,1/2-y,z
1/2-x,1/2+y,1/2+z
1/2+x,1/2-y,1/2+z
loop_
_atom_site_type_symbol
_atom_site_label
_atom_site_fract_x
_atom_site_fract_y
_atom_site_fract_z
Si Si1 0.529430 0.667678 0.938960
Si Si2 0.250000 0.750000 0.579530
Si Si3 0.848566 0.298154 0.331549
Si Si4 0.750000 0.250000 0.070971
Si Si5 0.912377 0.069870 0.763632
Si Si6 0.259425 0.055154 0.312748
O O1 0.568019 0.794062 0.881476
O O2 0.443977 0.660104 0.897371
O O3 0.561189 0.565545 0.820325
O O4 0.553548 0.620859 0.105456
O O5 0.188070 0.788738 0.461369
O O6 0.288994 0.851230 0.684286
O O7 0.821150 0.240264 0.175553
O O8 0.807572 0.431678 0.328627
O O9 0.740914 0.128530 0.969566
O O10 0.825424 0.055869 0.761997
#
# Coordination Sequence:
#
# PCOD9354200 Si02
#       6
#     8   4   8   4   8   8
#     4  11  24  39  66  96 135 186 227 287 350 421
#     4  10  20  40  58  96 130 178 214 290 342 412
#     4  11  22  39  64  99 133 175 228 291 341 408
#     4  10  24  36  62  96 132 180 218 288 350 404
#     4  11  23  40  64  94 137 179 231 279 351 416
#     4  11  23  39  66  97 135 171 230 290 343 410
#
# _framework density 22.962019000000002
#
# number of rings (size 3 to 8) (size 9 to 14) (size 15 to 20)
#    0.000    1.200    2.000    6.000    8.400    0.000 
#    0.000    0.000    0.000    4.800    0.000    0.000 
#    0.000    0.000    0.000    0.000    0.000    0.000 
#
# Total GULP energy -111463.662921 kJ/mol
# GULP energy per Si atom -5573.183146 kJ/mol
# Density = 2.290976 g / cm^3
# Si number density = 22.962019 Si / 1000 Ang^3
#
#
#
# Elastic Constant Matrix: (Units=GPa)
#
#
# Indices 1 2 3 4 5 6 
#
# 1 71.1408 31.8979 30.0225 0.0000 0.0000 0.0000
# 2 31.8979 90.2586 46.2594 0.0000 0.0000 0.0000
# 3 30.0225 46.2594 164.2517 0.0000 0.0000 0.0000
# 4 0.0000 0.0000 0.0000 24.8137 0.0000 0.0000
# 5 0.0000 0.0000 0.0000 0.0000 29.1268 0.0000
# 6 0.0000 0.0000 0.0000 0.0000 0.0000 38.4143
#
#
#
# Elastic Compliance Matrix: (Units=1/GPa)
#
#
# Indices 1 2 3 4 5 6 
#
# 1 0.017083 -0.005185 -0.001662 0.000000 0.000000 0.000000
# 2 -0.005185 0.014522 -0.003142 0.000000 0.000000 0.000000
# 3 -0.001662 -0.003142 0.007277 0.000000 0.000000 0.000000
# 4 0.000000 0.000000 0.000000 0.040300 0.000000 0.000000
# 5 0.000000 0.000000 0.000000 0.000000 0.034333 0.000000
# 6 0.000000 0.000000 0.000000 0.000000 0.000000 0.026032
#
#
# Mechanical properties :
#
#
# Convention : Reuss Voigt Hill
#
# Bulk Modulus (GPa) = 52.90188 60.22341 56.56264
# Shear Modulus (GPa) = 30.15177 32.96904 31.56040
#
# Velocity S-wave (km/s) = 3.62762 3.79332 3.71139
# Velocity P-wave (km/s) = 6.37457 6.74314 6.56144
#
# Compressibility (1/GPa) = 0.01890292
#
# Stress axis : x y z
#
# Youngs Moduli (GPa) = 58.53741 68.85975 137.41954
#
# Poissons Ratio (x) = 0.35707 0.22841
# Poissons Ratio (y) = 0.30354 0.43180
# Poissons Ratio (z) = 0.09730 0.21637
#
# Static dielectric constant tensor:
#      x y z
#    x 2.070590 0.000000 0.000000 
#    y 0.000000 1.966020 0.000000 
#    z 0.000000 0.000000 1.882560 
# 
# From -- ./inp_files/4309.got.cif
#   From: 2010.05.17/outbox.cif.g08.bks.cpg/sg37_3_cif.got.tgz:4309.got - 2010.06.03 17:53:42.
