data_PCOD9354677
_publ_section_title
;
Structure prediction by ZEFSAII (Michael W. Deem and Ramdas Pophale) SiO2 
 PCOD9354677
Probable space group: C C C 2
;
_chemical_formula_sum "Si O2"
_cell_formula_units_Z 52
_cell_length_a 20.225758
_cell_length_b 12.802258
_cell_length_c 9.301517
_cell_angle_alpha 90.000000
_cell_angle_beta 90.000000
_cell_angle_gamma 90.000000
_cell_volume 2408.491766
_symmetry_space_group_name_H-M "C C C 2"
_symmetry_group_IT_number 37
_symmetry_cell_setting 'orthorhombic'
loop_
_space_group_symop_operation_xyz
x,y,z
-x,-y,z
-x,y,1/2+z
x,-y,1/2+z
1/2+x,1/2+y,z
1/2-x,1/2-y,z
1/2-x,1/2+y,1/2+z
1/2+x,1/2-y,1/2+z
loop_
_atom_site_type_symbol
_atom_site_label
_atom_site_fract_x
_atom_site_fract_y
_atom_site_fract_z
Si Si1 0.793421 0.858730 0.956270
Si Si2 0.952867 0.720079 0.204257
Si Si3 0.762862 0.515360 0.218313
Si Si4 0.675217 0.208637 0.858462
Si Si5 0.000000 0.500000 0.167752
Si Si6 0.427363 0.746634 0.379600
Si Si7 0.376055 0.121391 0.623808
O O1 0.750000 0.750000 0.953402
O O2 0.869183 0.832163 0.921325
O O3 0.771738 0.939889 0.832338
O O4 0.780446 0.914842 0.109500
O O5 0.879525 0.753490 0.249995
O O6 0.969200 0.599968 0.250385
O O7 0.010972 0.786077 0.279100
O O8 0.956135 0.717753 0.032337
O O9 0.812592 0.591761 0.302070
O O10 0.809173 0.442910 0.122471
O O11 0.750000 0.250000 0.865850
O O12 0.638097 0.212455 0.010862
O O13 0.062063 0.549100 0.084376
O O14 0.391183 0.834884 0.282568
#
# Coordination Sequence:
#
# PCOD9354677 Si02
#       7
#     8   8   8   8   4   8   8
#     4  12  26  46  74 106 154 196 252 312 371 457
#     4  11  23  42  68 102 141 188 238 300 385 448
#     4  12  24  44  69 107 144 196 250 304 379 441
#     4  12  26  43  68 104 147 189 245 302 371 456
#     4  10  22  36  64  98 144 174 222 284 370 458
#     4  11  25  44  68 100 144 190 236 305 369 446
#     4  11  24  39  64 102 147 187 231 292 368 454
#
# _framework density 21.590274000000001
#
# number of rings (size 3 to 8) (size 9 to 14) (size 15 to 20)
#    0.000    0.615    4.615    4.154    4.308    3.077 
#    0.000    0.000    0.000    7.385    0.000    0.000 
#    0.000    0.000    0.000    0.000    0.000    0.000 
#
# Total GULP energy -145086.155768 kJ/mol
# GULP energy per Si atom -5580.236760 kJ/mol
# Density = 2.154113 g / cm^3
# Si number density = 21.590274 Si / 1000 Ang^3
#
#
#
# Elastic Constant Matrix: (Units=GPa)
#
#
# Indices 1 2 3 4 5 6 
#
# 1 125.5160 27.4654 52.3036 0.0000 0.0000 0.0000
# 2 27.4654 47.8044 35.6605 0.0000 0.0000 0.0000
# 3 52.3036 35.6605 150.7279 0.0000 0.0000 0.0000
# 4 0.0000 0.0000 0.0000 23.8536 0.0000 0.0000
# 5 0.0000 0.0000 0.0000 0.0000 32.3293 0.0000
# 6 0.0000 0.0000 0.0000 0.0000 0.0000 46.1257
#
#
#
# Elastic Compliance Matrix: (Units=1/GPa)
#
#
# Indices 1 2 3 4 5 6 
#
# 1 0.009844 -0.003774 -0.002523 0.000000 0.000000 0.000000
# 2 -0.003774 0.026848 -0.005042 0.000000 0.000000 0.000000
# 3 -0.002523 -0.005042 0.008703 0.000000 0.000000 0.000000
# 4 0.000000 0.000000 0.000000 0.041922 0.000000 0.000000
# 5 0.000000 0.000000 0.000000 0.000000 0.030932 0.000000
# 6 0.000000 0.000000 0.000000 0.000000 0.000000 0.021680
#
#
# Mechanical properties :
#
#
# Convention : Reuss Voigt Hill
#
# Bulk Modulus (GPa) = 44.02032 61.65637 52.83834
# Shear Modulus (GPa) = 29.38054 34.36964 31.87509
#
# Velocity S-wave (km/s) = 3.69294 3.99420 3.84652
# Velocity P-wave (km/s) = 6.21425 7.06335 6.65236
#
# Compressibility (1/GPa) = 0.02271678
#
# Stress axis : x y z
#
# Youngs Moduli (GPa) = 101.58134 37.24640 114.90224
#
# Poissons Ratio (x) = 0.14056 0.28993
# Poissons Ratio (y) = 0.38334 0.57939
# Poissons Ratio (z) = 0.25631 0.18781
#
# Static dielectric constant tensor:
#      x y z
#    x 1.805870 0.000000 0.000000 
#    y 0.000000 1.872060 0.000000 
#    z 0.000000 0.000000 1.847890 
# 
# From -- ./inp_files/4352.got.cif
#   From: 2010.05.17/outbox.cif.g08.bks.cpg/sg37_3_cif.got.tgz:4352.got - 2010.06.03 17:53:42.
