data_PCOD9354669
_publ_section_title
;
Structure prediction by ZEFSAII (Michael W. Deem and Ramdas Pophale) SiO2 
 PCOD9354669
Probable space group: C C C 2
;
_chemical_formula_sum "Si O2"
_cell_formula_units_Z 48
_cell_length_a 9.668863
_cell_length_b 24.906778
_cell_length_c 9.102244
_cell_angle_alpha 90.000000
_cell_angle_beta 90.000000
_cell_angle_gamma 90.000000
_cell_volume 2192.004441
_symmetry_space_group_name_H-M "C C C 2"
_symmetry_group_IT_number 37
_symmetry_cell_setting 'orthorhombic'
loop_
_space_group_symop_operation_xyz
x,y,z
-x,-y,z
-x,y,1/2+z
x,-y,1/2+z
1/2+x,1/2+y,z
1/2-x,1/2-y,z
1/2-x,1/2+y,1/2+z
1/2+x,1/2-y,1/2+z
loop_
_atom_site_type_symbol
_atom_site_label
_atom_site_fract_x
_atom_site_fract_y
_atom_site_fract_z
Si Si1 0.851904 0.353909 0.490080
Si Si2 0.750000 0.250000 0.139644
Si Si3 0.613399 0.927725 0.566352
Si Si4 0.015215 0.748052 0.927398
Si Si5 0.500000 0.000000 0.825382
Si Si6 0.112175 0.178562 0.171238
Si Si7 0.338348 0.634412 0.230492
O O1 0.768283 0.338666 0.637803
O O2 0.739005 0.380651 0.381504
O O3 0.983481 0.389494 0.528951
O O4 0.910605 0.300926 0.406820
O O5 0.682861 0.300897 0.217203
O O6 0.869094 0.273955 0.037483
O O7 0.753624 0.895248 0.601098
O O8 0.573991 0.958712 0.715821
O O9 0.609031 0.970019 0.432351
O O10 0.093577 0.775149 0.792286
O O11 0.938608 0.794849 0.018490
O O12 0.004246 0.131392 0.214901
#
# Coordination Sequence:
#
# PCOD9354669 Si02
#       7
#     8   4   8   8   4   8   8
#     4  12  23  41  65  94 130 188 230 273 343 405
#     4  10  22  36  58  94 142 170 234 268 324 404
#     4  11  23  43  76  96 136 166 229 294 352 411
#     4  11  23  37  58  90 135 184 227 268 315 390
#     4  10  24  44  68 114 122 166 230 310 350 398
#     4  11  25  38  60  89 143 180 225 276 317 404
#     4  11  22  43  60  97 133 184 217 285 329 415
#
# _framework density 21.897766000000001
#
# number of rings (size 3 to 8) (size 9 to 14) (size 15 to 20)
#    0.000    1.000    5.000    2.500    2.333    2.667 
#    0.000    0.000    0.000    6.000    0.000    0.000 
#    0.000    0.000    0.000    0.000    0.000    0.000 
#
# Total GULP energy -134028.701044 kJ/mol
# GULP energy per Si atom -5584.529210 kJ/mol
# Density = 2.184793 g / cm^3
# Si number density = 21.897766 Si / 1000 Ang^3
#
#
#
# Elastic Constant Matrix: (Units=GPa)
#
#
# Indices 1 2 3 4 5 6 
#
# 1 59.5543 11.1051 -2.4820 0.0000 0.0000 0.0000
# 2 11.1051 63.9393 20.3399 0.0000 0.0000 0.0000
# 3 -2.4820 20.3399 86.8290 0.0000 0.0000 0.0000
# 4 0.0000 0.0000 0.0000 29.5393 0.0000 0.0000
# 5 0.0000 0.0000 0.0000 0.0000 39.3113 0.0000
# 6 0.0000 0.0000 0.0000 0.0000 0.0000 23.8351
#
#
#
# Elastic Compliance Matrix: (Units=1/GPa)
#
#
# Indices 1 2 3 4 5 6 
#
# 1 0.017490 -0.003454 0.001309 0.000000 0.000000 0.000000
# 2 -0.003454 0.017581 -0.004217 0.000000 0.000000 0.000000
# 3 0.001309 -0.004217 0.012542 0.000000 0.000000 0.000000
# 4 0.000000 0.000000 0.000000 0.033853 0.000000 0.000000
# 5 0.000000 0.000000 0.000000 0.000000 0.025438 0.000000
# 6 0.000000 0.000000 0.000000 0.000000 0.000000 0.041955
#
#
# Mechanical properties :
#
#
# Convention : Reuss Voigt Hill
#
# Bulk Modulus (GPa) = 28.66229 29.80541 29.23385
# Shear Modulus (GPa) = 28.86605 30.62778 29.74692
#
# Velocity S-wave (km/s) = 3.63467 3.74394 3.68971
# Velocity P-wave (km/s) = 5.54364 5.68596 5.61525
#
# Compressibility (1/GPa) = 0.03488905
#
# Stress axis : x y z
#
# Youngs Moduli (GPa) = 57.17534 56.87864 79.73085
#
# Poissons Ratio (x) = 0.19647 -0.10438
# Poissons Ratio (y) = 0.19749 0.33624
# Poissons Ratio (z) = -0.07485 0.23987
#
# Static dielectric constant tensor:
#      x y z
#    x 1.894690 0.000000 0.000000 
#    y 0.000000 1.814590 0.000000 
#    z 0.000000 0.000000 1.879350 
# 
# From -- ./inp_files/2943.got.cif
#   From: 2010.05.17/outbox.cif.g08.bks.cpg/sg37_2_cif.got.tgz:2943.got - 2010.06.03 17:53:42.
