data_PCOD9354785
_publ_section_title
;
Structure prediction by ZEFSAII (Michael W. Deem and Ramdas Pophale) SiO2 
 PCOD9354785
Probable space group: C C C 2
;
_chemical_formula_sum "Si O2"
_cell_formula_units_Z 64
_cell_length_a 15.143750
_cell_length_b 22.846768
_cell_length_c 8.771707
_cell_angle_alpha 90.000000
_cell_angle_beta 90.000000
_cell_angle_gamma 90.000000
_cell_volume 3034.885563
_symmetry_space_group_name_H-M "C C C 2"
_symmetry_group_IT_number 37
_symmetry_cell_setting 'orthorhombic'
loop_
_space_group_symop_operation_xyz
x,y,z
-x,-y,z
-x,y,1/2+z
x,-y,1/2+z
1/2+x,1/2+y,z
1/2-x,1/2-y,z
1/2-x,1/2+y,1/2+z
1/2+x,1/2-y,1/2+z
loop_
_atom_site_type_symbol
_atom_site_label
_atom_site_fract_x
_atom_site_fract_y
_atom_site_fract_z
Si Si1 0.541374 0.360110 0.922780
Si Si2 0.991664 0.586738 0.007166
Si Si3 0.413196 0.286228 0.708398
Si Si4 0.083564 0.346232 0.767221
Si Si5 0.284219 0.638865 0.362791
Si Si6 0.147296 0.511670 0.933910
Si Si7 0.781960 0.968836 0.677745
Si Si8 0.614799 0.585030 0.124819
O O1 0.489293 0.315639 0.811321
O O2 0.598202 0.396630 0.800410
O O3 0.590350 0.320294 0.048043
O O4 0.471871 0.399766 0.021508
O O5 0.041404 0.603427 0.161744
O O6 0.065924 0.554305 0.906449
O O7 0.905310 0.544172 0.009847
O O8 0.966342 0.647136 0.927034
O O9 0.424801 0.217305 0.694851
O O10 0.327937 0.301375 0.809387
O O11 0.183864 0.359415 0.811702
O O12 0.325994 0.586175 0.260433
O O13 0.308433 0.621649 0.535718
O O14 0.220101 0.544736 0.035292
O O15 0.207450 0.492079 0.794685
O O16 0.851755 0.018254 0.629438
#
# Coordination Sequence:
#
# PCOD9354785 Si02
#       8
#     8   8   8   8   8   8   8   8
#     4   9  21  44  65  93 122 164 218 269 326 373
#     4  11  22  37  61  92 124 167 214 262 308 392
#     4  10  22  40  64  87 125 166 210 275 318 372
#     4  12  22  39  62  92 125 168 218 258 321 372
#     4  11  23  40  59  93 125 171 211 262 326 378
#     4  11  22  38  60  89 131 166 205 258 325 375
#     4  12  21  39  61  91 127 168 205 256 325 389
#     4  10  22  41  68  90 127 166 215 266 325 397
#
# _framework density 21.08811
#
# number of rings (size 3 to 8) (size 9 to 14) (size 15 to 20)
#    0.000    1.250    3.750    1.875    1.750    2.000 
#    0.000   10.625    0.000    7.500    0.000    0.000 
#    0.000    0.000    0.000    0.000    0.000    0.000 
#
# Total GULP energy -178438.210085 kJ/mol
# GULP energy per Si atom -5576.194065 kJ/mol
# Density = 2.104011 g / cm^3
# Si number density = 21.088110 Si / 1000 Ang^3
#
#
#
# Elastic Constant Matrix: (Units=GPa)
#
#
# Indices 1 2 3 4 5 6 
#
# 1 52.0112 30.5960 20.5905 0.0000 0.0000 0.0000
# 2 30.5960 83.5445 16.3166 0.0000 0.0000 0.0000
# 3 20.5905 16.3166 72.6272 0.0000 0.0000 0.0000
# 4 0.0000 0.0000 0.0000 26.3489 0.0000 0.0000
# 5 0.0000 0.0000 0.0000 0.0000 33.0268 0.0000
# 6 0.0000 0.0000 0.0000 0.0000 0.0000 24.3271
#
#
#
# Elastic Compliance Matrix: (Units=1/GPa)
#
#
# Indices 1 2 3 4 5 6 
#
# 1 0.026504 -0.008617 -0.005578 0.000000 0.000000 0.000000
# 2 -0.008617 0.015320 -0.000999 0.000000 0.000000 0.000000
# 3 -0.005578 -0.000999 0.015575 0.000000 0.000000 0.000000
# 4 0.000000 0.000000 0.000000 0.037952 0.000000 0.000000
# 5 0.000000 0.000000 0.000000 0.000000 0.030278 0.000000
# 6 0.000000 0.000000 0.000000 0.000000 0.000000 0.041106
#
#
# Mechanical properties :
#
#
# Convention : Reuss Voigt Hill
#
# Bulk Modulus (GPa) = 37.02185 38.13213 37.57699
# Shear Modulus (GPa) = 24.25675 26.11922 25.18799
#
# Velocity S-wave (km/s) = 3.39522 3.52316 3.45978
# Velocity P-wave (km/s) = 5.74143 5.88827 5.81531
#
# Compressibility (1/GPa) = 0.02701107
#
# Stress axis : x y z
#
# Youngs Moduli (GPa) = 37.73021 65.27208 64.20603
#
# Poissons Ratio (x) = 0.56244 0.35816
# Poissons Ratio (y) = 0.32512 0.06414
# Poissons Ratio (z) = 0.21047 0.06520
#
# Static dielectric constant tensor:
#      x y z
#    x 1.799800 0.000000 0.000000 
#    y 0.000000 1.765750 0.000000 
#    z 0.000000 0.000000 1.797360 
# 
# From -- ./inp_files/3751.got.cif
#   From: 2010.05.17/outbox.cif.g08.bks.cpg/sg37_2_cif.got.tgz:3751.got - 2010.06.03 17:53:42.
