data_PCOD9354505
_publ_section_title
;
Structure prediction by ZEFSAII (Michael W. Deem and Ramdas Pophale) SiO2 
 PCOD9354505
Probable space group: C C C 2
;
_chemical_formula_sum "Si O2"
_cell_formula_units_Z 52
_cell_length_a 14.818596
_cell_length_b 5.383236
_cell_length_c 30.702178
_cell_angle_alpha 90.000000
_cell_angle_beta 90.000000
_cell_angle_gamma 90.000000
_cell_volume 2449.174127
_symmetry_space_group_name_H-M "C C C 2"
_symmetry_group_IT_number 37
_symmetry_cell_setting 'orthorhombic'
loop_
_space_group_symop_operation_xyz
x,y,z
-x,-y,z
-x,y,1/2+z
x,-y,1/2+z
1/2+x,1/2+y,z
1/2-x,1/2-y,z
1/2-x,1/2+y,1/2+z
1/2+x,1/2-y,1/2+z
loop_
_atom_site_type_symbol
_atom_site_label
_atom_site_fract_x
_atom_site_fract_y
_atom_site_fract_z
Si Si1 0.358409 0.767384 0.014110
Si Si2 0.848238 0.365888 0.839239
Si Si3 0.440303 0.751233 0.749112
Si Si4 0.750000 0.250000 0.388339
Si Si5 0.401922 0.609598 0.922592
Si Si6 0.142535 0.762748 0.559947
Si Si7 0.060225 0.248637 0.153346
O O1 0.250000 0.750000 0.018299
O O2 0.391938 0.510534 0.035870
O O3 0.393127 0.009234 0.038903
O O4 0.380555 0.784828 0.963260
O O5 0.750000 0.250000 0.845098
O O6 0.880204 0.299707 0.791390
O O7 0.826525 0.642609 0.855258
O O8 0.909833 0.247867 0.876419
O O9 0.500000 0.500000 0.754519
O O10 0.394476 0.740150 0.701395
O O11 0.500000 0.000000 0.747279
O O12 0.686599 0.428851 0.417965
O O13 0.500000 0.500000 0.931759
O O14 0.250000 0.750000 0.553939
O O15 0.122105 0.763179 0.611124
O O16 0.000000 0.500000 0.150779
O O17 0.000000 0.000000 0.151928
#
# Coordination Sequence:
#
# PCOD9354505 Si02
#       7
#     8   8   8   4   8   8   8
#     4  10  22  40  63  91 126 168 210 267 324 381
#     4  10  23  40  62  91 128 167 214 270 327 385
#     4  10  23  40  65  93 126 169 215 264 327 392
#     4  10  24  42  64  90 132 174 214 282 326 384
#     4  11  25  41  64  95 127 175 223 268 331 400
#     4  10  22  39  65  89 125 165 208 261 321 380
#     4  10  21  40  63  91 127 165 207 268 322 380
#
# _framework density 21.231646999999999
#
# number of rings (size 3 to 8) (size 9 to 14) (size 15 to 20)
#    0.000    1.846    0.000    2.769   11.846    2.462 
#    0.000    0.000    5.077    0.000    0.000    0.000 
#    0.000    0.000    0.000    0.000    0.000    0.000 
#
# Total GULP energy -145032.462311 kJ/mol
# GULP energy per Si atom -5578.171627 kJ/mol
# Density = 2.118332 g / cm^3
# Si number density = 21.231647 Si / 1000 Ang^3
#
#
#
# Elastic Constant Matrix: (Units=GPa)
#
#
# Indices 1 2 3 4 5 6 
#
# 1 53.8485 18.3856 15.1094 0.0000 0.0000 0.0000
# 2 18.3856 120.0936 38.6350 0.0000 0.0000 0.0000
# 3 15.1094 38.6350 140.6172 0.0000 0.0000 0.0000
# 4 0.0000 0.0000 0.0000 34.3692 0.0000 0.0000
# 5 0.0000 0.0000 0.0000 0.0000 36.7694 0.0000
# 6 0.0000 0.0000 0.0000 0.0000 0.0000 1.4606
#
#
#
# Elastic Compliance Matrix: (Units=1/GPa)
#
#
# Indices 1 2 3 4 5 6 
#
# 1 0.019851 -0.002581 -0.001424 0.000000 0.000000 0.000000
# 2 -0.002581 0.009470 -0.002325 0.000000 0.000000 0.000000
# 3 -0.001424 -0.002325 0.007903 0.000000 0.000000 0.000000
# 4 0.000000 0.000000 0.000000 0.029096 0.000000 0.000000
# 5 0.000000 0.000000 0.000000 0.000000 0.027197 0.000000
# 6 0.000000 0.000000 0.000000 0.000000 0.000000 0.684646
#
#
# Mechanical properties :
#
#
# Convention : Reuss Voigt Hill
#
# Bulk Modulus (GPa) = 40.70757 50.97991 45.84374
# Shear Modulus (GPa) = 6.25774 30.68178 18.46976
#
# Velocity S-wave (km/s) = 1.71865 3.80557 2.95263
# Velocity P-wave (km/s) = 4.81176 6.58583 5.76742
#
# Compressibility (1/GPa) = 0.02456546
#
# Stress axis : x y z
#
# Youngs Moduli (GPa) = 50.37424 105.59889 126.53148
#
# Poissons Ratio (x) = 0.27256 0.18017
# Poissons Ratio (y) = 0.13002 0.29412
# Poissons Ratio (z) = 0.07173 0.24547
#
# Static dielectric constant tensor:
#      x y z
#    x 1.765940 0.000000 0.000000 
#    y 0.000000 1.868680 0.000000 
#    z 0.000000 0.000000 1.768580 
# 
# From -- ./inp_files/20553.got.cif
#   From: 2010.05.17/outbox.cif.g08.bks.cpg/sg37_11_cif.got.tgz:20553.got - 2010.06.03 17:53:42.
