data_PCOD9354001
_publ_section_title
;
Structure prediction by ZEFSAII (Michael W. Deem and Ramdas Pophale) SiO2 
 PCOD9354001
Probable space group: C C C 2
;
_chemical_formula_sum "Si O2"
_cell_formula_units_Z 52
_cell_length_a 8.250348
_cell_length_b 12.270627
_cell_length_c 26.564105
_cell_angle_alpha 90.000000
_cell_angle_beta 90.000000
_cell_angle_gamma 90.000000
_cell_volume 2689.268782
_symmetry_space_group_name_H-M "C C C 2"
_symmetry_group_IT_number 37
_symmetry_cell_setting 'orthorhombic'
loop_
_space_group_symop_operation_xyz
x,y,z
-x,-y,z
-x,y,1/2+z
x,-y,1/2+z
1/2+x,1/2+y,z
1/2-x,1/2-y,z
1/2-x,1/2+y,1/2+z
1/2+x,1/2-y,1/2+z
loop_
_atom_site_type_symbol
_atom_site_label
_atom_site_fract_x
_atom_site_fract_y
_atom_site_fract_z
Si Si1 0.979972 0.128324 0.547390
Si Si2 0.250000 0.250000 0.864420
Si Si3 0.142521 0.904377 0.649469
Si Si4 0.750000 0.250000 0.869548
Si Si5 0.750000 0.750000 0.612677
Si Si6 0.025683 0.870437 0.433973
Si Si7 0.518359 0.126744 0.801597
Si Si8 0.476672 0.830196 0.683645
O O1 0.132879 0.180935 0.576252
O O2 0.955948 0.172448 0.491387
O O3 0.844782 0.130911 0.590769
O O4 0.000000 0.000000 0.539546
O O5 0.318492 0.342498 0.900997
O O6 0.384912 0.198649 0.829374
O O7 0.329709 0.911783 0.667289
O O8 0.078727 0.796630 0.677947
O O9 0.000000 0.000000 0.654121
O O10 0.880844 0.193190 0.905882
O O11 0.680667 0.161663 0.830473
O O12 0.637380 0.827029 0.648272
O O13 0.000000 0.000000 0.433489
O O14 0.501259 0.148393 0.742378
O O15 0.500000 0.000000 0.810101
#
# Coordination Sequence:
#
# PCOD9354001 Si02
#       8
#     8   4   8   4   4   8   8   8
#     4   9  19  35  56  82 112 146 185 226 279 339
#     4  10  23  38  58  84 110 146 191 232 284 338
#     4   9  19  37  58  84 118 152 190 235 281 345
#     4  10  21  38  58  80 108 142 185 230 280 328
#     4  10  20  36  56  84 118 148 186 236 282 342
#     4  10  20  37  59  82 110 146 183 230 281 331
#     4  11  23  39  57  82 112 145 187 235 279 334
#     4  10  21  36  57  84 115 152 193 234 289 344
#
# _framework density 19.336112
#
# number of rings (size 3 to 8) (size 9 to 14) (size 15 to 20)
#    0.000    2.154    0.000    2.769    0.000    7.385 
#    0.000    3.846    0.000   12.000    0.000    0.000 
#    0.000    0.000    0.000    0.000    0.000    0.000 
#
# Total GULP energy -144750.590863 kJ/mol
# GULP energy per Si atom -5567.330418 kJ/mol
# Density = 1.929210 g / cm^3
# Si number density = 19.336112 Si / 1000 Ang^3
#
#
#
# Elastic Constant Matrix: (Units=GPa)
#
#
# Indices 1 2 3 4 5 6 
#
# 1 58.8495 -0.2242 51.2501 0.0000 0.0000 0.0000
# 2 -0.2242 79.4769 28.4223 0.0000 0.0000 0.0000
# 3 51.2501 28.4223 162.6076 0.0000 0.0000 0.0000
# 4 0.0000 0.0000 0.0000 -0.3283 0.0000 0.0000
# 5 0.0000 0.0000 0.0000 0.0000 -0.3541 0.0000
# 6 0.0000 0.0000 0.0000 0.0000 0.0000 25.2373
#
#
#
# Elastic Compliance Matrix: (Units=1/GPa)
#
#
# Indices 1 2 3 4 5 6 
#
# 1 0.024059 0.002965 -0.008101 0.000000 0.000000 0.000000
# 2 0.002965 0.013787 -0.003344 0.000000 0.000000 0.000000
# 3 -0.008101 -0.003344 0.009288 0.000000 0.000000 0.000000
# 4 0.000000 0.000000 0.000000 -3.045727 0.000000 0.000000
# 5 0.000000 0.000000 0.000000 0.000000 -2.824008 0.000000
# 6 0.000000 0.000000 0.000000 0.000000 0.000000 0.039624
#
#
# Mechanical properties :
#
#
# Convention : Reuss Voigt Hill
#
# Bulk Modulus (GPa) = 33.14307 51.09227 42.11767
# Shear Modulus (GPa) = -0.86866 19.67668 9.40401
#
# Velocity S-wave (km/s) = -0.67098 3.19347 2.20771
# Velocity P-wave (km/s) = 4.07154 6.33074 5.32239
#
# Compressibility (1/GPa) = 0.03017222
#
# Stress axis : x y z
#
# Youngs Moduli (GPa) = 41.56504 72.53426 107.67094
#
# Poissons Ratio (x) = -0.21506 0.87224
# Poissons Ratio (y) = -0.12324 0.36008
# Poissons Ratio (z) = 0.33672 0.24257
#
# Static dielectric constant tensor:
#      x y z
#    x 1.787420 0.000000 0.000000 
#    y 0.000000 2.450310 0.000000 
#    z 0.000000 0.000000 1.665860 
# 
# From -- ./inp_files/19657.got.cif
#   From: 2010.05.17/outbox.cif.g08.bks.cpg/sg37_10_cif.got.tgz:19657.got - 2010.06.03 17:53:42.
