data_PCOD9354168
_publ_section_title
;
Structure prediction by ZEFSAII (Michael W. Deem and Ramdas Pophale) SiO2 
 PCOD9354168
Probable space group: C C C 2
;
_chemical_formula_sum "Si O2"
_cell_formula_units_Z 56
_cell_length_a 4.990704
_cell_length_b 16.702252
_cell_length_c 31.009581
_cell_angle_alpha 90.000000
_cell_angle_beta 90.000000
_cell_angle_gamma 90.000000
_cell_volume 2584.834506
_symmetry_space_group_name_H-M "C C C 2"
_symmetry_group_IT_number 37
_symmetry_cell_setting 'orthorhombic'
loop_
_space_group_symop_operation_xyz
x,y,z
-x,-y,z
-x,y,1/2+z
x,-y,1/2+z
1/2+x,1/2+y,z
1/2-x,1/2-y,z
1/2-x,1/2+y,1/2+z
1/2+x,1/2-y,1/2+z
loop_
_atom_site_type_symbol
_atom_site_label
_atom_site_fract_x
_atom_site_fract_y
_atom_site_fract_z
Si Si1 0.234679 0.653440 0.346890
Si Si2 0.250587 0.442871 0.760332
Si Si3 0.644136 0.161106 0.175282
Si Si4 0.871644 0.339121 0.996123
Si Si5 0.734575 0.652635 0.401206
Si Si6 0.614160 0.413464 0.632998
Si Si7 0.101729 0.085593 0.034616
O O1 0.250000 0.750000 0.342036
O O2 0.298431 0.612670 0.301783
O O3 0.443465 0.630413 0.384332
O O4 0.946415 0.628362 0.364844
O O5 0.500000 0.500000 0.752846
O O6 0.196359 0.390506 0.718068
O O7 0.000000 0.500000 0.768859
O O8 0.750000 0.250000 0.186467
O O9 0.348072 0.132990 0.159227
O O10 0.847932 0.138711 0.137104
O O11 0.750000 0.250000 0.991525
O O12 0.809220 0.376142 0.948937
O O13 0.681136 0.370178 0.033794
O O14 0.175928 0.363167 0.008425
O O15 0.750000 0.750000 0.401976
O O16 0.500000 0.500000 0.648632
O O17 0.702051 0.424836 0.583502
O O18 0.000000 0.000000 0.016613
#
# Coordination Sequence:
#
# PCOD9354168 Si02
#       7
#     8   8   8   8   8   8   8
#     4  10  20  39  63  87 118 158 205 252 301 360
#     4  12  25  42  63  90 126 161 198 245 309 375
#     4  12  25  42  66  95 123 158 209 260 308 369
#     4  11  22  39  64  92 123 164 214 261 309 371
#     4   9  19  36  61  89 119 158 203 254 308 359
#     4  11  24  43  65  89 125 168 206 252 317 380
#     4  11  24  41  61  90 128 167 205 254 319 380
#
# _framework density 21.664833000000002
#
# number of rings (size 3 to 8) (size 9 to 14) (size 15 to 20)
#    0.000    1.143    0.000    6.857    0.000    8.000 
#    0.000   11.429    0.000    0.000    0.000    0.000 
#    0.000    0.000    0.000    0.000    0.000    0.000 
#
# Total GULP energy -156119.743158 kJ/mol
# GULP energy per Si atom -5575.705113 kJ/mol
# Density = 2.161552 g / cm^3
# Si number density = 21.664833 Si / 1000 Ang^3
#
#
#
# Elastic Constant Matrix: (Units=GPa)
#
#
# Indices 1 2 3 4 5 6 
#
# 1 98.1166 8.7345 2.8514 0.0000 0.0000 0.0000
# 2 8.7345 53.3249 14.2964 0.0000 0.0000 0.0000
# 3 2.8514 14.2964 98.1854 0.0000 0.0000 0.0000
# 4 0.0000 0.0000 0.0000 5.5800 0.0000 0.0000
# 5 0.0000 0.0000 0.0000 0.0000 368.5884 0.0000
# 6 0.0000 0.0000 0.0000 0.0000 0.0000 28.7699
#
#
#
# Elastic Compliance Matrix: (Units=1/GPa)
#
#
# Indices 1 2 3 4 5 6 
#
# 1 0.010343 -0.001679 -0.000056 0.000000 0.000000 0.000000
# 2 -0.001679 0.019787 -0.002832 0.000000 0.000000 0.000000
# 3 -0.000056 -0.002832 0.010599 0.000000 0.000000 0.000000
# 4 0.000000 0.000000 0.000000 0.179213 0.000000 0.000000
# 5 0.000000 0.000000 0.000000 0.000000 0.002713 0.000000
# 6 0.000000 0.000000 0.000000 0.000000 0.000000 0.034759
#
#
# Mechanical properties :
#
#
# Convention : Reuss Voigt Hill
#
# Bulk Modulus (GPa) = 31.65121 33.48794 32.56957
# Shear Modulus (GPa) = 18.04534 95.50396 56.77465
#
# Velocity S-wave (km/s) = 2.88919 6.64667 5.12472
# Velocity P-wave (km/s) = 5.07652 8.62526 7.07694
#
# Compressibility (1/GPa) = 0.03159437
#
# Stress axis : x y z
#
# Youngs Moduli (GPa) = 96.68313 50.53730 94.34986
#
# Poissons Ratio (x) = 0.08486 0.00527
# Poissons Ratio (y) = 0.16235 0.26724
# Poissons Ratio (z) = 0.00540 0.14314
#
# Static dielectric constant tensor:
#      x y z
#    x 1.712420 0.000000 0.000000 
#    y 0.000000 1.889210 0.000000 
#    z 0.000000 0.000000 1.757480 
# 
# From -- ./inp_files/20161.got.cif
#   From: 2010.05.17/outbox.cif.g08.bks.cpg/sg37_11_cif.got.tgz:20161.got - 2010.06.03 17:53:42.
