data_PCOD9354369
_publ_section_title
;
Structure prediction by ZEFSAII (Michael W. Deem and Ramdas Pophale) SiO2 
 PCOD9354369
Probable space group: C C C 2
;
_chemical_formula_sum "Si O2"
_cell_formula_units_Z 56
_cell_length_a 5.571705
_cell_length_b 13.458775
_cell_length_c 30.834870
_cell_angle_alpha 90.000000
_cell_angle_beta 90.000000
_cell_angle_gamma 90.000000
_cell_volume 2312.255221
_symmetry_space_group_name_H-M "C C C 2"
_symmetry_group_IT_number 37
_symmetry_cell_setting 'orthorhombic'
loop_
_space_group_symop_operation_xyz
x,y,z
-x,-y,z
-x,y,1/2+z
x,-y,1/2+z
1/2+x,1/2+y,z
1/2-x,1/2-y,z
1/2-x,1/2+y,1/2+z
1/2+x,1/2-y,1/2+z
loop_
_atom_site_type_symbol
_atom_site_label
_atom_site_fract_x
_atom_site_fract_y
_atom_site_fract_z
Si Si1 0.750000 0.750000 0.799480
Si Si2 0.622560 0.393350 0.657846
Si Si3 0.871280 0.640603 0.338956
Si Si4 0.877439 0.893350 0.253303
Si Si5 0.249682 0.370524 0.431813
Si Si6 0.750000 0.250000 0.111669
Si Si7 0.128720 0.359397 0.072193
Si Si8 0.250324 0.870524 0.479336
O O1 0.649240 0.833352 0.832686
O O2 0.939787 0.806340 0.768642
O O3 0.500000 0.500000 0.660972
O O4 0.724608 0.370281 0.705575
O O5 0.439787 0.306340 0.642507
O O6 0.802564 0.405158 0.617977
O O7 0.750000 0.750000 0.339327
O O8 0.802564 0.594842 0.293172
O O9 0.780373 0.590211 0.382565
O O10 0.000000 0.000000 0.250177
O O11 0.250000 0.250000 0.429538
O O12 0.500004 0.396338 0.455574
O O13 0.000004 0.395395 0.455575
O O14 0.649240 0.166648 0.078464
O O15 0.250000 0.250000 0.071822
O O16 0.219627 0.409789 0.028584
O O17 0.250000 0.750000 0.481611
#
# Coordination Sequence:
#
# PCOD9354369 Si02
#       8
#     4   8   8   8   8   4   8   8
#     4  10  21  36  62  88 120 164 204 260 321 380
#     4  10  22  39  59  87 121 160 209 260 317 385
#     4   9  20  34  56  86 122 157 204 254 311 377
#     4  10  22  39  59  87 121 160 209 260 317 385
#     4   9  18  29  53  86 123 160 205 259 312 377
#     4  10  21  36  62  88 120 164 204 260 321 380
#     4   9  20  34  56  86 122 157 204 254 311 377
#     4   9  18  29  53  86 123 160 205 259 312 377
#
# _framework density 24.218781
#
# number of rings (size 3 to 8) (size 9 to 14) (size 15 to 20)
#    0.000    2.571    0.000    0.429   14.000    7.429 
#    0.000    2.857    0.000    0.857    0.000    0.000 
#    0.000    0.000    0.000    0.000    0.000    0.000 
#
# Total GULP energy -156186.374228 kJ/mol
# GULP energy per Si atom -5578.084794 kJ/mol
# Density = 2.416366 g / cm^3
# Si number density = 24.218781 Si / 1000 Ang^3
#
#
#
# Elastic Constant Matrix: (Units=GPa)
#
#
# Indices 1 2 3 4 5 6 
#
# 1 113.0848 3.2250 101.2270 0.0000 0.0000 0.0000
# 2 3.2250 79.5470 18.4700 0.0000 0.0000 0.0000
# 3 101.2270 18.4700 249.6805 0.0000 0.0000 0.0000
# 4 0.0000 0.0000 0.0000 -94.4121 0.0000 0.0000
# 5 0.0000 0.0000 0.0000 0.0000 16.8609 0.0000
# 6 0.0000 0.0000 0.0000 0.0000 0.0000 -8.7099
#
#
#
# Elastic Compliance Matrix: (Units=1/GPa)
#
#
# Indices 1 2 3 4 5 6 
#
# 1 0.013925 0.000759 -0.005702 0.000000 0.000000 0.000000
# 2 0.000759 0.012832 -0.001257 0.000000 0.000000 0.000000
# 3 -0.005702 -0.001257 0.006410 0.000000 0.000000 0.000000
# 4 0.000000 0.000000 0.000000 -0.010592 0.000000 0.000000
# 5 0.000000 0.000000 0.000000 0.000000 0.059309 0.000000
# 6 0.000000 0.000000 0.000000 0.000000 0.000000 -0.114812
#
#
# Mechanical properties :
#
#
# Convention : Reuss Voigt Hill
#
# Bulk Modulus (GPa) = 48.15079 76.46181 62.30630
# Shear Modulus (GPa) = -367.48994 4.04047 -181.72473
#
# Velocity S-wave (km/s) = -12.33154 1.29304 -8.67165
# Velocity P-wave (km/s) = 13.52151 5.81971 8.63024
#
# Compressibility (1/GPa) = 0.02076809
#
# Stress axis : x y z
#
# Youngs Moduli (GPa) = 71.81223 77.92842 156.01169
#
# Poissons Ratio (x) = -0.05917 0.88955
# Poissons Ratio (y) = -0.05453 0.19613
# Poissons Ratio (z) = 0.40946 0.09797
#
# Static dielectric constant tensor:
#      x y z
#    x 2.180490 0.000000 0.000000 
#    y 0.000000 2.022740 0.000000 
#    z 0.000000 0.000000 1.956650 
# 
# From -- ./inp_files/20234.got.cif
#   From: 2010.05.17/outbox.cif.g08.bks.cpg/sg37_11_cif.got.tgz:20234.got - 2010.06.03 17:53:42.
