data_PCOD9354502
_publ_section_title
;
Structure prediction by ZEFSAII (Michael W. Deem and Ramdas Pophale) SiO2 
 PCOD9354502
Probable space group: C C C 2
;
_chemical_formula_sum "Si O2"
_cell_formula_units_Z 56
_cell_length_a 30.510094
_cell_length_b 5.828469
_cell_length_c 14.011236
_cell_angle_alpha 90.000000
_cell_angle_beta 90.000000
_cell_angle_gamma 90.000000
_cell_volume 2491.577985
_symmetry_space_group_name_H-M "C C C 2"
_symmetry_group_IT_number 37
_symmetry_cell_setting 'orthorhombic'
loop_
_space_group_symop_operation_xyz
x,y,z
-x,-y,z
-x,y,1/2+z
x,-y,1/2+z
1/2+x,1/2+y,z
1/2-x,1/2-y,z
1/2-x,1/2+y,1/2+z
1/2+x,1/2-y,1/2+z
loop_
_atom_site_type_symbol
_atom_site_label
_atom_site_fract_x
_atom_site_fract_y
_atom_site_fract_z
Si Si1 0.976649 0.744129 0.028110
Si Si2 0.209143 0.626604 0.916509
Si Si3 0.590930 0.598606 0.179312
Si Si4 0.148591 0.499976 0.253380
Si Si5 0.578197 0.323939 0.349391
Si Si6 0.791852 0.635637 0.095289
Si Si7 0.643001 0.480497 0.011274
O O1 0.937914 0.752813 0.106703
O O2 0.000000 0.500000 0.046022
O O3 0.958898 0.729683 0.919243
O O4 0.000000 0.000000 0.036369
O O5 0.250000 0.750000 0.868672
O O6 0.182271 0.483729 0.840573
O O7 0.228891 0.489991 0.004835
O O8 0.173440 0.790427 0.965258
O O9 0.628494 0.747639 0.231716
O O10 0.563008 0.493662 0.265486
O O11 0.613848 0.420970 0.104949
O O12 0.107385 0.646459 0.288494
O O13 0.179768 0.533706 0.161546
O O14 0.610598 0.441886 0.426607
O O15 0.750000 0.750000 0.146253
O O16 0.826326 0.814544 0.049852
#
# Coordination Sequence:
#
# PCOD9354502 Si02
#       7
#     8   8   8   8   8   8   8
#     4  11  29  52  77 114 152 183 234 300 372 452
#     4  12  22  37  63  92 135 185 232 300 349 400
#     4  10  24  44  72  99 140 186 230 290 351 435
#     4  11  24  40  67  98 130 180 247 285 342 437
#     4  11  23  45  74 101 135 188 230 293 359 435
#     4  11  22  40  58  91 136 180 228 295 352 400
#     4  10  21  40  62  94 132 179 238 278 345 418
#
# _framework density 22.475717
#
# number of rings (size 3 to 8) (size 9 to 14) (size 15 to 20)
#    0.000    1.143    4.286    1.286    4.000    0.571 
#    0.000    0.714    0.000    0.000    0.000    0.000 
#    0.000    0.000    0.000    0.000    0.000    0.000 
#
# Total GULP energy -156086.761413 kJ/mol
# GULP energy per Si atom -5574.527193 kJ/mol
# Density = 2.242456 g / cm^3
# Si number density = 22.475717 Si / 1000 Ang^3
#
#
#
# Elastic Constant Matrix: (Units=GPa)
#
#
# Indices 1 2 3 4 5 6 
#
# 1 53.5918 9.0047 9.5429 0.0000 0.0000 0.0000
# 2 9.0047 33.2172 15.3444 0.0000 0.0000 0.0000
# 3 9.5429 15.3444 125.9457 0.0000 0.0000 0.0000
# 4 0.0000 0.0000 0.0000 11.9902 0.0000 0.0000
# 5 0.0000 0.0000 0.0000 0.0000 8.5923 0.0000
# 6 0.0000 0.0000 0.0000 0.0000 0.0000 44.8857
#
#
#
# Elastic Compliance Matrix: (Units=1/GPa)
#
#
# Indices 1 2 3 4 5 6 
#
# 1 0.019644 -0.004914 -0.000890 0.000000 0.000000 0.000000
# 2 -0.004914 0.033130 -0.003664 0.000000 0.000000 0.000000
# 3 -0.000890 -0.003664 0.008454 0.000000 0.000000 0.000000
# 4 0.000000 0.000000 0.000000 0.083402 0.000000 0.000000
# 5 0.000000 0.000000 0.000000 0.000000 0.116383 0.000000
# 6 0.000000 0.000000 0.000000 0.000000 0.000000 0.022279
#
#
# Mechanical properties :
#
#
# Convention : Reuss Voigt Hill
#
# Bulk Modulus (GPa) = 23.64545 31.17097 27.40821
# Shear Modulus (GPa) = 15.80661 25.01782 20.41222
#
# Velocity S-wave (km/s) = 2.65481 3.33994 3.01689
# Velocity P-wave (km/s) = 4.46549 5.36400 4.93524
#
# Compressibility (1/GPa) = 0.04229143
#
# Stress axis : x y z
#
# Youngs Moduli (GPa) = 50.90694 30.18447 118.29097
#
# Poissons Ratio (x) = 0.14833 0.10524
# Poissons Ratio (y) = 0.25017 0.43341
# Poissons Ratio (z) = 0.04529 0.11059
#
# Static dielectric constant tensor:
#      x y z
#    x 1.829130 0.000000 0.000000 
#    y 0.000000 1.943740 0.000000 
#    z 0.000000 0.000000 1.803600 
# 
# From -- ./inp_files/13370.got.cif
#   From: 2010.05.17/outbox.cif.g08.bks.cpg/sg37_7_cif.got.tgz:13370.got - 2010.06.03 17:53:42.
