data_PCOD9354355
_publ_section_title
;
Structure prediction by ZEFSAII (Michael W. Deem and Ramdas Pophale) SiO2 
 PCOD9354355
Probable space group: C C C 2
;
_chemical_formula_sum "Si O2"
_cell_formula_units_Z 40
_cell_length_a 18.982586
_cell_length_b 17.145868
_cell_length_c 4.997864
_cell_angle_alpha 90.000000
_cell_angle_beta 90.000000
_cell_angle_gamma 90.000000
_cell_volume 1626.669359
_symmetry_space_group_name_H-M "C C C 2"
_symmetry_group_IT_number 37
_symmetry_cell_setting 'orthorhombic'
loop_
_space_group_symop_operation_xyz
x,y,z
-x,-y,z
-x,y,1/2+z
x,-y,1/2+z
1/2+x,1/2+y,z
1/2-x,1/2-y,z
1/2-x,1/2+y,1/2+z
1/2+x,1/2-y,1/2+z
loop_
_atom_site_type_symbol
_atom_site_label
_atom_site_fract_x
_atom_site_fract_y
_atom_site_fract_z
Si Si1 0.041900 0.655175 0.881870
Si Si2 0.750001 0.054197 0.587947
Si Si3 0.829331 0.161336 0.239962
Si Si4 0.958100 0.844821 0.381866
Si Si5 0.829331 0.338666 0.239964
O O1 0.044106 0.749998 0.875090
O O2 0.020839 0.630672 0.584870
O O3 0.113253 0.631608 0.032461
O O4 0.815957 0.107478 0.497029
O O5 0.684044 0.107477 0.497032
O O6 0.750001 0.983302 0.375565
O O7 0.848176 0.250001 0.321621
O O8 0.750000 0.165862 0.118331
O O9 0.886747 0.131611 0.032457
O O10 0.020839 0.869324 0.584866
#
# Coordination Sequence:
#
# PCOD9354355 Si02
#       5
#     8   8   8   8   8
#     4   9  17  30  50  77 107 135 168 216 268 311
#     4  10  21  36  55  78 108 142 178 220 271 314
#     4   8  17  36  57  83 107 139 183 224 261 314
#     4   9  17  30  50  77 107 135 168 216 268 311
#     4   8  17  36  57  83 107 139 183 224 261 314
#
# _framework density 24.590123999999999
#
# number of rings (size 3 to 8) (size 9 to 14) (size 15 to 20)
#    1.200    2.000    0.000    0.000    0.000    3.200 
#    0.000    8.000    0.000    7.200    0.000    0.000 
#    0.000    0.000    0.000    0.000    0.000    0.000 
#
# Total GULP energy -111638.198749 kJ/mol
# GULP energy per Si atom -5581.909937 kJ/mol
# Density = 2.453416 g / cm^3
# Si number density = 24.590124 Si / 1000 Ang^3
#
#
#
# Elastic Constant Matrix: (Units=GPa)
#
#
# Indices 1 2 3 4 5 6 
#
# 1 106.9623 -4.7995 9.6905 0.0000 0.0000 0.0000
# 2 -4.7995 72.4719 22.7284 0.0000 0.0000 0.0000
# 3 9.6905 22.7284 102.9296 0.0000 0.0000 0.0000
# 4 0.0000 0.0000 0.0000 19.3238 0.0000 0.0000
# 5 0.0000 0.0000 0.0000 0.0000 29.9705 0.0000
# 6 0.0000 0.0000 0.0000 0.0000 0.0000 1.8732
#
#
#
# Elastic Compliance Matrix: (Units=1/GPa)
#
#
# Indices 1 2 3 4 5 6 
#
# 1 0.009493 0.000977 -0.001109 0.000000 0.000000 0.000000
# 2 0.000977 0.014926 -0.003388 0.000000 0.000000 0.000000
# 3 -0.001109 -0.003388 0.010568 0.000000 0.000000 0.000000
# 4 0.000000 0.000000 0.000000 0.051750 0.000000 0.000000
# 5 0.000000 0.000000 0.000000 0.000000 0.033366 0.000000
# 6 0.000000 0.000000 0.000000 0.000000 0.000000 0.533853
#
#
# Mechanical properties :
#
#
# Convention : Reuss Voigt Hill
#
# Bulk Modulus (GPa) = 35.78350 37.51140 36.64745
# Shear Modulus (GPa) = 7.45921 27.21645 17.33783
#
# Velocity S-wave (km/s) = 1.74356 3.33048 2.65820
# Velocity P-wave (km/s) = 4.31705 5.48427 4.93529
#
# Compressibility (1/GPa) = 0.02794584
#
# Stress axis : x y z
#
# Youngs Moduli (GPa) = 105.33604 66.99903 94.62622
#
# Poissons Ratio (x) = -0.06543 0.10498
# Poissons Ratio (y) = -0.10288 0.32057
# Poissons Ratio (z) = 0.11686 0.22698
#
# Static dielectric constant tensor:
#      x y z
#    x 2.062960 0.000000 0.000000 
#    y 0.000000 1.961980 0.000000 
#    z 0.000000 0.000000 1.945170 
# 
# From -- ./inp_files/966.got.cif
#   From: 2010.05.17/outbox.cif.g08.bks.cpg/sg37_1_cif.got.tgz:966.got - 2010.06.03 17:53:42.
