data_PCOD9354343
_publ_section_title
;
Structure prediction by ZEFSAII (Michael W. Deem and Ramdas Pophale) SiO2 
 PCOD9354343
Probable space group: C C C 2
;
_chemical_formula_sum "Si O2"
_cell_formula_units_Z 40
_cell_length_a 19.165418
_cell_length_b 15.654184
_cell_length_c 5.284585
_cell_angle_alpha 90.000000
_cell_angle_beta 90.000000
_cell_angle_gamma 90.000000
_cell_volume 1585.475800
_symmetry_space_group_name_H-M "C C C 2"
_symmetry_group_IT_number 37
_symmetry_cell_setting 'orthorhombic'
loop_
_space_group_symop_operation_xyz
x,y,z
-x,-y,z
-x,y,1/2+z
x,-y,1/2+z
1/2+x,1/2+y,z
1/2-x,1/2-y,z
1/2-x,1/2+y,1/2+z
1/2+x,1/2-y,1/2+z
loop_
_atom_site_type_symbol
_atom_site_label
_atom_site_fract_x
_atom_site_fract_y
_atom_site_fract_z
Si Si1 0.458955 0.617117 0.606300
Si Si2 0.781861 0.608667 0.423596
Si Si3 0.097192 0.528582 0.431442
Si Si4 0.122030 0.715845 0.627568
Si Si5 0.309087 0.370659 0.924543
O O1 0.515443 0.594797 0.389374
O O2 0.442506 0.719231 0.646915
O O3 0.384772 0.586571 0.486395
O O4 0.830428 0.525074 0.411674
O O5 0.731875 0.610882 0.666959
O O6 0.834937 0.689353 0.380699
O O7 0.735893 0.609100 0.171504
O O8 0.064394 0.475577 0.658009
O O9 0.103552 0.625785 0.508845
O O10 0.172592 0.770195 0.446748
#
# Coordination Sequence:
#
# PCOD9354343 Si02
#       5
#     8   8   8   8   8
#     4  10  22  40  59  85 123 168 217 250 285 356
#     4  11  20  37  56  90 125 158 196 255 323 371
#     4  10  21  35  53  80 123 163 191 234 309 373
#     4   9  23  36  60  87 127 164 198 253 307 365
#     4  10  23  35  60  89 121 161 202 255 310 361
#
# _framework density 25.229016999999999
#
# number of rings (size 3 to 8) (size 9 to 14) (size 15 to 20)
#    1.200    0.800    0.000    4.200    0.000   12.800 
#    0.000    0.000    0.000   14.400    0.000    0.000 
#    0.000  224.000    0.000    0.000    0.000    0.000 
#
# Total GULP energy -111576.173731 kJ/mol
# GULP energy per Si atom -5578.808687 kJ/mol
# Density = 2.517159 g / cm^3
# Si number density = 25.229017 Si / 1000 Ang^3
#
#
#
# Elastic Constant Matrix: (Units=GPa)
#
#
# Indices 1 2 3 4 5 6 
#
# 1 65.2182 5.8301 21.7573 0.0000 0.0000 0.0000
# 2 5.8301 88.3066 -13.4532 0.0000 0.0000 0.0000
# 3 21.7573 -13.4532 168.7753 0.0000 0.0000 0.0000
# 4 0.0000 0.0000 0.0000 21.1172 0.0000 0.0000
# 5 0.0000 0.0000 0.0000 0.0000 249.2134 0.0000
# 6 0.0000 0.0000 0.0000 0.0000 0.0000 12.3462
#
#
#
# Elastic Compliance Matrix: (Units=1/GPa)
#
#
# Indices 1 2 3 4 5 6 
#
# 1 0.016192 -0.001404 -0.002199 0.000000 0.000000 0.000000
# 2 -0.001404 0.011585 0.001104 0.000000 0.000000 0.000000
# 3 -0.002199 0.001104 0.006297 0.000000 0.000000 0.000000
# 4 0.000000 0.000000 0.000000 0.047355 0.000000 0.000000
# 5 0.000000 0.000000 0.000000 0.000000 0.004013 0.000000
# 6 0.000000 0.000000 0.000000 0.000000 0.000000 0.080996
#
#
# Mechanical properties :
#
#
# Convention : Reuss Voigt Hill
#
# Bulk Modulus (GPa) = 34.39237 38.95204 36.67221
# Shear Modulus (GPa) = 27.60481 77.07977 52.34229
#
# Velocity S-wave (km/s) = 3.31141 5.53339 4.55981
# Velocity P-wave (km/s) = 5.31811 7.50316 6.50306
#
# Compressibility (1/GPa) = 0.02907621
#
# Stress axis : x y z
#
# Youngs Moduli (GPa) = 61.75742 86.31745 158.81591
#
# Poissons Ratio (x) = 0.12120 0.34929
# Poissons Ratio (y) = 0.08671 -0.17541
# Poissons Ratio (z) = 0.13582 -0.09533
#
# Static dielectric constant tensor:
#      x y z
#    x 1.810350 0.000000 0.000000 
#    y 0.000000 2.012530 0.000000 
#    z 0.000000 0.000000 2.023110 
# 
# From -- ./inp_files/752.got.cif
#   From: 2010.05.17/outbox.cif.g08.bks.cpg/sg37_1_cif.got.tgz:752.got - 2010.06.03 17:53:42.
