data_PCOD9354582
_publ_section_title
;
Structure prediction by ZEFSAII (Michael W. Deem and Ramdas Pophale) SiO2 
 PCOD9354582
Probable space group: C C C 2
;
_chemical_formula_sum "Si O2"
_cell_formula_units_Z 48
_cell_length_a 5.640806
_cell_length_b 14.012471
_cell_length_c 26.573428
_cell_angle_alpha 90.000000
_cell_angle_beta 90.000000
_cell_angle_gamma 90.000000
_cell_volume 2100.407077
_symmetry_space_group_name_H-M "C C C 2"
_symmetry_group_IT_number 37
_symmetry_cell_setting 'orthorhombic'
loop_
_space_group_symop_operation_xyz
x,y,z
-x,-y,z
-x,y,1/2+z
x,-y,1/2+z
1/2+x,1/2+y,z
1/2-x,1/2-y,z
1/2-x,1/2+y,1/2+z
1/2+x,1/2-y,1/2+z
loop_
_atom_site_type_symbol
_atom_site_label
_atom_site_fract_x
_atom_site_fract_y
_atom_site_fract_z
Si Si1 0.638234 0.599568 0.389510
Si Si2 0.874274 0.851045 0.793007
Si Si3 0.111284 0.148579 0.581659
Si Si4 0.000000 0.500000 0.825938
Si Si5 0.997084 0.190478 0.687146
Si Si6 0.250000 0.250000 0.015092
Si Si7 0.621664 0.099360 0.987288
O O1 0.500000 0.500000 0.391948
O O2 0.503915 0.656993 0.346677
O O3 0.678407 0.627490 0.446738
O O4 0.887550 0.578314 0.362804
O O5 0.750000 0.750000 0.788377
O O6 0.699382 0.942464 0.795372
O O7 0.028348 0.857979 0.741956
O O8 0.250000 0.250000 0.584171
O O9 0.269473 0.087342 0.543319
O O10 0.042600 0.123310 0.638524
O O11 0.876235 0.173595 0.551178
O O12 0.750000 0.250000 0.678502
O O13 0.250000 0.250000 0.688774
O O14 0.436913 0.185935 0.985759
O O15 0.500000 0.000000 0.972511
#
# Coordination Sequence:
#
# PCOD9354582 Si02
#       7
#     8   8   8   4   8   4   8
#     4  10  23  44  64  92 140 182 222 293 354 416
#     4  10  24  43  70  99 131 180 238 287 358 435
#     4   9  20  41  65  98 133 175 222 281 349 418
#     4  10  22  46  62  90 138 178 222 290 352 414
#     4  10  21  41  72 102 139 182 230 295 360 421
#     4  10  22  42  66  98 132 172 228 282 346 430
#     4  11  24  43  66  97 137 182 231 285 356 423
#
# _framework density 22.852713000000001
#
# number of rings (size 3 to 8) (size 9 to 14) (size 15 to 20)
#    0.000    2.000    1.667    0.000    7.000    0.000 
#   13.500    0.000    7.333    0.000    0.000    0.000 
#    0.000    0.000    0.000    0.000    0.000    0.000 
#
# Total GULP energy -133818.181293 kJ/mol
# GULP energy per Si atom -5575.757554 kJ/mol
# Density = 2.280070 g / cm^3
# Si number density = 22.852713 Si / 1000 Ang^3
#
#
#
# Elastic Constant Matrix: (Units=GPa)
#
#
# Indices 1 2 3 4 5 6 
#
# 1 79.8679 15.0115 41.1692 0.0000 0.0000 0.0000
# 2 15.0115 61.0375 45.1997 0.0000 0.0000 0.0000
# 3 41.1692 45.1997 186.5668 0.0000 0.0000 0.0000
# 4 0.0000 0.0000 0.0000 16.4465 0.0000 0.0000
# 5 0.0000 0.0000 0.0000 0.0000 27.2591 0.0000
# 6 0.0000 0.0000 0.0000 0.0000 0.0000 17.8890
#
#
#
# Elastic Compliance Matrix: (Units=1/GPa)
#
#
# Indices 1 2 3 4 5 6 
#
# 1 0.014229 -0.001431 -0.002793 0.000000 0.000000 0.000000
# 2 -0.001431 0.020109 -0.004556 0.000000 0.000000 0.000000
# 3 -0.002793 -0.004556 0.007080 0.000000 0.000000 0.000000
# 4 0.000000 0.000000 0.000000 0.060803 0.000000 0.000000
# 5 0.000000 0.000000 0.000000 0.000000 0.036685 0.000000
# 6 0.000000 0.000000 0.000000 0.000000 0.000000 0.055900
#
#
# Mechanical properties :
#
#
# Convention : Reuss Voigt Hill
#
# Bulk Modulus (GPa) = 41.91462 58.91476 50.41469
# Shear Modulus (GPa) = 22.69417 27.39171 25.04294
#
# Velocity S-wave (km/s) = 3.15471 3.46586 3.31394
# Velocity P-wave (km/s) = 5.62589 6.46935 6.06230
#
# Compressibility (1/GPa) = 0.02385802
#
# Stress axis : x y z
#
# Youngs Moduli (GPa) = 70.27654 49.72839 141.23894
#
# Poissons Ratio (x) = 0.07117 0.39452
# Poissons Ratio (y) = 0.10057 0.64350
# Poissons Ratio (z) = 0.19630 0.22657
#
# Static dielectric constant tensor:
#      x y z
#    x 2.035300 0.000000 0.000000 
#    y 0.000000 1.841510 0.000000 
#    z 0.000000 0.000000 1.899570 
# 
# From -- ./inp_files/19355.got.cif
#   From: 2010.05.17/outbox.cif.g08.bks.cpg/sg37_10_cif.got.tgz:19355.got - 2010.06.03 17:53:42.
