data_PCOD9354773
_publ_section_title
;
Structure prediction by ZEFSAII (Michael W. Deem and Ramdas Pophale) SiO2 
 PCOD9354773
Probable space group: C C C 2
;
_chemical_formula_sum "Si O2"
_cell_formula_units_Z 48
_cell_length_a 4.917633
_cell_length_b 14.374856
_cell_length_c 29.984775
_cell_angle_alpha 90.000000
_cell_angle_beta 90.000000
_cell_angle_gamma 90.000000
_cell_volume 2119.631728
_symmetry_space_group_name_H-M "C C C 2"
_symmetry_group_IT_number 37
_symmetry_cell_setting 'orthorhombic'
loop_
_space_group_symop_operation_xyz
x,y,z
-x,-y,z
-x,y,1/2+z
x,-y,1/2+z
1/2+x,1/2+y,z
1/2-x,1/2-y,z
1/2-x,1/2+y,1/2+z
1/2+x,1/2-y,1/2+z
loop_
_atom_site_type_symbol
_atom_site_label
_atom_site_fract_x
_atom_site_fract_y
_atom_site_fract_z
Si Si1 0.000000 0.500000 0.205680
Si Si2 0.255092 0.637753 0.343344
Si Si3 0.000000 0.000000 0.271413
Si Si4 0.247465 0.638926 0.898639
Si Si5 0.243820 0.435796 0.493914
Si Si6 0.476525 0.611629 0.082723
Si Si7 0.038459 0.670084 0.636564
O O1 0.748361 0.516979 0.238334
O O2 0.986910 0.589655 0.173582
O O3 0.250000 0.750000 0.335956
O O4 0.390595 0.583829 0.302505
O O5 0.447368 0.613238 0.385382
O O6 0.954958 0.608660 0.359030
O O7 0.250000 0.750000 0.898446
O O8 0.155948 0.608703 0.947461
O O9 0.500000 0.500000 0.482734
O O10 0.358197 0.371610 0.533514
O O11 0.000000 0.500000 0.511610
O O12 0.500000 0.500000 0.089194
O O13 0.779837 0.644346 0.093172
O O14 0.272632 0.661385 0.117363
O O15 0.250000 0.750000 0.655780
#
# Coordination Sequence:
#
# PCOD9354773 Si02
#       7
#     4   8   4   8   8   8   8
#     4  12  26  46  66 100 130 164 218 290 344 414
#     4  10  23  42  64  94 130 171 218 271 330 402
#     4  12  26  42  72  94 124 176 214 274 360 408
#     4  10  22  40  61  91 135 175 213 272 324 377
#     4  11  23  37  62  99 130 176 223 267 317 380
#     4  11  21  43  65  93 140 178 219 278 328 393
#     4  12  25  43  71  98 130 178 221 273 345 414
#
# _framework density 22.645441999999999
#
# number of rings (size 3 to 8) (size 9 to 14) (size 15 to 20)
#    0.000    1.000    1.667    5.500    3.500    2.667 
#    0.000    1.667    0.000    0.000    0.000    0.000 
#    0.000    0.000    0.000    0.000    0.000    0.000 
#
# Total GULP energy -133818.847150 kJ/mol
# GULP energy per Si atom -5575.785298 kJ/mol
# Density = 2.259390 g / cm^3
# Si number density = 22.645442 Si / 1000 Ang^3
#
#
#
# Elastic Constant Matrix: (Units=GPa)
#
#
# Indices 1 2 3 4 5 6 
#
# 1 120.6232 -13.5435 9.9511 0.0000 0.0000 0.0000
# 2 -13.5435 83.0741 16.6583 0.0000 0.0000 0.0000
# 3 9.9511 16.6583 111.2606 0.0000 0.0000 0.0000
# 4 0.0000 0.0000 0.0000 -24.9187 0.0000 0.0000
# 5 0.0000 0.0000 0.0000 0.0000 654.8990 0.0000
# 6 0.0000 0.0000 0.0000 0.0000 0.0000 23.7453
#
#
#
# Elastic Compliance Matrix: (Units=1/GPa)
#
#
# Indices 1 2 3 4 5 6 
#
# 1 0.008552 0.001596 -0.001004 0.000000 0.000000 0.000000
# 2 0.001596 0.012708 -0.002045 0.000000 0.000000 0.000000
# 3 -0.001004 -0.002045 0.009384 0.000000 0.000000 0.000000
# 4 0.000000 0.000000 0.000000 -0.040130 0.000000 0.000000
# 5 0.000000 0.000000 0.000000 0.000000 0.001527 0.000000
# 6 0.000000 0.000000 0.000000 0.000000 0.000000 0.042114
#
#
# Mechanical properties :
#
#
# Convention : Reuss Voigt Hill
#
# Bulk Modulus (GPa) = 36.05335 37.89886 36.97611
# Shear Modulus (GPa) = 107.97579 150.87125 129.42352
#
# Velocity S-wave (km/s) = 6.91264 8.17116 7.56810
# Velocity P-wave (km/s) = 8.92570 10.28571 9.62975
#
# Compressibility (1/GPa) = 0.02773667
#
# Stress axis : x y z
#
# Youngs Moduli (GPa) = 116.92845 78.69239 106.56518
#
# Poissons Ratio (x) = -0.12556 0.10697
# Poissons Ratio (y) = -0.18657 0.21796
# Poissons Ratio (z) = 0.11737 0.16095
#
# Static dielectric constant tensor:
#      x y z
#    x 0.196480 0.000000 0.000000 
#    y 0.000000 2.079290 0.000000 
#    z 0.000000 0.000000 1.802490 
# 
# From -- ./inp_files/19345.got.cif
#   From: 2010.05.17/outbox.cif.g08.bks.cpg/sg37_10_cif.got.tgz:19345.got - 2010.06.03 17:53:42.
