data_PCOD9354385
_publ_section_title
;
Structure prediction by ZEFSAII (Michael W. Deem and Ramdas Pophale) SiO2 
 PCOD9354385
Probable space group: C C C 2
;
_chemical_formula_sum "Si O2"
_cell_formula_units_Z 60
_cell_length_a 9.376716
_cell_length_b 27.389398
_cell_length_c 10.685260
_cell_angle_alpha 90.000000
_cell_angle_beta 90.000000
_cell_angle_gamma 90.000000
_cell_volume 2744.216324
_symmetry_space_group_name_H-M "C C C 2"
_symmetry_group_IT_number 37
_symmetry_cell_setting 'orthorhombic'
loop_
_space_group_symop_operation_xyz
x,y,z
-x,-y,z
-x,y,1/2+z
x,-y,1/2+z
1/2+x,1/2+y,z
1/2-x,1/2-y,z
1/2-x,1/2+y,1/2+z
1/2+x,1/2-y,1/2+z
loop_
_atom_site_type_symbol
_atom_site_label
_atom_site_fract_x
_atom_site_fract_y
_atom_site_fract_z
Si Si1 0.042744 0.295908 0.853530
Si Si2 0.415584 0.547493 0.513318
Si Si3 0.111977 0.459388 0.886773
Si Si4 0.761085 0.630525 0.723508
Si Si5 0.522894 0.881650 0.547272
Si Si6 0.750000 0.250000 0.518316
Si Si7 0.799314 0.328848 0.713958
Si Si8 0.553326 0.605108 0.276102
O O1 0.165733 0.319325 0.767469
O O2 0.897496 0.288169 0.780603
O O3 0.110451 0.253380 0.932715
O O4 0.007233 0.339807 0.947688
O O5 0.500000 0.500000 0.552630
O O6 0.263171 0.529731 0.455550
O O7 0.505921 0.573608 0.399390
O O8 0.403273 0.577999 0.643781
O O9 0.165936 0.416410 0.793007
O O10 0.000000 0.500000 0.834006
O O11 0.016970 0.433089 0.991617
O O12 0.813469 0.621847 0.584119
O O13 0.595192 0.631440 0.744556
O O14 0.415494 0.867863 0.660993
O O15 0.736155 0.299508 0.597223
O O16 0.681785 0.356771 0.793624
#
# Coordination Sequence:
#
# PCOD9354385 Si02
#       8
#     8   8   8   8   8   4   8   8
#     4   9  20  39  65  91 129 169 213 276 332 406
#     4  11  25  43  61  97 137 181 227 291 342 397
#     4  10  21  37  57  86 122 168 221 281 330 391
#     4   9  21  37  59  89 120 170 222 266 342 390
#     4   9  18  38  59  84 119 164 221 262 324 397
#     4  10  22  40  68  98 138 160 220 294 336 406
#     4  10  21  41  65  95 129 177 217 275 341 406
#     4  11  24  42  67  94 136 181 228 280 344 410
#
# _framework density 21.864166000000001
#
# number of rings (size 3 to 8) (size 9 to 14) (size 15 to 20)
#    0.000    2.133    1.333    0.400    5.600    3.733 
#    2.400    0.000    0.000    3.200    0.000    0.000 
#    0.000    0.000    0.000    0.000    0.000    0.000 
#
# Total GULP energy -167107.145723 kJ/mol
# GULP energy per Si atom -5570.238191 kJ/mol
# Density = 2.181440 g / cm^3
# Si number density = 21.864166 Si / 1000 Ang^3
#
#
#
# Elastic Constant Matrix: (Units=GPa)
#
#
# Indices 1 2 3 4 5 6 
#
# 1 76.0810 24.2410 31.0958 0.0000 0.0000 0.0000
# 2 24.2410 39.5919 7.9924 0.0000 0.0000 0.0000
# 3 31.0958 7.9924 51.5165 0.0000 0.0000 0.0000
# 4 0.0000 0.0000 0.0000 14.4197 0.0000 0.0000
# 5 0.0000 0.0000 0.0000 0.0000 19.8418 0.0000
# 6 0.0000 0.0000 0.0000 0.0000 0.0000 27.2381
#
#
#
# Elastic Compliance Matrix: (Units=1/GPa)
#
#
# Indices 1 2 3 4 5 6 
#
# 1 0.021061 -0.010663 -0.011058 0.000000 0.000000 0.000000
# 2 -0.010663 0.031473 0.001553 0.000000 0.000000 0.000000
# 3 -0.011058 0.001553 0.025845 0.000000 0.000000 0.000000
# 4 0.000000 0.000000 0.000000 0.069349 0.000000 0.000000
# 5 0.000000 0.000000 0.000000 0.000000 0.050399 0.000000
# 6 0.000000 0.000000 0.000000 0.000000 0.000000 0.036713
#
#
# Mechanical properties :
#
#
# Convention : Reuss Voigt Hill
#
# Bulk Modulus (GPa) = 26.28580 32.64975 29.46778
# Shear Modulus (GPa) = 17.36976 19.22393 18.29684
#
# Velocity S-wave (km/s) = 2.82164 2.96842 2.89596
# Velocity P-wave (km/s) = 4.76067 5.16857 4.96881
#
# Compressibility (1/GPa) = 0.03804335
#
# Stress axis : x y z
#
# Youngs Moduli (GPa) = 47.48119 31.77367 38.69196
#
# Poissons Ratio (x) = 0.33879 0.42787
# Poissons Ratio (y) = 0.50628 -0.06010
# Poissons Ratio (z) = 0.52506 -0.04935
#
# Static dielectric constant tensor:
#      x y z
#    x 1.845970 0.000000 0.000000 
#    y 0.000000 1.791560 0.000000 
#    z 0.000000 0.000000 1.924760 
# 
# From -- ./inp_files/6534.got.cif
#   From: 2010.05.17/outbox.cif.g08.bks.cpg/sg37_4_cif.got.tgz:6534.got - 2010.06.03 17:53:42.
