data_PCOD9354635
_publ_section_title
;
Structure prediction by ZEFSAII (Michael W. Deem and Ramdas Pophale) SiO2 
 PCOD9354635
Probable space group: C C C 2
;
_chemical_formula_sum "Si O2"
_cell_formula_units_Z 40
_cell_length_a 12.278852
_cell_length_b 13.646994
_cell_length_c 8.420028
_cell_angle_alpha 90.000000
_cell_angle_beta 90.000000
_cell_angle_gamma 90.000000
_cell_volume 1410.939205
_symmetry_space_group_name_H-M "C C C 2"
_symmetry_group_IT_number 37
_symmetry_cell_setting 'orthorhombic'
loop_
_space_group_symop_operation_xyz
x,y,z
-x,-y,z
-x,y,1/2+z
x,-y,1/2+z
1/2+x,1/2+y,z
1/2-x,1/2-y,z
1/2-x,1/2+y,1/2+z
1/2+x,1/2-y,1/2+z
loop_
_atom_site_type_symbol
_atom_site_label
_atom_site_fract_x
_atom_site_fract_y
_atom_site_fract_z
Si Si1 0.250000 0.250000 0.205050
Si Si2 0.564158 0.297109 0.920790
Si Si3 0.154931 0.396828 0.983800
Si Si4 0.500000 0.500000 0.933471
Si Si5 0.137311 0.613675 0.124320
Si Si6 0.856146 0.872705 0.778872
O O1 0.327654 0.314284 0.318350
O O2 0.154214 0.315830 0.121829
O O3 0.533249 0.398535 0.017852
O O4 0.455233 0.299657 0.811729
O O5 0.580811 0.196280 0.016894
O O6 0.100480 0.395259 0.808879
O O7 0.220434 0.131196 0.936028
O O8 0.135207 0.504973 0.051218
O O9 0.402972 0.479483 0.809867
O O10 0.234492 0.857830 0.146466
#
# Coordination Sequence:
#
# PCOD9354635 Si02
#       6
#     4   8   8   4   8   8
#     4  12  24  44  66 112 174 226 286 366 446 544
#     4  10  22  41  75 108 171 231 293 361 456 526
#     4  10  23  44  72 115 171 216 294 358 451 546
#     4   8  18  42  68 120 160 222 284 366 422 538
#     4  10  21  43  77 115 168 229 284 364 449 540
#     4   8  21  43  68 115 167 215 291 351 442 524
#
# _framework density 28.349912
#
# number of rings (size 3 to 8) (size 9 to 14) (size 15 to 20)
#    2.400    0.000    0.000    2.400    2.800    0.800 
#    7.200    0.000    4.400    2.400    0.000    8.400 
#    0.000    0.000    0.000    0.000    0.000    0.400 
#
# Total GULP energy -111459.469217 kJ/mol
# GULP energy per Si atom -5572.973461 kJ/mol
# Density = 2.828539 g / cm^3
# Si number density = 28.349912 Si / 1000 Ang^3
#
#
#
# Elastic Constant Matrix: (Units=GPa)
#
#
# Indices 1 2 3 4 5 6 
#
# 1 145.9206 41.5325 45.1925 0.0000 0.0000 0.0000
# 2 41.5325 283.5675 107.5722 0.0000 0.0000 0.0000
# 3 45.1925 107.5722 156.9737 0.0000 0.0000 0.0000
# 4 0.0000 0.0000 0.0000 136.5368 0.0000 0.0000
# 5 0.0000 0.0000 0.0000 0.0000 40.7692 0.0000
# 6 0.0000 0.0000 0.0000 0.0000 0.0000 56.5624
#
#
#
# Elastic Compliance Matrix: (Units=1/GPa)
#
#
# Indices 1 2 3 4 5 6 
#
# 1 0.007554 -0.000380 -0.001914 0.000000 0.000000 0.000000
# 2 -0.000380 0.004784 -0.003169 0.000000 0.000000 0.000000
# 3 -0.001914 -0.003169 0.009093 0.000000 0.000000 0.000000
# 4 0.000000 0.000000 0.000000 0.007324 0.000000 0.000000
# 5 0.000000 0.000000 0.000000 0.000000 0.024528 0.000000
# 6 0.000000 0.000000 0.000000 0.000000 0.000000 0.017680
#
#
# Mechanical properties :
#
#
# Convention : Reuss Voigt Hill
#
# Bulk Modulus (GPa) = 95.19689 108.33960 101.76825
# Shear Modulus (GPa) = 58.55283 72.91799 65.73541
#
# Velocity S-wave (km/s) = 4.54956 5.07706 4.82053
# Velocity P-wave (km/s) = 7.82624 8.52448 8.18282
#
# Compressibility (1/GPa) = 0.01050454
#
# Stress axis : x y z
#
# Youngs Moduli (GPa) = 132.37812 209.01015 109.96912
#
# Poissons Ratio (x) = 0.07947 0.21051
# Poissons Ratio (y) = 0.05033 0.34852
# Poissons Ratio (z) = 0.25341 0.66241
#
# Static dielectric constant tensor:
#      x y z
#    x 2.255250 0.000000 0.000000 
#    y 0.000000 2.046050 0.000000 
#    z 0.000000 0.000000 2.391010 
# 
# From -- ./inp_files/3903.got.cif
#   From: 2010.05.17/outbox.cif.g08.bks.cpg/sg37_2_cif.got.tgz:3903.got - 2010.06.03 17:53:42.
