data_PCOD9354409
_publ_section_title
;
Structure prediction by ZEFSAII (Michael W. Deem and Ramdas Pophale) SiO2 
 PCOD9354409
Probable space group: C C C 2
;
_chemical_formula_sum "Si O2"
_cell_formula_units_Z 36
_cell_length_a 13.230348
_cell_length_b 14.494144
_cell_length_c 7.807860
_cell_angle_alpha 90.000000
_cell_angle_beta 90.000000
_cell_angle_gamma 90.000000
_cell_volume 1497.255293
_symmetry_space_group_name_H-M "C C C 2"
_symmetry_group_IT_number 37
_symmetry_cell_setting 'orthorhombic'
loop_
_space_group_symop_operation_xyz
x,y,z
-x,-y,z
-x,y,1/2+z
x,-y,1/2+z
1/2+x,1/2+y,z
1/2-x,1/2-y,z
1/2-x,1/2+y,1/2+z
1/2+x,1/2-y,1/2+z
loop_
_atom_site_type_symbol
_atom_site_label
_atom_site_fract_x
_atom_site_fract_y
_atom_site_fract_z
Si Si1 0.347156 0.317183 0.108760
Si Si2 0.934862 0.201024 0.967414
Si Si3 0.878564 0.400986 0.042204
Si Si4 0.500000 0.000000 0.287447
Si Si5 0.202110 0.145025 0.763291
O O1 0.250000 0.250000 0.136447
O O2 0.446134 0.279993 0.001699
O O3 0.393021 0.345801 0.293016
O O4 0.310885 0.387164 0.958818
O O5 0.881963 0.300832 0.961442
O O6 0.894549 0.152254 0.139546
O O7 0.972363 0.412539 0.173117
O O8 0.780069 0.413117 0.152607
O O9 0.904328 0.475824 0.901475
O O10 0.250000 0.250000 0.773691
#
# Coordination Sequence:
#
# PCOD9354409 Si02
#       5
#     8   8   8   4   8
#     4  11  21  32  54  89 119 159 190 242 334 364
#     4  11  20  37  58  86 127 156 196 262 316 378
#     4  10  21  38  55  88 126 162 220 245 311 383
#     4  10  22  36  60  86 126 184 202 264 308 360
#     4   9  20  36  54  83 117 157 195 255 313 371
#
# _framework density 24.043997000000001
#
# number of rings (size 3 to 8) (size 9 to 14) (size 15 to 20)
#    0.000    1.778    2.222    3.333    6.222    0.000 
#    4.000    0.000    0.000    0.000    0.000    4.667 
#    0.000    0.000    0.000    0.000    0.000    0.000 
#
# Total GULP energy -100245.022762 kJ/mol
# GULP energy per Si atom -5569.167931 kJ/mol
# Density = 2.398927 g / cm^3
# Si number density = 24.043997 Si / 1000 Ang^3
#
#
#
# Elastic Constant Matrix: (Units=GPa)
#
#
# Indices 1 2 3 4 5 6 
#
# 1 129.0963 -1.4821 37.0461 0.0000 0.0000 0.0000
# 2 -1.4821 15.6049 14.1227 0.0000 0.0000 0.0000
# 3 37.0461 14.1227 137.2402 0.0000 0.0000 0.0000
# 4 0.0000 0.0000 0.0000 12.2131 0.0000 0.0000
# 5 0.0000 0.0000 0.0000 0.0000 37.4781 0.0000
# 6 0.0000 0.0000 0.0000 0.0000 0.0000 17.9628
#
#
#
# Elastic Compliance Matrix: (Units=1/GPa)
#
#
# Indices 1 2 3 4 5 6 
#
# 1 0.008539 0.003194 -0.002634 0.000000 0.000000 0.000000
# 2 0.003194 0.071859 -0.008257 0.000000 0.000000 0.000000
# 3 -0.002634 -0.008257 0.008847 0.000000 0.000000 0.000000
# 4 0.000000 0.000000 0.000000 0.081880 0.000000 0.000000
# 5 0.000000 0.000000 0.000000 0.000000 0.026682 0.000000
# 6 0.000000 0.000000 0.000000 0.000000 0.000000 0.055671
#
#
# Mechanical properties :
#
#
# Convention : Reuss Voigt Hill
#
# Bulk Modulus (GPa) = 13.54057 42.36830 27.95444
# Shear Modulus (GPa) = 17.03657 29.01443 23.02550
#
# Velocity S-wave (km/s) = 2.66476 3.47756 3.09793
# Velocity P-wave (km/s) = 3.88738 5.81240 4.94448
#
# Compressibility (1/GPa) = 0.07385212
#
# Stress axis : x y z
#
# Youngs Moduli (GPa) = 117.11552 13.91621 113.03174
#
# Poissons Ratio (x) = -0.04445 0.29768
# Poissons Ratio (y) = -0.37412 0.93329
# Poissons Ratio (z) = 0.30843 0.11490
#
# Static dielectric constant tensor:
#      x y z
#    x 2.008050 0.000000 0.000000 
#    y 0.000000 1.900840 0.000000 
#    z 0.000000 0.000000 1.988280 
# 
# From -- ./inp_files/3295.got.cif
#   From: 2010.05.17/outbox.cif.g08.bks.cpg/sg37_2_cif.got.tgz:3295.got - 2010.06.03 17:53:42.
