data_PCOD9354295
_publ_section_title
;
Structure prediction by ZEFSAII (Michael W. Deem and Ramdas Pophale) SiO2 
 PCOD9354295
Probable space group: C C C 2
;
_chemical_formula_sum "Si O2"
_cell_formula_units_Z 52
_cell_length_a 16.611264
_cell_length_b 16.763663
_cell_length_c 9.076891
_cell_angle_alpha 90.000000
_cell_angle_beta 90.000000
_cell_angle_gamma 90.000000
_cell_volume 2527.602186
_symmetry_space_group_name_H-M "C C C 2"
_symmetry_group_IT_number 37
_symmetry_cell_setting 'orthorhombic'
loop_
_space_group_symop_operation_xyz
x,y,z
-x,-y,z
-x,y,1/2+z
x,-y,1/2+z
1/2+x,1/2+y,z
1/2-x,1/2-y,z
1/2-x,1/2+y,1/2+z
1/2+x,1/2-y,1/2+z
loop_
_atom_site_type_symbol
_atom_site_label
_atom_site_fract_x
_atom_site_fract_y
_atom_site_fract_z
Si Si1 0.582519 0.924436 0.339540
Si Si2 0.000000 0.000000 0.576373
Si Si3 0.658086 0.467071 0.393442
Si Si4 0.253502 0.075180 0.173009
Si Si5 0.500000 0.000000 0.092985
Si Si6 0.083142 0.244585 0.446398
Si Si7 0.750000 0.750000 0.282687
Si Si8 0.952280 0.843930 0.743853
O O1 0.662580 0.946614 0.250854
O O2 0.516262 0.929849 0.209259
O O3 0.570379 0.983848 0.476399
O O4 0.575925 0.838453 0.413817
O O5 0.997836 0.919687 0.671468
O O6 0.080330 0.000547 0.479144
O O7 0.687146 0.531112 0.274352
O O8 0.729316 0.450622 0.509387
O O9 0.624866 0.385145 0.321327
O O10 0.257412 0.170967 0.184890
O O11 0.172648 0.229750 0.383172
O O12 0.073689 0.215658 0.613668
O O13 0.013713 0.198757 0.354932
#
# Coordination Sequence:
#
# PCOD9354295 Si02
#       8
#     8   4   8   8   4   8   4   8
#     4  10  22  42  70  96 134 172 228 288 348 396
#     4  12  22  36  58  92 130 176 222 268 314 392
#     4  12  24  38  66  97 132 176 229 273 329 406
#     4  11  24  42  63  95 136 178 218 276 337 399
#     4  10  20  42  72 102 116 174 232 290 336 406
#     4  11  24  42  63  95 136 178 218 276 337 399
#     4  10  24  42  64  86 140 178 210 268 344 402
#     4  12  24  38  66  97 132 176 229 273 329 406
#
# _framework density 20.572856000000002
#
# number of rings (size 3 to 8) (size 9 to 14) (size 15 to 20)
#    0.000    0.923    3.077    4.154    0.000    0.000 
#    0.000    0.769    0.000    0.000    0.000    0.000 
#    0.000    0.000    0.000    0.000    0.000    0.000 
#
# Total GULP energy -145091.531005 kJ/mol
# GULP energy per Si atom -5580.443500 kJ/mol
# Density = 2.052603 g / cm^3
# Si number density = 20.572856 Si / 1000 Ang^3
#
#
#
# Elastic Constant Matrix: (Units=GPa)
#
#
# Indices 1 2 3 4 5 6 
#
# 1 48.8157 21.1303 18.9939 0.0000 0.0000 0.0000
# 2 21.1303 47.6653 37.4448 0.0000 0.0000 0.0000
# 3 18.9939 37.4448 109.2171 0.0000 0.0000 0.0000
# 4 0.0000 0.0000 0.0000 20.9390 0.0000 0.0000
# 5 0.0000 0.0000 0.0000 0.0000 35.4213 0.0000
# 6 0.0000 0.0000 0.0000 0.0000 0.0000 31.3323
#
#
#
# Elastic Compliance Matrix: (Units=1/GPa)
#
#
# Indices 1 2 3 4 5 6 
#
# 1 0.025396 -0.010659 -0.000762 0.000000 0.000000 0.000000
# 2 -0.010659 0.033187 -0.009524 0.000000 0.000000 0.000000
# 3 -0.000762 -0.009524 0.012554 0.000000 0.000000 0.000000
# 4 0.000000 0.000000 0.000000 0.047758 0.000000 0.000000
# 5 0.000000 0.000000 0.000000 0.000000 0.028232 0.000000
# 6 0.000000 0.000000 0.000000 0.000000 0.000000 0.031916
#
#
# Mechanical properties :
#
#
# Convention : Reuss Voigt Hill
#
# Bulk Modulus (GPa) = 34.19356 40.09289 37.14323
# Shear Modulus (GPa) = 21.67485 26.08046 23.87766
#
# Velocity S-wave (km/s) = 3.24939 3.56436 3.41051
# Velocity P-wave (km/s) = 5.54390 6.03905 5.79676
#
# Compressibility (1/GPa) = 0.02924527
#
# Stress axis : x y z
#
# Youngs Moduli (GPa) = 39.37670 30.13219 79.65597
#
# Poissons Ratio (x) = 0.32119 0.06070
# Poissons Ratio (y) = 0.41973 0.75867
# Poissons Ratio (z) = 0.03001 0.28699
#
# Static dielectric constant tensor:
#      x y z
#    x 1.808090 0.000000 0.000000 
#    y 0.000000 1.780410 0.000000 
#    z 0.000000 0.000000 1.720420 
# 
# From -- ./inp_files/4068.got.cif
#   From: 2010.05.17/outbox.cif.g08.bks.cpg/sg37_3_cif.got.tgz:4068.got - 2010.06.03 17:53:42.
