data_PCOD9354354
_publ_section_title
;
Structure prediction by ZEFSAII (Michael W. Deem and Ramdas Pophale) SiO2 
 PCOD9354354
Probable space group: C C C 2
;
_chemical_formula_sum "Si O2"
_cell_formula_units_Z 48
_cell_length_a 32.846787
_cell_length_b 9.310683
_cell_length_c 8.472402
_cell_angle_alpha 90.000000
_cell_angle_beta 90.000000
_cell_angle_gamma 90.000000
_cell_volume 2591.080995
_symmetry_space_group_name_H-M "C C C 2"
_symmetry_group_IT_number 37
_symmetry_cell_setting 'orthorhombic'
loop_
_space_group_symop_operation_xyz
x,y,z
-x,-y,z
-x,y,1/2+z
x,-y,1/2+z
1/2+x,1/2+y,z
1/2-x,1/2-y,z
1/2-x,1/2+y,1/2+z
1/2+x,1/2-y,1/2+z
loop_
_atom_site_type_symbol
_atom_site_label
_atom_site_fract_x
_atom_site_fract_y
_atom_site_fract_z
Si Si1 0.541952 0.664464 0.474870
Si Si2 0.789847 0.338088 0.354335
Si Si3 0.368818 0.663463 0.972683
Si Si4 0.631182 0.336536 0.354233
Si Si5 0.958049 0.835535 0.852044
Si Si6 0.289847 0.838088 0.972580
O O1 0.586374 0.721899 0.425141
O O2 0.540063 0.662410 0.663457
O O3 0.542223 0.500000 0.413457
O O4 0.500000 0.732752 0.413456
O O5 0.750000 0.250000 0.406260
O O6 0.831036 0.258905 0.409037
O O7 0.790107 0.338727 0.163458
O O8 0.788079 0.500000 0.413457
O O9 0.364593 0.499999 0.913459
O O10 0.368124 0.659492 0.163458
O O11 0.331036 0.758903 0.917879
O O12 0.586374 0.278100 0.401774
O O13 0.250000 0.750000 0.920655
#
# Coordination Sequence:
#
# PCOD9354354 Si02
#       6
#     8   8   8   8   8   8
#     4   9  15  24  40  64  94 124 156 194 234 275
#     4  10  21  36  53  74  99 126 159 198 239 286
#     4   9  18  31  48  72 100 128 160 199 239 282
#     4   9  18  31  48  72 100 128 160 199 239 282
#     4   9  15  24  40  64  94 124 156 194 234 275
#     4  10  21  36  53  74  99 126 159 198 239 286
#
# _framework density 18.525086000000002
#
# number of rings (size 3 to 8) (size 9 to 14) (size 15 to 20)
#    0.000    2.667    0.000    3.000    0.000    3.333 
#    0.000    0.000    0.000    1.000    0.000    7.000 
#    0.000    0.000    0.000    0.000    0.000    0.000 
#
# Total GULP energy -133726.118757 kJ/mol
# GULP energy per Si atom -5571.921615 kJ/mol
# Density = 1.848292 g / cm^3
# Si number density = 18.525086 Si / 1000 Ang^3
#
#
#
# Elastic Constant Matrix: (Units=GPa)
#
#
# Indices 1 2 3 4 5 6 
#
# 1 248.5012 87.8113 34.8249 0.0000 0.0000 0.0000
# 2 87.8113 83.6113 8.8072 0.0000 0.0000 0.0000
# 3 34.8249 8.8072 14.7431 0.0000 0.0000 0.0000
# 4 0.0000 0.0000 0.0000 19.8135 0.0000 0.0000
# 5 0.0000 0.0000 0.0000 0.0000 19.2726 0.0000
# 6 0.0000 0.0000 0.0000 0.0000 0.0000 24.0135
#
#
#
# Elastic Compliance Matrix: (Units=1/GPa)
#
#
# Indices 1 2 3 4 5 6 
#
# 1 0.009180 -0.007851 -0.016994 0.000000 0.000000 0.000000
# 2 -0.007851 0.019478 0.006909 0.000000 0.000000 0.000000
# 3 -0.016994 0.006909 0.103843 0.000000 0.000000 0.000000
# 4 0.000000 0.000000 0.000000 0.050471 0.000000 0.000000
# 5 0.000000 0.000000 0.000000 0.000000 0.051887 0.000000
# 6 0.000000 0.000000 0.000000 0.000000 0.000000 0.041643
#
#
# Mechanical properties :
#
#
# Convention : Reuss Voigt Hill
#
# Bulk Modulus (GPa) = 10.34885 67.74916 39.04900
# Shear Modulus (GPa) = 14.51032 26.98073 20.74552
#
# Velocity S-wave (km/s) = 2.80175 3.82048 3.35006
# Velocity P-wave (km/s) = 4.00811 7.49082 6.00738
#
# Compressibility (1/GPa) = 0.09662908
#
# Stress axis : x y z
#
# Youngs Moduli (GPa) = 108.93354 51.34092 9.62994
#
# Poissons Ratio (x) = 0.40308 0.16365
# Poissons Ratio (y) = 0.85523 -0.06654
# Poissons Ratio (z) = 1.85122 -0.35473
#
# Static dielectric constant tensor:
#      x y z
#    x 1.720210 0.000000 0.000000 
#    y 0.000000 1.588080 0.000000 
#    z 0.000000 0.000000 1.635210 
# 
# From -- ./inp_files/2391.got.cif
#   From: 2010.05.17/outbox.cif.g08.bks.cpg/sg37_2_cif.got.tgz:2391.got - 2010.06.03 17:53:42.
