data_PCOD9354357
_publ_section_title
;
Structure prediction by ZEFSAII (Michael W. Deem and Ramdas Pophale) SiO2 
 PCOD9354357
Probable space group: C C C 2
;
_chemical_formula_sum "Si O2"
_cell_formula_units_Z 56
_cell_length_a 5.134976
_cell_length_b 15.309392
_cell_length_c 33.560291
_cell_angle_alpha 90.000000
_cell_angle_beta 90.000000
_cell_angle_gamma 90.000000
_cell_volume 2638.287255
_symmetry_space_group_name_H-M "C C C 2"
_symmetry_group_IT_number 37
_symmetry_cell_setting 'orthorhombic'
loop_
_space_group_symop_operation_xyz
x,y,z
-x,-y,z
-x,y,1/2+z
x,-y,1/2+z
1/2+x,1/2+y,z
1/2-x,1/2-y,z
1/2-x,1/2+y,1/2+z
1/2+x,1/2-y,1/2+z
loop_
_atom_site_type_symbol
_atom_site_label
_atom_site_fract_x
_atom_site_fract_y
_atom_site_fract_z
Si Si1 0.503480 0.686550 0.253030
Si Si2 0.754199 0.144642 0.057047
Si Si3 0.992546 0.104402 0.426115
Si Si4 0.263741 0.442118 0.186970
Si Si5 0.996186 0.811813 0.842300
Si Si6 0.482639 0.895147 0.970567
Si Si7 0.765367 0.645219 0.103932
O O1 0.750000 0.750000 0.253665
O O2 0.595734 0.610754 0.222927
O O3 0.481120 0.648394 0.297807
O O4 0.250000 0.750000 0.244026
O O5 0.750000 0.250000 0.058964
O O6 0.533134 0.110442 0.086302
O O7 0.030379 0.114005 0.074886
O O8 0.647594 0.123219 0.013193
O O9 0.765449 0.137639 0.456024
O O10 0.964545 0.125177 0.379767
O O11 0.271721 0.139533 0.439409
O O12 0.000000 0.000000 0.430804
O O13 0.500000 0.500000 0.170919
O O14 0.219942 0.376903 0.150413
O O15 0.000000 0.500000 0.195806
O O16 0.250000 0.750000 0.845506
O O17 0.750000 0.750000 0.844390
O O18 0.500000 0.000000 0.967997
O O19 0.750000 0.750000 0.101001
#
# Coordination Sequence:
#
# PCOD9354357 Si02
#       7
#     8   8   8   8   8   8   8
#     4  10  22  42  65  88 122 164 201 245 309 375
#     4  10  21  37  58  84 110 147 199 246 290 349
#     4  10  21  37  56  82 117 155 190 235 299 360
#     4  12  25  40  62  96 126 156 207 259 306 365
#     4  10  21  38  61  89 115 150 201 247 293 357
#     4  10  21  36  55  81 115 153 192 237 297 358
#     4  10  22  40  60  82 116 157 195 241 303 364
#
# _framework density 21.225894
#
# number of rings (size 3 to 8) (size 9 to 14) (size 15 to 20)
#    0.000    1.714    0.000    3.857    0.000    5.714 
#    0.000    2.143    0.000    0.000    0.000    0.000 
#    0.000    0.000    0.000    0.000    0.000    0.000 
#
# Total GULP energy -156043.556537 kJ/mol
# GULP energy per Si atom -5572.984162 kJ/mol
# Density = 2.117758 g / cm^3
# Si number density = 21.225894 Si / 1000 Ang^3
#
#
#
# Elastic Constant Matrix: (Units=GPa)
#
#
# Indices 1 2 3 4 5 6 
#
# 1 157.4608 24.5950 42.5291 0.0000 0.0000 0.0000
# 2 24.5950 32.1988 19.6966 0.0000 0.0000 0.0000
# 3 42.5291 19.6966 128.4282 0.0000 0.0000 0.0000
# 4 0.0000 0.0000 0.0000 24.9942 0.0000 0.0000
# 5 0.0000 0.0000 0.0000 0.0000 30.7530 0.0000
# 6 0.0000 0.0000 0.0000 0.0000 0.0000 4.3640
#
#
#
# Elastic Compliance Matrix: (Units=1/GPa)
#
#
# Indices 1 2 3 4 5 6 
#
# 1 0.007565 -0.004686 -0.001787 0.000000 0.000000 0.000000
# 2 -0.004686 0.037175 -0.004150 0.000000 0.000000 0.000000
# 3 -0.001787 -0.004150 0.009014 0.000000 0.000000 0.000000
# 4 0.000000 0.000000 0.000000 0.040009 0.000000 0.000000
# 5 0.000000 0.000000 0.000000 0.000000 0.032517 0.000000
# 6 0.000000 0.000000 0.000000 0.000000 0.000000 0.229145
#
#
# Mechanical properties :
#
#
# Convention : Reuss Voigt Hill
#
# Bulk Modulus (GPa) = 30.75942 54.63657 42.69800
# Shear Modulus (GPa) = 12.90299 27.44007 20.17153
#
# Velocity S-wave (km/s) = 2.46822 3.59940 3.08608
# Velocity P-wave (km/s) = 4.75875 6.56283 5.73221
#
# Compressibility (1/GPa) = 0.03251036
#
# Stress axis : x y z
#
# Youngs Moduli (GPa) = 132.18346 26.90002 110.93239
#
# Poissons Ratio (x) = 0.12605 0.19819
# Poissons Ratio (y) = 0.61939 0.46033
# Poissons Ratio (z) = 0.23616 0.11163
#
# Static dielectric constant tensor:
#      x y z
#    x 1.794790 0.000000 0.000000 
#    y 0.000000 1.790440 0.000000 
#    z 0.000000 0.000000 1.841320 
# 
# From -- ./inp_files/20149.got.cif
#   From: 2010.05.17/outbox.cif.g08.bks.cpg/sg37_11_cif.got.tgz:20149.got - 2010.06.03 17:53:42.
