data_PCOD9354306
_publ_section_title
;
Structure prediction by ZEFSAII (Michael W. Deem and Ramdas Pophale) SiO2 
 PCOD9354306
Probable space group: C C C 2
;
_chemical_formula_sum "Si O2"
_cell_formula_units_Z 52
_cell_length_a 9.159923
_cell_length_b 19.475694
_cell_length_c 13.727357
_cell_angle_alpha 90.000000
_cell_angle_beta 90.000000
_cell_angle_gamma 90.000000
_cell_volume 2448.903622
_symmetry_space_group_name_H-M "C C C 2"
_symmetry_group_IT_number 37
_symmetry_cell_setting 'orthorhombic'
loop_
_space_group_symop_operation_xyz
x,y,z
-x,-y,z
-x,y,1/2+z
x,-y,1/2+z
1/2+x,1/2+y,z
1/2-x,1/2-y,z
1/2-x,1/2+y,1/2+z
1/2+x,1/2-y,1/2+z
loop_
_atom_site_type_symbol
_atom_site_label
_atom_site_fract_x
_atom_site_fract_y
_atom_site_fract_z
Si Si1 0.541603 0.296914 0.880490
Si Si2 0.829509 0.982184 0.571304
Si Si3 0.663846 0.862175 0.683082
Si Si4 0.330019 0.099726 0.177877
Si Si5 0.250000 0.750000 0.040605
Si Si6 0.750000 0.250000 0.712833
Si Si7 0.750000 0.750000 0.841195
Si Si8 0.881936 0.944852 0.349309
O O1 0.613233 0.260071 0.786711
O O2 0.392411 0.260650 0.903954
O O3 0.524862 0.375661 0.856380
O O4 0.649830 0.293810 0.970086
O O5 0.773013 0.919389 0.638918
O O6 0.822872 0.964107 0.456478
O O7 0.726742 0.047305 0.596027
O O8 0.000000 0.000000 0.589826
O O9 0.504035 0.895778 0.694140
O O10 0.653841 0.801028 0.604060
O O11 0.724356 0.818298 0.774809
O O12 0.274119 0.177817 0.159724
O O13 0.248385 0.071869 0.275034
O O14 0.000000 0.000000 0.315624
#
# Coordination Sequence:
#
# PCOD9354306 Si02
#       8
#     8   8   8   8   4   4   4   8
#     4  10  20  43  69  96 134 176 231 287 342 427
#     4  11  25  44  69  99 139 185 232 286 359 426
#     4  11  24  43  64 105 136 181 229 294 352 414
#     4  11  23  43  73 101 141 181 237 291 351 425
#     4  10  22  44  70  91 147 180 220 298 360 402
#     4   9  20  39  69 100 129 178 224 281 358 402
#     4  11  24  37  71 103 130 176 244 283 350 418
#     4  10  23  45  73 100 135 192 231 285 359 423
#
# _framework density 21.233993000000002
#
# number of rings (size 3 to 8) (size 9 to 14) (size 15 to 20)
#    0.000    1.538    3.077    0.923    6.462    0.000 
#    5.538    3.077    0.000    0.000    0.000    0.000 
#    0.000    0.000    0.000    0.000    0.000    0.000 
#
# Total GULP energy -145212.307261 kJ/mol
# GULP energy per Si atom -5585.088741 kJ/mol
# Density = 2.118566 g / cm^3
# Si number density = 21.233993 Si / 1000 Ang^3
#
#
#
# Elastic Constant Matrix: (Units=GPa)
#
#
# Indices 1 2 3 4 5 6 
#
# 1 121.4829 37.9940 23.1354 0.0000 0.0000 0.0000
# 2 37.9940 126.3409 30.2356 0.0000 0.0000 0.0000
# 3 23.1354 30.2356 62.9118 0.0000 0.0000 0.0000
# 4 0.0000 0.0000 0.0000 25.1588 0.0000 0.0000
# 5 0.0000 0.0000 0.0000 0.0000 27.0928 0.0000
# 6 0.0000 0.0000 0.0000 0.0000 0.0000 37.1187
#
#
#
# Elastic Compliance Matrix: (Units=1/GPa)
#
#
# Indices 1 2 3 4 5 6 
#
# 1 0.009388 -0.002257 -0.002368 0.000000 0.000000 0.000000
# 2 -0.002257 0.009486 -0.003729 0.000000 0.000000 0.000000
# 3 -0.002368 -0.003729 0.018558 0.000000 0.000000 0.000000
# 4 0.000000 0.000000 0.000000 0.039748 0.000000 0.000000
# 5 0.000000 0.000000 0.000000 0.000000 0.036910 0.000000
# 6 0.000000 0.000000 0.000000 0.000000 0.000000 0.026941
#
#
# Mechanical properties :
#
#
# Convention : Reuss Voigt Hill
#
# Bulk Modulus (GPa) = 48.25032 54.82951 51.53992
# Shear Modulus (GPa) = 30.36794 32.49875 31.43335
#
# Velocity S-wave (km/s) = 3.78584 3.91641 3.85168
# Velocity P-wave (km/s) = 6.47168 6.80652 6.64121
#
# Compressibility (1/GPa) = 0.02072525
#
# Stress axis : x y z
#
# Youngs Moduli (GPa) = 106.51515 105.41647 53.88407
#
# Poissons Ratio (x) = 0.23788 0.12760
# Poissons Ratio (y) = 0.24036 0.20095
# Poissons Ratio (z) = 0.25222 0.39312
#
# Static dielectric constant tensor:
#      x y z
#    x 1.558450 0.000000 0.000000 
#    y 0.000000 1.778920 0.000000 
#    z 0.000000 0.000000 1.761050 
# 
# From -- ./inp_files/10798.got.cif
#   From: 2010.05.17/outbox.cif.g08.bks.cpg/sg37_6_cif.got.tgz:10798.got - 2010.06.03 17:53:42.
