data_PCOD9354653
_publ_section_title
;
Structure prediction by ZEFSAII (Michael W. Deem and Ramdas Pophale) SiO2 
 PCOD9354653
Probable space group: C C C 2
;
_chemical_formula_sum "Si O2"
_cell_formula_units_Z 40
_cell_length_a 8.326880
_cell_length_b 13.246730
_cell_length_c 15.467566
_cell_angle_alpha 90.000000
_cell_angle_beta 90.000000
_cell_angle_gamma 90.000000
_cell_volume 1706.133334
_symmetry_space_group_name_H-M "C C C 2"
_symmetry_group_IT_number 37
_symmetry_cell_setting 'orthorhombic'
loop_
_space_group_symop_operation_xyz
x,y,z
-x,-y,z
-x,y,1/2+z
x,-y,1/2+z
1/2+x,1/2+y,z
1/2-x,1/2-y,z
1/2-x,1/2+y,1/2+z
1/2+x,1/2-y,1/2+z
loop_
_atom_site_type_symbol
_atom_site_label
_atom_site_fract_x
_atom_site_fract_y
_atom_site_fract_z
Si Si1 0.870619 0.914520 0.584740
Si Si2 0.875623 0.917040 0.783465
Si Si3 0.030984 0.319664 0.573622
Si Si4 0.072826 0.286639 0.255239
Si Si5 0.071855 0.393890 0.906900
O O1 0.836252 0.947168 0.684444
O O2 0.947020 0.801947 0.579883
O O3 0.692746 0.883349 0.549883
O O4 0.000000 0.000000 0.551930
O O5 0.727455 0.903958 0.847062
O O6 0.958818 0.809029 0.771525
O O7 0.000000 0.000000 0.817646
O O8 0.983662 0.348276 0.671309
O O9 0.905375 0.338271 0.497427
O O10 0.250000 0.250000 0.236590
O O11 0.061722 0.344378 0.344991
O O12 0.000000 0.500000 0.929622
#
# Coordination Sequence:
#
# PCOD9354653 Si02
#       5
#     8   8   8   8   8
#     4   9  19  44  79 108 144 198 251 307 371 453
#     4  10  21  46  76 103 135 191 247 303 373 438
#     4  10  23  45  70 109 155 192 246 308 382 448
#     4  11  24  45  73 103 146 192 243 301 372 448
#     4  12  26  45  69 107 148 190 241 311 370 452
#
# _framework density 23.444825999999999
#
# number of rings (size 3 to 8) (size 9 to 14) (size 15 to 20)
#    0.000    1.600    2.000    1.800    2.800    2.400 
#   18.000    0.000    0.000    0.000    0.000    0.000 
#    0.000    0.000    0.000    0.000    0.000    0.000 
#
# Total GULP energy -111660.793092 kJ/mol
# GULP energy per Si atom -5583.039655 kJ/mol
# Density = 2.339146 g / cm^3
# Si number density = 23.444826 Si / 1000 Ang^3
#
#
#
# Elastic Constant Matrix: (Units=GPa)
#
#
# Indices 1 2 3 4 5 6 
#
# 1 100.5675 38.4956 25.8689 0.0000 0.0000 0.0000
# 2 38.4956 84.0719 46.7829 0.0000 0.0000 0.0000
# 3 25.8689 46.7829 110.4240 0.0000 0.0000 0.0000
# 4 0.0000 0.0000 0.0000 29.2358 0.0000 0.0000
# 5 0.0000 0.0000 0.0000 0.0000 28.3710 0.0000
# 6 0.0000 0.0000 0.0000 0.0000 0.0000 34.0093
#
#
#
# Elastic Compliance Matrix: (Units=1/GPa)
#
#
# Indices 1 2 3 4 5 6 
#
# 1 0.012091 -0.005182 -0.000637 0.000000 0.000000 0.000000
# 2 -0.005182 0.017785 -0.006321 0.000000 0.000000 0.000000
# 3 -0.000637 -0.006321 0.011883 0.000000 0.000000 0.000000
# 4 0.000000 0.000000 0.000000 0.034205 0.000000 0.000000
# 5 0.000000 0.000000 0.000000 0.000000 0.035247 0.000000
# 6 0.000000 0.000000 0.000000 0.000000 0.000000 0.029404
#
#
# Mechanical properties :
#
#
# Convention : Reuss Voigt Hill
#
# Bulk Modulus (GPa) = 57.21080 57.48424 57.34752
# Shear Modulus (GPa) = 29.28771 30.58429 29.93600
#
# Velocity S-wave (km/s) = 3.53826 3.61573 3.57721
# Velocity P-wave (km/s) = 6.41465 6.48102 6.44792
#
# Compressibility (1/GPa) = 0.01747922
#
# Stress axis : x y z
#
# Youngs Moduli (GPa) = 82.70636 56.22872 84.15257
#
# Poissons Ratio (x) = 0.29136 0.05362
# Poissons Ratio (y) = 0.42856 0.53191
# Poissons Ratio (z) = 0.05270 0.35541
#
# Static dielectric constant tensor:
#      x y z
#    x 1.912230 0.000000 0.000000 
#    y 0.000000 1.881250 0.000000 
#    z 0.000000 0.000000 1.918320 
# 
# From -- ./inp_files/10344.got.cif
#   From: 2010.05.17/outbox.cif.g08.bks.cpg/sg37_6_cif.got.tgz:10344.got - 2010.06.03 17:53:42.
