data_PCOD9354831
_publ_section_title
;
Structure prediction by ZEFSAII (Michael W. Deem and Ramdas Pophale) SiO2 
 PCOD9354831
Probable space group: C C C 2
;
_chemical_formula_sum "Si O2"
_cell_formula_units_Z 32
_cell_length_a 13.175111
_cell_length_b 9.945845
_cell_length_c 9.637881
_cell_angle_alpha 90.000000
_cell_angle_beta 90.000000
_cell_angle_gamma 90.000000
_cell_volume 1262.924910
_symmetry_space_group_name_H-M "C C C 2"
_symmetry_group_IT_number 37
_symmetry_cell_setting 'orthorhombic'
loop_
_space_group_symop_operation_xyz
x,y,z
-x,-y,z
-x,y,1/2+z
x,-y,1/2+z
1/2+x,1/2+y,z
1/2-x,1/2-y,z
1/2-x,1/2+y,1/2+z
1/2+x,1/2-y,1/2+z
loop_
_atom_site_type_symbol
_atom_site_label
_atom_site_fract_x
_atom_site_fract_y
_atom_site_fract_z
Si Si1 0.384866 0.822607 0.855200
Si Si2 0.519265 0.845859 0.097302
Si Si3 0.348542 0.343890 0.731399
Si Si4 0.696760 0.464421 0.958777
O O1 0.381228 0.820153 0.688663
O O2 0.347318 0.677456 0.904930
O O3 0.314955 0.941959 0.918895
O O4 0.493498 0.837353 0.934744
O O5 0.440692 0.741912 0.169974
O O6 0.500000 0.000000 0.137399
O O7 0.250000 0.250000 0.730598
O O8 0.355979 0.413527 0.880099
O O9 0.324509 0.462652 0.621549
#
# Coordination Sequence:
#
# PCOD9354831 Si02
#       4
#     8   8   8   8
#     4  10  22  41  63  95 133 178 223 286 336 404
#     4  11  22  39  66  98 131 170 224 287 339 396
#     4  11  22  44  67  97 134 181 226 282 335 411
#     4  10  22  44  66  92 139 180 230 276 341 412
#
# _framework density 25.338007000000001
#
# number of rings (size 3 to 8) (size 9 to 14) (size 15 to 20)
#    0.000    1.500    5.000    2.250    0.000    3.000 
#    4.500    5.000    0.000    0.000    0.000    0.000 
#    0.000    0.000    0.000    0.000    0.000    0.000 
#
# Total GULP energy -89333.228845 kJ/mol
# GULP energy per Si atom -5583.326803 kJ/mol
# Density = 2.528034 g / cm^3
# Si number density = 25.338007 Si / 1000 Ang^3
#
#
#
# Elastic Constant Matrix: (Units=GPa)
#
#
# Indices 1 2 3 4 5 6 
#
# 1 28.9097 8.9838 6.8501 0.0000 0.0000 0.0000
# 2 8.9838 68.5839 22.7649 0.0000 0.0000 0.0000
# 3 6.8501 22.7649 116.3000 0.0000 0.0000 0.0000
# 4 0.0000 0.0000 0.0000 41.4805 0.0000 0.0000
# 5 0.0000 0.0000 0.0000 0.0000 24.3305 0.0000
# 6 0.0000 0.0000 0.0000 0.0000 0.0000 32.2832
#
#
#
# Elastic Compliance Matrix: (Units=1/GPa)
#
#
# Indices 1 2 3 4 5 6 
#
# 1 0.036238 -0.004319 -0.001289 0.000000 0.000000 0.000000
# 2 -0.004319 0.016109 -0.002899 0.000000 0.000000 0.000000
# 3 -0.001289 -0.002899 0.009242 0.000000 0.000000 0.000000
# 4 0.000000 0.000000 0.000000 0.024108 0.000000 0.000000
# 5 0.000000 0.000000 0.000000 0.000000 0.041101 0.000000
# 6 0.000000 0.000000 0.000000 0.000000 0.000000 0.030976
#
#
# Mechanical properties :
#
#
# Convention : Reuss Voigt Hill
#
# Bulk Modulus (GPa) = 22.43413 32.33235 27.38324
# Shear Modulus (GPa) = 26.36513 31.29849 28.83181
#
# Velocity S-wave (km/s) = 3.22924 3.51841 3.37692
# Velocity P-wave (km/s) = 4.77254 5.41237 5.10249
#
# Compressibility (1/GPa) = 0.04457493
#
# Stress axis : x y z
#
# Youngs Moduli (GPa) = 27.59534 62.07870 108.20416
#
# Poissons Ratio (x) = 0.26811 0.13948
# Poissons Ratio (y) = 0.11918 0.31366
# Poissons Ratio (z) = 0.03557 0.17995
#
# Static dielectric constant tensor:
#      x y z
#    x 2.186820 0.000000 0.000000 
#    y 0.000000 1.958730 0.000000 
#    z 0.000000 0.000000 2.023590 
# 
# From -- ./inp_files/2570.got.cif
#   From: 2010.05.17/outbox.cif.g08.bks.cpg/sg37_2_cif.got.tgz:2570.got - 2010.06.03 17:53:42.
