data_PCOD9354308
_publ_section_title
;
Structure prediction by ZEFSAII (Michael W. Deem and Ramdas Pophale) SiO2 
 PCOD9354308
Probable space group: C C C 2
;
_chemical_formula_sum "Si O2"
_cell_formula_units_Z 40
_cell_length_a 7.793300
_cell_length_b 14.507747
_cell_length_c 15.481943
_cell_angle_alpha 90.000000
_cell_angle_beta 90.000000
_cell_angle_gamma 90.000000
_cell_volume 1750.438400
_symmetry_space_group_name_H-M "C C C 2"
_symmetry_group_IT_number 37
_symmetry_cell_setting 'orthorhombic'
loop_
_space_group_symop_operation_xyz
x,y,z
-x,-y,z
-x,y,1/2+z
x,-y,1/2+z
1/2+x,1/2+y,z
1/2-x,1/2-y,z
1/2-x,1/2+y,1/2+z
1/2+x,1/2-y,1/2+z
loop_
_atom_site_type_symbol
_atom_site_label
_atom_site_fract_x
_atom_site_fract_y
_atom_site_fract_z
Si Si1 0.206710 0.503165 0.358580
Si Si2 0.545353 0.608918 0.101218
Si Si3 0.048688 0.755003 0.252974
Si Si4 0.879928 0.425838 0.675092
Si Si5 0.488581 0.358016 0.413113
O O1 0.206444 0.482665 0.254880
O O2 0.323008 0.422065 0.397556
O O3 0.330340 0.589879 0.385352
O O4 0.000000 0.500000 0.380628
O O5 0.500000 0.500000 0.098096
O O6 0.489601 0.660956 0.187787
O O7 0.748972 0.611525 0.106296
O O8 0.488665 0.659447 0.014675
O O9 0.250000 0.750000 0.259391
O O10 0.973639 0.774404 0.347200
O O11 0.974884 0.660526 0.216367
O O12 0.000000 0.500000 0.630970
#
# Coordination Sequence:
#
# PCOD9354308 Si02
#       5
#     8   8   8   8   8
#     4  10  20  43  72 105 139 188 236 282 361 424
#     4  12  24  45  70 105 145 182 232 295 357 426
#     4  12  26  47  69 103 142 186 241 295 355 425
#     4  11  24  45  75 101 138 193 238 296 360 423
#     4  11  24  45  72 104 145 190 232 298 360 424
#
# _framework density 22.851417999999999
#
# number of rings (size 3 to 8) (size 9 to 14) (size 15 to 20)
#    0.000    0.800    4.000    5.400    0.000    2.400 
#    7.200    0.000    0.000    0.000    0.000    0.000 
#    0.000    0.000    0.000    0.000    0.000    0.000 
#
# Total GULP energy -111742.922637 kJ/mol
# GULP energy per Si atom -5587.146132 kJ/mol
# Density = 2.279941 g / cm^3
# Si number density = 22.851418 Si / 1000 Ang^3
#
#
#
# Elastic Constant Matrix: (Units=GPa)
#
#
# Indices 1 2 3 4 5 6 
#
# 1 125.3847 19.5841 9.7873 0.0000 0.0000 0.0000
# 2 19.5841 92.5608 15.2811 0.0000 0.0000 0.0000
# 3 9.7873 15.2811 72.5846 0.0000 0.0000 0.0000
# 4 0.0000 0.0000 0.0000 -0.3847 0.0000 0.0000
# 5 0.0000 0.0000 0.0000 0.0000 41.7089 0.0000
# 6 0.0000 0.0000 0.0000 0.0000 0.0000 27.6726
#
#
#
# Elastic Compliance Matrix: (Units=1/GPa)
#
#
# Indices 1 2 3 4 5 6 
#
# 1 0.008290 -0.001626 -0.000776 0.000000 0.000000 0.000000
# 2 -0.001626 0.011512 -0.002204 0.000000 0.000000 0.000000
# 3 -0.000776 -0.002204 0.014346 0.000000 0.000000 0.000000
# 4 0.000000 0.000000 0.000000 -2.599626 0.000000 0.000000
# 5 0.000000 0.000000 0.000000 0.000000 0.023976 0.000000
# 6 0.000000 0.000000 0.000000 0.000000 0.000000 0.036137
#
#
# Mechanical properties :
#
#
# Convention : Reuss Voigt Hill
#
# Bulk Modulus (GPa) = 40.10305 42.20389 41.15347
# Shear Modulus (GPa) = -2.00977 30.19121 14.09072
#
# Velocity S-wave (km/s) = -0.93883 3.63877 2.48588
# Velocity P-wave (km/s) = 4.05122 6.01358 5.12716
#
# Compressibility (1/GPa) = 0.02493576
#
# Stress axis : x y z
#
# Youngs Moduli (GPa) = 120.62797 86.86859 69.70750
#
# Poissons Ratio (x) = 0.14124 0.05406
# Poissons Ratio (y) = 0.19614 0.15365
# Poissons Ratio (z) = 0.09355 0.19148
#
# Static dielectric constant tensor:
#      x y z
#    x 1.884440 0.000000 0.000000 
#    y 0.000000 1.781660 0.000000 
#    z 0.000000 0.000000 1.887520 
# 
# From -- ./inp_files/10339.got.cif
#   From: 2010.05.17/outbox.cif.g08.bks.cpg/sg37_6_cif.got.tgz:10339.got - 2010.06.03 17:53:42.
