data_PCOD9354049
_publ_section_title
;
Structure prediction by ZEFSAII (Michael W. Deem and Ramdas Pophale) SiO2 
 PCOD9354049
Probable space group: C C C 2
;
_chemical_formula_sum "Si O2"
_cell_formula_units_Z 32
_cell_length_a 9.525857
_cell_length_b 12.203284
_cell_length_c 12.130597
_cell_angle_alpha 90.000000
_cell_angle_beta 90.000000
_cell_angle_gamma 90.000000
_cell_volume 1410.142335
_symmetry_space_group_name_H-M "C C C 2"
_symmetry_group_IT_number 37
_symmetry_cell_setting 'orthorhombic'
loop_
_space_group_symop_operation_xyz
x,y,z
-x,-y,z
-x,y,1/2+z
x,-y,1/2+z
1/2+x,1/2+y,z
1/2-x,1/2-y,z
1/2-x,1/2+y,1/2+z
1/2+x,1/2-y,1/2+z
loop_
_atom_site_type_symbol
_atom_site_label
_atom_site_fract_x
_atom_site_fract_y
_atom_site_fract_z
Si Si1 0.068246 0.607900 0.457890
Si Si2 0.310917 0.357044 0.779291
Si Si3 0.696865 0.484759 0.580846
Si Si4 0.030203 0.159222 0.465044
O O1 0.193721 0.638169 0.375062
O O2 0.150757 0.567270 0.565720
O O3 0.967687 0.710334 0.479769
O O4 0.000000 0.500000 0.409038
O O5 0.250000 0.250000 0.715274
O O6 0.314786 0.458345 0.697805
O O7 0.041218 0.146867 0.844481
O O8 0.662035 0.580999 0.490075
O O9 0.582426 0.391513 0.552567
#
# Coordination Sequence:
#
# PCOD9354049 Si02
#       4
#     8   8   8   8
#     4  10  22  39  60  87 130 156 197 257 306 356
#     4   9  20  39  59  86 122 155 198 255 302 356
#     4  10  20  36  67  83 115 164 206 234 310 367
#     4   9  21  40  60  88 123 156 199 262 297 354
#
# _framework density 22.692743
#
# number of rings (size 3 to 8) (size 9 to 14) (size 15 to 20)
#    0.000    2.500    0.000    2.250    3.500    9.000 
#    4.500    0.000   16.500    0.000    0.000    0.000 
#    0.000    0.000    0.000    0.000    0.000    0.000 
#
# Total GULP energy -89194.100747 kJ/mol
# GULP energy per Si atom -5574.631297 kJ/mol
# Density = 2.264109 g / cm^3
# Si number density = 22.692743 Si / 1000 Ang^3
#
#
#
# Elastic Constant Matrix: (Units=GPa)
#
#
# Indices 1 2 3 4 5 6 
#
# 1 18.3331 11.2997 -17.4372 0.0000 0.0000 0.0000
# 2 11.2997 151.2297 10.1056 0.0000 0.0000 0.0000
# 3 -17.4372 10.1056 60.9007 0.0000 0.0000 0.0000
# 4 0.0000 0.0000 0.0000 30.8188 0.0000 0.0000
# 5 0.0000 0.0000 0.0000 0.0000 -1.5663 0.0000
# 6 0.0000 0.0000 0.0000 0.0000 0.0000 22.6483
#
#
#
# Elastic Compliance Matrix: (Units=1/GPa)
#
#
# Indices 1 2 3 4 5 6 
#
# 1 0.083378 -0.007913 0.025186 0.000000 0.000000 0.000000
# 2 -0.007913 0.007438 -0.003500 0.000000 0.000000 0.000000
# 3 0.025186 -0.003500 0.024212 0.000000 0.000000 0.000000
# 4 0.000000 0.000000 0.000000 0.032448 0.000000 0.000000
# 5 0.000000 0.000000 0.000000 0.000000 -0.638466 0.000000
# 6 0.000000 0.000000 0.000000 0.000000 0.000000 0.044153
#
#
# Mechanical properties :
#
#
# Convention : Reuss Voigt Hill
#
# Bulk Modulus (GPa) = 7.01385 26.48884 16.75135
# Shear Modulus (GPa) = -11.71348 25.47987 6.88320
#
# Velocity S-wave (km/s) = -2.27442 3.35449 1.74350
# Velocity P-wave (km/s) = 1.94931 5.16736 3.38392
#
# Compressibility (1/GPa) = 0.14257497
#
# Stress axis : x y z
#
# Youngs Moduli (GPa) = 11.99351 134.45259 41.30145
#
# Poissons Ratio (x) = 1.06391 -1.04022
# Poissons Ratio (y) = 0.09490 0.14455
# Poissons Ratio (z) = -0.30207 0.47056
#
# Static dielectric constant tensor:
#      x y z
#    x 1.925820 0.000000 0.000000 
#    y 0.000000 1.953790 0.000000 
#    z 0.000000 0.000000 1.854770 
# 
# From -- ./inp_files/2619.got.cif
#   From: 2010.05.17/outbox.cif.g08.bks.cpg/sg37_2_cif.got.tgz:2619.got - 2010.06.03 17:53:42.
