data_PCOD9354176
_publ_section_title
;
Structure prediction by ZEFSAII (Michael W. Deem and Ramdas Pophale) SiO2 
 PCOD9354176
Probable space group: C C C 2
;
_chemical_formula_sum "Si O2"
_cell_formula_units_Z 48
_cell_length_a 8.597858
_cell_length_b 14.378383
_cell_length_c 18.114166
_cell_angle_alpha 90.000000
_cell_angle_beta 90.000000
_cell_angle_gamma 90.000000
_cell_volume 2239.332893
_symmetry_space_group_name_H-M "C C C 2"
_symmetry_group_IT_number 37
_symmetry_cell_setting 'orthorhombic'
loop_
_space_group_symop_operation_xyz
x,y,z
-x,-y,z
-x,y,1/2+z
x,-y,1/2+z
1/2+x,1/2+y,z
1/2-x,1/2-y,z
1/2-x,1/2+y,1/2+z
1/2+x,1/2-y,1/2+z
loop_
_atom_site_type_symbol
_atom_site_label
_atom_site_fract_x
_atom_site_fract_y
_atom_site_fract_z
Si Si1 0.094505 0.215276 0.850880
Si Si2 0.780793 0.148685 0.645080
Si Si3 0.354708 0.659042 0.191624
Si Si4 0.804233 0.856569 0.426278
Si Si5 0.316490 0.522213 0.067913
Si Si6 0.588793 0.900639 0.292749
O O1 0.250000 0.250000 0.889648
O O2 0.143750 0.154134 0.779876
O O3 0.982839 0.156557 0.902760
O O4 0.011249 0.307961 0.815946
O O5 0.750000 0.250000 0.616793
O O6 0.677551 0.125226 0.717045
O O7 0.963346 0.153742 0.668535
O O8 0.741115 0.076878 0.580673
O O9 0.250000 0.750000 0.173355
O O10 0.283800 0.575644 0.144641
O O11 0.750000 0.750000 0.436173
O O12 0.774201 0.914935 0.499288
O O13 0.715193 0.903501 0.358160
O O14 0.500000 0.500000 0.061689
O O15 0.500000 0.000000 0.287909
#
# Coordination Sequence:
#
# PCOD9354176 Si02
#       6
#     8   8   8   8   8   8
#     4  10  21  39  70  97 126 169 217 272 332 385
#     4  11  21  42  65  94 133 172 219 278 322 380
#     4  10  20  39  64  98 126 164 217 266 324 390
#     4  10  21  46  68  93 136 175 211 272 338 390
#     4  10  24  40  62  99 130 175 214 262 329 396
#     4  11  23  40  66 100 130 170 224 273 325 392
#
# _framework density 21.434954000000001
#
# number of rings (size 3 to 8) (size 9 to 14) (size 15 to 20)
#    0.000    1.667    3.333    1.000    4.667    1.333 
#    0.000   12.500    0.000    2.000    0.000    0.000 
#    0.000    0.000    0.000    0.000    0.000    0.000 
#
# Total GULP energy -133939.795338 kJ/mol
# GULP energy per Si atom -5580.824806 kJ/mol
# Density = 2.138617 g / cm^3
# Si number density = 21.434954 Si / 1000 Ang^3
#
#
#
# Elastic Constant Matrix: (Units=GPa)
#
#
# Indices 1 2 3 4 5 6 
#
# 1 75.1972 19.9579 16.6345 0.0000 0.0000 0.0000
# 2 19.9579 133.6204 60.8788 0.0000 0.0000 0.0000
# 3 16.6345 60.8788 72.1844 0.0000 0.0000 0.0000
# 4 0.0000 0.0000 0.0000 25.5155 0.0000 0.0000
# 5 0.0000 0.0000 0.0000 0.0000 0.1381 0.0000
# 6 0.0000 0.0000 0.0000 0.0000 0.0000 22.7263
#
#
#
# Elastic Compliance Matrix: (Units=1/GPa)
#
#
# Indices 1 2 3 4 5 6 
#
# 1 0.014097 -0.001016 -0.002392 0.000000 0.000000 0.000000
# 2 -0.001016 0.012227 -0.010078 0.000000 0.000000 0.000000
# 3 -0.002392 -0.010078 0.022904 0.000000 0.000000 0.000000
# 4 0.000000 0.000000 0.000000 0.039192 0.000000 0.000000
# 5 0.000000 0.000000 0.000000 0.000000 7.242045 0.000000
# 6 0.000000 0.000000 0.000000 0.000000 0.000000 0.044002
#
#
# Mechanical properties :
#
#
# Convention : Reuss Voigt Hill
#
# Bulk Modulus (GPa) = 44.92969 52.88272 48.90620
# Shear Modulus (GPa) = 0.67487 21.91136 11.29311
#
# Velocity S-wave (km/s) = 0.56172 3.20069 2.29782
# Velocity P-wave (km/s) = 4.62895 6.19549 5.46860
#
# Compressibility (1/GPa) = 0.02225700
#
# Stress axis : x y z
#
# Youngs Moduli (GPa) = 70.93661 81.78395 43.65986
#
# Poissons Ratio (x) = 0.08308 0.10443
# Poissons Ratio (y) = 0.07206 0.44001
# Poissons Ratio (z) = 0.16967 0.82423
#
# Static dielectric constant tensor:
#      x y z
#    x 1.868840 0.000000 0.000000 
#    y 0.000000 1.881530 0.000000 
#    z 0.000000 0.000000 1.732040 
# 
# From -- ./inp_files/16297.got.cif
#   From: 2010.05.17/outbox.cif.g08.bks.cpg/sg37_9_cif.got.tgz:16297.got - 2010.06.03 17:53:42.
