data_PCOD9354542
_publ_section_title
;
Structure prediction by ZEFSAII (Michael W. Deem and Ramdas Pophale) SiO2 
 PCOD9354542
Probable space group: C C C 2
;
_chemical_formula_sum "Si O2"
_cell_formula_units_Z 56
_cell_length_a 19.857807
_cell_length_b 8.629957
_cell_length_c 14.360236
_cell_angle_alpha 90.000000
_cell_angle_beta 90.000000
_cell_angle_gamma 90.000000
_cell_volume 2460.942659
_symmetry_space_group_name_H-M "C C C 2"
_symmetry_group_IT_number 37
_symmetry_cell_setting 'orthorhombic'
loop_
_space_group_symop_operation_xyz
x,y,z
-x,-y,z
-x,y,1/2+z
x,-y,1/2+z
1/2+x,1/2+y,z
1/2-x,1/2-y,z
1/2-x,1/2+y,1/2+z
1/2+x,1/2-y,1/2+z
loop_
_atom_site_type_symbol
_atom_site_label
_atom_site_fract_x
_atom_site_fract_y
_atom_site_fract_z
Si Si1 0.891119 0.119300 0.799350
Si Si2 0.521770 0.167806 0.270659
Si Si3 0.250000 0.250000 0.976080
Si Si4 0.261277 0.993481 0.132012
Si Si5 0.393100 0.295834 0.910893
Si Si6 0.250000 0.250000 0.284711
Si Si7 0.361033 0.736016 0.127887
Si Si8 0.576321 0.540262 0.091787
O O1 0.819760 0.193404 0.832138
O O2 0.887198 0.088123 0.687316
O O3 0.956955 0.228847 0.798254
O O4 0.902599 0.956742 0.852945
O O5 0.564306 0.160652 0.365003
O O6 0.576892 0.238681 0.198835
O O7 0.500000 0.000000 0.236241
O O8 0.315750 0.248252 0.913409
O O9 0.256878 0.398269 0.044250
O O10 0.328490 0.899605 0.105697
O O11 0.203682 0.868295 0.157460
O O12 0.271889 0.106818 0.218838
O O13 0.416511 0.329406 0.015342
O O14 0.392267 0.619837 0.051925
O O15 0.500000 0.500000 0.113725
#
# Coordination Sequence:
#
# PCOD9354542 Si02
#       8
#     8   8   4   8   8   4   8   8
#     4  12  24  46  71  99 138 188 241 291 354 444
#     4  12  26  46  68 107 150 180 240 314 355 434
#     4  11  24  46  68 101 152 188 238 307 358 427
#     4  10  21  40  70 107 138 176 243 299 346 443
#     4  12  26  46  69 101 142 193 239 292 364 434
#     4  11  20  40  68  97 134 184 230 287 372 421
#     4  11  21  42  74 100 136 187 234 294 361 414
#     4  12  21  43  75  98 132 193 239 281 358 437
#
# _framework density 22.755509
#
# number of rings (size 3 to 8) (size 9 to 14) (size 15 to 20)
#    0.000    0.571    5.714    3.000    0.000    3.429 
#    7.714    0.714    0.000    0.000    0.000    0.000 
#    0.000    0.000    0.000    0.000    0.000    0.000 
#
# Total GULP energy -156247.830100 kJ/mol
# GULP energy per Si atom -5580.279646 kJ/mol
# Density = 2.270372 g / cm^3
# Si number density = 22.755509 Si / 1000 Ang^3
#
#
#
# Elastic Constant Matrix: (Units=GPa)
#
#
# Indices 1 2 3 4 5 6 
#
# 1 144.1018 35.3721 3.6935 0.0000 0.0000 0.0000
# 2 35.3721 78.7251 -1.1948 0.0000 0.0000 0.0000
# 3 3.6935 -1.1948 47.0176 0.0000 0.0000 0.0000
# 4 0.0000 0.0000 0.0000 12.0410 0.0000 0.0000
# 5 0.0000 0.0000 0.0000 0.0000 17.6267 0.0000
# 6 0.0000 0.0000 0.0000 0.0000 0.0000 57.4347
#
#
#
# Elastic Compliance Matrix: (Units=1/GPa)
#
#
# Indices 1 2 3 4 5 6 
#
# 1 0.007823 -0.003526 -0.000704 0.000000 0.000000 0.000000
# 2 -0.003526 0.014296 0.000640 0.000000 0.000000 0.000000
# 3 -0.000704 0.000640 0.021340 0.000000 0.000000 0.000000
# 4 0.000000 0.000000 0.000000 0.083050 0.000000 0.000000
# 5 0.000000 0.000000 0.000000 0.000000 0.056732 0.000000
# 6 0.000000 0.000000 0.000000 0.000000 0.000000 0.017411
#
#
# Mechanical properties :
#
#
# Convention : Reuss Voigt Hill
#
# Bulk Modulus (GPa) = 27.56310 38.39848 32.98079
# Shear Modulus (GPa) = 22.73503 32.88539 27.81021
#
# Velocity S-wave (km/s) = 3.16428 3.80565 3.49969
# Velocity P-wave (km/s) = 5.04869 6.01844 5.55477
#
# Compressibility (1/GPa) = 0.03628039
#
# Stress axis : x y z
#
# Youngs Moduli (GPa) = 127.82798 69.94838 46.85989
#
# Poissons Ratio (x) = 0.24661 0.03300
# Poissons Ratio (y) = 0.45068 -0.03000
# Poissons Ratio (z) = 0.09001 -0.04478
#
# Static dielectric constant tensor:
#      x y z
#    x 1.978900 0.000000 0.000000 
#    y 0.000000 1.891340 0.000000 
#    z 0.000000 0.000000 1.846510 
# 
# From -- ./inp_files/12966.got.cif
#   From: 2010.05.17/outbox.cif.g08.bks.cpg/sg37_7_cif.got.tgz:12966.got - 2010.06.03 17:53:42.
