data_PCOD9354527
_publ_section_title
;
Structure prediction by ZEFSAII (Michael W. Deem and Ramdas Pophale) SiO2 
 PCOD9354527
Probable space group: C C C 2
;
_chemical_formula_sum "Si O2"
_cell_formula_units_Z 56
_cell_length_a 13.662007
_cell_length_b 11.244734
_cell_length_c 14.877223
_cell_angle_alpha 90.000000
_cell_angle_beta 90.000000
_cell_angle_gamma 90.000000
_cell_volume 2285.522825
_symmetry_space_group_name_H-M "C C C 2"
_symmetry_group_IT_number 37
_symmetry_cell_setting 'orthorhombic'
loop_
_space_group_symop_operation_xyz
x,y,z
-x,-y,z
-x,y,1/2+z
x,-y,1/2+z
1/2+x,1/2+y,z
1/2-x,1/2-y,z
1/2-x,1/2+y,1/2+z
1/2+x,1/2-y,1/2+z
loop_
_atom_site_type_symbol
_atom_site_label
_atom_site_fract_x
_atom_site_fract_y
_atom_site_fract_z
Si Si1 0.867728 0.081676 0.417380
Si Si2 0.095312 0.786803 0.599967
Si Si3 0.251792 0.880508 0.984144
Si Si4 0.213937 0.440438 0.134902
Si Si5 0.301947 0.891093 0.284803
Si Si6 0.929678 0.588340 0.359791
Si Si7 0.956284 0.798113 0.759523
O O1 0.907616 0.171907 0.494709
O O2 0.758412 0.115019 0.377965
O O3 0.933761 0.097848 0.329784
O O4 0.848227 0.947975 0.453809
O O5 0.122370 0.650685 0.626375
O O6 0.191814 0.857548 0.628035
O O7 0.004520 0.823127 0.663381
O O8 0.250000 0.750000 0.025581
O O9 0.329199 0.867609 0.903788
O O10 0.298871 0.973888 0.051010
O O11 0.251674 0.533317 0.210184
O O12 0.352106 0.770451 0.252957
O O13 0.392517 0.985197 0.293088
O O14 0.000000 0.500000 0.418913
O O15 0.977016 0.702832 0.314070
#
# Coordination Sequence:
#
# PCOD9354527 Si02
#       7
#     8   8   8   8   8   8   8
#     4  10  24  43  74 108 151 196 250 313 392 457
#     4  10  23  42  71 113 145 197 249 313 377 464
#     4  10  23  43  69 100 140 194 252 299 374 459
#     4  10  22  41  70  99 145 189 255 302 376 450
#     4  10  21  40  66 103 143 194 243 305 375 454
#     4   9  20  37  60  98 138 180 237 296 363 443
#     4  11  22  39  70 113 148 184 251 314 383 444
#
# _framework density 24.502051000000002
#
# number of rings (size 3 to 8) (size 9 to 14) (size 15 to 20)
#    0.000    2.000    1.429    0.429   12.000    4.571 
#    0.000    2.857    0.000    6.857    3.714    0.000 
#    0.000    0.000    0.000    0.000    0.000    0.000 
#
# Total GULP energy -155901.554159 kJ/mol
# GULP energy per Si atom -5567.912649 kJ/mol
# Density = 2.444628 g / cm^3
# Si number density = 24.502051 Si / 1000 Ang^3
#
#
#
# Elastic Constant Matrix: (Units=GPa)
#
#
# Indices 1 2 3 4 5 6 
#
# 1 58.8387 20.2887 33.8352 0.0000 0.0000 0.0000
# 2 20.2887 127.6845 39.9310 0.0000 0.0000 0.0000
# 3 33.8352 39.9310 109.9048 0.0000 0.0000 0.0000
# 4 0.0000 0.0000 0.0000 -29.3258 0.0000 0.0000
# 5 0.0000 0.0000 0.0000 0.0000 -4.8268 0.0000
# 6 0.0000 0.0000 0.0000 0.0000 0.0000 12.4608
#
#
#
# Elastic Compliance Matrix: (Units=1/GPa)
#
#
# Indices 1 2 3 4 5 6 
#
# 1 0.020895 -0.001476 -0.005897 0.000000 0.000000 0.000000
# 2 -0.001476 0.008940 -0.002794 0.000000 0.000000 0.000000
# 3 -0.005897 -0.002794 0.011929 0.000000 0.000000 0.000000
# 4 0.000000 0.000000 0.000000 -0.034100 0.000000 0.000000
# 5 0.000000 0.000000 0.000000 0.000000 -0.207176 0.000000
# 6 0.000000 0.000000 0.000000 0.000000 0.000000 0.080251
#
#
# Mechanical properties :
#
#
# Convention : Reuss Voigt Hill
#
# Bulk Modulus (GPa) = 46.65965 53.83754 50.24859
# Shear Modulus (GPa) = -54.47602 9.15320 -22.66141
#
# Velocity S-wave (km/s) = -4.72033 1.93489 -3.04448
# Velocity P-wave (km/s) = 3.25948 5.19732 2.86251
#
# Compressibility (1/GPa) = 0.02143179
#
# Stress axis : x y z
#
# Youngs Moduli (GPa) = 47.85735 111.85645 83.82876
#
# Poissons Ratio (x) = 0.16512 0.49430
# Poissons Ratio (y) = 0.07065 0.23419
# Poissons Ratio (z) = 0.28219 0.31249
#
# Static dielectric constant tensor:
#      x y z
#    x 2.751140 0.000000 0.000000 
#    y 0.000000 2.630310 0.000000 
#    z 0.000000 0.000000 2.196330 
# 
# From -- ./inp_files/12148.got.cif
#   From: 2010.05.17/outbox.cif.g08.bks.cpg/sg37_7_cif.got.tgz:12148.got - 2010.06.03 17:53:42.
