data_PCOD9354347
_publ_section_title
;
Structure prediction by ZEFSAII (Michael W. Deem and Ramdas Pophale) SiO2 
 PCOD9354347
Probable space group: C C C 2
;
_chemical_formula_sum "Si O2"
_cell_formula_units_Z 60
_cell_length_a 24.059867
_cell_length_b 5.765838
_cell_length_c 20.179174
_cell_angle_alpha 90.000000
_cell_angle_beta 90.000000
_cell_angle_gamma 90.000000
_cell_volume 2799.361875
_symmetry_space_group_name_H-M "C C C 2"
_symmetry_group_IT_number 37
_symmetry_cell_setting 'orthorhombic'
loop_
_space_group_symop_operation_xyz
x,y,z
-x,-y,z
-x,y,1/2+z
x,-y,1/2+z
1/2+x,1/2+y,z
1/2-x,1/2-y,z
1/2-x,1/2+y,1/2+z
1/2+x,1/2-y,1/2+z
loop_
_atom_site_type_symbol
_atom_site_label
_atom_site_fract_x
_atom_site_fract_y
_atom_site_fract_z
Si Si1 0.353492 0.252749 0.565730
Si Si2 0.945271 0.364774 0.545816
Si Si3 0.750000 0.750000 0.908296
Si Si4 0.133986 0.919084 0.451363
Si Si5 0.791405 0.564007 0.151292
Si Si6 0.598082 0.364487 0.664320
Si Si7 0.198255 0.496824 0.794686
Si Si8 0.633704 0.494432 0.801862
O O1 0.345307 0.367364 0.495152
O O2 0.376475 0.433553 0.619228
O O3 0.399570 0.060221 0.555443
O O4 0.301448 0.136393 0.599983
O O5 0.916665 0.194236 0.492591
O O6 0.950808 0.239291 0.618006
O O7 0.000000 0.500000 0.524537
O O8 0.808735 0.771094 0.945413
O O9 0.760949 0.539238 0.856832
O O10 0.114079 0.982369 0.377786
O O11 0.750000 0.750000 0.121582
O O12 0.852104 0.674971 0.165239
O O13 0.770093 0.500742 0.224288
O O14 0.592020 0.454668 0.739384
O O15 0.167310 0.745640 0.801762
O O16 0.161936 0.253993 0.791358
#
# Coordination Sequence:
#
# PCOD9354347 Si02
#       8
#     8   8   4   8   8   8   8   8
#     4  10  21  43  63  90 130 179 229 294 348 417
#     4  10  23  46  71  99 130 182 241 297 372 427
#     4  10  24  42  60 100 142 188 234 276 360 428
#     4  10  24  41  66  97 140 185 231 294 350 447
#     4  10  21  35  57  94 135 176 233 281 342 415
#     4   9  20  40  62  97 126 173 233 297 342 417
#     4  10  22  36  63  91 138 189 236 280 339 432
#     4  10  21  41  65 100 134 184 231 292 355 417
#
# _framework density 21.433458000000002
#
# number of rings (size 3 to 8) (size 9 to 14) (size 15 to 20)
#    0.000    2.133    1.333    0.000   11.200    2.667 
#   13.200    0.000    0.000    4.800    0.000    0.000 
#    0.000    0.000    0.000    0.000    0.000    0.000 
#
# Total GULP energy -167125.431412 kJ/mol
# GULP energy per Si atom -5570.847714 kJ/mol
# Density = 2.138467 g / cm^3
# Si number density = 21.433458 Si / 1000 Ang^3
#
#
#
# Elastic Constant Matrix: (Units=GPa)
#
#
# Indices 1 2 3 4 5 6 
#
# 1 44.8706 15.7198 31.3480 0.0000 0.0000 0.0000
# 2 15.7198 107.3217 41.3888 0.0000 0.0000 0.0000
# 3 31.3480 41.3888 158.8962 0.0000 0.0000 0.0000
# 4 0.0000 0.0000 0.0000 17.5330 0.0000 0.0000
# 5 0.0000 0.0000 0.0000 0.0000 22.0269 0.0000
# 6 0.0000 0.0000 0.0000 0.0000 0.0000 26.4034
#
#
#
# Elastic Compliance Matrix: (Units=1/GPa)
#
#
# Indices 1 2 3 4 5 6 
#
# 1 0.026250 -0.002054 -0.004644 0.000000 0.000000 0.000000
# 2 -0.002054 0.010519 -0.002335 0.000000 0.000000 0.000000
# 3 -0.004644 -0.002335 0.007818 0.000000 0.000000 0.000000
# 4 0.000000 0.000000 0.000000 0.057035 0.000000 0.000000
# 5 0.000000 0.000000 0.000000 0.000000 0.045399 0.000000
# 6 0.000000 0.000000 0.000000 0.000000 0.000000 0.037874
#
#
# Mechanical properties :
#
#
# Convention : Reuss Voigt Hill
#
# Bulk Modulus (GPa) = 37.70480 54.22240 45.96360
# Shear Modulus (GPa) = 23.60708 28.03480 25.82094
#
# Velocity S-wave (km/s) = 3.32235 3.62054 3.47465
# Velocity P-wave (km/s) = 5.68745 6.54452 6.13098
#
# Compressibility (1/GPa) = 0.02652183
#
# Stress axis : x y z
#
# Youngs Moduli (GPa) = 38.09494 95.06572 127.91472
#
# Poissons Ratio (x) = 0.19527 0.59400
# Poissons Ratio (y) = 0.07825 0.29865
# Poissons Ratio (z) = 0.17690 0.22195
#
# Static dielectric constant tensor:
#      x y z
#    x 1.654040 0.000000 0.000000 
#    y 0.000000 1.879090 0.000000 
#    z 0.000000 0.000000 1.837620 
# 
# From -- ./inp_files/17605.got.cif
#   From: 2010.05.17/outbox.cif.g08.bks.cpg/sg37_9_cif.got.tgz:17605.got - 2010.06.03 17:53:42.
