data_PCOD9354298
_publ_section_title
;
Structure prediction by ZEFSAII (Michael W. Deem and Ramdas Pophale) SiO2 
 PCOD9354298
Probable space group: C C C 2
;
_chemical_formula_sum "Si O2"
_cell_formula_units_Z 52
_cell_length_a 8.827248
_cell_length_b 11.018069
_cell_length_c 23.540367
_cell_angle_alpha 90.000000
_cell_angle_beta 90.000000
_cell_angle_gamma 90.000000
_cell_volume 2289.517911
_symmetry_space_group_name_H-M "C C C 2"
_symmetry_group_IT_number 37
_symmetry_cell_setting 'orthorhombic'
loop_
_space_group_symop_operation_xyz
x,y,z
-x,-y,z
-x,y,1/2+z
x,-y,1/2+z
1/2+x,1/2+y,z
1/2-x,1/2-y,z
1/2-x,1/2+y,1/2+z
1/2+x,1/2-y,1/2+z
loop_
_atom_site_type_symbol
_atom_site_label
_atom_site_fract_x
_atom_site_fract_y
_atom_site_fract_z
Si Si1 0.847101 0.934808 0.228760
Si Si2 0.639090 0.136592 0.269047
Si Si3 0.113694 0.386568 0.978698
Si Si4 0.574224 0.377952 0.434595
Si Si5 0.750000 0.750000 0.076928
Si Si6 0.060543 0.623269 0.654912
Si Si7 0.416658 0.268225 0.331516
O O1 0.727680 0.901598 0.180367
O O2 0.895132 0.825370 0.269058
O O3 0.747410 0.021760 0.268908
O O4 0.000000 0.000000 0.208676
O O5 0.750000 0.250000 0.273332
O O6 0.553716 0.139107 0.207698
O O7 0.514961 0.149231 0.318194
O O8 0.245712 0.399752 0.932058
O O9 0.043062 0.252215 0.966163
O O10 0.000000 0.500000 0.980787
O O11 0.217660 0.364028 0.035204
O O12 0.500000 0.500000 0.459352
O O13 0.507919 0.355820 0.372315
O O14 0.904083 0.736899 0.114384
O O15 0.000000 0.500000 0.625552
O O16 0.250000 0.250000 0.355818
#
# Coordination Sequence:
#
# PCOD9354298 Si02
#       7
#     8   8   8   8   4   8   8
#     4  11  22  37  58  91 139 177 223 271 320 394
#     4  11  23  37  58  89 137 178 219 266 317 391
#     4  10  25  49  72  99 131 175 225 298 364 421
#     4  10  25  43  67 101 134 174 228 289 342 412
#     4  10  20  42  76  90 124 168 226 284 356 416
#     4  10  21  38  61  94 128 175 217 270 336 402
#     4  12  24  39  61  92 130 186 233 272 328 402
#
# _framework density 22.712205999999998
#
# number of rings (size 3 to 8) (size 9 to 14) (size 15 to 20)
#    0.000    1.538    3.077    1.846    4.308    0.000 
#    0.000    3.077    6.769    0.000    0.000    0.000 
#    0.000    0.000    0.000    0.000    0.000    0.000 
#
# Total GULP energy -145000.955468 kJ/mol
# GULP energy per Si atom -5576.959826 kJ/mol
# Density = 2.266051 g / cm^3
# Si number density = 22.712206 Si / 1000 Ang^3
#
#
#
# Elastic Constant Matrix: (Units=GPa)
#
#
# Indices 1 2 3 4 5 6 
#
# 1 141.5769 57.4810 35.6977 0.0000 0.0000 0.0000
# 2 57.4810 148.9326 14.9067 0.0000 0.0000 0.0000
# 3 35.6977 14.9067 35.9418 0.0000 0.0000 0.0000
# 4 0.0000 0.0000 0.0000 -60.2418 0.0000 0.0000
# 5 0.0000 0.0000 0.0000 0.0000 -6.8014 0.0000
# 6 0.0000 0.0000 0.0000 0.0000 0.0000 57.7486
#
#
#
# Elastic Compliance Matrix: (Units=1/GPa)
#
#
# Indices 1 2 3 4 5 6 
#
# 1 0.010711 -0.003202 -0.009310 0.000000 0.000000 0.000000
# 2 -0.003202 0.007963 -0.000122 0.000000 0.000000 0.000000
# 3 -0.009310 -0.000122 0.037120 0.000000 0.000000 0.000000
# 4 0.000000 0.000000 0.000000 -0.016600 0.000000 0.000000
# 5 0.000000 0.000000 0.000000 0.000000 -0.147028 0.000000
# 6 0.000000 0.000000 0.000000 0.000000 0.000000 0.017316
#
#
# Mechanical properties :
#
#
# Convention : Reuss Voigt Hill
#
# Bulk Modulus (GPa) = 32.75989 60.29135 46.52562
# Shear Modulus (GPa) = -90.78597 12.69879 -39.04359
#
# Velocity S-wave (km/s) = -6.32923 2.36713 -4.15065
# Velocity P-wave (km/s) = 6.24155 5.83734 1.56244
#
# Compressibility (1/GPa) = 0.03052513
#
# Stress axis : x y z
#
# Youngs Moduli (GPa) = 93.36365 125.58869 26.93949
#
# Poissons Ratio (x) = 0.40214 0.25081
# Poissons Ratio (y) = 0.29895 0.00329
# Poissons Ratio (z) = 0.86922 0.01534
#
# Static dielectric constant tensor:
#      x y z
#    x 1.945300 0.000000 0.000000 
#    y 0.000000 2.168410 0.000000 
#    z 0.000000 0.000000 1.948680 
# 
# From -- ./inp_files/19649.got.cif
#   From: 2010.05.17/outbox.cif.g08.bks.cpg/sg37_10_cif.got.tgz:19649.got - 2010.06.03 17:53:42.
