data_PCOD9354122
_publ_section_title
;
Structure prediction by ZEFSAII (Michael W. Deem and Ramdas Pophale) SiO2 
 PCOD9354122
Probable space group: C C C 2
;
_chemical_formula_sum "Si O2"
_cell_formula_units_Z 48
_cell_length_a 8.236456
_cell_length_b 15.097425
_cell_length_c 17.716011
_cell_angle_alpha 90.000000
_cell_angle_beta 90.000000
_cell_angle_gamma 90.000000
_cell_volume 2202.973154
_symmetry_space_group_name_H-M "C C C 2"
_symmetry_group_IT_number 37
_symmetry_cell_setting 'orthorhombic'
loop_
_space_group_symop_operation_xyz
x,y,z
-x,-y,z
-x,y,1/2+z
x,-y,1/2+z
1/2+x,1/2+y,z
1/2-x,1/2-y,z
1/2-x,1/2+y,1/2+z
1/2+x,1/2-y,1/2+z
loop_
_atom_site_type_symbol
_atom_site_label
_atom_site_fract_x
_atom_site_fract_y
_atom_site_fract_z
Si Si1 0.300261 0.653508 0.107320
Si Si2 0.668592 0.345244 0.662228
Si Si3 0.809406 0.479149 0.541414
Si Si4 0.697330 0.843703 0.325150
Si Si5 0.809886 0.980448 0.886013
Si Si6 0.607260 0.909628 0.752673
O O1 0.250000 0.750000 0.077871
O O2 0.481884 0.656185 0.139075
O O3 0.284635 0.572216 0.050151
O O4 0.178406 0.627243 0.175489
O O5 0.750000 0.250000 0.648404
O O6 0.760336 0.418240 0.612043
O O7 0.691921 0.363472 0.751186
O O8 0.749828 0.435953 0.463278
O O9 0.000000 0.500000 0.540297
O O10 0.750000 0.750000 0.357545
O O11 0.516855 0.841334 0.291168
O O12 0.715289 0.925745 0.380359
O O13 0.750284 0.929349 0.811749
O O14 0.000000 0.000000 0.886221
O O15 0.500000 0.000000 0.742567
#
# Coordination Sequence:
#
# PCOD9354122 Si02
#       6
#     8   8   8   8   8   8
#     4  12  23  38  63  93 122 158 198 245 299 355
#     4  11  23  41  63  91 120 156 203 250 295 350
#     4  12  24  42  62  86 122 161 199 247 299 356
#     4  10  20  38  62  88 118 153 196 247 292 346
#     4  11  23  40  60  86 118 159 199 240 296 357
#     4  10  21  39  61  88 119 157 199 243 297 352
#
# _framework density 21.788736
#
# number of rings (size 3 to 8) (size 9 to 14) (size 15 to 20)
#    0.000    1.000    0.000   10.500    0.000    0.667 
#    0.000    5.833    0.000    0.000    0.000    0.000 
#    0.000    0.000    0.000    0.000    0.000    0.000 
#
# Total GULP energy -134337.654354 kJ/mol
# GULP energy per Si atom -5597.402265 kJ/mol
# Density = 2.173914 g / cm^3
# Si number density = 21.788736 Si / 1000 Ang^3
#
#
#
# Elastic Constant Matrix: (Units=GPa)
#
#
# Indices 1 2 3 4 5 6 
#
# 1 119.5337 -13.2608 -11.6686 0.0000 0.0000 0.0000
# 2 -13.2608 71.3563 2.9136 0.0000 0.0000 0.0000
# 3 -11.6686 2.9136 53.8961 0.0000 0.0000 0.0000
# 4 0.0000 0.0000 0.0000 11.0128 0.0000 0.0000
# 5 0.0000 0.0000 0.0000 0.0000 29.5054 0.0000
# 6 0.0000 0.0000 0.0000 0.0000 0.0000 30.5985
#
#
#
# Elastic Compliance Matrix: (Units=1/GPa)
#
#
# Indices 1 2 3 4 5 6 
#
# 1 0.008713 0.001546 0.001803 0.000000 0.000000 0.000000
# 2 0.001546 0.014319 -0.000439 0.000000 0.000000 0.000000
# 3 0.001803 -0.000439 0.018968 0.000000 0.000000 0.000000
# 4 0.000000 0.000000 0.000000 0.090804 0.000000 0.000000
# 5 0.000000 0.000000 0.000000 0.000000 0.033892 0.000000
# 6 0.000000 0.000000 0.000000 0.000000 0.000000 0.032681
#
#
# Mechanical properties :
#
#
# Convention : Reuss Voigt Hill
#
# Bulk Modulus (GPa) = 20.91213 22.30606 21.60909
# Shear Modulus (GPa) = 23.86641 32.01014 27.93827
#
# Velocity S-wave (km/s) = 3.31321 3.83706 3.58472
# Velocity P-wave (km/s) = 4.92493 5.46721 5.20314
#
# Compressibility (1/GPa) = 0.04781915
#
# Stress axis : x y z
#
# Youngs Moduli (GPa) = 114.76698 69.83549 52.71953
#
# Poissons Ratio (x) = -0.10794 -0.09505
# Poissons Ratio (y) = -0.17739 0.02317
# Poissons Ratio (z) = -0.20691 0.03069
#
# Static dielectric constant tensor:
#      x y z
#    x 1.775860 0.000000 0.000000 
#    y 0.000000 1.812380 0.000000 
#    z 0.000000 0.000000 1.789670 
# 
# From -- ./inp_files/14488.got.cif
#   From: 2010.05.17/outbox.cif.g08.bks.cpg/sg37_8_cif.got.tgz:14488.got - 2010.06.03 17:53:42.
