data_PCOD9354432
_publ_section_title
;
Structure prediction by ZEFSAII (Michael W. Deem and Ramdas Pophale) SiO2 
 PCOD9354432
Probable space group: C C C 2
;
_chemical_formula_sum "Si O2"
_cell_formula_units_Z 56
_cell_length_a 26.924702
_cell_length_b 6.188131
_cell_length_c 14.784681
_cell_angle_alpha 90.000000
_cell_angle_beta 90.000000
_cell_angle_gamma 90.000000
_cell_volume 2463.328677
_symmetry_space_group_name_H-M "C C C 2"
_symmetry_group_IT_number 37
_symmetry_cell_setting 'orthorhombic'
loop_
_space_group_symop_operation_xyz
x,y,z
-x,-y,z
-x,y,1/2+z
x,-y,1/2+z
1/2+x,1/2+y,z
1/2-x,1/2-y,z
1/2-x,1/2+y,1/2+z
1/2+x,1/2-y,1/2+z
loop_
_atom_site_type_symbol
_atom_site_label
_atom_site_fract_x
_atom_site_fract_y
_atom_site_fract_z
Si Si1 0.553549 0.241768 0.122000
Si Si2 0.133979 0.091844 0.097801
Si Si3 0.516991 0.252945 0.777599
Si Si4 0.107986 0.506719 0.287843
Si Si5 0.394085 0.012040 0.986786
Si Si6 0.694876 0.286469 0.759799
Si Si7 0.195607 0.828465 0.964602
O O1 0.583461 0.457311 0.098717
O O2 0.501067 0.255222 0.172635
O O3 0.586158 0.141651 0.205098
O O4 0.558274 0.110689 0.028535
O O5 0.161952 0.076070 0.192215
O O6 0.119909 0.328331 0.066602
O O7 0.173997 0.017397 0.024329
O O8 0.500000 0.500000 0.810037
O O9 0.575613 0.217724 0.790449
O O10 0.500000 0.000000 0.808160
O O11 0.099781 0.611158 0.386871
O O12 0.164564 0.437879 0.271994
O O13 0.347393 0.851616 0.975207
O O14 0.750000 0.250000 0.723532
O O15 0.699295 0.386795 0.859179
O O16 0.250000 0.750000 0.993713
#
# Coordination Sequence:
#
# PCOD9354432 Si02
#       7
#     8   8   8   8   8   8   8
#     4  10  22  41  65  97 128 170 222 285 340 411
#     4  11  22  36  68  92 130 177 223 282 347 416
#     4  10  22  42  70 101 133 185 222 282 354 410
#     4  10  21  43  66  96 140 174 226 284 348 416
#     4  10  22  40  63  94 130 177 227 279 347 421
#     4  10  21  38  63  93 129 175 222 276 341 414
#     4   9  22  39  56  91 134 172 227 288 343 418
#
# _framework density 22.733468999999999
#
# number of rings (size 3 to 8) (size 9 to 14) (size 15 to 20)
#    0.000    2.000    1.429    0.857    6.000    0.000 
#    7.714    7.143    0.000    0.000    0.000    0.000 
#    0.000    0.000    0.000    0.000    0.000    0.000 
#
# Total GULP energy -155969.799898 kJ/mol
# GULP energy per Si atom -5570.349996 kJ/mol
# Density = 2.268173 g / cm^3
# Si number density = 22.733469 Si / 1000 Ang^3
#
#
#
# Elastic Constant Matrix: (Units=GPa)
#
#
# Indices 1 2 3 4 5 6 
#
# 1 91.4696 5.9832 4.9315 0.0000 0.0000 0.0000
# 2 5.9832 56.5965 5.5844 0.0000 0.0000 0.0000
# 3 4.9315 5.5844 58.8226 0.0000 0.0000 0.0000
# 4 0.0000 0.0000 0.0000 28.4986 0.0000 0.0000
# 5 0.0000 0.0000 0.0000 0.0000 9.5313 0.0000
# 6 0.0000 0.0000 0.0000 0.0000 0.0000 19.0865
#
#
#
# Elastic Compliance Matrix: (Units=1/GPa)
#
#
# Indices 1 2 3 4 5 6 
#
# 1 0.011048 -0.001087 -0.000823 0.000000 0.000000 0.000000
# 2 -0.001087 0.017943 -0.001612 0.000000 0.000000 0.000000
# 3 -0.000823 -0.001612 0.017222 0.000000 0.000000 0.000000
# 4 0.000000 0.000000 0.000000 0.035089 0.000000 0.000000
# 5 0.000000 0.000000 0.000000 0.000000 0.104917 0.000000
# 6 0.000000 0.000000 0.000000 0.000000 0.000000 0.052393
#
#
# Mechanical properties :
#
#
# Convention : Reuss Voigt Hill
#
# Bulk Modulus (GPa) = 25.53037 26.65410 26.09224
# Shear Modulus (GPa) = 19.32638 24.11592 21.72115
#
# Velocity S-wave (km/s) = 2.91886 3.26054 3.09442
# Velocity P-wave (km/s) = 4.75545 5.09165 4.92642
#
# Compressibility (1/GPa) = 0.03916903
#
# Stress axis : x y z
#
# Youngs Moduli (GPa) = 90.51365 55.73236 58.06413
#
# Poissons Ratio (x) = 0.06057 0.04779
# Poissons Ratio (y) = 0.09837 0.09362
# Poissons Ratio (z) = 0.07450 0.08986
#
# Static dielectric constant tensor:
#      x y z
#    x 1.890840 0.000000 0.000000 
#    y 0.000000 1.926680 0.000000 
#    z 0.000000 0.000000 1.863890 
# 
# From -- ./inp_files/13382.got.cif
#   From: 2010.05.17/outbox.cif.g08.bks.cpg/sg37_7_cif.got.tgz:13382.got - 2010.06.03 17:53:42.
