data_PCOD9354915
_publ_section_title
;
Structure prediction by ZEFSAII (Michael W. Deem and Ramdas Pophale) SiO2 
 PCOD9354915
Probable space group: C C C 2
;
_chemical_formula_sum "Si O2"
_cell_formula_units_Z 48
_cell_length_a 7.598785
_cell_length_b 24.264601
_cell_length_c 11.292969
_cell_angle_alpha 90.000000
_cell_angle_beta 90.000000
_cell_angle_gamma 90.000000
_cell_volume 2082.214407
_symmetry_space_group_name_H-M "C C C 2"
_symmetry_group_IT_number 37
_symmetry_cell_setting 'orthorhombic'
loop_
_space_group_symop_operation_xyz
x,y,z
-x,-y,z
-x,y,1/2+z
x,-y,1/2+z
1/2+x,1/2+y,z
1/2-x,1/2-y,z
1/2-x,1/2+y,1/2+z
1/2+x,1/2-y,1/2+z
loop_
_atom_site_type_symbol
_atom_site_label
_atom_site_fract_x
_atom_site_fract_y
_atom_site_fract_z
Si Si1 0.050353 0.275780 0.466080
Si Si2 0.500000 0.500000 0.853652
Si Si3 0.810976 0.494858 0.534450
Si Si4 0.281609 0.588634 0.734875
Si Si5 0.250000 0.750000 0.285303
Si Si6 0.214680 0.613784 0.999592
Si Si7 0.492803 0.320512 0.624718
O O1 0.250000 0.250000 0.442858
O O2 0.078635 0.336685 0.517800
O O3 0.960079 0.235843 0.560769
O O4 0.916830 0.273582 0.357346
O O5 0.447311 0.550815 0.772245
O O6 0.340847 0.483816 0.940292
O O7 0.812799 0.449036 0.636573
O O8 0.785863 0.558189 0.576105
O O9 0.000000 0.500000 0.473913
O O10 0.191135 0.598466 0.861338
O O11 0.352288 0.646313 0.685930
O O12 0.336365 0.699734 0.211501
O O13 0.405464 0.640195 0.025379
#
# Coordination Sequence:
#
# PCOD9354915 Si02
#       7
#     8   4   8   8   4   8   8
#     4  10  23  45  64 102 141 176 242 299 350 441
#     4  10  22  44  64 100 142 184 232 302 360 448
#     4  11  25  42  68 102 139 185 244 296 367 438
#     4  11  22  39  72 102 136 193 236 294 373 428
#     4  12  24  42  74  96 136 204 234 298 378 424
#     4  10  22  43  64  93 147 174 228 312 338 434
#     4  11  21  43  68 100 141 183 240 297 356 443
#
# _framework density 23.052379999999999
#
# number of rings (size 3 to 8) (size 9 to 14) (size 15 to 20)
#    0.000    1.333    2.500    5.500    0.000    6.667 
#    4.500    0.000    0.000    0.000    0.000    0.000 
#    0.000    0.000    0.000    0.000    0.000    0.000 
#
# Total GULP energy -133949.963605 kJ/mol
# GULP energy per Si atom -5581.248484 kJ/mol
# Density = 2.299991 g / cm^3
# Si number density = 23.052380 Si / 1000 Ang^3
#
#
#
# Elastic Constant Matrix: (Units=GPa)
#
#
# Indices 1 2 3 4 5 6 
#
# 1 89.3267 9.0838 26.5860 0.0000 0.0000 0.0000
# 2 9.0838 130.2927 16.8195 0.0000 0.0000 0.0000
# 3 26.5860 16.8195 67.7447 0.0000 0.0000 0.0000
# 4 0.0000 0.0000 0.0000 19.9983 0.0000 0.0000
# 5 0.0000 0.0000 0.0000 0.0000 -21.9531 0.0000
# 6 0.0000 0.0000 0.0000 0.0000 0.0000 22.7410
#
#
#
# Elastic Compliance Matrix: (Units=1/GPa)
#
#
# Indices 1 2 3 4 5 6 
#
# 1 0.012683 -0.000250 -0.004915 0.000000 0.000000 0.000000
# 2 -0.000250 0.007934 -0.001872 0.000000 0.000000 0.000000
# 3 -0.004915 -0.001872 0.017155 0.000000 0.000000 0.000000
# 4 0.000000 0.000000 0.000000 0.050004 0.000000 0.000000
# 5 0.000000 0.000000 0.000000 0.000000 -0.045552 0.000000
# 6 0.000000 0.000000 0.000000 0.000000 0.000000 0.043973
#
#
# Mechanical properties :
#
#
# Convention : Reuss Voigt Hill
#
# Bulk Modulus (GPa) = 42.19706 43.59362 42.89534
# Shear Modulus (GPa) = 46.22271 19.81556 33.01913
#
# Velocity S-wave (km/s) = 4.48271 2.93505 3.78875
# Velocity P-wave (km/s) = 6.71845 5.51705 6.14717
#
# Compressibility (1/GPa) = 0.02369833
#
# Stress axis : x y z
#
# Youngs Moduli (GPa) = 78.84425 126.03864 58.29175
#
# Poissons Ratio (x) = 0.03147 0.28653
# Poissons Ratio (y) = 0.01969 0.10911
# Poissons Ratio (z) = 0.38756 0.23593
#
# Static dielectric constant tensor:
#      x y z
#    x 2.320720 0.000000 0.000000 
#    y 0.000000 1.920940 0.000000 
#    z 0.000000 0.000000 1.907240 
# 
# From -- ./inp_files/6418.got.cif
#   From: 2010.05.17/outbox.cif.g08.bks.cpg/sg37_4_cif.got.tgz:6418.got - 2010.06.03 17:53:42.
