data_PCOD9354060
_publ_section_title
;
Structure prediction by ZEFSAII (Michael W. Deem and Ramdas Pophale) SiO2 
 PCOD9354060
Probable space group: C C C 2
;
_chemical_formula_sum "Si O2"
_cell_formula_units_Z 48
_cell_length_a 8.713010
_cell_length_b 15.861492
_cell_length_c 15.803071
_cell_angle_alpha 90.000000
_cell_angle_beta 90.000000
_cell_angle_gamma 90.000000
_cell_volume 2184.005563
_symmetry_space_group_name_H-M "C C C 2"
_symmetry_group_IT_number 37
_symmetry_cell_setting 'orthorhombic'
loop_
_space_group_symop_operation_xyz
x,y,z
-x,-y,z
-x,y,1/2+z
x,-y,1/2+z
1/2+x,1/2+y,z
1/2-x,1/2-y,z
1/2-x,1/2+y,1/2+z
1/2+x,1/2-y,1/2+z
loop_
_atom_site_type_symbol
_atom_site_label
_atom_site_fract_x
_atom_site_fract_y
_atom_site_fract_z
Si Si1 0.190740 0.663932 0.759850
Si Si2 0.139567 0.330645 0.018003
Si Si3 0.676067 0.167080 0.952446
Si Si4 0.815773 0.009251 0.448125
Si Si5 0.939487 0.403481 0.170925
Si Si6 0.821303 0.010047 0.245574
O O1 0.250000 0.750000 0.720936
O O2 0.241096 0.664311 0.856899
O O3 0.262430 0.581971 0.717885
O O4 0.011308 0.645916 0.750813
O O5 0.250000 0.250000 0.026913
O O6 0.244834 0.410566 0.995411
O O7 0.006401 0.319769 0.947674
O O8 0.021303 0.353399 0.094852
O O9 0.750000 0.250000 0.995013
O O10 0.728802 0.074557 0.983080
O O11 0.784663 0.020036 0.346431
O O12 0.000000 0.000000 0.458585
O O13 0.760613 0.417951 0.190330
O O14 0.000000 0.500000 0.167532
O O15 0.000000 0.000000 0.236405
#
# Coordination Sequence:
#
# PCOD9354060 Si02
#       6
#     8   8   8   8   8   8
#     4   9  18  35  59  84 113 149 193 244 295 355
#     4  12  24  38  57  85 123 164 204 246 301 363
#     4  10  20  37  60  87 117 154 199 247 302 359
#     4  10  20  38  64  92 120 153 200 257 308 360
#     4  10  20  37  58  83 118 159 198 239 298 363
#     4   9  19  37  62  89 115 149 197 251 306 358
#
# _framework density 21.977967
#
# number of rings (size 3 to 8) (size 9 to 14) (size 15 to 20)
#    0.000    2.000    0.000    4.000    0.000    4.000 
#    0.000   13.333    0.000    2.000    0.000    0.000 
#    0.000    0.000    0.000    0.000    0.000    0.000 
#
# Total GULP energy -133660.481186 kJ/mol
# GULP energy per Si atom -5569.186716 kJ/mol
# Density = 2.192794 g / cm^3
# Si number density = 21.977967 Si / 1000 Ang^3
#
#
#
# Elastic Constant Matrix: (Units=GPa)
#
#
# Indices 1 2 3 4 5 6 
#
# 1 134.6204 79.9745 27.6690 0.0000 0.0000 0.0000
# 2 79.9745 177.8319 36.4483 0.0000 0.0000 0.0000
# 3 27.6690 36.4483 60.7087 0.0000 0.0000 0.0000
# 4 0.0000 0.0000 0.0000 11.5053 0.0000 0.0000
# 5 0.0000 0.0000 0.0000 0.0000 18.7172 0.0000
# 6 0.0000 0.0000 0.0000 0.0000 0.0000 44.4888
#
#
#
# Elastic Compliance Matrix: (Units=1/GPa)
#
#
# Indices 1 2 3 4 5 6 
#
# 1 0.010388 -0.004221 -0.002200 0.000000 0.000000 0.000000
# 2 -0.004221 0.008127 -0.002956 0.000000 0.000000 0.000000
# 3 -0.002200 -0.002956 0.019250 0.000000 0.000000 0.000000
# 4 0.000000 0.000000 0.000000 0.086916 0.000000 0.000000
# 5 0.000000 0.000000 0.000000 0.000000 0.053427 0.000000
# 6 0.000000 0.000000 0.000000 0.000000 0.000000 0.022478
#
#
# Mechanical properties :
#
#
# Convention : Reuss Voigt Hill
#
# Bulk Modulus (GPa) = 52.60132 73.48272 63.04202
# Shear Modulus (GPa) = 22.15565 30.21356 26.18460
#
# Velocity S-wave (km/s) = 3.17848 3.71174 3.45541
# Velocity P-wave (km/s) = 6.12012 7.20255 6.68329
#
# Compressibility (1/GPa) = 0.01901093
#
# Stress axis : x y z
#
# Youngs Moduli (GPa) = 96.26533 123.04329 51.94912
#
# Poissons Ratio (x) = 0.51932 0.11431
# Poissons Ratio (y) = 0.40630 0.15355
# Poissons Ratio (z) = 0.21183 0.36369
#
# Static dielectric constant tensor:
#      x y z
#    x 1.910020 0.000000 0.000000 
#    y 0.000000 1.811000 0.000000 
#    z 0.000000 0.000000 1.979420 
# 
# From -- ./inp_files/14506.got.cif
#   From: 2010.05.17/outbox.cif.g08.bks.cpg/sg37_8_cif.got.tgz:14506.got - 2010.06.03 17:53:42.
