data_PCOD9354847
_publ_section_title
;
Structure prediction by ZEFSAII (Michael W. Deem and Ramdas Pophale) SiO2 
 PCOD9354847
Probable space group: C C C 2
;
_chemical_formula_sum "Si O2"
_cell_formula_units_Z 48
_cell_length_a 9.861345
_cell_length_b 21.179161
_cell_length_c 9.163097
_cell_angle_alpha 90.000000
_cell_angle_beta 90.000000
_cell_angle_gamma 90.000000
_cell_volume 1913.758747
_symmetry_space_group_name_H-M "C C C 2"
_symmetry_group_IT_number 37
_symmetry_cell_setting 'orthorhombic'
loop_
_space_group_symop_operation_xyz
x,y,z
-x,-y,z
-x,y,1/2+z
x,-y,1/2+z
1/2+x,1/2+y,z
1/2-x,1/2-y,z
1/2-x,1/2+y,1/2+z
1/2+x,1/2-y,1/2+z
loop_
_atom_site_type_symbol
_atom_site_label
_atom_site_fract_x
_atom_site_fract_y
_atom_site_fract_z
Si Si1 0.847696 0.842653 0.734730
Si Si2 0.427020 0.618902 0.920527
Si Si3 0.939104 0.702335 0.657814
Si Si4 0.659763 0.156178 0.856385
Si Si5 0.661071 0.004987 0.921150
Si Si6 0.147598 0.989677 0.686078
O O1 0.888798 0.884958 0.591911
O O2 0.915007 0.775294 0.692525
O O3 0.687364 0.832909 0.735952
O O4 0.920424 0.861596 0.884471
O O5 0.319571 0.670977 0.859693
O O6 0.404933 0.559818 0.811089
O O7 0.916437 0.690397 0.487610
O O8 0.079266 0.673191 0.712292
O O9 0.664775 0.081473 0.895425
O O10 0.500000 0.000000 0.934226
O O11 0.746180 0.977667 0.056415
O O12 0.743376 0.972643 0.787721
O O13 0.000000 0.000000 0.612889
#
# Coordination Sequence:
#
# PCOD9354847 Si02
#       6
#     8   8   8   8   8   8
#     4  10  22  42  66  96 133 176 225 283 352 426
#     4  10  24  41  65  97 131 179 221 279 353 419
#     4  10  22  41  66  95 134 174 225 287 348 425
#     4  10  24  41  65  97 130 180 224 278 352 418
#     4  11  26  44  69 100 140 183 239 294 355 430
#     4  11  26  43  69 102 141 181 235 297 360 428
#
# _framework density 25.081533
#
# number of rings (size 3 to 8) (size 9 to 14) (size 15 to 20)
#    0.000    1.667    0.000    2.000   16.333    3.333 
#    0.000    0.000    0.000    0.000    0.000    0.000 
#    0.000    0.000    0.000    0.000    0.000    0.000 
#
# Total GULP energy -133754.151490 kJ/mol
# GULP energy per Si atom -5573.089645 kJ/mol
# Density = 2.502445 g / cm^3
# Si number density = 25.081533 Si / 1000 Ang^3
#
#
#
# Elastic Constant Matrix: (Units=GPa)
#
#
# Indices 1 2 3 4 5 6 
#
# 1 175.4724 4.6490 53.4074 0.0000 0.0000 0.0000
# 2 4.6490 59.8729 -30.0246 0.0000 0.0000 0.0000
# 3 53.4074 -30.0246 73.2505 0.0000 0.0000 0.0000
# 4 0.0000 0.0000 0.0000 19.0049 0.0000 0.0000
# 5 0.0000 0.0000 0.0000 0.0000 53.2932 0.0000
# 6 0.0000 0.0000 0.0000 0.0000 0.0000 28.4286
#
#
#
# Elastic Compliance Matrix: (Units=1/GPa)
#
#
# Indices 1 2 3 4 5 6 
#
# 1 0.008215 -0.004584 -0.007869 0.000000 0.000000 0.000000
# 2 -0.004584 0.023581 0.013008 0.000000 0.000000 0.000000
# 3 -0.007869 0.013008 0.024721 0.000000 0.000000 0.000000
# 4 0.000000 0.000000 0.000000 0.052618 0.000000 0.000000
# 5 0.000000 0.000000 0.000000 0.000000 0.018764 0.000000
# 6 0.000000 0.000000 0.000000 0.000000 0.000000 0.035176
#
#
# Mechanical properties :
#
#
# Convention : Reuss Voigt Hill
#
# Bulk Modulus (GPa) = 17.35291 40.51771 28.93531
# Shear Modulus (GPa) = 27.59787 38.84962 33.22374
#
# Velocity S-wave (km/s) = 3.32072 3.93992 3.64349
# Velocity P-wave (km/s) = 4.65150 6.07345 5.40940
#
# Compressibility (1/GPa) = 0.05762722
#
# Stress axis : x y z
#
# Youngs Moduli (GPa) = 121.72427 42.40709 40.45209
#
# Poissons Ratio (x) = 0.19439 0.31830
# Poissons Ratio (y) = 0.55796 -0.52619
# Poissons Ratio (z) = 0.95781 -0.55162
#
# Static dielectric constant tensor:
#      x y z
#    x 2.136780 0.000000 0.000000 
#    y 0.000000 2.237910 0.000000 
#    z 0.000000 0.000000 1.945490 
# 
# From -- ./inp_files/2418.got.cif
#   From: 2010.05.17/outbox.cif.g08.bks.cpg/sg37_2_cif.got.tgz:2418.got - 2010.06.03 17:53:42.
