data_PCOD9354782
_publ_section_title
;
Structure prediction by ZEFSAII (Michael W. Deem and Ramdas Pophale) SiO2 
 PCOD9354782
Probable space group: C C C 2
;
_chemical_formula_sum "Si O2"
_cell_formula_units_Z 56
_cell_length_a 14.636490
_cell_length_b 7.672777
_cell_length_c 19.322505
_cell_angle_alpha 90.000000
_cell_angle_beta 90.000000
_cell_angle_gamma 90.000000
_cell_volume 2169.966078
_symmetry_space_group_name_H-M "C C C 2"
_symmetry_group_IT_number 37
_symmetry_cell_setting 'orthorhombic'
loop_
_space_group_symop_operation_xyz
x,y,z
-x,-y,z
-x,y,1/2+z
x,-y,1/2+z
1/2+x,1/2+y,z
1/2-x,1/2-y,z
1/2-x,1/2+y,1/2+z
1/2+x,1/2-y,1/2+z
loop_
_atom_site_type_symbol
_atom_site_label
_atom_site_fract_x
_atom_site_fract_y
_atom_site_fract_z
Si Si1 0.141527 0.753446 0.978630
Si Si2 0.904087 0.153959 0.629161
Si Si3 0.583146 0.271041 0.323468
Si Si4 0.648153 0.667621 0.975316
Si Si5 0.907846 0.361852 0.826683
Si Si6 0.250000 0.750000 0.732230
Si Si7 0.250000 0.750000 0.228998
Si Si8 0.588459 0.230351 0.128363
O O1 0.250000 0.750000 0.985181
O O2 0.109008 0.661469 0.908906
O O3 0.128362 0.960484 0.974612
O O4 0.100459 0.674539 0.049025
O O5 0.885454 0.220155 0.551378
O O6 0.819221 0.161702 0.679786
O O7 0.984721 0.284947 0.655389
O O8 0.913848 0.943409 0.625015
O O9 0.598408 0.282613 0.404931
O O10 0.475487 0.302899 0.307613
O O11 0.672681 0.335155 0.281176
O O12 0.575481 0.064697 0.312017
O O13 0.750000 0.750000 0.969078
O O14 0.814816 0.347161 0.784856
O O15 0.325566 0.830191 0.174663
#
# Coordination Sequence:
#
# PCOD9354782 Si02
#       8
#     8   8   8   8   8   4   4   8
#     4  11  22  41  69  96 125 166 216 268 325 380
#     4  10  22  40  63  93 127 166 215 265 316 377
#     4  11  25  43  64  95 133 172 216 265 317 378
#     4  11  22  41  69  96 125 166 216 268 325 380
#     4  11  25  43  64  95 133 172 216 265 317 378
#     4  12  22  40  64  92 130 176 212 260 316 380
#     4  12  22  40  64  92 130 176 212 260 316 380
#     4  10  22  40  63  93 127 166 215 265 316 377
#
# _framework density 25.806854999999999
#
# number of rings (size 3 to 8) (size 9 to 14) (size 15 to 20)
#    0.000    1.143    2.857    3.429    0.000    2.857 
#    0.000    0.000    0.000    6.857    0.000    0.000 
#    0.000    0.000    0.000    0.000    0.000    0.000 
#
# Total GULP energy -156027.115200 kJ/mol
# GULP energy per Si atom -5572.396971 kJ/mol
# Density = 2.574812 g / cm^3
# Si number density = 25.806855 Si / 1000 Ang^3
#
#
#
# Elastic Constant Matrix: (Units=GPa)
#
#
# Indices 1 2 3 4 5 6 
#
# 1 112.4216 -10.0851 34.8705 0.0000 0.0000 0.0000
# 2 -10.0851 32.6892 -7.0242 0.0000 0.0000 0.0000
# 3 34.8705 -7.0242 172.0096 0.0000 0.0000 0.0000
# 4 0.0000 0.0000 0.0000 14.6900 0.0000 0.0000
# 5 0.0000 0.0000 0.0000 0.0000 -204.7143 0.0000
# 6 0.0000 0.0000 0.0000 0.0000 0.0000 11.8393
#
#
#
# Elastic Compliance Matrix: (Units=1/GPa)
#
#
# Indices 1 2 3 4 5 6 
#
# 1 0.009705 0.002594 -0.001862 0.000000 0.000000 0.000000
# 2 0.002594 0.031555 0.000763 0.000000 0.000000 0.000000
# 3 -0.001862 0.000763 0.006222 0.000000 0.000000 0.000000
# 4 0.000000 0.000000 0.000000 0.068073 0.000000 0.000000
# 5 0.000000 0.000000 0.000000 0.000000 -0.004885 0.000000
# 6 0.000000 0.000000 0.000000 0.000000 0.000000 0.084465
#
#
# Mechanical properties :
#
#
# Convention : Reuss Voigt Hill
#
# Bulk Modulus (GPa) = 19.81241 39.18252 29.49747
# Shear Modulus (GPa) = 23.92693 -15.67972 4.12360
#
# Velocity S-wave (km/s) = 3.04822 -2.46759 1.26544
# Velocity P-wave (km/s) = 4.48138 2.66408 3.68646
#
# Compressibility (1/GPa) = 0.05047341
#
# Stress axis : x y z
#
# Youngs Moduli (GPa) = 103.03742 31.69036 160.71603
#
# Poissons Ratio (x) = -0.08221 0.29918
# Poissons Ratio (y) = -0.26730 -0.12258
# Poissons Ratio (z) = 0.19181 -0.02417
#
# Static dielectric constant tensor:
#      x y z
#    x 2.044140 0.000000 0.000000 
#    y 0.000000 2.203320 0.000000 
#    z 0.000000 0.000000 1.973950 
# 
# From -- ./inp_files/17225.got.cif
#   From: 2010.05.17/outbox.cif.g08.bks.cpg/sg37_9_cif.got.tgz:17225.got - 2010.06.03 17:53:42.
