data_PCOD9354853
_publ_section_title
;
Structure prediction by ZEFSAII (Michael W. Deem and Ramdas Pophale) SiO2 
 PCOD9354853
Probable space group: C C C 2
;
_chemical_formula_sum "Si O2"
_cell_formula_units_Z 48
_cell_length_a 8.971742
_cell_length_b 12.708287
_cell_length_c 17.308804
_cell_angle_alpha 90.000000
_cell_angle_beta 90.000000
_cell_angle_gamma 90.000000
_cell_volume 1973.471462
_symmetry_space_group_name_H-M "C C C 2"
_symmetry_group_IT_number 37
_symmetry_cell_setting 'orthorhombic'
loop_
_space_group_symop_operation_xyz
x,y,z
-x,-y,z
-x,y,1/2+z
x,-y,1/2+z
1/2+x,1/2+y,z
1/2-x,1/2-y,z
1/2-x,1/2+y,1/2+z
1/2+x,1/2-y,1/2+z
loop_
_atom_site_type_symbol
_atom_site_label
_atom_site_fract_x
_atom_site_fract_y
_atom_site_fract_z
Si Si1 0.319665 0.135387 0.994540
Si Si2 0.627336 0.836429 0.736530
Si Si3 0.182082 0.508357 0.855578
Si Si4 0.124557 0.820541 0.775935
Si Si5 0.593084 0.402766 0.616526
Si Si6 0.590709 0.198565 0.068854
O O1 0.250000 0.250000 0.974405
O O2 0.266067 0.052316 0.931549
O O3 0.254091 0.100666 0.077322
O O4 0.499187 0.141562 0.001271
O O5 0.750000 0.750000 0.720656
O O6 0.700672 0.931777 0.781864
O O7 0.504828 0.768335 0.786229
O O8 0.586330 0.867614 0.648819
O O9 0.282777 0.613173 0.840488
O O10 0.000000 0.500000 0.858464
O O11 0.250000 0.750000 0.735366
O O12 0.080249 0.899441 0.708568
O O13 0.500000 0.500000 0.585716
O O14 0.512804 0.297508 0.588842
O O15 0.750000 0.250000 0.048754
#
# Coordination Sequence:
#
# PCOD9354853 Si02
#       6
#     8   8   8   8   8   8
#     4  10  23  48  67  95 142 182 219 285 352 420
#     4  10  22  43  69 105 136 172 232 289 344 418
#     4  12  26  43  66 104 135 187 233 276 360 418
#     4  11  23  45  71  95 141 181 229 300 344 409
#     4  10  22  41  69 104 129 176 236 277 348 413
#     4   9  20  41  73  99 135 176 223 290 345 402
#
# _framework density 24.322621000000002
#
# number of rings (size 3 to 8) (size 9 to 14) (size 15 to 20)
#    0.000    1.667    1.667    3.000    7.000    1.333 
#   12.000    0.000    0.000    0.000    0.000    0.000 
#    0.000    0.000    0.000    0.000    0.000    0.000 
#
# Total GULP energy -133785.771959 kJ/mol
# GULP energy per Si atom -5574.407165 kJ/mol
# Density = 2.426726 g / cm^3
# Si number density = 24.322621 Si / 1000 Ang^3
#
#
#
# Elastic Constant Matrix: (Units=GPa)
#
#
# Indices 1 2 3 4 5 6 
#
# 1 96.6850 7.9600 3.7411 0.0000 0.0000 0.0000
# 2 7.9600 66.7713 12.6690 0.0000 0.0000 0.0000
# 3 3.7411 12.6690 40.4465 0.0000 0.0000 0.0000
# 4 0.0000 0.0000 0.0000 34.5271 0.0000 0.0000
# 5 0.0000 0.0000 0.0000 0.0000 8.4412 0.0000
# 6 0.0000 0.0000 0.0000 0.0000 0.0000 43.3917
#
#
#
# Elastic Compliance Matrix: (Units=1/GPa)
#
#
# Indices 1 2 3 4 5 6 
#
# 1 0.010460 -0.001131 -0.000613 0.000000 0.000000 0.000000
# 2 -0.001131 0.016045 -0.004921 0.000000 0.000000 0.000000
# 3 -0.000613 -0.004921 0.026322 0.000000 0.000000 0.000000
# 4 0.000000 0.000000 0.000000 0.028963 0.000000 0.000000
# 5 0.000000 0.000000 0.000000 0.000000 0.118467 0.000000
# 6 0.000000 0.000000 0.000000 0.000000 0.000000 0.023046
#
#
# Mechanical properties :
#
#
# Convention : Reuss Voigt Hill
#
# Bulk Modulus (GPa) = 25.31854 28.07142 26.69498
# Shear Modulus (GPa) = 20.01613 29.24084 24.62849
#
# Velocity S-wave (km/s) = 2.87181 3.47105 3.18555
# Velocity P-wave (km/s) = 4.62909 5.25648 4.95273
#
# Compressibility (1/GPa) = 0.03949674
#
# Stress axis : x y z
#
# Youngs Moduli (GPa) = 95.60522 62.32466 37.99070
#
# Poissons Ratio (x) = 0.07046 0.02330
# Poissons Ratio (y) = 0.10809 0.18696
# Poissons Ratio (z) = 0.05864 0.30671
#
# Static dielectric constant tensor:
#      x y z
#    x 2.057320 0.000000 0.000000 
#    y 0.000000 1.917410 0.000000 
#    z 0.000000 0.000000 1.962480 
# 
# From -- ./inp_files/18342.got.cif
#   From: 2010.05.17/outbox.cif.g08.bks.cpg/sg37_10_cif.got.tgz:18342.got - 2010.06.03 17:53:42.
