data_PCOD9354453
_publ_section_title
;
Structure prediction by ZEFSAII (Michael W. Deem and Ramdas Pophale) SiO2 
 PCOD9354453
Probable space group: C C C 2
;
_chemical_formula_sum "Si O2"
_cell_formula_units_Z 56
_cell_length_a 5.501015
_cell_length_b 19.204236
_cell_length_c 24.409208
_cell_angle_alpha 90.000000
_cell_angle_beta 90.000000
_cell_angle_gamma 90.000000
_cell_volume 2578.656842
_symmetry_space_group_name_H-M "C C C 2"
_symmetry_group_IT_number 37
_symmetry_cell_setting 'orthorhombic'
loop_
_space_group_symop_operation_xyz
x,y,z
-x,-y,z
-x,y,1/2+z
x,-y,1/2+z
1/2+x,1/2+y,z
1/2-x,1/2-y,z
1/2-x,1/2+y,1/2+z
1/2+x,1/2-y,1/2+z
loop_
_atom_site_type_symbol
_atom_site_label
_atom_site_fract_x
_atom_site_fract_y
_atom_site_fract_z
Si Si1 0.837958 0.170944 0.721910
Si Si2 0.756830 0.912287 0.414937
Si Si3 0.769262 0.668581 0.098462
Si Si4 0.761233 0.570725 0.871300
Si Si5 0.834461 0.565828 0.630819
Si Si6 0.028405 0.078345 0.525616
Si Si7 0.176109 0.400255 0.749984
O O1 0.750000 0.250000 0.728384
O O2 0.876216 0.158732 0.656294
O O3 0.603258 0.126677 0.743271
O O4 0.099547 0.155131 0.748974
O O5 0.497417 0.887741 0.392483
O O6 0.798521 0.892054 0.478334
O O7 0.006542 0.891930 0.384512
O O8 0.743961 0.995769 0.401498
O O9 0.750000 0.750000 0.086580
O O10 0.695993 0.626599 0.043342
O O11 0.025408 0.638161 0.119200
O O12 0.792496 0.559674 0.806654
O O13 0.632841 0.566688 0.585572
O O14 0.773228 0.557279 0.694336
O O15 0.000000 0.500000 0.616154
O O16 0.000000 0.000000 0.504441
#
# Coordination Sequence:
#
# PCOD9354453 Si02
#       7
#     8   8   8   8   8   8   8
#     4  10  21  40  63  94 129 175 219 266 333 414
#     4  10  23  38  61  88 125 170 217 264 332 397
#     4  10  23  41  62  96 140 179 219 267 339 418
#     4  10  21  39  58  90 121 172 210 268 329 397
#     4  11  24  36  63 101 134 174 212 287 341 400
#     4  12  22  40  65  96 129 174 225 281 337 401
#     4  11  22  39  62  96 133 167 218 274 342 402
#
# _framework density 21.716733000000001
#
# number of rings (size 3 to 8) (size 9 to 14) (size 15 to 20)
#    0.000    1.429    4.286    1.286    6.000    0.571 
#    5.143    0.000    0.000    3.429    0.000    0.000 
#    0.000    0.000    0.000    0.000    0.000    0.000 
#
# Total GULP energy -155905.402895 kJ/mol
# GULP energy per Si atom -5568.050103 kJ/mol
# Density = 2.166730 g / cm^3
# Si number density = 21.716733 Si / 1000 Ang^3
#
#
#
# Elastic Constant Matrix: (Units=GPa)
#
#
# Indices 1 2 3 4 5 6 
#
# 1 126.2433 14.0489 38.6476 0.0000 0.0000 0.0000
# 2 14.0489 43.7477 17.6988 0.0000 0.0000 0.0000
# 3 38.6476 17.6988 141.7848 0.0000 0.0000 0.0000
# 4 0.0000 0.0000 0.0000 5.1183 0.0000 0.0000
# 5 0.0000 0.0000 0.0000 0.0000 29.0823 0.0000
# 6 0.0000 0.0000 0.0000 0.0000 0.0000 20.0891
#
#
#
# Elastic Compliance Matrix: (Units=1/GPa)
#
#
# Indices 1 2 3 4 5 6 
#
# 1 0.008798 -0.001954 -0.002154 0.000000 0.000000 0.000000
# 2 -0.001954 0.024508 -0.002527 0.000000 0.000000 0.000000
# 3 -0.002154 -0.002527 0.007956 0.000000 0.000000 0.000000
# 4 0.000000 0.000000 0.000000 0.195376 0.000000 0.000000
# 5 0.000000 0.000000 0.000000 0.000000 0.034385 0.000000
# 6 0.000000 0.000000 0.000000 0.000000 0.000000 0.049778
#
#
# Mechanical properties :
#
#
# Convention : Reuss Voigt Hill
#
# Bulk Modulus (GPa) = 35.72450 50.28516 43.00483
# Shear Modulus (GPa) = 14.56022 26.94997 20.75510
#
# Velocity S-wave (km/s) = 2.59214 3.52657 3.09482
# Velocity P-wave (km/s) = 5.04429 6.30774 5.71106
#
# Compressibility (1/GPa) = 0.02799199
#
# Stress axis : x y z
#
# Youngs Moduli (GPa) = 113.66020 40.80302 125.69814
#
# Poissons Ratio (x) = 0.07972 0.27079
# Poissons Ratio (y) = 0.22207 0.31760
# Poissons Ratio (z) = 0.24486 0.10310
#
# Static dielectric constant tensor:
#      x y z
#    x 1.759630 0.000000 0.000000 
#    y 0.000000 1.795480 0.000000 
#    z 0.000000 0.000000 1.789320 
# 
# From -- ./inp_files/18066.got.cif
#   From: 2010.05.17/outbox.cif.g08.bks.cpg/sg37_10_cif.got.tgz:18066.got - 2010.06.03 17:53:42.
