data_PCOD9354951
_publ_section_title
;
Structure prediction by ZEFSAII (Michael W. Deem and Ramdas Pophale) SiO2 
 PCOD9354951
Probable space group: C C C 2
;
_chemical_formula_sum "Si O2"
_cell_formula_units_Z 48
_cell_length_a 21.986835
_cell_length_b 8.588409
_cell_length_c 10.338358
_cell_angle_alpha 90.000000
_cell_angle_beta 90.000000
_cell_angle_gamma 90.000000
_cell_volume 1952.212111
_symmetry_space_group_name_H-M "C C C 2"
_symmetry_group_IT_number 37
_symmetry_cell_setting 'orthorhombic'
loop_
_space_group_symop_operation_xyz
x,y,z
-x,-y,z
-x,y,1/2+z
x,-y,1/2+z
1/2+x,1/2+y,z
1/2-x,1/2-y,z
1/2-x,1/2+y,1/2+z
1/2+x,1/2-y,1/2+z
loop_
_atom_site_type_symbol
_atom_site_label
_atom_site_fract_x
_atom_site_fract_y
_atom_site_fract_z
Si Si1 0.955978 0.149138 0.290830
Si Si2 0.268912 0.926761 0.316524
Si Si3 0.633129 0.156949 0.820535
Si Si4 0.979471 0.328053 0.018017
Si Si5 0.648019 0.455060 0.697432
Si Si6 0.291477 0.626345 0.008643
O O1 0.965650 0.239525 0.153523
O O2 0.889570 0.070567 0.289311
O O3 0.972432 0.244598 0.420426
O O4 0.000000 0.000000 0.288270
O O5 0.250000 0.750000 0.329661
O O6 0.219585 0.016568 0.227035
O O7 0.336153 0.992366 0.283764
O O8 0.253348 0.995912 0.456989
O O9 0.622723 0.280176 0.703664
O O10 0.577690 0.148309 0.919627
O O11 0.682900 0.261249 0.896454
O O12 0.000000 0.500000 0.056735
O O13 0.648444 0.542751 0.561366
O O14 0.250000 0.750000 0.086780
#
# Coordination Sequence:
#
# PCOD9354951 Si02
#       6
#     8   8   8   8   8   8
#     4  12  26  47  78 107 145 201 256 311 383 456
#     4  10  23  39  64  99 134 180 230 293 367 442
#     4  10  22  44  65  96 140 184 237 304 364 449
#     4  12  27  49  72 110 151 195 253 322 383 451
#     4  11  21  41  68  96 135 184 237 297 362 444
#     4   9  19  39  65  94 131 170 226 293 362 428
#
# _framework density 24.587491
#
# number of rings (size 3 to 8) (size 9 to 14) (size 15 to 20)
#    0.000    1.333    3.333    3.000    2.333    1.333 
#    0.000    0.000    0.000    0.000    0.000    0.000 
#    0.000    0.000    0.000    0.000    0.000    0.000 
#
# Total GULP energy -133761.557735 kJ/mol
# GULP energy per Si atom -5573.398239 kJ/mol
# Density = 2.453153 g / cm^3
# Si number density = 24.587491 Si / 1000 Ang^3
#
#
#
# Elastic Constant Matrix: (Units=GPa)
#
#
# Indices 1 2 3 4 5 6 
#
# 1 34.0987 -15.0039 4.1234 0.0000 0.0000 0.0000
# 2 -15.0039 138.7742 37.8936 0.0000 0.0000 0.0000
# 3 4.1234 37.8936 92.7061 0.0000 0.0000 0.0000
# 4 0.0000 0.0000 0.0000 25.9326 0.0000 0.0000
# 5 0.0000 0.0000 0.0000 0.0000 16.8363 0.0000
# 6 0.0000 0.0000 0.0000 0.0000 0.0000 36.0150
#
#
#
# Elastic Compliance Matrix: (Units=1/GPa)
#
#
# Indices 1 2 3 4 5 6 
#
# 1 0.031590 0.004276 -0.003153 0.000000 0.000000 0.000000
# 2 0.004276 0.008690 -0.003742 0.000000 0.000000 0.000000
# 3 -0.003153 -0.003742 0.012457 0.000000 0.000000 0.000000
# 4 0.000000 0.000000 0.000000 0.038561 0.000000 0.000000
# 5 0.000000 0.000000 0.000000 0.000000 0.059396 0.000000
# 6 0.000000 0.000000 0.000000 0.000000 0.000000 0.027766
#
#
# Mechanical properties :
#
#
# Convention : Reuss Voigt Hill
#
# Bulk Modulus (GPa) = 21.05328 35.51167 28.28247
# Shear Modulus (GPa) = 25.05883 31.66116 28.36000
#
# Velocity S-wave (km/s) = 3.19591 3.59234 3.39991
# Velocity P-wave (km/s) = 4.71165 5.62858 5.19040
#
# Compressibility (1/GPa) = 0.04749855
#
# Stress axis : x y z
#
# Youngs Moduli (GPa) = 31.65598 115.07244 80.27813
#
# Poissons Ratio (x) = -0.49209 0.25312
# Poissons Ratio (y) = -0.13537 0.30043
# Poissons Ratio (z) = 0.09981 0.43064
#
# Static dielectric constant tensor:
#      x y z
#    x 2.156930 0.000000 0.000000 
#    y 0.000000 2.610690 0.000000 
#    z 0.000000 0.000000 2.357720 
# 
# From -- ./inp_files/8842.got.cif
#   From: 2010.05.17/outbox.cif.g08.bks.cpg/sg37_5_cif.got.tgz:8842.got - 2010.06.03 17:53:42.
