data_PCOD9354185
_publ_section_title
;
Structure prediction by ZEFSAII (Michael W. Deem and Ramdas Pophale) SiO2 
 PCOD9354185
Probable space group: C C C 2
;
_chemical_formula_sum "Si O2"
_cell_formula_units_Z 64
_cell_length_a 15.175123
_cell_length_b 8.040834
_cell_length_c 22.311749
_cell_angle_alpha 90.000000
_cell_angle_beta 90.000000
_cell_angle_gamma 90.000000
_cell_volume 2722.494003
_symmetry_space_group_name_H-M "C C C 2"
_symmetry_group_IT_number 37
_symmetry_cell_setting 'orthorhombic'
loop_
_space_group_symop_operation_xyz
x,y,z
-x,-y,z
-x,y,1/2+z
x,-y,1/2+z
1/2+x,1/2+y,z
1/2-x,1/2-y,z
1/2-x,1/2+y,1/2+z
1/2+x,1/2-y,1/2+z
loop_
_atom_site_type_symbol
_atom_site_label
_atom_site_fract_x
_atom_site_fract_y
_atom_site_fract_z
Si Si1 0.652844 0.822842 0.692230
Si Si2 0.520436 0.820108 0.949940
Si Si3 0.347739 0.200493 0.183183
Si Si4 0.160610 0.143388 0.398235
Si Si5 0.928832 0.646237 0.823657
Si Si6 0.827382 0.116265 0.498634
Si Si7 0.099990 0.022984 0.607769
Si Si8 0.440166 0.621770 0.782170
O O1 0.750000 0.750000 0.693443
O O2 0.627465 0.844916 0.762982
O O3 0.605829 0.684037 0.651034
O O4 0.647559 0.008537 0.664831
O O5 0.427367 0.735723 0.927043
O O6 0.589367 0.864333 0.894439
O O7 0.578256 0.708364 0.993472
O O8 0.500000 0.000000 0.977091
O O9 0.250000 0.250000 0.203815
O O10 0.371476 0.348407 0.138333
O O11 0.410890 0.231177 0.239239
O O12 0.250000 0.250000 0.398744
O O13 0.138062 0.096409 0.329024
O O14 0.180992 0.980439 0.436345
O O15 0.000000 0.500000 0.816527
O O16 0.978610 0.822066 0.822954
O O17 0.750000 0.250000 0.509409
O O18 0.835855 0.975974 0.550240
O O19 0.000000 0.000000 0.589370
O O20 0.500000 0.500000 0.741483
#
# Coordination Sequence:
#
# PCOD9354185 Si02
#       8
#     8   8   8   8   8   8   8   8
#     4  12  26  45  74 107 150 195 240 309 375 452
#     4  10  22  44  73 109 150 188 242 302 370 455
#     4  12  24  45  70 109 151 188 246 306 371 449
#     4  11  23  44  72 107 144 193 246 304 377 444
#     4  10  20  39  66 104 143 185 230 289 360 450
#     4  12  27  50  73 102 146 193 250 318 377 448
#     4  12  28  49  74 105 140 196 255 313 375 444
#     4  11  22  39  69 103 148 190 236 300 371 447
#
# _framework density 23.507859
#
# number of rings (size 3 to 8) (size 9 to 14) (size 15 to 20)
#    0.000    0.750    2.500    6.000    0.000    1.000 
#    9.000    0.000    0.000    0.000    0.000    0.000 
#    0.000    0.000    0.000    0.000    0.000    0.000 
#
# Total GULP energy -178248.679411 kJ/mol
# GULP energy per Si atom -5570.271232 kJ/mol
# Density = 2.345435 g / cm^3
# Si number density = 23.507859 Si / 1000 Ang^3
#
#
#
# Elastic Constant Matrix: (Units=GPa)
#
#
# Indices 1 2 3 4 5 6 
#
# 1 99.9640 48.8915 4.3849 0.0000 0.0000 0.0000
# 2 48.8915 153.4112 40.4994 0.0000 0.0000 0.0000
# 3 4.3849 40.4994 54.4821 0.0000 0.0000 0.0000
# 4 0.0000 0.0000 0.0000 83.5305 0.0000 0.0000
# 5 0.0000 0.0000 0.0000 0.0000 23.7522 0.0000
# 6 0.0000 0.0000 0.0000 0.0000 0.0000 40.6788
#
#
#
# Elastic Compliance Matrix: (Units=1/GPa)
#
#
# Indices 1 2 3 4 5 6 
#
# 1 0.012088 -0.004474 0.002353 0.000000 0.000000 0.000000
# 2 -0.004474 0.009765 -0.006899 0.000000 0.000000 0.000000
# 3 0.002353 -0.006899 0.023294 0.000000 0.000000 0.000000
# 4 0.000000 0.000000 0.000000 0.011972 0.000000 0.000000
# 5 0.000000 0.000000 0.000000 0.000000 0.042101 0.000000
# 6 0.000000 0.000000 0.000000 0.000000 0.000000 0.024583
#
#
# Mechanical properties :
#
#
# Convention : Reuss Voigt Hill
#
# Bulk Modulus (GPa) = 36.89043 55.04544 45.96793
# Shear Modulus (GPa) = 33.13899 43.86439 38.50169
#
# Velocity S-wave (km/s) = 3.75867 4.32435 4.05139
# Velocity P-wave (km/s) = 5.87909 6.95700 6.44063
#
# Compressibility (1/GPa) = 0.02710730
#
# Stress axis : x y z
#
# Youngs Moduli (GPa) = 82.72396 102.40178 42.92987
#
# Poissons Ratio (x) = 0.45810 -0.10099
# Poissons Ratio (y) = 0.37007 0.29618
# Poissons Ratio (z) = -0.19461 0.70648
#
# Static dielectric constant tensor:
#      x y z
#    x 1.946250 0.000000 0.000000 
#    y 0.000000 2.144230 0.000000 
#    z 0.000000 0.000000 1.978900 
# 
# From -- ./inp_files/18884.got.cif
#   From: 2010.05.17/outbox.cif.g08.bks.cpg/sg37_10_cif.got.tgz:18884.got - 2010.06.03 17:53:42.
