data_PCOD9354990
_publ_section_title
;
Structure prediction by ZEFSAII (Michael W. Deem and Ramdas Pophale) SiO2 
 PCOD9354990
Probable space group: C C C 2
;
_chemical_formula_sum "Si O2"
_cell_formula_units_Z 64
_cell_length_a 9.102658
_cell_length_b 15.167201
_cell_length_c 21.858595
_cell_angle_alpha 90.000000
_cell_angle_beta 90.000000
_cell_angle_gamma 90.000000
_cell_volume 3017.837922
_symmetry_space_group_name_H-M "C C C 2"
_symmetry_group_IT_number 37
_symmetry_cell_setting 'orthorhombic'
loop_
_space_group_symop_operation_xyz
x,y,z
-x,-y,z
-x,y,1/2+z
x,-y,1/2+z
1/2+x,1/2+y,z
1/2-x,1/2-y,z
1/2-x,1/2+y,1/2+z
1/2+x,1/2-y,1/2+z
loop_
_atom_site_type_symbol
_atom_site_label
_atom_site_fract_x
_atom_site_fract_y
_atom_site_fract_z
Si Si1 0.879920 0.422820 0.652020
Si Si2 0.610567 0.919354 0.011821
Si Si3 0.097711 0.589412 0.844742
Si Si4 0.088990 0.722567 0.961214
Si Si5 0.661137 0.339579 0.281035
Si Si6 0.327100 0.519597 0.755536
Si Si7 0.581069 0.223179 0.737605
Si Si8 0.840909 0.842099 0.921711
O O1 0.836313 0.427582 0.581278
O O2 0.740129 0.433418 0.696539
O O3 0.942223 0.328031 0.674050
O O4 0.000000 0.500000 0.662609
O O5 0.500000 0.000000 0.997865
O O6 0.510248 0.831896 0.008155
O O7 0.743867 0.907185 0.963596
O O8 0.100890 0.653734 0.903561
O O9 0.255234 0.561006 0.816656
O O10 0.038668 0.653512 0.791025
O O11 0.000000 0.500000 0.852358
O O12 0.250000 0.750000 0.981478
O O13 0.999810 0.811089 0.944433
O O14 0.750000 0.250000 0.279480
O O15 0.737038 0.420564 0.248648
O O16 0.510416 0.311149 0.249146
O O17 0.644733 0.368881 0.351418
O O18 0.500000 0.500000 0.759113
O O19 0.750000 0.250000 0.745563
O O20 0.750000 0.750000 0.921622
#
# Coordination Sequence:
#
# PCOD9354990 Si02
#       8
#     8   8   8   8   8   8   8   8
#     4  10  22  45  66  87 126 178 225 267 320 404
#     4  10  23  45  68  90 122 178 233 267 324 398
#     4  11  22  38  61  89 131 178 211 247 326 405
#     4  11  23  40  64  95 131 164 215 278 333 389
#     4  11  20  34  57  93 128 162 205 259 319 388
#     4  11  24  37  60  99 134 164 212 268 326 379
#     4  11  21  36  62  93 126 169 204 263 329 376
#     4   9  21  37  61  92 131 166 214 266 323 398
#
# _framework density 21.207235000000001
#
# number of rings (size 3 to 8) (size 9 to 14) (size 15 to 20)
#    0.000    1.500    1.250    5.250    7.000    1.500 
#    0.000    6.250    0.000    0.000    0.000    0.000 
#    0.000    0.000    0.000    0.000    0.000    0.000 
#
# Total GULP energy -178613.728652 kJ/mol
# GULP energy per Si atom -5581.679020 kJ/mol
# Density = 2.115897 g / cm^3
# Si number density = 21.207235 Si / 1000 Ang^3
#
#
#
# Elastic Constant Matrix: (Units=GPa)
#
#
# Indices 1 2 3 4 5 6 
#
# 1 122.3693 14.1966 37.5589 0.0000 0.0000 0.0000
# 2 14.1966 87.9482 32.0201 0.0000 0.0000 0.0000
# 3 37.5589 32.0201 91.5334 0.0000 0.0000 0.0000
# 4 0.0000 0.0000 0.0000 22.9264 0.0000 0.0000
# 5 0.0000 0.0000 0.0000 0.0000 18.3276 0.0000
# 6 0.0000 0.0000 0.0000 0.0000 0.0000 39.2800
#
#
#
# Elastic Compliance Matrix: (Units=1/GPa)
#
#
# Indices 1 2 3 4 5 6 
#
# 1 0.009351 -0.000129 -0.003792 0.000000 0.000000 0.000000
# 2 -0.000129 0.013032 -0.004506 0.000000 0.000000 0.000000
# 3 -0.003792 -0.004506 0.014057 0.000000 0.000000 0.000000
# 4 0.000000 0.000000 0.000000 0.043618 0.000000 0.000000
# 5 0.000000 0.000000 0.000000 0.000000 0.054562 0.000000
# 6 0.000000 0.000000 0.000000 0.000000 0.000000 0.025458
#
#
# Mechanical properties :
#
#
# Convention : Reuss Voigt Hill
#
# Bulk Modulus (GPa) = 51.05576 52.15580 51.60578
# Shear Modulus (GPa) = 27.25394 30.64517 28.94956
#
# Velocity S-wave (km/s) = 3.58875 3.80548 3.69871
# Velocity P-wave (km/s) = 6.42644 6.62991 6.52897
#
# Compressibility (1/GPa) = 0.01958643
#
# Stress axis : x y z
#
# Youngs Moduli (GPa) = 106.94317 76.73652 71.13849
#
# Poissons Ratio (x) = 0.00989 0.26974
# Poissons Ratio (y) = 0.01378 0.32054
# Poissons Ratio (z) = 0.40551 0.34576
#
# Static dielectric constant tensor:
#      x y z
#    x 1.860000 0.000000 0.000000 
#    y 0.000000 1.857190 0.000000 
#    z 0.000000 0.000000 1.743360 
# 
# From -- ./inp_files/16554.got.cif
#   From: 2010.05.17/outbox.cif.g08.bks.cpg/sg37_9_cif.got.tgz:16554.got - 2010.06.03 17:53:42.
