data_PCOD9354753
_publ_section_title
;
Structure prediction by ZEFSAII (Michael W. Deem and Ramdas Pophale) SiO2 
 PCOD9354753
Probable space group: C C C 2
;
_chemical_formula_sum "Si O2"
_cell_formula_units_Z 60
_cell_length_a 9.747125
_cell_length_b 19.981786
_cell_length_c 14.997626
_cell_angle_alpha 90.000000
_cell_angle_beta 90.000000
_cell_angle_gamma 90.000000
_cell_volume 2921.012116
_symmetry_space_group_name_H-M "C C C 2"
_symmetry_group_IT_number 37
_symmetry_cell_setting 'orthorhombic'
loop_
_space_group_symop_operation_xyz
x,y,z
-x,-y,z
-x,y,1/2+z
x,-y,1/2+z
1/2+x,1/2+y,z
1/2-x,1/2-y,z
1/2-x,1/2+y,1/2+z
1/2+x,1/2-y,1/2+z
loop_
_atom_site_type_symbol
_atom_site_label
_atom_site_fract_x
_atom_site_fract_y
_atom_site_fract_z
Si Si1 0.958337 0.827138 0.270360
Si Si2 0.253242 0.601426 0.284762
Si Si3 0.153544 0.524862 0.704710
Si Si4 0.729523 0.895323 0.384417
Si Si5 0.143746 0.980920 0.446921
Si Si6 0.016719 0.307110 0.847235
Si Si7 0.750000 0.750000 0.974725
Si Si8 0.681599 0.620229 0.091466
O O1 0.865443 0.856859 0.350532
O O2 0.898496 0.854776 0.178211
O O3 0.115072 0.851679 0.274709
O O4 0.951604 0.747428 0.281081
O O5 0.246528 0.542065 0.212332
O O6 0.270469 0.565814 0.380714
O O7 0.112768 0.642627 0.291293
O O8 0.179847 0.562641 0.798009
O O9 0.190819 0.577038 0.628108
O O10 0.000000 0.500000 0.698082
O O11 0.603790 0.845155 0.400356
O O12 0.771795 0.950290 0.457877
O O13 0.106229 0.935325 0.531025
O O14 0.000000 0.000000 0.400383
O O15 0.119597 0.268096 0.913254
O O16 0.719174 0.684782 0.033759
#
# Coordination Sequence:
#
# PCOD9354753 Si02
#       8
#     8   8   8   8   8   8   4   8
#     4  11  23  42  66  99 129 178 228 275 333 404
#     4  11  21  42  70  95 124 172 229 274 329 399
#     4  10  22  39  63  99 131 164 222 276 335 396
#     4  10  23  38  68  95 124 170 227 275 319 402
#     4  11  22  42  64  95 132 169 219 278 343 405
#     4  12  22  43  70  95 130 179 232 274 326 418
#     4  12  26  46  64  98 138 180 220 278 358 412
#     4  11  27  40  66  94 138 179 212 283 357 406
#
# _framework density 20.540825999999999
#
# number of rings (size 3 to 8) (size 9 to 14) (size 15 to 20)
#    0.000    1.067    5.333    0.400    5.600    1.067 
#    0.000    0.000    2.933    0.000    0.000    0.000 
#    0.000    0.000    0.000    0.000    0.000    0.000 
#
# Total GULP energy -167497.033883 kJ/mol
# GULP energy per Si atom -5583.234463 kJ/mol
# Density = 2.049407 g / cm^3
# Si number density = 20.540826 Si / 1000 Ang^3
#
#
#
# Elastic Constant Matrix: (Units=GPa)
#
#
# Indices 1 2 3 4 5 6 
#
# 1 82.9852 45.3672 -2.7236 0.0000 0.0000 0.0000
# 2 45.3672 138.2088 33.4677 0.0000 0.0000 0.0000
# 3 -2.7236 33.4677 41.1242 0.0000 0.0000 0.0000
# 4 0.0000 0.0000 0.0000 30.8726 0.0000 0.0000
# 5 0.0000 0.0000 0.0000 0.0000 9.8680 0.0000
# 6 0.0000 0.0000 0.0000 0.0000 0.0000 46.0461
#
#
#
# Elastic Compliance Matrix: (Units=1/GPa)
#
#
# Indices 1 2 3 4 5 6 
#
# 1 0.016025 -0.006871 0.006653 0.000000 0.000000 0.000000
# 2 -0.006871 0.011958 -0.010186 0.000000 0.000000 0.000000
# 3 0.006653 -0.010186 0.033047 0.000000 0.000000 0.000000
# 4 0.000000 0.000000 0.000000 0.032391 0.000000 0.000000
# 5 0.000000 0.000000 0.000000 0.000000 0.101338 0.000000
# 6 0.000000 0.000000 0.000000 0.000000 0.000000 0.021717
#
#
# Mechanical properties :
#
#
# Convention : Reuss Voigt Hill
#
# Bulk Modulus (GPa) = 24.86250 46.06008 35.46129
# Shear Modulus (GPa) = 19.94473 29.77113 24.85793
#
# Velocity S-wave (km/s) = 3.11944 3.81118 3.48253
# Velocity P-wave (km/s) = 5.01046 6.46832 5.78549
#
# Compressibility (1/GPa) = 0.04022122
#
# Stress axis : x y z
#
# Youngs Moduli (GPa) = 62.40136 83.62818 30.25973
#
# Poissons Ratio (x) = 0.57465 -0.20133
# Poissons Ratio (y) = 0.42879 0.30824
# Poissons Ratio (z) = -0.41519 0.85188
#
# Static dielectric constant tensor:
#      x y z
#    x 1.737880 0.000000 0.000000 
#    y 0.000000 1.778910 0.000000 
#    z 0.000000 0.000000 1.734960 
# 
# From -- ./inp_files/14688.got.cif
#   From: 2010.05.17/outbox.cif.g08.bks.cpg/sg37_8_cif.got.tgz:14688.got - 2010.06.03 17:53:42.
