data_PCOD9354154
_publ_section_title
;
Structure prediction by ZEFSAII (Michael W. Deem and Ramdas Pophale) SiO2 
 PCOD9354154
Probable space group: C C C 2
;
_chemical_formula_sum "Si O2"
_cell_formula_units_Z 40
_cell_length_a 7.296746
_cell_length_b 13.979226
_cell_length_c 16.094753
_cell_angle_alpha 90.000000
_cell_angle_beta 90.000000
_cell_angle_gamma 90.000000
_cell_volume 1641.710860
_symmetry_space_group_name_H-M "C C C 2"
_symmetry_group_IT_number 37
_symmetry_cell_setting 'orthorhombic'
loop_
_space_group_symop_operation_xyz
x,y,z
-x,-y,z
-x,y,1/2+z
x,-y,1/2+z
1/2+x,1/2+y,z
1/2-x,1/2-y,z
1/2-x,1/2+y,1/2+z
1/2+x,1/2-y,1/2+z
loop_
_atom_site_type_symbol
_atom_site_label
_atom_site_fract_x
_atom_site_fract_y
_atom_site_fract_z
Si Si1 0.018780 0.399603 0.664950
Si Si2 0.494310 0.679888 0.398027
Si Si3 0.396333 0.898101 0.352115
Si Si4 0.530706 0.276123 0.575984
Si Si5 0.604758 0.600280 0.229626
O O1 0.067249 0.322311 0.597714
O O2 0.812831 0.389818 0.699728
O O3 0.000000 0.500000 0.620413
O O4 0.129061 0.399121 0.751327
O O5 0.482176 0.794430 0.377429
O O6 0.304891 0.619031 0.389970
O O7 0.543651 0.673884 0.494191
O O8 0.609916 0.635850 0.323882
O O9 0.500000 0.000000 0.371556
O O10 0.750000 0.250000 0.561281
O O11 0.508389 0.333241 0.661417
O O12 0.500000 0.500000 0.225590
#
# Coordination Sequence:
#
# PCOD9354154 Si02
#       5
#     8   8   8   8   8
#     4  10  21  41  69  93 129 171 215 269 330 394
#     4  11  22  41  68  95 135 175 216 277 331 393
#     4  10  20  38  68  97 127 173 224 261 334 394
#     4  10  21  40  64  93 129 169 209 267 330 387
#     4  11  23  41  67  92 130 170 218 270 327 391
#
# _framework density 24.364826999999998
#
# number of rings (size 3 to 8) (size 9 to 14) (size 15 to 20)
#    0.000    1.600    4.000    2.400    0.000    1.600 
#    0.000    0.000   13.200    0.000    0.000    0.000 
#    0.000    0.000    0.000    0.000    0.000    0.000 
#
# Total GULP energy -111636.665064 kJ/mol
# GULP energy per Si atom -5581.833253 kJ/mol
# Density = 2.430937 g / cm^3
# Si number density = 24.364827 Si / 1000 Ang^3
#
#
#
# Elastic Constant Matrix: (Units=GPa)
#
#
# Indices 1 2 3 4 5 6 
#
# 1 75.3270 26.4164 23.5569 0.0000 0.0000 0.0000
# 2 26.4164 121.7129 41.5180 0.0000 0.0000 0.0000
# 3 23.5569 41.5180 115.4757 0.0000 0.0000 0.0000
# 4 0.0000 0.0000 0.0000 49.9024 0.0000 0.0000
# 5 0.0000 0.0000 0.0000 0.0000 30.2169 0.0000
# 6 0.0000 0.0000 0.0000 0.0000 0.0000 28.0246
#
#
#
# Elastic Compliance Matrix: (Units=1/GPa)
#
#
# Indices 1 2 3 4 5 6 
#
# 1 0.014814 -0.002490 -0.002127 0.000000 0.000000 0.000000
# 2 -0.002490 0.009783 -0.003009 0.000000 0.000000 0.000000
# 3 -0.002127 -0.003009 0.010176 0.000000 0.000000 0.000000
# 4 0.000000 0.000000 0.000000 0.020039 0.000000 0.000000
# 5 0.000000 0.000000 0.000000 0.000000 0.033094 0.000000
# 6 0.000000 0.000000 0.000000 0.000000 0.000000 0.035683
#
#
# Mechanical properties :
#
#
# Convention : Reuss Voigt Hill
#
# Bulk Modulus (GPa) = 51.22832 55.05534 53.14183
# Shear Modulus (GPa) = 34.40036 36.36372 35.38204
#
# Velocity S-wave (km/s) = 3.76158 3.86744 3.81488
# Velocity P-wave (km/s) = 6.31959 6.52595 6.42360
#
# Compressibility (1/GPa) = 0.01952045
#
# Stress axis : x y z
#
# Youngs Moduli (GPa) = 67.50525 102.21835 98.27308
#
# Poissons Ratio (x) = 0.25449 0.20901
# Poissons Ratio (y) = 0.16806 0.29575
# Poissons Ratio (z) = 0.14357 0.30762
#
# Static dielectric constant tensor:
#      x y z
#    x 2.096620 0.000000 0.000000 
#    y 0.000000 1.992760 0.000000 
#    z 0.000000 0.000000 1.897550 
# 
# From -- ./inp_files/10346.got.cif
#   From: 2010.05.17/outbox.cif.g08.bks.cpg/sg37_6_cif.got.tgz:10346.got - 2010.06.03 17:53:42.
