data_PCOD9354570
_publ_section_title
;
Structure prediction by ZEFSAII (Michael W. Deem and Ramdas Pophale) SiO2 
 PCOD9354570
Probable space group: C C C 2
;
_chemical_formula_sum "Si O2"
_cell_formula_units_Z 64
_cell_length_a 8.903952
_cell_length_b 21.423569
_cell_length_c 14.970721
_cell_angle_alpha 90.000000
_cell_angle_beta 90.000000
_cell_angle_gamma 90.000000
_cell_volume 2855.731352
_symmetry_space_group_name_H-M "C C C 2"
_symmetry_group_IT_number 37
_symmetry_cell_setting 'orthorhombic'
loop_
_space_group_symop_operation_xyz
x,y,z
-x,-y,z
-x,y,1/2+z
x,-y,1/2+z
1/2+x,1/2+y,z
1/2-x,1/2-y,z
1/2-x,1/2+y,1/2+z
1/2+x,1/2-y,1/2+z
loop_
_atom_site_type_symbol
_atom_site_label
_atom_site_fract_x
_atom_site_fract_y
_atom_site_fract_z
Si Si1 0.418708 0.766215 0.712600
Si Si2 0.501681 0.277295 0.513361
Si Si3 0.118928 0.945355 0.799802
Si Si4 0.903308 0.826711 0.837411
Si Si5 0.841120 0.471276 0.962019
Si Si6 0.357969 0.136650 0.721408
Si Si7 0.195946 0.664374 0.027315
Si Si8 0.680698 0.998453 0.155208
O O1 0.250000 0.750000 0.741897
O O2 0.433227 0.740855 0.610019
O O3 0.533916 0.727282 0.773024
O O4 0.469793 0.838878 0.726983
O O5 0.610301 0.301348 0.437481
O O6 0.372470 0.330315 0.512599
O O7 0.405120 0.217105 0.482401
O O8 0.023901 0.883052 0.821647
O O9 0.229187 0.948527 0.713765
O O10 0.223262 0.964929 0.883078
O O11 0.000000 0.000000 0.783577
O O12 0.739134 0.846422 0.806089
O O13 0.868492 0.401771 0.999551
O O14 0.780030 0.506585 0.050300
O O15 0.000000 0.500000 0.932246
O O16 0.313846 0.175432 0.633214
O O17 0.298533 0.067643 0.696250
O O18 0.500000 0.000000 0.157888
#
# Coordination Sequence:
#
# PCOD9354570 Si02
#       8
#     8   8   8   8   8   8   8   8
#     4  11  26  43  67 104 134 171 227 282 336 406
#     4  10  21  41  68  96 135 175 222 270 333 406
#     4  12  25  43  63 103 136 174 227 280 337 409
#     4  12  24  42  69  97 137 183 219 272 345 408
#     4  10  22  44  69  97 133 179 227 278 342 404
#     4  10  21  45  69  94 133 176 221 277 336 405
#     4   9  18  40  71  94 129 178 215 274 339 393
#     4  10  23  44  70  96 133 183 227 279 341 401
#
# _framework density 22.411072000000001
#
# number of rings (size 3 to 8) (size 9 to 14) (size 15 to 20)
#    0.000    1.500    3.750    0.750    3.500    1.500 
#    4.500    0.000    0.000    0.000    0.000    0.000 
#    0.000    0.000    0.000    0.000    0.000    0.000 
#
# Total GULP energy -178501.032353 kJ/mol
# GULP energy per Si atom -5578.157261 kJ/mol
# Density = 2.236006 g / cm^3
# Si number density = 22.411072 Si / 1000 Ang^3
#
#
#
# Elastic Constant Matrix: (Units=GPa)
#
#
# Indices 1 2 3 4 5 6 
#
# 1 75.7164 20.8689 19.0013 0.0000 0.0000 0.0000
# 2 20.8689 48.5467 8.2653 0.0000 0.0000 0.0000
# 3 19.0013 8.2653 80.2854 0.0000 0.0000 0.0000
# 4 0.0000 0.0000 0.0000 -80.6449 0.0000 0.0000
# 5 0.0000 0.0000 0.0000 0.0000 35.8233 0.0000
# 6 0.0000 0.0000 0.0000 0.0000 0.0000 38.8617
#
#
#
# Elastic Compliance Matrix: (Units=1/GPa)
#
#
# Indices 1 2 3 4 5 6 
#
# 1 0.015694 -0.006223 -0.003074 0.000000 0.000000 0.000000
# 2 -0.006223 0.023434 -0.000940 0.000000 0.000000 0.000000
# 3 -0.003074 -0.000940 0.013280 0.000000 0.000000 0.000000
# 4 0.000000 0.000000 0.000000 -0.012400 0.000000 0.000000
# 5 0.000000 0.000000 0.000000 0.000000 0.027915 0.000000
# 6 0.000000 0.000000 0.000000 0.000000 0.000000 0.025732
#
#
# Mechanical properties :
#
#
# Convention : Reuss Voigt Hill
#
# Bulk Modulus (GPa) = 31.31390 33.42438 32.36914
# Shear Modulus (GPa) = 40.07314 9.23553 24.65434
#
# Velocity S-wave (km/s) = 4.23318 2.03222 3.32037
# Velocity P-wave (km/s) = 6.15596 4.52252 5.40134
#
# Compressibility (1/GPa) = 0.03193470
#
# Stress axis : x y z
#
# Youngs Moduli (GPa) = 63.71984 42.67334 75.30266
#
# Poissons Ratio (x) = 0.26556 0.23145
# Poissons Ratio (y) = 0.39653 0.07076
# Poissons Ratio (z) = 0.19585 0.04010
#
# Static dielectric constant tensor:
#      x y z
#    x 1.874280 0.000000 0.000000 
#    y 0.000000 2.137490 0.000000 
#    z 0.000000 0.000000 1.865760 
# 
# From -- ./inp_files/10967.got.cif
#   From: 2010.05.17/outbox.cif.g08.bks.cpg/sg37_6_cif.got.tgz:10967.got - 2010.06.03 17:53:42.
