data_PCOD9354642
_publ_section_title
;
Structure prediction by ZEFSAII (Michael W. Deem and Ramdas Pophale) SiO2 
 PCOD9354642
Probable space group: C C C 2
;
_chemical_formula_sum "Si O2"
_cell_formula_units_Z 64
_cell_length_a 25.430739
_cell_length_b 9.819630
_cell_length_c 12.329264
_cell_angle_alpha 90.000000
_cell_angle_beta 90.000000
_cell_angle_gamma 90.000000
_cell_volume 3078.869325
_symmetry_space_group_name_H-M "C C C 2"
_symmetry_group_IT_number 37
_symmetry_cell_setting 'orthorhombic'
loop_
_space_group_symop_operation_xyz
x,y,z
-x,-y,z
-x,y,1/2+z
x,-y,1/2+z
1/2+x,1/2+y,z
1/2-x,1/2-y,z
1/2-x,1/2+y,1/2+z
1/2+x,1/2-y,1/2+z
loop_
_atom_site_type_symbol
_atom_site_label
_atom_site_fract_x
_atom_site_fract_y
_atom_site_fract_z
Si Si1 0.130293 0.490271 0.604100
Si Si2 0.626334 0.512849 0.954367
Si Si3 0.465981 0.870001 0.026535
Si Si4 0.279512 0.620218 0.318664
Si Si5 0.707861 0.863189 0.273966
Si Si6 0.427651 0.748635 0.583869
Si Si7 0.693856 0.716307 0.572650
Si Si8 0.100256 0.237471 0.336135
O O1 0.073469 0.416051 0.623783
O O2 0.170803 0.558936 0.687559
O O3 0.107591 0.622512 0.539346
O O4 0.163557 0.359277 0.568623
O O5 0.667500 0.595433 0.882919
O O6 0.593605 0.418300 0.872818
O O7 0.594332 0.612189 0.031363
O O8 0.659562 0.403805 0.023275
O O9 0.510640 0.763805 0.059912
O O10 0.500000 0.000000 0.994273
O O11 0.431282 0.824178 0.924668
O O12 0.250000 0.750000 0.367539
O O13 0.242703 0.485914 0.323650
O O14 0.293272 0.662436 0.194760
O O15 0.750000 0.750000 0.233565
O O16 0.662158 0.780640 0.337733
O O17 0.419117 0.755330 0.713371
O O18 0.750000 0.750000 0.518839
#
# Coordination Sequence:
#
# PCOD9354642 Si02
#       8
#     8   8   8   8   8   8   8   8
#     4  10  21  44  70  98 137 183 229 289 348 419
#     4  12  25  42  67 102 144 180 244 282 356 432
#     4  10  23  47  73 105 135 182 249 292 361 427
#     4  11  24  43  62 103 141 185 235 279 345 423
#     4  11  22  41  70 100 145 189 226 280 358 430
#     4  10  26  47  71 102 137 180 244 306 351 416
#     4  11  23  41  66  97 144 186 227 289 350 424
#     4  11  24  45  72  99 141 188 227 298 362 421
#
# _framework density 20.786850000000001
#
# number of rings (size 3 to 8) (size 9 to 14) (size 15 to 20)
#    0.000    1.250    5.000    0.750    3.500    6.000 
#    2.250    1.250    0.000    0.000    0.000    0.000 
#    0.000    0.000    0.000    0.000    0.000    0.000 
#
# Total GULP energy -178297.026439 kJ/mol
# GULP energy per Si atom -5571.782076 kJ/mol
# Density = 2.073954 g / cm^3
# Si number density = 20.786850 Si / 1000 Ang^3
#
#
#
# Elastic Constant Matrix: (Units=GPa)
#
#
# Indices 1 2 3 4 5 6 
#
# 1 151.5883 61.3404 49.0480 0.0000 0.0000 0.0000
# 2 61.3404 124.4006 33.0888 0.0000 0.0000 0.0000
# 3 49.0480 33.0888 71.6456 0.0000 0.0000 0.0000
# 4 0.0000 0.0000 0.0000 20.6917 0.0000 0.0000
# 5 0.0000 0.0000 0.0000 0.0000 19.1639 0.0000
# 6 0.0000 0.0000 0.0000 0.0000 0.0000 41.5239
#
#
#
# Elastic Compliance Matrix: (Units=1/GPa)
#
#
# Indices 1 2 3 4 5 6 
#
# 1 0.009588 -0.003400 -0.004994 0.000000 0.000000 0.000000
# 2 -0.003400 0.010370 -0.002462 0.000000 0.000000 0.000000
# 3 -0.004994 -0.002462 0.018513 0.000000 0.000000 0.000000
# 4 0.000000 0.000000 0.000000 0.048329 0.000000 0.000000
# 5 0.000000 0.000000 0.000000 0.000000 0.052181 0.000000
# 6 0.000000 0.000000 0.000000 0.000000 0.000000 0.024082
#
#
# Mechanical properties :
#
#
# Convention : Reuss Voigt Hill
#
# Bulk Modulus (GPa) = 59.66376 70.50988 65.08682
# Shear Modulus (GPa) = 26.26581 29.88639 28.07610
#
# Velocity S-wave (km/s) = 3.55854 3.79589 3.67913
# Velocity P-wave (km/s) = 6.75642 7.29423 7.03047
#
# Compressibility (1/GPa) = 0.01676059
#
# Stress axis : x y z
#
# Youngs Moduli (GPa) = 104.29359 96.43549 54.01483
#
# Poissons Ratio (x) = 0.32784 0.26975
# Poissons Ratio (y) = 0.35455 0.13297
# Poissons Ratio (z) = 0.52085 0.23741
#
# Static dielectric constant tensor:
#      x y z
#    x 1.771990 0.000000 0.000000 
#    y 0.000000 1.761630 0.000000 
#    z 0.000000 0.000000 1.780220 
# 
# From -- ./inp_files/13187.got.cif
#   From: 2010.05.17/outbox.cif.g08.bks.cpg/sg37_7_cif.got.tgz:13187.got - 2010.06.03 17:53:42.
