data_PCOD9354100
_publ_section_title
;
Structure prediction by ZEFSAII (Michael W. Deem and Ramdas Pophale) SiO2 
 PCOD9354100
Probable space group: C C C 2
;
_chemical_formula_sum "Si O2"
_cell_formula_units_Z 48
_cell_length_a 24.389136
_cell_length_b 8.489873
_cell_length_c 9.715362
_cell_angle_alpha 90.000000
_cell_angle_beta 90.000000
_cell_angle_gamma 90.000000
_cell_volume 2011.669338
_symmetry_space_group_name_H-M "C C C 2"
_symmetry_group_IT_number 37
_symmetry_cell_setting 'orthorhombic'
loop_
_space_group_symop_operation_xyz
x,y,z
-x,-y,z
-x,y,1/2+z
x,-y,1/2+z
1/2+x,1/2+y,z
1/2-x,1/2-y,z
1/2-x,1/2+y,1/2+z
1/2+x,1/2-y,1/2+z
loop_
_atom_site_type_symbol
_atom_site_label
_atom_site_fract_x
_atom_site_fract_y
_atom_site_fract_z
Si Si1 0.412427 0.409704 0.291310
Si Si2 0.038735 0.368752 0.975360
Si Si3 0.819242 0.068960 0.468862
Si Si4 0.474438 0.695322 0.223580
Si Si5 0.356365 0.864745 0.614765
Si Si6 0.249026 0.057393 0.230172
O O1 0.373145 0.484287 0.406463
O O2 0.435309 0.547498 0.188214
O O3 0.473079 0.345062 0.324402
O O4 0.379733 0.266656 0.221497
O O5 0.090147 0.445185 0.053995
O O6 0.000000 0.500000 0.916081
O O7 0.004115 0.275194 0.093585
O O8 0.060626 0.286123 0.837844
O O9 0.770463 0.029005 0.365203
O O10 0.830045 0.252889 0.497146
O O11 0.796098 0.011789 0.615813
O O12 0.310299 0.974396 0.678449
O O13 0.250000 0.250000 0.247401
#
# Coordination Sequence:
#
# PCOD9354100 Si02
#       6
#     8   8   8   8   8   8
#     4  10  20  37  67  93 120 156 213 273 312 369
#     4  11  23  42  59  89 132 171 203 254 320 393
#     4  11  19  38  67  87 121 163 210 263 320 369
#     4  10  23  36  63  93 121 162 215 257 316 380
#     4  10  22  43  65  90 131 168 210 274 320 379
#     4  10  22  40  61  92 124 161 211 270 320 375
#
# _framework density 23.860779000000001
#
# number of rings (size 3 to 8) (size 9 to 14) (size 15 to 20)
#    0.000    1.667    5.000    0.500    2.333    1.333 
#    9.000    2.500    0.000    0.000    0.000    0.000 
#    0.000    0.000    0.000    0.000    0.000    0.000 
#
# Total GULP energy -133726.743875 kJ/mol
# GULP energy per Si atom -5571.947661 kJ/mol
# Density = 2.380647 g / cm^3
# Si number density = 23.860779 Si / 1000 Ang^3
#
#
#
# Elastic Constant Matrix: (Units=GPa)
#
#
# Indices 1 2 3 4 5 6 
#
# 1 66.0624 -0.1024 5.8165 0.0000 0.0000 0.0000
# 2 -0.1024 14.0023 4.6071 0.0000 0.0000 0.0000
# 3 5.8165 4.6071 79.5449 0.0000 0.0000 0.0000
# 4 0.0000 0.0000 0.0000 12.9471 0.0000 0.0000
# 5 0.0000 0.0000 0.0000 0.0000 36.2681 0.0000
# 6 0.0000 0.0000 0.0000 0.0000 0.0000 38.9756
#
#
#
# Elastic Compliance Matrix: (Units=1/GPa)
#
#
# Indices 1 2 3 4 5 6 
#
# 1 0.015239 0.000487 -0.001142 0.000000 0.000000 0.000000
# 2 0.000487 0.072820 -0.004253 0.000000 0.000000 0.000000
# 3 -0.001142 -0.004253 0.012901 0.000000 0.000000 0.000000
# 4 0.000000 0.000000 0.000000 0.077237 0.000000 0.000000
# 5 0.000000 0.000000 0.000000 0.000000 0.027572 0.000000
# 6 0.000000 0.000000 0.000000 0.000000 0.000000 0.025657
#
#
# Mechanical properties :
#
#
# Convention : Reuss Voigt Hill
#
# Bulk Modulus (GPa) = 10.97176 20.02799 15.49988
# Shear Modulus (GPa) = 18.40775 27.59071 22.99923
#
# Velocity S-wave (km/s) = 2.78054 3.40416 3.10803
# Velocity P-wave (km/s) = 3.86222 4.88498 4.40339
#
# Compressibility (1/GPa) = 0.09114307
#
# Stress axis : x y z
#
# Youngs Moduli (GPa) = 65.62307 13.73251 77.51093
#
# Poissons Ratio (x) = -0.00669 0.08856
# Poissons Ratio (y) = -0.03198 0.32967
# Poissons Ratio (z) = 0.07497 0.05841
#
# Static dielectric constant tensor:
#      x y z
#    x 1.961650 0.000000 0.000000 
#    y 0.000000 2.008600 0.000000 
#    z 0.000000 0.000000 1.926500 
# 
# From -- ./inp_files/4955.got.cif
#   From: 2010.05.17/outbox.cif.g08.bks.cpg/sg37_3_cif.got.tgz:4955.got - 2010.06.03 17:53:42.
