data_PCOD9354112
_publ_section_title
;
Structure prediction by ZEFSAII (Michael W. Deem and Ramdas Pophale) SiO2 
 PCOD9354112
Probable space group: C C C 2
;
_chemical_formula_sum "Si O2"
_cell_formula_units_Z 56
_cell_length_a 10.615747
_cell_length_b 16.355577
_cell_length_c 14.796970
_cell_angle_alpha 90.000000
_cell_angle_beta 90.000000
_cell_angle_gamma 90.000000
_cell_volume 2569.148590
_symmetry_space_group_name_H-M "C C C 2"
_symmetry_group_IT_number 37
_symmetry_cell_setting 'orthorhombic'
loop_
_space_group_symop_operation_xyz
x,y,z
-x,-y,z
-x,y,1/2+z
x,-y,1/2+z
1/2+x,1/2+y,z
1/2-x,1/2-y,z
1/2-x,1/2+y,1/2+z
1/2+x,1/2-y,1/2+z
loop_
_atom_site_type_symbol
_atom_site_label
_atom_site_fract_x
_atom_site_fract_y
_atom_site_fract_z
Si Si1 0.616510 0.065483 0.425960
Si Si2 0.601436 0.572321 0.147127
Si Si3 0.729468 0.040374 0.055933
Si Si4 0.033488 0.406439 0.265924
Si Si5 0.300671 0.657807 0.819504
Si Si6 0.437734 0.662888 0.010882
Si Si7 0.999974 0.340964 0.077346
O O1 0.585770 0.111227 0.332603
O O2 0.604154 0.131765 0.505315
O O3 0.500000 0.000000 0.424806
O O4 0.730276 0.008762 0.460581
O O5 0.500000 0.500000 0.164653
O O6 0.732560 0.525493 0.130217
O O7 0.620838 0.631405 0.231371
O O8 0.560022 0.619224 0.055204
O O9 0.828463 0.112760 0.060094
O O10 0.599876 0.085662 0.069951
O O11 0.168443 0.394393 0.316719
O O12 0.000000 0.500000 0.237447
O O13 0.039726 0.345243 0.181173
O O14 0.250000 0.750000 0.816811
O O15 0.393892 0.653190 0.906674
O O16 0.443203 0.756471 0.041944
#
# Coordination Sequence:
#
# PCOD9354112 Si02
#       7
#     8   8   8   8   8   8   8
#     4   9  18  33  55  86 118 151 196 247 296 348
#     4  10  24  41  60  88 122 161 202 245 297 359
#     4  10  20  38  60  86 124 163 196 241 301 354
#     4  11  21  35  62  94 120 154 203 253 299 353
#     4  12  23  41  65  89 119 163 205 246 303 364
#     4  11  23  39  59  86 123 160 199 245 298 359
#     4  11  20  35  59  89 119 150 197 255 298 347
#
# _framework density 21.797104000000001
#
# number of rings (size 3 to 8) (size 9 to 14) (size 15 to 20)
#    0.000    1.429    0.000    8.571    0.000    1.714 
#    0.000    1.429    0.000    1.714    0.000    0.000 
#    0.000    0.000    0.000    0.000    0.000    0.000 
#
# Total GULP energy -155908.961303 kJ/mol
# GULP energy per Si atom -5568.177189 kJ/mol
# Density = 2.174749 g / cm^3
# Si number density = 21.797104 Si / 1000 Ang^3
#
#
#
# Elastic Constant Matrix: (Units=GPa)
#
#
# Indices 1 2 3 4 5 6 
#
# 1 58.2907 38.4432 25.9769 0.0000 0.0000 0.0000
# 2 38.4432 109.3527 70.8450 0.0000 0.0000 0.0000
# 3 25.9769 70.8450 117.5942 0.0000 0.0000 0.0000
# 4 0.0000 0.0000 0.0000 26.9423 0.0000 0.0000
# 5 0.0000 0.0000 0.0000 0.0000 26.8866 0.0000
# 6 0.0000 0.0000 0.0000 0.0000 0.0000 26.7054
#
#
#
# Elastic Compliance Matrix: (Units=1/GPa)
#
#
# Indices 1 2 3 4 5 6 
#
# 1 0.022341 -0.007638 -0.000334 0.000000 0.000000 0.000000
# 2 -0.007638 0.017610 -0.008922 0.000000 0.000000 0.000000
# 3 -0.000334 -0.008922 0.013953 0.000000 0.000000 0.000000
# 4 0.000000 0.000000 0.000000 0.037116 0.000000 0.000000
# 5 0.000000 0.000000 0.000000 0.000000 0.037193 0.000000
# 6 0.000000 0.000000 0.000000 0.000000 0.000000 0.037446
#
#
# Mechanical properties :
#
#
# Convention : Reuss Voigt Hill
#
# Bulk Modulus (GPa) = 49.70995 61.75196 55.73096
# Shear Modulus (GPa) = 24.25393 26.10505 25.17949
#
# Velocity S-wave (km/s) = 3.33935 3.46445 3.40248
# Velocity P-wave (km/s) = 6.14196 6.66296 6.40776
#
# Compressibility (1/GPa) = 0.02011670
#
# Stress axis : x y z
#
# Youngs Moduli (GPa) = 44.75988 56.78580 71.67111
#
# Poissons Ratio (x) = 0.43373 0.02392
# Poissons Ratio (y) = 0.34187 0.63945
# Poissons Ratio (z) = 0.01494 0.50664
#
# Static dielectric constant tensor:
#      x y z
#    x 1.828770 0.000000 0.000000 
#    y 0.000000 1.799760 0.000000 
#    z 0.000000 0.000000 1.941930 
# 
# From -- ./inp_files/11595.got.cif
#   From: 2010.05.17/outbox.cif.g08.bks.cpg/sg37_6_cif.got.tgz:11595.got - 2010.06.03 17:53:42.
