data_PCOD9354211
_publ_section_title
;
Structure prediction by ZEFSAII (Michael W. Deem and Ramdas Pophale) SiO2 
 PCOD9354211
Probable space group: C C C 2
;
_chemical_formula_sum "Si O2"
_cell_formula_units_Z 52
_cell_length_a 21.576578
_cell_length_b 9.266431
_cell_length_c 10.007140
_cell_angle_alpha 90.000000
_cell_angle_beta 90.000000
_cell_angle_gamma 90.000000
_cell_volume 2000.806269
_symmetry_space_group_name_H-M "C C C 2"
_symmetry_group_IT_number 37
_symmetry_cell_setting 'orthorhombic'
loop_
_space_group_symop_operation_xyz
x,y,z
-x,-y,z
-x,y,1/2+z
x,-y,1/2+z
1/2+x,1/2+y,z
1/2-x,1/2-y,z
1/2-x,1/2+y,1/2+z
1/2+x,1/2-y,1/2+z
loop_
_atom_site_type_symbol
_atom_site_label
_atom_site_fract_x
_atom_site_fract_y
_atom_site_fract_z
Si Si1 0.223565 0.911740 0.922560
Si Si2 0.000000 0.500000 0.088191
Si Si3 0.695694 0.140129 0.557097
Si Si4 0.632637 0.650319 0.642604
Si Si5 0.115757 0.141086 0.199672
Si Si6 0.066205 0.328975 0.416202
Si Si7 0.624386 0.059967 0.256666
O O1 0.250000 0.750000 0.910258
O O2 0.170916 0.911075 0.805927
O O3 0.193416 0.913670 0.071251
O O4 0.272780 0.045223 0.935480
O O5 0.059043 0.532876 0.178091
O O6 0.001518 0.632243 0.982880
O O7 0.750000 0.250000 0.595398
O O8 0.639848 0.259114 0.577483
O O9 0.675647 0.024960 0.670175
O O10 0.589237 0.513827 0.664759
O O11 0.604395 0.741321 0.522840
O O12 0.639697 0.770110 0.757772
O O13 0.068015 0.238757 0.281819
O O14 0.106968 0.473689 0.390439
#
# Coordination Sequence:
#
# PCOD9354211 Si02
#       7
#     8   4   8   8   8   8   8
#     4  11  21  37  60  95 140 178 226 277 336 409
#     4  10  20  42  70 100 128 166 232 286 336 414
#     4  11  21  39  62  96 137 180 224 276 345 414
#     4  10  20  40  63  96 133 174 223 283 340 412
#     4  10  22  40  66  96 142 179 225 280 344 409
#     4   9  21  40  69  97 129 171 222 286 341 407
#     4  10  21  40  70  96 130 180 229 284 346 406
#
# _framework density 25.989522000000001
#
# number of rings (size 3 to 8) (size 9 to 14) (size 15 to 20)
#    0.000    1.846    3.077    0.923    0.000    0.000 
#    5.538    0.769    0.000   37.846    0.000    0.000 
#    0.000    0.000    0.000    0.000    0.000    0.000 
#
# Total GULP energy -144909.707092 kJ/mol
# GULP energy per Si atom -5573.450273 kJ/mol
# Density = 2.593037 g / cm^3
# Si number density = 25.989522 Si / 1000 Ang^3
#
#
#
# Elastic Constant Matrix: (Units=GPa)
#
#
# Indices 1 2 3 4 5 6 
#
# 1 70.2688 4.1687 16.2082 0.0000 0.0000 0.0000
# 2 4.1687 162.9026 36.7526 0.0000 0.0000 0.0000
# 3 16.2082 36.7526 102.2554 0.0000 0.0000 0.0000
# 4 0.0000 0.0000 0.0000 40.0323 0.0000 0.0000
# 5 0.0000 0.0000 0.0000 0.0000 27.6096 0.0000
# 6 0.0000 0.0000 0.0000 0.0000 0.0000 18.3485
#
#
#
# Elastic Compliance Matrix: (Units=1/GPa)
#
#
# Indices 1 2 3 4 5 6 
#
# 1 0.014775 0.000164 -0.002401 0.000000 0.000000 0.000000
# 2 0.000164 0.006682 -0.002428 0.000000 0.000000 0.000000
# 3 -0.002401 -0.002428 0.011032 0.000000 0.000000 0.000000
# 4 0.000000 0.000000 0.000000 0.024980 0.000000 0.000000
# 5 0.000000 0.000000 0.000000 0.000000 0.036219 0.000000
# 6 0.000000 0.000000 0.000000 0.000000 0.000000 0.054501
#
#
# Mechanical properties :
#
#
# Convention : Reuss Voigt Hill
#
# Bulk Modulus (GPa) = 43.17764 49.96509 46.57137
# Shear Modulus (GPa) = 30.25918 35.75122 33.00520
#
# Velocity S-wave (km/s) = 3.41586 3.71293 3.56749
# Velocity P-wave (km/s) = 5.67512 6.13580 5.90995
#
# Compressibility (1/GPa) = 0.02316013
#
# Stress axis : x y z
#
# Youngs Moduli (GPa) = 67.68133 149.65243 90.64129
#
# Poissons Ratio (x) = -0.02447 0.21761
# Poissons Ratio (y) = -0.01107 0.22004
# Poissons Ratio (z) = 0.16249 0.36330
#
# Static dielectric constant tensor:
#      x y z
#    x 2.144430 0.000000 0.000000 
#    y 0.000000 2.248720 0.000000 
#    z 0.000000 0.000000 2.227150 
# 
# From -- ./inp_files/9046.got.cif
#   From: 2010.05.17/outbox.cif.g08.bks.cpg/sg37_5_cif.got.tgz:9046.got - 2010.06.03 17:53:42.
