data_PCOD9354667
_publ_section_title
;
Structure prediction by ZEFSAII (Michael W. Deem and Ramdas Pophale) SiO2 
 PCOD9354667
Probable space group: C C C 2
;
_chemical_formula_sum "Si O2"
_cell_formula_units_Z 48
_cell_length_a 24.358003
_cell_length_b 10.216553
_cell_length_c 9.149517
_cell_angle_alpha 90.000000
_cell_angle_beta 90.000000
_cell_angle_gamma 90.000000
_cell_volume 2276.901485
_symmetry_space_group_name_H-M "C C C 2"
_symmetry_group_IT_number 37
_symmetry_cell_setting 'orthorhombic'
loop_
_space_group_symop_operation_xyz
x,y,z
-x,-y,z
-x,y,1/2+z
x,-y,1/2+z
1/2+x,1/2+y,z
1/2-x,1/2-y,z
1/2-x,1/2+y,1/2+z
1/2+x,1/2-y,1/2+z
loop_
_atom_site_type_symbol
_atom_site_label
_atom_site_fract_x
_atom_site_fract_y
_atom_site_fract_z
Si Si1 0.000000 0.000000 0.238361
Si Si2 0.153602 0.589848 0.375208
Si Si3 0.862198 0.653001 0.566540
Si Si4 0.250000 0.750000 0.958102
Si Si5 0.733720 0.524478 0.244977
Si Si6 0.826923 0.876506 0.965714
Si Si7 0.922608 0.912310 0.489444
O O1 0.959747 0.921677 0.345513
O O2 0.038219 0.917499 0.130242
O O3 0.127766 0.479843 0.477420
O O4 0.120063 0.637593 0.234275
O O5 0.205831 0.519352 0.295869
O O6 0.167550 0.719980 0.468440
O O7 0.796630 0.682052 0.553519
O O8 0.889989 0.777977 0.494692
O O9 0.278548 0.647479 0.849810
O O10 0.693565 0.411054 0.302226
O O11 0.718145 0.570220 0.082592
O O12 0.881671 0.961648 0.993539
#
# Coordination Sequence:
#
# PCOD9354667 Si02
#       7
#     4   8   8   4   8   8   8
#     4  10  24  44  72 104 118 162 234 298 344 398
#     4  11  26  38  61  96 141 180 226 265 321 406
#     4  11  24  43  62  95 137 181 216 278 332 403
#     4  10  22  36  58  92 136 174 228 250 316 386
#     4  11  23  36  59  90 139 183 227 258 309 386
#     4  12  24  39  65  94 128 183 225 272 333 392
#     4  11  23  44  72  95 129 164 224 291 344 398
#
# _framework density 21.081282000000002
#
# number of rings (size 3 to 8) (size 9 to 14) (size 15 to 20)
#    0.000    1.000    1.667    5.500    9.333    0.000 
#    0.000    0.000    0.000   17.000    0.000    0.000 
#    0.000    0.000    0.000    0.000    0.000    0.000 
#
# Total GULP energy -134144.592158 kJ/mol
# GULP energy per Si atom -5589.358007 kJ/mol
# Density = 2.103330 g / cm^3
# Si number density = 21.081282 Si / 1000 Ang^3
#
#
#
# Elastic Constant Matrix: (Units=GPa)
#
#
# Indices 1 2 3 4 5 6 
#
# 1 50.7867 26.2510 15.0477 0.0000 0.0000 0.0000
# 2 26.2510 138.6410 42.9910 0.0000 0.0000 0.0000
# 3 15.0477 42.9910 105.7857 0.0000 0.0000 0.0000
# 4 0.0000 0.0000 0.0000 33.6781 0.0000 0.0000
# 5 0.0000 0.0000 0.0000 0.0000 13.2813 0.0000
# 6 0.0000 0.0000 0.0000 0.0000 0.0000 16.5664
#
#
#
# Elastic Compliance Matrix: (Units=1/GPa)
#
#
# Indices 1 2 3 4 5 6 
#
# 1 0.022075 -0.003668 -0.001649 0.000000 0.000000 0.000000
# 2 -0.003668 0.008862 -0.003080 0.000000 0.000000 0.000000
# 3 -0.001649 -0.003080 0.010939 0.000000 0.000000 0.000000
# 4 0.000000 0.000000 0.000000 0.029693 0.000000 0.000000
# 5 0.000000 0.000000 0.000000 0.000000 0.075294 0.000000
# 6 0.000000 0.000000 0.000000 0.000000 0.000000 0.060363
#
#
# Mechanical properties :
#
#
# Convention : Reuss Voigt Hill
#
# Bulk Modulus (GPa) = 39.86961 51.53253 45.70107
# Shear Modulus (GPa) = 21.51627 26.76674 24.14151
#
# Velocity S-wave (km/s) = 3.19820 3.56714 3.38770
# Velocity P-wave (km/s) = 5.70889 6.43923 6.08503
#
# Compressibility (1/GPa) = 0.02508176
#
# Stress axis : x y z
#
# Youngs Moduli (GPa) = 45.30015 112.83509 91.41320
#
# Poissons Ratio (x) = 0.41392 0.15077
# Poissons Ratio (y) = 0.16618 0.28154
# Poissons Ratio (z) = 0.07471 0.34752
#
# Static dielectric constant tensor:
#      x y z
#    x 1.784330 0.000000 0.000000 
#    y 0.000000 1.808920 0.000000 
#    z 0.000000 0.000000 1.790880 
# 
# From -- ./inp_files/4596.got.cif
#   From: 2010.05.17/outbox.cif.g08.bks.cpg/sg37_3_cif.got.tgz:4596.got - 2010.06.03 17:53:42.
