data_PCOD9354536
_publ_section_title
;
Structure prediction by ZEFSAII (Michael W. Deem and Ramdas Pophale) SiO2 
 PCOD9354536
Probable space group: C C C 2
;
_chemical_formula_sum "Si O2"
_cell_formula_units_Z 60
_cell_length_a 5.891815
_cell_length_b 17.989028
_cell_length_c 25.583952
_cell_angle_alpha 90.000000
_cell_angle_beta 90.000000
_cell_angle_gamma 90.000000
_cell_volume 2711.592544
_symmetry_space_group_name_H-M "C C C 2"
_symmetry_group_IT_number 37
_symmetry_cell_setting 'orthorhombic'
loop_
_space_group_symop_operation_xyz
x,y,z
-x,-y,z
-x,y,1/2+z
x,-y,1/2+z
1/2+x,1/2+y,z
1/2-x,1/2-y,z
1/2-x,1/2+y,1/2+z
1/2+x,1/2-y,1/2+z
loop_
_atom_site_type_symbol
_atom_site_label
_atom_site_fract_x
_atom_site_fract_y
_atom_site_fract_z
Si Si1 0.750000 0.250000 0.927620
Si Si2 0.395006 0.572342 0.071194
Si Si3 0.893352 0.675299 0.850697
Si Si4 0.415382 0.819838 0.125735
Si Si5 0.812328 0.404494 0.966043
Si Si6 0.495194 0.208830 0.239873
Si Si7 0.752086 0.485178 0.366288
Si Si8 0.210903 0.670346 0.522458
O O1 0.589040 0.203262 0.888975
O O2 0.683300 0.323355 0.961635
O O3 0.500000 0.500000 0.095228
O O4 0.233191 0.608929 0.112976
O O5 0.583300 0.628370 0.049605
O O6 0.267062 0.552121 0.017609
O O7 0.750000 0.750000 0.846492
O O8 0.762122 0.604121 0.872983
O O9 0.978911 0.659194 0.791877
O O10 0.250000 0.750000 0.127575
O O11 0.532449 0.825196 0.181959
O O12 0.560469 0.810105 0.073450
O O13 0.770929 0.459065 0.916880
O O14 0.067227 0.380126 0.982519
O O15 0.250000 0.250000 0.248496
O O16 0.750000 0.250000 0.237487
O O17 0.500000 0.500000 0.343280
O O18 0.000000 0.500000 0.339831
O O19 0.250000 0.750000 0.495649
#
# Coordination Sequence:
#
# PCOD9354536 Si02
#       8
#     4   8   8   8   8   8   8   8
#     4  12  22  40  64  98 146 178 252 296 358 418
#     4  11  25  40  62  95 143 184 234 289 354 431
#     4  11  25  44  72 104 142 184 245 302 361 429
#     4  10  21  40  68 100 132 178 231 290 356 425
#     4  11  26  39  64 100 138 194 240 292 357 427
#     4  10  22  41  74 110 138 178 234 299 365 425
#     4  12  27  48  70  98 144 190 241 287 360 425
#     4  11  22  40  67  97 136 183 239 291 346 422
#
# _framework density 22.127217000000002
#
# number of rings (size 3 to 8) (size 9 to 14) (size 15 to 20)
#    0.000    1.067    3.333    2.400    7.467    3.200 
#    0.000    0.667    2.933    0.000    0.000    0.000 
#    0.000    0.000    0.000    0.000    0.000    0.000 
#
# Total GULP energy -167071.812514 kJ/mol
# GULP energy per Si atom -5569.060417 kJ/mol
# Density = 2.207685 g / cm^3
# Si number density = 22.127217 Si / 1000 Ang^3
#
#
#
# Elastic Constant Matrix: (Units=GPa)
#
#
# Indices 1 2 3 4 5 6 
#
# 1 95.5538 23.8187 9.3775 0.0000 0.0000 0.0000
# 2 23.8187 133.0439 17.8837 0.0000 0.0000 0.0000
# 3 9.3775 17.8837 101.6169 0.0000 0.0000 0.0000
# 4 0.0000 0.0000 0.0000 26.5681 0.0000 0.0000
# 5 0.0000 0.0000 0.0000 0.0000 36.1972 0.0000
# 6 0.0000 0.0000 0.0000 0.0000 0.0000 43.1131
#
#
#
# Elastic Compliance Matrix: (Units=1/GPa)
#
#
# Indices 1 2 3 4 5 6 
#
# 1 0.011000 -0.001877 -0.000685 0.000000 0.000000 0.000000
# 2 -0.001877 0.008019 -0.001238 0.000000 0.000000 0.000000
# 3 -0.000685 -0.001238 0.010122 0.000000 0.000000 0.000000
# 4 0.000000 0.000000 0.000000 0.037639 0.000000 0.000000
# 5 0.000000 0.000000 0.000000 0.000000 0.027626 0.000000
# 6 0.000000 0.000000 0.000000 0.000000 0.000000 0.023195
#
#
# Mechanical properties :
#
#
# Convention : Reuss Voigt Hill
#
# Bulk Modulus (GPa) = 46.42302 48.04160 47.23231
# Shear Modulus (GPa) = 37.76945 39.78467 38.77706
#
# Velocity S-wave (km/s) = 4.13597 4.24488 4.19078
# Velocity P-wave (km/s) = 6.62072 6.76639 6.69395
#
# Compressibility (1/GPa) = 0.02154104
#
# Stress axis : x y z
#
# Youngs Moduli (GPa) = 90.90513 124.70655 98.79518
#
# Poissons Ratio (x) = 0.23412 0.06765
# Poissons Ratio (y) = 0.17066 0.12231
# Poissons Ratio (z) = 0.06225 0.15439
#
# Static dielectric constant tensor:
#      x y z
#    x 1.516370 0.000000 0.000000 
#    y 0.000000 2.558520 0.000000 
#    z 0.000000 0.000000 1.835130 
# 
# From -- ./inp_files/19509.got.cif
#   From: 2010.05.17/outbox.cif.g08.bks.cpg/sg37_10_cif.got.tgz:19509.got - 2010.06.03 17:53:42.
