data_PCOD9354041
_publ_section_title
;
Structure prediction by ZEFSAII (Michael W. Deem and Ramdas Pophale) SiO2 
 PCOD9354041
Probable space group: C C C 2
;
_chemical_formula_sum "Si O2"
_cell_formula_units_Z 56
_cell_length_a 15.029458
_cell_length_b 12.363517
_cell_length_c 15.096524
_cell_angle_alpha 90.000000
_cell_angle_beta 90.000000
_cell_angle_gamma 90.000000
_cell_volume 2805.190188
_symmetry_space_group_name_H-M "C C C 2"
_symmetry_group_IT_number 37
_symmetry_cell_setting 'orthorhombic'
loop_
_space_group_symop_operation_xyz
x,y,z
-x,-y,z
-x,y,1/2+z
x,-y,1/2+z
1/2+x,1/2+y,z
1/2-x,1/2-y,z
1/2-x,1/2+y,1/2+z
1/2+x,1/2-y,1/2+z
loop_
_atom_site_type_symbol
_atom_site_label
_atom_site_fract_x
_atom_site_fract_y
_atom_site_fract_z
Si Si1 0.379548 0.231533 0.944630
Si Si2 0.239540 0.373987 0.498471
Si Si3 0.274759 0.574313 0.374550
Si Si4 0.727285 0.508331 0.673377
Si Si5 0.418032 0.918949 0.725539
Si Si6 0.446313 0.105202 0.431625
Si Si7 0.651730 0.280950 0.649346
O O1 0.352877 0.345558 0.903438
O O2 0.315856 0.139328 0.901512
O O3 0.481709 0.200343 0.931543
O O4 0.354909 0.243284 0.047700
O O5 0.250000 0.250000 0.471359
O O6 0.275259 0.462039 0.428272
O O7 0.278159 0.406236 0.593811
O O8 0.133385 0.384443 0.499013
O O9 0.283143 0.556378 0.270609
O O10 0.828931 0.462139 0.677530
O O11 0.657414 0.410494 0.656727
O O12 0.409201 0.915095 0.832346
O O13 0.422178 0.792588 0.697338
O O14 0.500000 0.000000 0.706432
O O15 0.500000 0.000000 0.458449
O O16 0.750000 0.250000 0.686068
#
# Coordination Sequence:
#
# PCOD9354041 Si02
#       7
#     8   8   8   8   8   8   8
#     4  11  21  40  67  96 131 168 219 272 336 385
#     4  12  26  42  64  99 135 169 224 269 326 389
#     4  11  21  42  68  90 132 177 219 269 322 401
#     4  11  23  40  63  94 129 179 222 261 330 399
#     4  10  21  36  62  99 127 157 220 278 329 376
#     4  11  23  41  65 100 129 165 215 279 330 376
#     4  10  20  36  64  93 126 172 217 265 326 396
#
# _framework density 19.962994999999999
#
# number of rings (size 3 to 8) (size 9 to 14) (size 15 to 20)
#    0.000    1.143    5.714    1.714    6.000    0.000 
#    0.000    0.714    0.000    1.714    0.000    0.000 
#    0.000    0.000    0.000    0.000    0.000    0.000 
#
# Total GULP energy -156234.638931 kJ/mol
# GULP energy per Si atom -5579.808533 kJ/mol
# Density = 1.991756 g / cm^3
# Si number density = 19.962995 Si / 1000 Ang^3
#
#
#
# Elastic Constant Matrix: (Units=GPa)
#
#
# Indices 1 2 3 4 5 6 
#
# 1 37.8754 32.2069 18.6511 0.0000 0.0000 0.0000
# 2 32.2069 145.1530 47.7648 0.0000 0.0000 0.0000
# 3 18.6511 47.7648 93.3039 0.0000 0.0000 0.0000
# 4 0.0000 0.0000 0.0000 76.9939 0.0000 0.0000
# 5 0.0000 0.0000 0.0000 0.0000 27.0165 0.0000
# 6 0.0000 0.0000 0.0000 0.0000 0.0000 37.6693
#
#
#
# Elastic Compliance Matrix: (Units=1/GPa)
#
#
# Indices 1 2 3 4 5 6 
#
# 1 0.033452 -0.006280 -0.003472 0.000000 0.000000 0.000000
# 2 -0.006280 0.009464 -0.003589 0.000000 0.000000 0.000000
# 3 -0.003472 -0.003589 0.013249 0.000000 0.000000 0.000000
# 4 0.000000 0.000000 0.000000 0.012988 0.000000 0.000000
# 5 0.000000 0.000000 0.000000 0.000000 0.037014 0.000000
# 6 0.000000 0.000000 0.000000 0.000000 0.000000 0.026547
#
#
# Mechanical properties :
#
#
# Convention : Reuss Voigt Hill
#
# Bulk Modulus (GPa) = 33.91866 52.61979 43.26922
# Shear Modulus (GPa) = 29.54647 40.18324 34.86486
#
# Velocity S-wave (km/s) = 3.85133 4.49139 4.18362
# Velocity P-wave (km/s) = 6.06668 7.30155 6.71257
#
# Compressibility (1/GPa) = 0.02948230
#
# Stress axis : x y z
#
# Youngs Moduli (GPa) = 29.89345 105.66527 75.47580
#
# Poissons Ratio (x) = 0.66357 0.26206
# Poissons Ratio (y) = 0.18773 0.27092
# Poissons Ratio (z) = 0.10379 0.37928
#
# Static dielectric constant tensor:
#      x y z
#    x 1.709680 0.000000 0.000000 
#    y 0.000000 1.575060 0.000000 
#    z 0.000000 0.000000 1.713000 
# 
# From -- ./inp_files/12133.got.cif
#   From: 2010.05.17/outbox.cif.g08.bks.cpg/sg37_7_cif.got.tgz:12133.got - 2010.06.03 17:53:42.
