data_PCOD9354120
_publ_section_title
;
Structure prediction by ZEFSAII (Michael W. Deem and Ramdas Pophale) SiO2 
 PCOD9354120
Probable space group: C C C 2
;
_chemical_formula_sum "Si O2"
_cell_formula_units_Z 56
_cell_length_a 5.262096
_cell_length_b 13.432506
_cell_length_c 34.037802
_cell_angle_alpha 90.000000
_cell_angle_beta 90.000000
_cell_angle_gamma 90.000000
_cell_volume 2405.898591
_symmetry_space_group_name_H-M "C C C 2"
_symmetry_group_IT_number 37
_symmetry_cell_setting 'orthorhombic'
loop_
_space_group_symop_operation_xyz
x,y,z
-x,-y,z
-x,y,1/2+z
x,-y,1/2+z
1/2+x,1/2+y,z
1/2-x,1/2-y,z
1/2-x,1/2+y,1/2+z
1/2+x,1/2-y,1/2+z
loop_
_atom_site_type_symbol
_atom_site_label
_atom_site_fract_x
_atom_site_fract_y
_atom_site_fract_z
Si Si1 0.197625 0.133842 0.449090
Si Si2 0.205564 0.370483 0.898572
Si Si3 0.000000 0.000000 0.837865
Si Si4 0.504710 0.680274 0.278827
Si Si5 0.498657 0.680946 0.191039
Si Si6 0.397761 0.356483 0.607619
Si Si7 0.750000 0.750000 0.053635
Si Si8 0.648526 0.903253 0.530884
O O1 0.250000 0.250000 0.450750
O O2 0.440072 0.107127 0.420952
O O3 0.163288 0.104248 0.494539
O O4 0.933737 0.111439 0.428708
O O5 0.250000 0.250000 0.887567
O O6 0.277435 0.448017 0.863917
O O7 0.558920 0.406655 0.809780
O O8 0.750000 0.750000 0.280248
O O9 0.502995 0.635249 0.234460
O O10 0.250000 0.750000 0.284736
O O11 0.750000 0.750000 0.185333
O O12 0.459912 0.614878 0.151997
O O13 0.250000 0.750000 0.192513
O O14 0.250000 0.250000 0.609880
O O15 0.649715 0.333778 0.583179
O O16 0.244095 0.417863 0.575418
O O17 0.526944 0.804169 0.030431
O O18 0.500000 0.000000 0.519675
#
# Coordination Sequence:
#
# PCOD9354120 Si02
#       8
#     8   8   4   8   8   8   4   8
#     4  10  23  45  65  93 130 176 225 281 336 407
#     4  10  25  43  68  97 133 177 228 282 344 413
#     4  12  26  46  76 104 138 182 226 286 362 420
#     4  10  24  44  71 105 141 180 226 283 343 421
#     4   9  17  36  66  96 132 179 224 271 335 402
#     4   9  18  35  61  92 124 178 220 269 325 396
#     4  10  20  38  62  86 122 174 216 274 328 384
#     4  11  25  38  61  94 132 170 228 278 336 396
#
# _framework density 23.276126999999999
#
# number of rings (size 3 to 8) (size 9 to 14) (size 15 to 20)
#    0.000    2.000    0.714    1.714    7.000    5.143 
#    0.000    1.429    0.000    0.000    0.000    0.000 
#    0.000    0.000    0.000    0.000    0.000    0.000 
#
# Total GULP energy -156075.184445 kJ/mol
# GULP energy per Si atom -5574.113730 kJ/mol
# Density = 2.322315 g / cm^3
# Si number density = 23.276127 Si / 1000 Ang^3
#
#
#
# Elastic Constant Matrix: (Units=GPa)
#
#
# Indices 1 2 3 4 5 6 
#
# 1 113.1514 10.9502 34.0458 0.0000 0.0000 0.0000
# 2 10.9502 91.1122 47.8805 0.0000 0.0000 0.0000
# 3 34.0458 47.8805 165.7863 0.0000 0.0000 0.0000
# 4 0.0000 0.0000 0.0000 -8.0427 0.0000 0.0000
# 5 0.0000 0.0000 0.0000 0.0000 74.0785 0.0000
# 6 0.0000 0.0000 0.0000 0.0000 0.0000 22.2348
#
#
#
# Elastic Compliance Matrix: (Units=1/GPa)
#
#
# Indices 1 2 3 4 5 6 
#
# 1 0.009421 -0.000136 -0.001895 0.000000 0.000000 0.000000
# 2 -0.000136 0.012941 -0.003710 0.000000 0.000000 0.000000
# 3 -0.001895 -0.003710 0.007492 0.000000 0.000000 0.000000
# 4 0.000000 0.000000 0.000000 -0.124337 0.000000 0.000000
# 5 0.000000 0.000000 0.000000 0.000000 0.013499 0.000000
# 6 0.000000 0.000000 0.000000 0.000000 0.000000 0.044975
#
#
# Mechanical properties :
#
#
# Convention : Reuss Voigt Hill
#
# Bulk Modulus (GPa) = 54.42903 61.75587 58.09245
# Shear Modulus (GPa) = -271.71292 36.13236 -117.79028
#
# Velocity S-wave (km/s) = -10.81610 3.94424 -7.12148
# Velocity P-wave (km/s) = 11.51300 6.87984 6.52752
#
# Compressibility (1/GPa) = 0.01837255
#
# Stress axis : x y z
#
# Youngs Moduli (GPa) = 106.14362 77.27213 133.46771
#
# Poissons Ratio (x) = 0.01053 0.25297
# Poissons Ratio (y) = 0.01446 0.49511
# Poissons Ratio (z) = 0.20118 0.28665
#
# Static dielectric constant tensor:
#      x y z
#    x 1.910000 0.000000 0.000000 
#    y 0.000000 1.955780 0.000000 
#    z 0.000000 0.000000 1.933690 
# 
# From -- ./inp_files/20182.got.cif
#   From: 2010.05.17/outbox.cif.g08.bks.cpg/sg37_11_cif.got.tgz:20182.got - 2010.06.03 17:53:42.
