data_PCOD9354756
_publ_section_title
;
Structure prediction by ZEFSAII (Michael W. Deem and Ramdas Pophale) SiO2 
 PCOD9354756
Probable space group: C C C 2
;
_chemical_formula_sum "Si O2"
_cell_formula_units_Z 44
_cell_length_a 10.219380
_cell_length_b 20.708684
_cell_length_c 8.649057
_cell_angle_alpha 90.000000
_cell_angle_beta 90.000000
_cell_angle_gamma 90.000000
_cell_volume 1830.399164
_symmetry_space_group_name_H-M "C C C 2"
_symmetry_group_IT_number 37
_symmetry_cell_setting 'orthorhombic'
loop_
_space_group_symop_operation_xyz
x,y,z
-x,-y,z
-x,y,1/2+z
x,-y,1/2+z
1/2+x,1/2+y,z
1/2-x,1/2-y,z
1/2-x,1/2+y,1/2+z
1/2+x,1/2-y,1/2+z
loop_
_atom_site_type_symbol
_atom_site_label
_atom_site_fract_x
_atom_site_fract_y
_atom_site_fract_z
Si Si1 0.058619 0.820014 0.045170
Si Si2 0.598743 0.809527 0.052435
Si Si3 0.928489 0.424357 0.950903
Si Si4 0.250000 0.750000 0.830924
Si Si5 0.845612 0.870165 0.868900
Si Si6 0.323285 0.980721 0.265087
O O1 0.105850 0.830262 0.218886
O O2 0.963055 0.759411 0.013686
O O3 0.179774 0.802594 0.937702
O O4 0.965955 0.876992 0.986766
O O5 0.654968 0.792577 0.221807
O O6 0.477055 0.858557 0.031419
O O7 0.720496 0.834711 0.949356
O O8 0.828682 0.443736 0.811163
O O9 0.063186 0.447087 0.869266
O O10 0.866750 0.465346 0.091702
O O11 0.802842 0.940162 0.807558
#
# Coordination Sequence:
#
# PCOD9354756 Si02
#       6
#     8   8   8   4   8   8
#     4  12  25  41  65 106 144 196 236 286 380 454
#     4  11  24  42  64 102 151 188 236 309 360 455
#     4  10  22  39  65 100 138 177 242 300 364 415
#     4  12  26  38  66 104 148 198 238 278 384 456
#     4  11  24  44  68  98 151 186 243 299 367 444
#     4  10  22  41  68 101 137 183 238 312 359 421
#
# _framework density 24.038471000000001
#
# number of rings (size 3 to 8) (size 9 to 14) (size 15 to 20)
#    0.000    1.091    3.636    2.182   10.182    0.000 
#    0.000    1.818    0.000    3.273    0.000    2.545 
#    0.000    0.000    0.000    0.000    0.000    0.000 
#
# Total GULP energy -122744.855154 kJ/mol
# GULP energy per Si atom -5579.311598 kJ/mol
# Density = 2.398376 g / cm^3
# Si number density = 24.038471 Si / 1000 Ang^3
#
#
#
# Elastic Constant Matrix: (Units=GPa)
#
#
# Indices 1 2 3 4 5 6 
#
# 1 83.3092 13.8719 43.3789 0.0000 0.0000 0.0000
# 2 13.8719 50.9950 5.6326 0.0000 0.0000 0.0000
# 3 43.3789 5.6326 128.6892 0.0000 0.0000 0.0000
# 4 0.0000 0.0000 0.0000 -11.4403 0.0000 0.0000
# 5 0.0000 0.0000 0.0000 0.0000 35.1818 0.0000
# 6 0.0000 0.0000 0.0000 0.0000 0.0000 23.6672
#
#
#
# Elastic Compliance Matrix: (Units=1/GPa)
#
#
# Indices 1 2 3 4 5 6 
#
# 1 0.015183 -0.003582 -0.004961 0.000000 0.000000 0.000000
# 2 -0.003582 0.020550 0.000308 0.000000 0.000000 0.000000
# 3 -0.004961 0.000308 0.009430 0.000000 0.000000 0.000000
# 4 0.000000 0.000000 0.000000 -0.087410 0.000000 0.000000
# 5 0.000000 0.000000 0.000000 0.000000 0.028424 0.000000
# 6 0.000000 0.000000 0.000000 0.000000 0.000000 0.042253
#
#
# Mechanical properties :
#
#
# Convention : Reuss Voigt Hill
#
# Bulk Modulus (GPa) = 34.85274 43.19559 39.02417
# Shear Modulus (GPa) = 91.80323 22.82239 57.31281
#
# Velocity S-wave (km/s) = 6.18652 3.08459 4.88814
# Velocity P-wave (km/s) = 8.09697 5.54028 6.93742
#
# Compressibility (1/GPa) = 0.02869215
#
# Stress axis : x y z
#
# Youngs Moduli (GPa) = 65.86204 48.66133 106.04992
#
# Poissons Ratio (x) = 0.17432 0.52614
# Poissons Ratio (y) = 0.23593 -0.03267
# Poissons Ratio (z) = 0.32676 -0.01499
#
# Static dielectric constant tensor:
#      x y z
#    x 2.035700 0.000000 0.000000 
#    y 0.000000 2.102950 0.000000 
#    z 0.000000 0.000000 1.916620 
# 
# From -- ./inp_files/2905.got.cif
#   From: 2010.05.17/outbox.cif.g08.bks.cpg/sg37_2_cif.got.tgz:2905.got - 2010.06.03 17:53:42.
