data_PCOD9354069
_publ_section_title
;
Structure prediction by ZEFSAII (Michael W. Deem and Ramdas Pophale) SiO2 
 PCOD9354069
Probable space group: C C C 2
;
_chemical_formula_sum "Si O2"
_cell_formula_units_Z 64
_cell_length_a 14.905442
_cell_length_b 9.106310
_cell_length_c 21.637841
_cell_angle_alpha 90.000000
_cell_angle_beta 90.000000
_cell_angle_gamma 90.000000
_cell_volume 2936.981526
_symmetry_space_group_name_H-M "C C C 2"
_symmetry_group_IT_number 37
_symmetry_cell_setting 'orthorhombic'
loop_
_space_group_symop_operation_xyz
x,y,z
-x,-y,z
-x,y,1/2+z
x,-y,1/2+z
1/2+x,1/2+y,z
1/2-x,1/2-y,z
1/2-x,1/2+y,1/2+z
1/2+x,1/2-y,1/2+z
loop_
_atom_site_type_symbol
_atom_site_label
_atom_site_fract_x
_atom_site_fract_y
_atom_site_fract_z
Si Si1 0.981832 0.668689 0.076700
Si Si2 0.348202 0.808739 0.329713
Si Si3 0.910698 0.410886 0.777776
Si Si4 0.603616 0.467108 0.262976
Si Si5 0.842877 0.301426 0.999037
Si Si6 0.339133 0.145182 0.966849
Si Si7 0.652869 0.699037 0.170221
Si Si8 0.851314 0.808611 0.366565
O O1 0.931755 0.774309 0.125221
O O2 0.000000 0.500000 0.099742
O O3 0.911448 0.669422 0.020237
O O4 0.077122 0.710317 0.047504
O O5 0.250000 0.750000 0.339411
O O6 0.390287 0.703515 0.278277
O O7 0.382962 0.821773 0.399801
O O8 0.342200 0.967575 0.300311
O O9 0.869143 0.312521 0.725110
O O10 0.922046 0.304109 0.836195
O O11 0.000000 0.500000 0.762108
O O12 0.500000 0.500000 0.251474
O O13 0.654663 0.541579 0.205043
O O14 0.633183 0.544469 0.327603
O O15 0.750000 0.250000 0.028283
O O16 0.825355 0.467522 0.972558
O O17 0.862257 0.197515 0.939843
O O18 0.250000 0.250000 0.974647
O O19 0.750000 0.750000 0.143815
O O20 0.750000 0.750000 0.354634
#
# Coordination Sequence:
#
# PCOD9354069 Si02
#       8
#     8   8   8   8   8   8   8   8
#     4  10  23  43  69  95 128 169 237 274 320 393
#     4  11  21  35  58  96 135 162 203 267 327 385
#     4  11  21  34  63  96 125 169 218 260 325 390
#     4  11  24  38  60  95 134 165 213 270 329 387
#     4  10  22  40  66  96 136 174 218 272 331 402
#     4  10  22  38  62  98 137 171 215 270 332 390
#     4  11  23  45  69  89 126 182 227 272 327 394
#     4  10  20  37  59  89 131 174 210 253 329 409
#
# _framework density 21.791080999999998
#
# number of rings (size 3 to 8) (size 9 to 14) (size 15 to 20)
#    0.000    1.500    1.250    5.250    8.750    0.000 
#    0.000    4.375    0.000    3.750    0.000    0.000 
#    0.000    0.000    0.000    0.000    0.000    0.000 
#
# Total GULP energy -178537.142134 kJ/mol
# GULP energy per Si atom -5579.285692 kJ/mol
# Density = 2.174148 g / cm^3
# Si number density = 21.791081 Si / 1000 Ang^3
#
#
#
# Elastic Constant Matrix: (Units=GPa)
#
#
# Indices 1 2 3 4 5 6 
#
# 1 90.5119 21.9508 28.4292 0.0000 0.0000 0.0000
# 2 21.9508 66.7395 25.3024 0.0000 0.0000 0.0000
# 3 28.4292 25.3024 80.4152 0.0000 0.0000 0.0000
# 4 0.0000 0.0000 0.0000 4.2758 0.0000 0.0000
# 5 0.0000 0.0000 0.0000 0.0000 23.1157 0.0000
# 6 0.0000 0.0000 0.0000 0.0000 0.0000 34.0461
#
#
#
# Elastic Compliance Matrix: (Units=1/GPa)
#
#
# Indices 1 2 3 4 5 6 
#
# 1 0.012889 -0.002852 -0.003659 0.000000 0.000000 0.000000
# 2 -0.002852 0.017644 -0.004543 0.000000 0.000000 0.000000
# 3 -0.003659 -0.004543 0.015159 0.000000 0.000000 0.000000
# 4 0.000000 0.000000 0.000000 0.233872 0.000000 0.000000
# 5 0.000000 0.000000 0.000000 0.000000 0.043261 0.000000
# 6 0.000000 0.000000 0.000000 0.000000 0.000000 0.029372
#
#
# Mechanical properties :
#
#
# Convention : Reuss Voigt Hill
#
# Bulk Modulus (GPa) = 42.40409 43.22571 42.81490
# Shear Modulus (GPa) = 13.08329 23.08649 18.08489
#
# Velocity S-wave (km/s) = 2.45296 3.25845 2.88396
# Velocity P-wave (km/s) = 5.24636 5.83405 5.54799
#
# Compressibility (1/GPa) = 0.02358263
#
# Stress axis : x y z
#
# Youngs Moduli (GPa) = 77.58366 56.67600 65.96860
#
# Poissons Ratio (x) = 0.16164 0.24140
# Poissons Ratio (y) = 0.22127 0.29972
# Poissons Ratio (z) = 0.28391 0.25750
#
# Static dielectric constant tensor:
#      x y z
#    x 1.853090 0.000000 0.000000 
#    y 0.000000 1.882650 0.000000 
#    z 0.000000 0.000000 1.790040 
# 
# From -- ./inp_files/18885.got.cif
#   From: 2010.05.17/outbox.cif.g08.bks.cpg/sg37_10_cif.got.tgz:18885.got - 2010.06.03 17:53:42.
