data_PCOD9354969
_publ_section_title
;
Structure prediction by ZEFSAII (Michael W. Deem and Ramdas Pophale) SiO2 
 PCOD9354969
Probable space group: C C C 2
;
_chemical_formula_sum "Si O2"
_cell_formula_units_Z 56
_cell_length_a 5.720067
_cell_length_b 17.952426
_cell_length_c 25.328174
_cell_angle_alpha 90.000000
_cell_angle_beta 90.000000
_cell_angle_gamma 90.000000
_cell_volume 2600.926874
_symmetry_space_group_name_H-M "C C C 2"
_symmetry_group_IT_number 37
_symmetry_cell_setting 'orthorhombic'
loop_
_space_group_symop_operation_xyz
x,y,z
-x,-y,z
-x,y,1/2+z
x,-y,1/2+z
1/2+x,1/2+y,z
1/2-x,1/2-y,z
1/2-x,1/2+y,1/2+z
1/2+x,1/2-y,1/2+z
loop_
_atom_site_type_symbol
_atom_site_label
_atom_site_fract_x
_atom_site_fract_y
_atom_site_fract_z
Si Si1 0.500000 0.500000 0.818130
Si Si2 0.250000 0.250000 0.997516
Si Si3 0.325314 0.887325 0.367882
Si Si4 0.883067 0.582032 0.269466
Si Si5 0.095489 0.674348 0.063658
Si Si6 0.497627 0.795782 0.182082
Si Si7 0.428839 0.687707 0.908335
Si Si8 0.613652 0.080986 0.965469
O O1 0.297109 0.465894 0.854273
O O2 0.387258 0.562752 0.780670
O O3 0.458289 0.276058 0.960350
O O4 0.343976 0.187808 0.036856
O O5 0.522696 0.883231 0.324270
O O6 0.414169 0.881573 0.427805
O O7 0.122152 0.827305 0.364743
O O8 0.000000 0.500000 0.260134
O O9 0.949866 0.640282 0.224752
O O10 0.250000 0.750000 0.058413
O O11 0.058180 0.665286 0.125583
O O12 0.182819 0.610934 0.023466
O O13 0.250000 0.750000 0.193618
O O14 0.750000 0.750000 0.177714
O O15 0.250000 0.750000 0.889698
O O16 0.328979 0.608155 0.928446
O O17 0.500000 0.000000 0.970420
#
# Coordination Sequence:
#
# PCOD9354969 Si02
#       8
#     4   4   8   8   8   8   8   8
#     4  10  22  44  70  88 140 192 222 284 362 432
#     4  12  18  40  64  90 122 178 224 266 328 418
#     4  11  22  40  62  97 139 178 227 279 349 420
#     4  10  24  47  72  98 136 186 236 290 361 429
#     4  11  22  44  69  93 135 179 224 280 355 419
#     4  11  27  48  76 107 139 181 238 306 361 421
#     4  12  22  38  63  94 135 187 227 276 341 422
#     4  12  23  38  63 101 139 175 227 281 343 422
#
# _framework density 21.530785999999999
#
# number of rings (size 3 to 8) (size 9 to 14) (size 15 to 20)
#    0.000    0.857    5.000    3.000    4.000    0.571 
#    6.429    0.714    3.143    0.000    0.000    0.000 
#    0.000    0.000    0.000    0.000    0.000    0.000 
#
# Total GULP energy -155926.206381 kJ/mol
# GULP energy per Si atom -5568.793085 kJ/mol
# Density = 2.148178 g / cm^3
# Si number density = 21.530786 Si / 1000 Ang^3
#
#
#
# Elastic Constant Matrix: (Units=GPa)
#
#
# Indices 1 2 3 4 5 6 
#
# 1 91.6089 36.9098 42.1771 0.0000 0.0000 0.0000
# 2 36.9098 103.8459 71.4832 0.0000 0.0000 0.0000
# 3 42.1771 71.4832 146.3567 0.0000 0.0000 0.0000
# 4 0.0000 0.0000 0.0000 31.9682 0.0000 0.0000
# 5 0.0000 0.0000 0.0000 0.0000 23.0356 0.0000
# 6 0.0000 0.0000 0.0000 0.0000 0.0000 43.0283
#
#
#
# Elastic Compliance Matrix: (Units=1/GPa)
#
#
# Indices 1 2 3 4 5 6 
#
# 1 0.013228 -0.003130 -0.002283 0.000000 0.000000 0.000000
# 2 -0.003130 0.015248 -0.006545 0.000000 0.000000 0.000000
# 3 -0.002283 -0.006545 0.010687 0.000000 0.000000 0.000000
# 4 0.000000 0.000000 0.000000 0.031281 0.000000 0.000000
# 5 0.000000 0.000000 0.000000 0.000000 0.043411 0.000000
# 6 0.000000 0.000000 0.000000 0.000000 0.000000 0.023241
#
#
# Mechanical properties :
#
#
# Convention : Reuss Voigt Hill
#
# Bulk Modulus (GPa) = 65.58987 71.43906 68.51446
# Shear Modulus (GPa) = 30.10321 32.35583 31.22952
#
# Velocity S-wave (km/s) = 3.74324 3.88076 3.81262
# Velocity P-wave (km/s) = 7.01512 7.30291 7.16046
#
# Compressibility (1/GPa) = 0.01524626
#
# Stress axis : x y z
#
# Youngs Moduli (GPa) = 75.59525 65.58429 93.56762
#
# Poissons Ratio (x) = 0.20527 0.21366
# Poissons Ratio (y) = 0.23661 0.61242
# Poissons Ratio (z) = 0.17262 0.42926
#
# Static dielectric constant tensor:
#      x y z
#    x 1.955550 0.000000 0.000000 
#    y 0.000000 1.880860 0.000000 
#    z 0.000000 0.000000 1.742480 
# 
# From -- ./inp_files/18079.got.cif
#   From: 2010.05.17/outbox.cif.g08.bks.cpg/sg37_10_cif.got.tgz:18079.got - 2010.06.03 17:53:42.
