data_PCOD9354595
_publ_section_title
;
Structure prediction by ZEFSAII (Michael W. Deem and Ramdas Pophale) SiO2 
 PCOD9354595
Probable space group: C C C 2
;
_chemical_formula_sum "Si O2"
_cell_formula_units_Z 48
_cell_length_a 7.894651
_cell_length_b 12.675331
_cell_length_c 20.633529
_cell_angle_alpha 90.000000
_cell_angle_beta 90.000000
_cell_angle_gamma 90.000000
_cell_volume 2064.741837
_symmetry_space_group_name_H-M "C C C 2"
_symmetry_group_IT_number 37
_symmetry_cell_setting 'orthorhombic'
loop_
_space_group_symop_operation_xyz
x,y,z
-x,-y,z
-x,y,1/2+z
x,-y,1/2+z
1/2+x,1/2+y,z
1/2-x,1/2-y,z
1/2-x,1/2+y,1/2+z
1/2+x,1/2-y,1/2+z
loop_
_atom_site_type_symbol
_atom_site_label
_atom_site_fract_x
_atom_site_fract_y
_atom_site_fract_z
Si Si1 0.223645 0.596849 0.637260
Si Si2 0.750000 0.250000 0.030899
Si Si3 0.360488 0.905259 0.356965
Si Si4 0.063097 0.618991 0.500938
Si Si5 0.931070 0.177378 0.291158
Si Si6 0.250000 0.250000 0.243709
Si Si7 0.134150 0.110370 0.647954
O O1 0.162859 0.637842 0.567742
O O2 0.154411 0.672325 0.693293
O O3 0.429639 0.592911 0.641361
O O4 0.207291 0.472655 0.650108
O O5 0.597801 0.195523 0.992941
O O6 0.828616 0.166962 0.080637
O O7 0.339906 0.881433 0.433259
O O8 0.170282 0.913472 0.328819
O O9 0.411762 0.794818 0.321885
O O10 0.500000 0.000000 0.348513
O O11 0.000000 0.500000 0.509019
O O12 0.865500 0.166115 0.217526
O O13 0.133283 0.173211 0.285076
#
# Coordination Sequence:
#
# PCOD9354595 Si02
#       7
#     8   4   8   8   8   4   8
#     4  10  21  42  67  98 140 176 223 291 356 425
#     4  12  22  39  66 103 132 170 230 286 342 422
#     4  10  24  43  65  92 136 192 240 286 347 434
#     4  11  23  43  69  99 136 184 234 289 352 425
#     4  10  22  42  63  97 132 179 235 280 358 426
#     4  10  22  39  68 101 134 178 234 304 362 424
#     4  10  22  39  67 102 136 177 225 283 362 420
#
# _framework density 23.247458999999999
#
# number of rings (size 3 to 8) (size 9 to 14) (size 15 to 20)
#    0.000    1.667    1.667    3.000    2.333    4.667 
#    0.000    0.000    0.000    0.000    0.000    0.000 
#    0.000    0.000    0.000    0.000    0.000    0.000 
#
# Total GULP energy -133616.347701 kJ/mol
# GULP energy per Si atom -5567.347821 kJ/mol
# Density = 2.319455 g / cm^3
# Si number density = 23.247459 Si / 1000 Ang^3
#
#
#
# Elastic Constant Matrix: (Units=GPa)
#
#
# Indices 1 2 3 4 5 6 
#
# 1 100.5736 25.0647 60.7428 0.0000 0.0000 0.0000
# 2 25.0647 74.6492 15.7231 0.0000 0.0000 0.0000
# 3 60.7428 15.7231 104.8010 0.0000 0.0000 0.0000
# 4 0.0000 0.0000 0.0000 31.1631 0.0000 0.0000
# 5 0.0000 0.0000 0.0000 0.0000 40.7098 0.0000
# 6 0.0000 0.0000 0.0000 0.0000 0.0000 31.6966
#
#
#
# Elastic Compliance Matrix: (Units=1/GPa)
#
#
# Indices 1 2 3 4 5 6 
#
# 1 0.016169 -0.003568 -0.008836 0.000000 0.000000 0.000000
# 2 -0.003568 0.014620 -0.000126 0.000000 0.000000 0.000000
# 3 -0.008836 -0.000126 0.014682 0.000000 0.000000 0.000000
# 4 0.000000 0.000000 0.000000 0.032089 0.000000 0.000000
# 5 0.000000 0.000000 0.000000 0.000000 0.024564 0.000000
# 6 0.000000 0.000000 0.000000 0.000000 0.000000 0.031549
#
#
# Mechanical properties :
#
#
# Convention : Reuss Voigt Hill
#
# Bulk Modulus (GPa) = 48.99013 53.67610 51.33311
# Shear Modulus (GPa) = 30.20467 32.61345 31.40906
#
# Velocity S-wave (km/s) = 3.60845 3.74957 3.67968
# Velocity P-wave (km/s) = 6.20325 6.47185 6.33897
#
# Compressibility (1/GPa) = 0.02041228
#
# Stress axis : x y z
#
# Youngs Moduli (GPa) = 61.84713 68.39764 68.10962
#
# Poissons Ratio (x) = 0.24403 0.60183
# Poissons Ratio (y) = 0.22066 0.00855
# Poissons Ratio (z) = 0.54650 0.00859
#
# Static dielectric constant tensor:
#      x y z
#    x 2.079940 0.000000 0.000000 
#    y 0.000000 2.402070 0.000000 
#    z 0.000000 0.000000 1.821140 
# 
# From -- ./inp_files/14535.got.cif
#   From: 2010.05.17/outbox.cif.g08.bks.cpg/sg37_8_cif.got.tgz:14535.got - 2010.06.03 17:53:42.
