data_PCOD9354514
_publ_section_title
;
Structure prediction by ZEFSAII (Michael W. Deem and Ramdas Pophale) SiO2 
 PCOD9354514
Probable space group: C C C 2
;
_chemical_formula_sum "Si O2"
_cell_formula_units_Z 32
_cell_length_a 5.467294
_cell_length_b 18.585789
_cell_length_c 13.018540
_cell_angle_alpha 90.000000
_cell_angle_beta 90.000000
_cell_angle_gamma 90.000000
_cell_volume 1322.865568
_symmetry_space_group_name_H-M "C C C 2"
_symmetry_group_IT_number 37
_symmetry_cell_setting 'orthorhombic'
loop_
_space_group_symop_operation_xyz
x,y,z
-x,-y,z
-x,y,1/2+z
x,-y,1/2+z
1/2+x,1/2+y,z
1/2-x,1/2-y,z
1/2-x,1/2+y,1/2+z
1/2+x,1/2-y,1/2+z
loop_
_atom_site_type_symbol
_atom_site_label
_atom_site_fract_x
_atom_site_fract_y
_atom_site_fract_z
Si Si1 0.753033 0.454934 0.742860
Si Si2 0.905133 0.405864 0.966915
Si Si3 0.500614 0.748857 0.905596
Si Si4 0.596403 0.393197 0.540827
O O1 0.500000 0.500000 0.751094
O O2 0.812044 0.420739 0.852687
O O3 0.698523 0.395528 0.655749
O O4 0.000000 0.500000 0.716611
O O5 0.962439 0.320223 0.974018
O O6 0.678141 0.425504 0.039960
O O7 0.182036 0.434495 0.981145
O O8 0.750000 0.750000 0.841755
O O9 0.250000 0.750000 0.843221
O O10 0.543171 0.680978 0.980225
#
# Coordination Sequence:
#
# PCOD9354514 Si02
#       4
#     8   8   8   8
#     4  12  26  40  61  96 133 178 226 264 324 402
#     4  10  21  40  64  91 127 168 216 272 329 386
#     4   8  16  34  60  86 114 150 200 260 322 374
#     4  10  21  40  64  91 127 168 216 272 329 386
#
# _framework density 24.189910999999999
#
# number of rings (size 3 to 8) (size 9 to 14) (size 15 to 20)
#    0.000    2.000    0.000    3.000    0.000    6.000 
#    0.000   11.250    0.000   30.000    0.000    0.000 
#    0.000    0.000    0.000    0.000    0.000    0.000 
#
# Total GULP energy -89112.628563 kJ/mol
# GULP energy per Si atom -5569.539285 kJ/mol
# Density = 2.413485 g / cm^3
# Si number density = 24.189911 Si / 1000 Ang^3
#
#
#
# Elastic Constant Matrix: (Units=GPa)
#
#
# Indices 1 2 3 4 5 6 
#
# 1 297.7851 37.5848 35.2928 0.0000 0.0000 0.0000
# 2 37.5848 81.3976 28.5988 0.0000 0.0000 0.0000
# 3 35.2928 28.5988 98.9040 0.0000 0.0000 0.0000
# 4 0.0000 0.0000 0.0000 12.3137 0.0000 0.0000
# 5 0.0000 0.0000 0.0000 0.0000 37.7754 0.0000
# 6 0.0000 0.0000 0.0000 0.0000 0.0000 23.7196
#
#
#
# Elastic Compliance Matrix: (Units=1/GPa)
#
#
# Indices 1 2 3 4 5 6 
#
# 1 0.003637 -0.001362 -0.000904 0.000000 0.000000 0.000000
# 2 -0.001362 0.014184 -0.003616 0.000000 0.000000 0.000000
# 3 -0.000904 -0.003616 0.011479 0.000000 0.000000 0.000000
# 4 0.000000 0.000000 0.000000 0.081210 0.000000 0.000000
# 5 0.000000 0.000000 0.000000 0.000000 0.026472 0.000000
# 6 0.000000 0.000000 0.000000 0.000000 0.000000 0.042159
#
#
# Mechanical properties :
#
#
# Convention : Reuss Voigt Hill
#
# Bulk Modulus (GPa) = 57.02046 75.67105 66.34575
# Shear Modulus (GPa) = 25.41280 39.86910 32.64095
#
# Velocity S-wave (km/s) = 3.24474 4.06417 3.67735
# Velocity P-wave (km/s) = 6.13685 7.30570 6.74664
#
# Compressibility (1/GPa) = 0.01753757
#
# Stress axis : x y z
#
# Youngs Moduli (GPa) = 274.94010 70.49953 87.11623
#
# Poissons Ratio (x) = 0.09600 0.07876
# Poissons Ratio (y) = 0.37441 0.31498
# Poissons Ratio (z) = 0.24858 0.25490
#
# Static dielectric constant tensor:
#      x y z
#    x 2.171450 0.000000 0.000000 
#    y 0.000000 2.074780 0.000000 
#    z 0.000000 0.000000 1.831200 
# 
# From -- ./inp_files/5344.got.cif
#   From: 2010.05.17/outbox.cif.g08.bks.cpg/sg37_3_cif.got.tgz:5344.got - 2010.06.03 17:53:42.
