data_PCOD9354935
_publ_section_title
;
Structure prediction by ZEFSAII (Michael W. Deem and Ramdas Pophale) SiO2 
 PCOD9354935
Probable space group: C C C 2
;
_chemical_formula_sum "Si O2"
_cell_formula_units_Z 48
_cell_length_a 17.148370
_cell_length_b 10.240633
_cell_length_c 12.229965
_cell_angle_alpha 90.000000
_cell_angle_beta 90.000000
_cell_angle_gamma 90.000000
_cell_volume 2147.706156
_symmetry_space_group_name_H-M "C C C 2"
_symmetry_group_IT_number 37
_symmetry_cell_setting 'orthorhombic'
loop_
_space_group_symop_operation_xyz
x,y,z
-x,-y,z
-x,y,1/2+z
x,-y,1/2+z
1/2+x,1/2+y,z
1/2-x,1/2-y,z
1/2-x,1/2+y,1/2+z
1/2+x,1/2-y,1/2+z
loop_
_atom_site_type_symbol
_atom_site_label
_atom_site_fract_x
_atom_site_fract_y
_atom_site_fract_z
Si Si1 0.697161 0.035392 0.816540
Si Si2 0.173971 0.098563 0.470777
Si Si3 0.428277 0.195463 0.855990
Si Si4 0.065970 0.112936 0.045256
Si Si5 0.683798 0.352055 0.216622
Si Si6 0.910209 0.756899 0.273546
O O1 0.632468 0.924781 0.846074
O O2 0.771508 0.983749 0.748000
O O3 0.738152 0.091610 0.925654
O O4 0.656437 0.151061 0.751074
O O5 0.167445 0.164389 0.589007
O O6 0.118924 0.164115 0.380125
O O7 0.143873 0.953236 0.497370
O O8 0.391307 0.315009 0.785663
O O9 0.512430 0.175065 0.802940
O O10 0.444187 0.254513 0.976101
O O11 0.073957 0.149244 0.171865
O O12 0.000000 0.000000 0.031508
O O13 0.750000 0.250000 0.249750
#
# Coordination Sequence:
#
# PCOD9354935 Si02
#       6
#     8   8   8   8   8   8
#     4  11  25  46  70 108 145 180 237 297 362 431
#     4  12  24  43  71 102 142 186 238 293 348 426
#     4  11  25  48  71 105 142 191 233 295 363 419
#     4  12  26  44  75 104 141 191 245 297 344 434
#     4  10  22  43  68  98 141 185 227 286 355 414
#     4  12  27  46  72 108 140 189 241 293 359 421
#
# _framework density 22.349426000000001
#
# number of rings (size 3 to 8) (size 9 to 14) (size 15 to 20)
#    0.000    0.667    3.333    4.000    4.667    0.000 
#    0.000    1.667    0.000    0.000    0.000    0.000 
#    0.000    0.000    0.000    0.000    0.000    0.000 
#
# Total GULP energy -134096.364975 kJ/mol
# GULP energy per Si atom -5587.348541 kJ/mol
# Density = 2.229856 g / cm^3
# Si number density = 22.349426 Si / 1000 Ang^3
#
#
#
# Elastic Constant Matrix: (Units=GPa)
#
#
# Indices 1 2 3 4 5 6 
#
# 1 87.8850 19.5473 35.7303 0.0000 0.0000 0.0000
# 2 19.5473 58.0681 23.2280 0.0000 0.0000 0.0000
# 3 35.7303 23.2280 112.4251 0.0000 0.0000 0.0000
# 4 0.0000 0.0000 0.0000 25.9012 0.0000 0.0000
# 5 0.0000 0.0000 0.0000 0.0000 27.9964 0.0000
# 6 0.0000 0.0000 0.0000 0.0000 0.0000 46.9926
#
#
#
# Elastic Compliance Matrix: (Units=1/GPa)
#
#
# Indices 1 2 3 4 5 6 
#
# 1 0.013559 -0.003097 -0.003670 0.000000 0.000000 0.000000
# 2 -0.003097 0.019480 -0.003041 0.000000 0.000000 0.000000
# 3 -0.003670 -0.003041 0.010689 0.000000 0.000000 0.000000
# 4 0.000000 0.000000 0.000000 0.038608 0.000000 0.000000
# 5 0.000000 0.000000 0.000000 0.000000 0.035719 0.000000
# 6 0.000000 0.000000 0.000000 0.000000 0.000000 0.021280
#
#
# Mechanical properties :
#
#
# Convention : Reuss Voigt Hill
#
# Bulk Modulus (GPa) = 41.46806 46.15436 43.81121
# Shear Modulus (GPa) = 29.94250 32.16954 31.05602
#
# Velocity S-wave (km/s) = 3.66422 3.79805 3.73173
# Velocity P-wave (km/s) = 6.04125 6.31899 6.18168
#
# Compressibility (1/GPa) = 0.02411494
#
# Stress axis : x y z
#
# Youngs Moduli (GPa) = 73.75120 51.33527 93.55204
#
# Poissons Ratio (x) = 0.15896 0.34329
# Poissons Ratio (y) = 0.22837 0.28445
# Poissons Ratio (z) = 0.27063 0.15609
#
# Static dielectric constant tensor:
#      x y z
#    x 1.826210 0.000000 0.000000 
#    y 0.000000 1.909150 0.000000 
#    z 0.000000 0.000000 1.802830 
# 
# From -- ./inp_files/8236.got.cif
#   From: 2010.05.17/outbox.cif.g08.bks.cpg/sg37_5_cif.got.tgz:8236.got - 2010.06.03 17:53:42.
