data_PCOD9354201
_publ_section_title
;
Structure prediction by ZEFSAII (Michael W. Deem and Ramdas Pophale) SiO2 
 PCOD9354201
Probable space group: C C C 2
;
_chemical_formula_sum "Si O2"
_cell_formula_units_Z 56
_cell_length_a 14.567959
_cell_length_b 13.033092
_cell_length_c 14.031852
_cell_angle_alpha 90.000000
_cell_angle_beta 90.000000
_cell_angle_gamma 90.000000
_cell_volume 2664.165296
_symmetry_space_group_name_H-M "C C C 2"
_symmetry_group_IT_number 37
_symmetry_cell_setting 'orthorhombic'
loop_
_space_group_symop_operation_xyz
x,y,z
-x,-y,z
-x,y,1/2+z
x,-y,1/2+z
1/2+x,1/2+y,z
1/2-x,1/2-y,z
1/2-x,1/2+y,1/2+z
1/2+x,1/2-y,1/2+z
loop_
_atom_site_type_symbol
_atom_site_label
_atom_site_fract_x
_atom_site_fract_y
_atom_site_fract_z
Si Si1 0.315409 0.046809 0.618180
Si Si2 0.391071 0.181209 0.455126
Si Si3 0.402788 0.858742 0.502525
Si Si4 0.359666 0.592629 0.880308
Si Si5 0.750000 0.750000 0.112270
Si Si6 0.500000 0.500000 0.028467
Si Si7 0.338173 0.992958 0.338335
Si Si8 0.361251 0.566663 0.670050
O O1 0.331166 0.141866 0.546204
O O2 0.378170 0.958537 0.567678
O O3 0.344335 0.040722 0.728861
O O4 0.206170 0.022330 0.628898
O O5 0.494461 0.181980 0.496570
O O6 0.356313 0.286139 0.406234
O O7 0.394733 0.092625 0.373137
O O8 0.334535 0.776155 0.545296
O O9 0.370104 0.896674 0.399856
O O10 0.424871 0.549131 0.960953
O O11 0.263146 0.531344 0.872197
O O12 0.400081 0.566644 0.776135
O O13 0.713981 0.657442 0.174905
O O14 0.554990 0.576423 0.097916
#
# Coordination Sequence:
#
# PCOD9354201 Si02
#       8
#     8   8   8   8   4   4   8   8
#     4   9  20  39  61  87 126 164 203 261 330 385
#     4  11  22  36  61 100 121 156 222 272 309 379
#     4  10  21  36  59  88 121 166 202 257 323 372
#     4  11  24  39  65  92 126 169 216 266 316 396
#     4  10  20  40  60  84 124 168 216 252 310 402
#     4  12  22  44  62  92 132 170 208 270 326 384
#     4  10  21  39  62  87 126 169 204 256 336 385
#     4  10  23  39  64  91 120 173 211 257 326 389
#
# _framework density 21.019717
#
# number of rings (size 3 to 8) (size 9 to 14) (size 15 to 20)
#    0.000    1.714    0.000    6.000    6.000    2.286 
#    2.571    0.000    6.286    0.000    0.000    0.000 
#    0.000    0.000    0.000    0.000    0.000    0.000 
#
# Total GULP energy -156027.946103 kJ/mol
# GULP energy per Si atom -5572.426647 kJ/mol
# Density = 2.097188 g / cm^3
# Si number density = 21.019717 Si / 1000 Ang^3
#
#
#
# Elastic Constant Matrix: (Units=GPa)
#
#
# Indices 1 2 3 4 5 6 
#
# 1 80.6817 15.4540 52.4619 0.0000 0.0000 0.0000
# 2 15.4540 44.4379 19.4453 0.0000 0.0000 0.0000
# 3 52.4619 19.4453 162.7058 0.0000 0.0000 0.0000
# 4 0.0000 0.0000 0.0000 13.2686 0.0000 0.0000
# 5 0.0000 0.0000 0.0000 0.0000 22.1422 0.0000
# 6 0.0000 0.0000 0.0000 0.0000 0.0000 20.8759
#
#
#
# Elastic Compliance Matrix: (Units=1/GPa)
#
#
# Indices 1 2 3 4 5 6 
#
# 1 0.016191 -0.003531 -0.004799 0.000000 0.000000 0.000000
# 2 -0.003531 0.024515 -0.001791 0.000000 0.000000 0.000000
# 3 -0.004799 -0.001791 0.007907 0.000000 0.000000 0.000000
# 4 0.000000 0.000000 0.000000 0.075366 0.000000 0.000000
# 5 0.000000 0.000000 0.000000 0.000000 0.045163 0.000000
# 6 0.000000 0.000000 0.000000 0.000000 0.000000 0.047902
#
#
# Mechanical properties :
#
#
# Convention : Reuss Voigt Hill
#
# Bulk Modulus (GPa) = 35.24628 51.39421 43.32025
# Shear Modulus (GPa) = 20.26403 24.62162 22.44282
#
# Velocity S-wave (km/s) = 3.10828 3.42622 3.27112
# Velocity P-wave (km/s) = 5.44853 6.33684 5.90940
#
# Compressibility (1/GPa) = 0.02837178
#
# Stress axis : x y z
#
# Youngs Moduli (GPa) = 61.76326 40.79118 126.46452
#
# Poissons Ratio (x) = 0.14403 0.60684
# Poissons Ratio (y) = 0.21808 0.22654
# Poissons Ratio (z) = 0.29637 0.07307
#
# Static dielectric constant tensor:
#      x y z
#    x 1.799490 0.000000 0.000000 
#    y 0.000000 1.819360 0.000000 
#    z 0.000000 0.000000 1.774990 
# 
# From -- ./inp_files/12239.got.cif
#   From: 2010.05.17/outbox.cif.g08.bks.cpg/sg37_7_cif.got.tgz:12239.got - 2010.06.03 17:53:42.
