data_PCOD9354437
_publ_section_title
;
Structure prediction by ZEFSAII (Michael W. Deem and Ramdas Pophale) SiO2 
 PCOD9354437
Probable space group: C C C 2
;
_chemical_formula_sum "Si O2"
_cell_formula_units_Z 64
_cell_length_a 21.941654
_cell_length_b 19.413225
_cell_length_c 7.756859
_cell_angle_alpha 90.000000
_cell_angle_beta 90.000000
_cell_angle_gamma 90.000000
_cell_volume 3304.098209
_symmetry_space_group_name_H-M "C C C 2"
_symmetry_group_IT_number 37
_symmetry_cell_setting 'orthorhombic'
loop_
_space_group_symop_operation_xyz
x,y,z
-x,-y,z
-x,y,1/2+z
x,-y,1/2+z
1/2+x,1/2+y,z
1/2-x,1/2-y,z
1/2-x,1/2+y,1/2+z
1/2+x,1/2-y,1/2+z
loop_
_atom_site_type_symbol
_atom_site_label
_atom_site_fract_x
_atom_site_fract_y
_atom_site_fract_z
Si Si1 0.422320 0.364808 0.662240
Si Si2 0.930971 0.579302 0.257849
Si Si3 0.718508 0.579594 0.028267
Si Si4 0.860789 0.793004 0.985466
Si Si5 0.153771 0.634149 0.458756
Si Si6 0.938414 0.137388 0.772313
Si Si7 0.145187 0.001177 0.252228
Si Si8 0.932679 0.417267 0.164009
O O1 0.386838 0.317351 0.799584
O O2 0.490448 0.375428 0.735612
O O3 0.427951 0.336967 0.467676
O O4 0.387055 0.437973 0.652256
O O5 0.882816 0.612647 0.129956
O O6 0.930093 0.497786 0.216508
O O7 0.920558 0.590016 0.460842
O O8 0.998381 0.605502 0.207085
O O9 0.785308 0.588033 0.953642
O O10 0.710329 0.535843 0.200785
O O11 0.693701 0.656720 0.041490
O O12 0.665898 0.539295 0.923046
O O13 0.837850 0.715664 0.974310
O O14 0.912200 0.809841 0.129699
O O15 0.113992 0.620476 0.288966
O O16 0.901804 0.064827 0.758032
#
# Coordination Sequence:
#
# PCOD9354437 Si02
#       8
#     8   8   8   8   8   8   8   8
#     4  11  21  38  64  96 131 166 210 258 313 379
#     4  11  21  40  64  93 123 151 193 259 322 366
#     4  10  23  41  63  88 123 165 213 255 310 366
#     4  10  25  43  57  88 129 175 202 254 306 372
#     4  12  25  41  66  88 127 165 210 253 310 380
#     4  11  21  38  64  96 131 166 210 258 313 379
#     4  10  21  38  64  94 125 162 212 270 316 356
#     4  11  21  40  64  93 123 151 193 259 322 366
#
# _framework density 19.369883999999999
#
# number of rings (size 3 to 8) (size 9 to 14) (size 15 to 20)
#    0.000    1.250    5.000    1.500    1.750    3.000 
#    0.000    0.000    0.000    4.500    0.000    0.000 
#    0.000    0.000    0.000    0.000    0.000    0.000 
#
# Total GULP energy -178408.565637 kJ/mol
# GULP energy per Si atom -5575.267676 kJ/mol
# Density = 1.932580 g / cm^3
# Si number density = 19.369884 Si / 1000 Ang^3
#
#
#
# Elastic Constant Matrix: (Units=GPa)
#
#
# Indices 1 2 3 4 5 6 
#
# 1 66.6186 3.6166 12.7258 0.0000 0.0000 0.0000
# 2 3.6166 36.9937 12.0744 0.0000 0.0000 0.0000
# 3 12.7258 12.0744 131.5021 0.0000 0.0000 0.0000
# 4 0.0000 0.0000 0.0000 5.8458 0.0000 0.0000
# 5 0.0000 0.0000 0.0000 0.0000 22.6394 0.0000
# 6 0.0000 0.0000 0.0000 0.0000 0.0000 15.8153
#
#
#
# Elastic Compliance Matrix: (Units=1/GPa)
#
#
# Indices 1 2 3 4 5 6 
#
# 1 0.015333 -0.001046 -0.001388 0.000000 0.000000 0.000000
# 2 -0.001046 0.027938 -0.002464 0.000000 0.000000 0.000000
# 3 -0.001388 -0.002464 0.007965 0.000000 0.000000 0.000000
# 4 0.000000 0.000000 0.000000 0.171062 0.000000 0.000000
# 5 0.000000 0.000000 0.000000 0.000000 0.044171 0.000000
# 6 0.000000 0.000000 0.000000 0.000000 0.000000 0.063230
#
#
# Mechanical properties :
#
#
# Convention : Reuss Voigt Hill
#
# Bulk Modulus (GPa) = 24.13115 32.43868 28.28491
# Shear Modulus (GPa) = 14.15197 22.63994 18.39596
#
# Velocity S-wave (km/s) = 2.70593 3.42251 3.08510
# Velocity P-wave (km/s) = 4.71676 5.69223 5.22730
#
# Compressibility (1/GPa) = 0.04144022
#
# Stress axis : x y z
#
# Youngs Moduli (GPa) = 65.22006 35.79341 125.54958
#
# Poissons Ratio (x) = 0.03744 0.17423
# Poissons Ratio (y) = 0.06822 0.30936
# Poissons Ratio (z) = 0.09051 0.08820
#
# Static dielectric constant tensor:
#      x y z
#    x 1.673550 0.000000 0.000000 
#    y 0.000000 1.684100 0.000000 
#    z 0.000000 0.000000 1.757900 
# 
# From -- ./inp_files/4450.got.cif
#   From: 2010.05.17/outbox.cif.g08.bks.cpg/sg37_3_cif.got.tgz:4450.got - 2010.06.03 17:53:42.
