data_PCOD9354596
_publ_section_title
;
Structure prediction by ZEFSAII (Michael W. Deem and Ramdas Pophale) SiO2 
 PCOD9354596
Probable space group: C C C 2
;
_chemical_formula_sum "Si O2"
_cell_formula_units_Z 56
_cell_length_a 12.620248
_cell_length_b 20.103349
_cell_length_c 9.127066
_cell_angle_alpha 90.000000
_cell_angle_beta 90.000000
_cell_angle_gamma 90.000000
_cell_volume 2315.621070
_symmetry_space_group_name_H-M "C C C 2"
_symmetry_group_IT_number 37
_symmetry_cell_setting 'orthorhombic'
loop_
_space_group_symop_operation_xyz
x,y,z
-x,-y,z
-x,y,1/2+z
x,-y,1/2+z
1/2+x,1/2+y,z
1/2-x,1/2-y,z
1/2-x,1/2+y,1/2+z
1/2+x,1/2-y,1/2+z
loop_
_atom_site_type_symbol
_atom_site_label
_atom_site_fract_x
_atom_site_fract_y
_atom_site_fract_z
Si Si1 0.326278 0.532185 0.354320
Si Si2 0.805991 0.178990 0.836078
Si Si3 0.516649 0.236373 0.924187
Si Si4 0.396979 0.348628 0.046024
Si Si5 0.019222 0.640752 0.158310
Si Si6 0.592443 0.053943 0.411738
Si Si7 0.379493 0.418639 0.545678
O O1 0.358060 0.603933 0.417457
O O2 0.207206 0.521374 0.413798
O O3 0.395153 0.471587 0.415679
O O4 0.338052 0.539316 0.181806
O O5 0.750000 0.250000 0.840539
O O6 0.809926 0.147334 0.675951
O O7 0.928244 0.199700 0.857104
O O8 0.792352 0.131318 0.974815
O O9 0.412468 0.271560 0.993788
O O10 0.571404 0.198059 0.058686
O O11 0.524576 0.183244 0.794417
O O12 0.512042 0.380256 0.089224
O O13 0.087324 0.588619 0.250737
O O14 0.937554 0.604361 0.046111
O O15 0.500000 0.000000 0.415831
#
# Coordination Sequence:
#
# PCOD9354596 Si02
#       7
#     8   8   8   8   8   8   8
#     4  12  28  45  79 106 147 197 255 311 382 450
#     4  11  25  41  72 103 151 188 243 306 365 443
#     4  10  21  42  68 101 141 189 236 287 376 439
#     4  11  24  47  73 109 150 196 246 310 371 458
#     4  10  23  43  70  97 141 191 235 305 377 429
#     4  11  27  46  73 101 145 188 257 313 373 457
#     4  11  26  48  71 111 150 198 253 312 379 453
#
# _framework density 24.183575999999999
#
# number of rings (size 3 to 8) (size 9 to 14) (size 15 to 20)
#    0.000    1.143    1.429    3.429   10.000    2.286 
#    0.000    0.714    0.000    0.000    0.000    0.000 
#    0.000    0.000    0.000    0.000    0.000    0.000 
#
# Total GULP energy -156147.742390 kJ/mol
# GULP energy per Si atom -5576.705085 kJ/mol
# Density = 2.412853 g / cm^3
# Si number density = 24.183576 Si / 1000 Ang^3
#
#
#
# Elastic Constant Matrix: (Units=GPa)
#
#
# Indices 1 2 3 4 5 6 
#
# 1 63.7059 19.1852 4.7828 0.0000 0.0000 0.0000
# 2 19.1852 104.3427 40.3423 0.0000 0.0000 0.0000
# 3 4.7828 40.3423 145.1779 0.0000 0.0000 0.0000
# 4 0.0000 0.0000 0.0000 51.5144 0.0000 0.0000
# 5 0.0000 0.0000 0.0000 0.0000 -18.4150 0.0000
# 6 0.0000 0.0000 0.0000 0.0000 0.0000 35.0420
#
#
#
# Elastic Compliance Matrix: (Units=1/GPa)
#
#
# Indices 1 2 3 4 5 6 
#
# 1 0.016632 -0.003189 0.000338 0.000000 0.000000 0.000000
# 2 -0.003189 0.011349 -0.003049 0.000000 0.000000 0.000000
# 3 0.000338 -0.003049 0.007724 0.000000 0.000000 0.000000
# 4 0.000000 0.000000 0.000000 0.019412 0.000000 0.000000
# 5 0.000000 0.000000 0.000000 0.000000 -0.054304 0.000000
# 6 0.000000 0.000000 0.000000 0.000000 0.000000 0.028537
#
#
# Mechanical properties :
#
#
# Convention : Reuss Voigt Hill
#
# Bulk Modulus (GPa) = 41.82960 49.09413 45.46187
# Shear Modulus (GPa) = 101.79582 30.22269 66.00926
#
# Velocity S-wave (km/s) = 6.49495 3.53897 5.23014
# Velocity P-wave (km/s) = 8.57788 6.08636 7.43720
#
# Compressibility (1/GPa) = 0.02390651
#
# Stress axis : x y z
#
# Youngs Moduli (GPa) = 60.12478 88.11501 129.46491
#
# Poissons Ratio (x) = 0.28099 -0.04378
# Poissons Ratio (y) = 0.19173 0.39468
# Poissons Ratio (z) = -0.02033 0.26862
#
# Static dielectric constant tensor:
#      x y z
#    x 2.004530 0.000000 0.000000 
#    y 0.000000 1.966150 0.000000 
#    z 0.000000 0.000000 1.980850 
# 
# From -- ./inp_files/3638.got.cif
#   From: 2010.05.17/outbox.cif.g08.bks.cpg/sg37_2_cif.got.tgz:3638.got - 2010.06.03 17:53:42.
