data_PCOD9354533
_publ_section_title
;
Structure prediction by ZEFSAII (Michael W. Deem and Ramdas Pophale) SiO2 
 PCOD9354533
Probable space group: C C C 2
;
_chemical_formula_sum "Si O2"
_cell_formula_units_Z 60
_cell_length_a 5.222133
_cell_length_b 20.006122
_cell_length_c 25.520257
_cell_angle_alpha 90.000000
_cell_angle_beta 90.000000
_cell_angle_gamma 90.000000
_cell_volume 2666.219405
_symmetry_space_group_name_H-M "C C C 2"
_symmetry_group_IT_number 37
_symmetry_cell_setting 'orthorhombic'
loop_
_space_group_symop_operation_xyz
x,y,z
-x,-y,z
-x,y,1/2+z
x,-y,1/2+z
1/2+x,1/2+y,z
1/2-x,1/2-y,z
1/2-x,1/2+y,1/2+z
1/2+x,1/2-y,1/2+z
loop_
_atom_site_type_symbol
_atom_site_label
_atom_site_fract_x
_atom_site_fract_y
_atom_site_fract_z
Si Si1 0.948397 0.922350 0.719940
Si Si2 0.931859 0.132617 0.110113
Si Si3 0.059888 0.577454 0.437957
Si Si4 0.368566 0.425978 0.830265
Si Si5 0.750000 0.250000 0.170994
Si Si6 0.560775 0.920017 0.055557
Si Si7 0.097110 0.320653 0.254167
Si Si8 0.292568 0.826240 0.866590
O O1 0.202332 0.877395 0.733209
O O2 0.854079 0.907305 0.662237
O O3 0.763809 0.917361 0.770972
O O4 0.000000 0.000000 0.718601
O O5 0.934793 0.208338 0.132324
O O6 0.703392 0.118340 0.069232
O O7 0.204752 0.105049 0.091183
O O8 0.216957 0.574589 0.384135
O O9 0.149003 0.596625 0.495853
O O10 0.000000 0.500000 0.445614
O O11 0.850141 0.630348 0.418158
O O12 0.500000 0.500000 0.829760
O O13 0.561516 0.365119 0.839295
O O14 0.614238 0.197885 0.210506
O O15 0.500000 0.000000 0.061192
O O16 0.250000 0.250000 0.255516
O O17 0.016851 0.325964 0.316112
O O18 0.250000 0.750000 0.881424
#
# Coordination Sequence:
#
# PCOD9354533 Si02
#       8
#     8   8   8   8   4   8   8   8
#     4  10  21  40  68 104 145 185 240 311 373 442
#     4  12  26  47  72 107 146 197 249 311 372 442
#     4  11  24  43  73 103 136 192 244 301 370 441
#     4  10  21  40  67 102 141 182 236 299 371 443
#     4  12  26  42  74 100 150 202 250 300 376 458
#     4  11  27  48  77 105 143 194 256 315 374 438
#     4  10  21  41  66 102 148 193 240 286 378 453
#     4  10  23  40  66 102 143 184 234 297 358 441
#
# _framework density 22.503774
#
# number of rings (size 3 to 8) (size 9 to 14) (size 15 to 20)
#    0.000    1.333    2.667    2.000    3.733    0.533 
#    1.200    2.000    0.000    0.000    0.000    0.000 
#    0.000    0.000    0.000    0.000    0.000    0.000 
#
# Total GULP energy -167097.050054 kJ/mol
# GULP energy per Si atom -5569.901668 kJ/mol
# Density = 2.245255 g / cm^3
# Si number density = 22.503774 Si / 1000 Ang^3
#
#
#
# Elastic Constant Matrix: (Units=GPa)
#
#
# Indices 1 2 3 4 5 6 
#
# 1 42.3611 0.2761 15.6270 0.0000 0.0000 0.0000
# 2 0.2761 113.5781 19.0423 0.0000 0.0000 0.0000
# 3 15.6270 19.0423 136.4405 0.0000 0.0000 0.0000
# 4 0.0000 0.0000 0.0000 88.4612 0.0000 0.0000
# 5 0.0000 0.0000 0.0000 0.0000 59.4534 0.0000
# 6 0.0000 0.0000 0.0000 0.0000 0.0000 28.2634
#
#
#
# Elastic Compliance Matrix: (Units=1/GPa)
#
#
# Indices 1 2 3 4 5 6 
#
# 1 0.024668 0.000424 -0.002884 0.000000 0.000000 0.000000
# 2 0.000424 0.009023 -0.001308 0.000000 0.000000 0.000000
# 3 -0.002884 -0.001308 0.007842 0.000000 0.000000 0.000000
# 4 0.000000 0.000000 0.000000 0.011304 0.000000 0.000000
# 5 0.000000 0.000000 0.000000 0.000000 0.016820 0.000000
# 6 0.000000 0.000000 0.000000 0.000000 0.000000 0.035382
#
#
# Mechanical properties :
#
#
# Convention : Reuss Voigt Hill
#
# Bulk Modulus (GPa) = 29.41563 40.25228 34.83395
# Shear Modulus (GPa) = 40.35270 52.39788 46.37529
#
# Velocity S-wave (km/s) = 4.23916 4.83059 4.54450
# Velocity P-wave (km/s) = 6.08773 7.00275 6.56121
#
# Compressibility (1/GPa) = 0.03399554
#
# Stress axis : x y z
#
# Youngs Moduli (GPa) = 40.53859 110.83103 127.51712
#
# Poissons Ratio (x) = -0.04695 0.36781
# Poissons Ratio (y) = -0.01717 0.16676
# Poissons Ratio (z) = 0.11693 0.14494
#
# Static dielectric constant tensor:
#      x y z
#    x 1.266980 0.000000 0.000000 
#    y 0.000000 0.413150 0.000000 
#    z 0.000000 0.000000 1.948070 
# 
# From -- ./inp_files/18096.got.cif
#   From: 2010.05.17/outbox.cif.g08.bks.cpg/sg37_10_cif.got.tgz:18096.got - 2010.06.03 17:53:42.
