data_PCOD9354832
_publ_section_title
;
Structure prediction by ZEFSAII (Michael W. Deem and Ramdas Pophale) SiO2 
 PCOD9354832
Probable space group: C C C 2
;
_chemical_formula_sum "Si O2"
_cell_formula_units_Z 40
_cell_length_a 16.621060
_cell_length_b 7.604740
_cell_length_c 15.629889
_cell_angle_alpha 90.000000
_cell_angle_beta 90.000000
_cell_angle_gamma 90.000000
_cell_volume 1975.599836
_symmetry_space_group_name_H-M "C C C 2"
_symmetry_group_IT_number 37
_symmetry_cell_setting 'orthorhombic'
loop_
_space_group_symop_operation_xyz
x,y,z
-x,-y,z
-x,y,1/2+z
x,-y,1/2+z
1/2+x,1/2+y,z
1/2-x,1/2-y,z
1/2-x,1/2+y,1/2+z
1/2+x,1/2-y,1/2+z
loop_
_atom_site_type_symbol
_atom_site_label
_atom_site_fract_x
_atom_site_fract_y
_atom_site_fract_z
Si Si1 0.449948 0.670257 0.934550
Si Si2 0.000000 0.500000 0.335986
Si Si3 0.424669 0.181057 0.182329
Si Si4 0.250000 0.250000 0.726486
Si Si5 0.902975 0.326104 0.110733
Si Si6 0.316814 0.604672 0.792527
O O1 0.500000 0.500000 0.960655
O O2 0.386357 0.607427 0.863316
O O3 0.505544 0.825786 0.893823
O O4 0.405473 0.750335 0.016187
O O5 0.069293 0.440593 0.268776
O O6 0.515158 0.238782 0.159000
O O7 0.362121 0.332065 0.204903
O O8 0.404003 0.039592 0.109840
O O9 0.173761 0.277627 0.665547
O O10 0.272703 0.420315 0.781416
O O11 0.250000 0.750000 0.812610
#
# Coordination Sequence:
#
# PCOD9354832 Si02
#       6
#     8   4   8   4   8   8
#     4  11  25  39  68 100 132 175 223 277 344 406
#     4   8  18  40  64  92 126 162 220 270 316 392
#     4   9  20  42  71  92 129 181 222 275 329 409
#     4  12  26  40  70  94 134 178 226 280 326 404
#     4  10  22  41  63  99 132 168 221 280 338 390
#     4  11  25  44  66  98 132 178 229 274 336 403
#
# _framework density 20.247015999999999
#
# number of rings (size 3 to 8) (size 9 to 14) (size 15 to 20)
#    0.000    2.000    2.000    1.200   12.600    0.000 
#    0.000    0.000    2.200    0.000    0.000    0.000 
#    0.000    0.000    0.000    0.000    0.000    0.000 
#
# Total GULP energy -111546.834281 kJ/mol
# GULP energy per Si atom -5577.341714 kJ/mol
# Density = 2.020093 g / cm^3
# Si number density = 20.247016 Si / 1000 Ang^3
#
#
#
# Elastic Constant Matrix: (Units=GPa)
#
#
# Indices 1 2 3 4 5 6 
#
# 1 69.7951 38.2716 10.4727 0.0000 0.0000 0.0000
# 2 38.2716 144.2376 44.6203 0.0000 0.0000 0.0000
# 3 10.4727 44.6203 76.2629 0.0000 0.0000 0.0000
# 4 0.0000 0.0000 0.0000 -38.1035 0.0000 0.0000
# 5 0.0000 0.0000 0.0000 0.0000 10.7834 0.0000
# 6 0.0000 0.0000 0.0000 0.0000 0.0000 33.6082
#
#
#
# Elastic Compliance Matrix: (Units=1/GPa)
#
#
# Indices 1 2 3 4 5 6 
#
# 1 0.016776 -0.004565 0.000367 0.000000 0.000000 0.000000
# 2 -0.004565 0.009707 -0.005053 0.000000 0.000000 0.000000
# 3 0.000367 -0.005053 0.016018 0.000000 0.000000 0.000000
# 4 0.000000 0.000000 0.000000 -0.026244 0.000000 0.000000
# 5 0.000000 0.000000 0.000000 0.000000 0.092735 0.000000
# 6 0.000000 0.000000 0.000000 0.000000 0.000000 0.029755
#
#
# Mechanical properties :
#
#
# Convention : Reuss Voigt Hill
#
# Bulk Modulus (GPa) = 41.66583 53.00276 47.33429
# Shear Modulus (GPa) = 30.25765 14.38636 22.32200
#
# Velocity S-wave (km/s) = 3.86997 2.66849 3.32397
# Velocity P-wave (km/s) = 6.37121 5.97740 6.17745
#
# Compressibility (1/GPa) = 0.02400048
#
# Stress axis : x y z
#
# Youngs Moduli (GPa) = 59.61028 103.01542 62.42820
#
# Poissons Ratio (x) = 0.47024 -0.02292
# Poissons Ratio (y) = 0.27211 0.31543
# Poissons Ratio (z) = -0.02188 0.52051
#
# Static dielectric constant tensor:
#      x y z
#    x 1.722900 0.000000 0.000000 
#    y 0.000000 1.770900 0.000000 
#    z 0.000000 0.000000 1.738720 
# 
# From -- ./inp_files/12472.got.cif
#   From: 2010.05.17/outbox.cif.g08.bks.cpg/sg37_7_cif.got.tgz:12472.got - 2010.06.03 17:53:42.
