data_PCOD9354510
_publ_section_title
;
Structure prediction by ZEFSAII (Michael W. Deem and Ramdas Pophale) SiO2 
 PCOD9354510
Probable space group: C C C 2
;
_chemical_formula_sum "Si O2"
_cell_formula_units_Z 44
_cell_length_a 13.787702
_cell_length_b 12.588277
_cell_length_c 11.159043
_cell_angle_alpha 90.000000
_cell_angle_beta 90.000000
_cell_angle_gamma 90.000000
_cell_volume 1936.801577
_symmetry_space_group_name_H-M "C C C 2"
_symmetry_group_IT_number 37
_symmetry_cell_setting 'orthorhombic'
loop_
_space_group_symop_operation_xyz
x,y,z
-x,-y,z
-x,y,1/2+z
x,-y,1/2+z
1/2+x,1/2+y,z
1/2-x,1/2-y,z
1/2-x,1/2+y,1/2+z
1/2+x,1/2-y,1/2+z
loop_
_atom_site_type_symbol
_atom_site_label
_atom_site_fract_x
_atom_site_fract_y
_atom_site_fract_z
Si Si1 0.897795 0.206951 0.516930
Si Si2 0.250000 0.250000 0.229912
Si Si3 0.886912 0.156054 0.066650
Si Si4 0.907498 0.562138 0.887638
Si Si5 0.192066 0.625914 0.961231
Si Si6 0.284877 0.368640 0.796788
O O1 0.836769 0.217015 0.639615
O O2 0.916976 0.321764 0.449234
O O3 0.831415 0.140190 0.426832
O O4 0.001331 0.152513 0.535035
O O5 0.199073 0.330869 0.324668
O O6 0.866121 0.111077 0.198559
O O7 0.853403 0.278818 0.040377
O O8 0.803630 0.099785 0.989780
O O9 0.871997 0.476460 0.984373
O O10 0.814990 0.567518 0.799259
O O11 0.000000 0.500000 0.834158
O O12 0.250000 0.250000 0.768113
#
# Coordination Sequence:
#
# PCOD9354510 Si02
#       6
#     8   4   8   8   8   8
#     4  11  22  41  68  93 128 178 222 261 338 397
#     4  10  22  40  62  90 136 176 208 266 332 416
#     4  10  21  40  65  87 132 182 211 254 340 408
#     4  11  22  41  69 105 128 160 224 293 327 366
#     4  10  23  40  59  97 135 165 216 275 326 388
#     4  10  21  40  63  94 134 170 216 270 330 408
#
# _framework density 22.717866999999998
#
# number of rings (size 3 to 8) (size 9 to 14) (size 15 to 20)
#    0.000    1.818    6.364    0.000    5.091    1.455 
#    0.000    2.727    0.000    0.000    0.000    0.000 
#    0.000    0.000    0.000    0.000    0.000    0.000 
#
# Total GULP energy -122544.503943 kJ/mol
# GULP energy per Si atom -5570.204725 kJ/mol
# Density = 2.266616 g / cm^3
# Si number density = 22.717867 Si / 1000 Ang^3
#
#
#
# Elastic Constant Matrix: (Units=GPa)
#
#
# Indices 1 2 3 4 5 6 
#
# 1 144.5889 11.0174 26.7419 0.0000 0.0000 0.0000
# 2 11.0174 75.4137 -3.2472 0.0000 0.0000 0.0000
# 3 26.7419 -3.2472 123.0630 0.0000 0.0000 0.0000
# 4 0.0000 0.0000 0.0000 -11.6234 0.0000 0.0000
# 5 0.0000 0.0000 0.0000 0.0000 -6.0553 0.0000
# 6 0.0000 0.0000 0.0000 0.0000 0.0000 66.9801
#
#
#
# Elastic Compliance Matrix: (Units=1/GPa)
#
#
# Indices 1 2 3 4 5 6 
#
# 1 0.007302 -0.001136 -0.001617 0.000000 0.000000 0.000000
# 2 -0.001136 0.013452 0.000602 0.000000 0.000000 0.000000
# 3 -0.001617 0.000602 0.008493 0.000000 0.000000 0.000000
# 4 0.000000 0.000000 0.000000 -0.086034 0.000000 0.000000
# 5 0.000000 0.000000 0.000000 0.000000 -0.165145 0.000000
# 6 0.000000 0.000000 0.000000 0.000000 0.000000 0.014930
#
#
# Mechanical properties :
#
#
# Convention : Reuss Voigt Hill
#
# Bulk Modulus (GPa) = 40.08867 45.78776 42.93821
# Shear Modulus (GPa) = -25.72213 30.43052 2.35419
#
# Velocity S-wave (km/s) = -3.36853 3.66388 1.01908
# Velocity P-wave (km/s) = 1.59853 6.17231 4.50848
#
# Compressibility (1/GPa) = 0.02494471
#
# Stress axis : x y z
#
# Youngs Moduli (GPa) = 136.95335 74.33772 117.74251
#
# Poissons Ratio (x) = 0.08447 0.19035
# Poissons Ratio (y) = 0.15563 -0.07087
# Poissons Ratio (z) = 0.22141 -0.04474
#
# Static dielectric constant tensor:
#      x y z
#    x 1.885810 0.000000 0.000000 
#    y 0.000000 1.977260 0.000000 
#    z 0.000000 0.000000 1.882410 
# 
# From -- ./inp_files/7753.got.cif
#   From: 2010.05.17/outbox.cif.g08.bks.cpg/sg37_4_cif.got.tgz:7753.got - 2010.06.03 17:53:42.
