data_PCOD9354050
_publ_section_title
;
Structure prediction by ZEFSAII (Michael W. Deem and Ramdas Pophale) SiO2 
 PCOD9354050
Probable space group: C C C 2
;
_chemical_formula_sum "Si O2"
_cell_formula_units_Z 56
_cell_length_a 14.904599
_cell_length_b 12.026186
_cell_length_c 14.448162
_cell_angle_alpha 90.000000
_cell_angle_beta 90.000000
_cell_angle_gamma 90.000000
_cell_volume 2589.767730
_symmetry_space_group_name_H-M "C C C 2"
_symmetry_group_IT_number 37
_symmetry_cell_setting 'orthorhombic'
loop_
_space_group_symop_operation_xyz
x,y,z
-x,-y,z
-x,y,1/2+z
x,-y,1/2+z
1/2+x,1/2+y,z
1/2-x,1/2-y,z
1/2-x,1/2+y,1/2+z
1/2+x,1/2-y,1/2+z
loop_
_atom_site_type_symbol
_atom_site_label
_atom_site_fract_x
_atom_site_fract_y
_atom_site_fract_z
Si Si1 0.056317 0.262410 0.098650
Si Si2 0.153192 0.057229 0.791252
Si Si3 0.250000 0.250000 0.525993
Si Si4 0.678947 0.408738 0.502723
Si Si5 0.028792 0.165298 0.286285
Si Si6 0.304057 0.957891 0.138777
Si Si7 0.921985 0.867533 0.486270
Si Si8 0.500000 0.000000 0.120730
O O1 0.140082 0.204180 0.047071
O O2 0.065799 0.251786 0.210504
O O3 0.027541 0.386090 0.068802
O O4 0.973254 0.183701 0.071973
O O5 0.233976 0.046857 0.721178
O O6 0.075182 0.142586 0.763385
O O7 0.095997 0.941755 0.785180
O O8 0.191777 0.090626 0.892137
O O9 0.300399 0.160080 0.587858
O O10 0.176460 0.183285 0.469860
O O11 0.761845 0.454611 0.564027
O O12 0.599489 0.503446 0.506574
O O13 0.024512 0.176856 0.397264
O O14 0.405665 0.977183 0.170866
#
# Coordination Sequence:
#
# PCOD9354050 Si02
#       8
#     8   8   4   8   8   8   8   4
#     4  12  22  44  65  96 139 188 219 283 336 428
#     4  10  20  37  70 109 131 158 229 298 350 404
#     4  10  20  40  72  92 136 178 228 284 352 418
#     4  10  21  40  74 104 128 170 233 298 353 395
#     4  10  20  36  68 107 134 166 219 294 357 397
#     4  11  23  46  65  99 134 185 225 289 343 423
#     4  10  20  38  68 106 134 168 232 293 354 411
#     4  12  30  46  66  92 150 198 232 260 362 432
#
# _framework density 21.623560000000001
#
# number of rings (size 3 to 8) (size 9 to 14) (size 15 to 20)
#    0.000    1.429    4.286    2.143    2.000    0.571 
#    7.714    4.286    0.000    0.000    0.000    0.000 
#    0.000    0.000    0.000    0.000    0.000    0.000 
#
# Total GULP energy -155993.464393 kJ/mol
# GULP energy per Si atom -5571.195157 kJ/mol
# Density = 2.157434 g / cm^3
# Si number density = 21.623560 Si / 1000 Ang^3
#
#
#
# Elastic Constant Matrix: (Units=GPa)
#
#
# Indices 1 2 3 4 5 6 
#
# 1 143.3128 8.9054 50.3129 0.0000 0.0000 0.0000
# 2 8.9054 96.3274 27.8541 0.0000 0.0000 0.0000
# 3 50.3129 27.8541 110.9807 0.0000 0.0000 0.0000
# 4 0.0000 0.0000 0.0000 -14.8736 0.0000 0.0000
# 5 0.0000 0.0000 0.0000 0.0000 12.1215 0.0000
# 6 0.0000 0.0000 0.0000 0.0000 0.0000 22.5990
#
#
#
# Elastic Compliance Matrix: (Units=1/GPa)
#
#
# Indices 1 2 3 4 5 6 
#
# 1 0.008309 0.000346 -0.003854 0.000000 0.000000 0.000000
# 2 0.000346 0.011208 -0.002970 0.000000 0.000000 0.000000
# 3 -0.003854 -0.002970 0.011503 0.000000 0.000000 0.000000
# 4 0.000000 0.000000 0.000000 -0.067233 0.000000 0.000000
# 5 0.000000 0.000000 0.000000 0.000000 0.082498 0.000000
# 6 0.000000 0.000000 0.000000 0.000000 0.000000 0.044250
#
#
# Mechanical properties :
#
#
# Convention : Reuss Voigt Hill
#
# Bulk Modulus (GPa) = 55.35519 58.30728 56.83124
# Shear Modulus (GPa) = 45.65727 21.53929 33.59828
#
# Velocity S-wave (km/s) = 4.60005 3.15953 3.94608
# Velocity P-wave (km/s) = 7.33955 6.35086 6.86303
#
# Compressibility (1/GPa) = 0.01806515
#
# Stress axis : x y z
#
# Youngs Moduli (GPa) = 120.34848 89.22160 86.93295
#
# Poissons Ratio (x) = -0.03089 0.33503
# Poissons Ratio (y) = -0.04166 0.25819
# Poissons Ratio (z) = 0.46381 0.26498
#
# Static dielectric constant tensor:
#      x y z
#    x 1.834940 0.000000 0.000000 
#    y 0.000000 1.854720 0.000000 
#    z 0.000000 0.000000 1.810590 
# 
# From -- ./inp_files/12178.got.cif
#   From: 2010.05.17/outbox.cif.g08.bks.cpg/sg37_7_cif.got.tgz:12178.got - 2010.06.03 17:53:42.
