data_PCOD9354449
_publ_section_title
;
Structure prediction by ZEFSAII (Michael W. Deem and Ramdas Pophale) SiO2 
 PCOD9354449
Probable space group: C C C 2
;
_chemical_formula_sum "Si O2"
_cell_formula_units_Z 48
_cell_length_a 17.777158
_cell_length_b 8.011703
_cell_length_c 16.379426
_cell_angle_alpha 90.000000
_cell_angle_beta 90.000000
_cell_angle_gamma 90.000000
_cell_volume 2332.844827
_symmetry_space_group_name_H-M "C C C 2"
_symmetry_group_IT_number 37
_symmetry_cell_setting 'orthorhombic'
loop_
_space_group_symop_operation_xyz
x,y,z
-x,-y,z
-x,y,1/2+z
x,-y,1/2+z
1/2+x,1/2+y,z
1/2-x,1/2-y,z
1/2-x,1/2+y,1/2+z
1/2+x,1/2-y,1/2+z
loop_
_atom_site_type_symbol
_atom_site_label
_atom_site_fract_x
_atom_site_fract_y
_atom_site_fract_z
Si Si1 0.750000 0.250000 0.441941
Si Si2 0.000000 0.000000 0.438538
Si Si3 0.750000 0.750000 0.286848
Si Si4 0.250000 0.750000 0.152934
Si Si5 0.166851 0.567908 0.302219
Si Si6 0.893658 0.097282 0.708568
Si Si7 0.965940 0.770620 0.790005
Si Si8 0.851621 0.993580 0.541856
O O1 0.812026 0.314722 0.378102
O O2 0.710432 0.394426 0.495174
O O3 0.077067 0.051487 0.485079
O O4 0.979084 0.154187 0.379552
O O5 0.800298 0.610008 0.329524
O O6 0.811454 0.851195 0.236447
O O7 0.206195 0.628230 0.217184
O O8 0.192490 0.849991 0.093285
O O9 0.079258 0.600141 0.289319
O O10 0.955138 0.221809 0.744344
O O11 0.915927 0.915141 0.744095
O O12 0.892807 0.100117 0.612010
#
# Coordination Sequence:
#
# PCOD9354449 Si02
#       8
#     4   4   4   4   8   8   8   8
#     4  11  25  42  66  96 140 172 218 295 353 400
#     4  10  22  38  68  98 132 184 218 270 356 422
#     4  12  23  37  73  95 128 172 246 276 335 389
#     4  11  24  39  71  97 134 172 226 281 332 423
#     4  11  22  44  64  99 131 185 229 281 332 429
#     4  10  21  38  67  99 126 175 222 276 338 409
#     4  10  21  44  67  93 132 180 229 269 338 426
#     4  12  22  40  66 104 134 174 220 283 352 413
#
# _framework density 20.575737
#
# number of rings (size 3 to 8) (size 9 to 14) (size 15 to 20)
#    0.000    1.333    5.000    2.500    2.333    1.333 
#    0.000    0.000    0.000    1.000    0.000    0.000 
#    0.000    0.000    0.000    0.000    0.000    0.000 
#
# Total GULP energy -133793.778072 kJ/mol
# GULP energy per Si atom -5574.740753 kJ/mol
# Density = 2.052891 g / cm^3
# Si number density = 20.575737 Si / 1000 Ang^3
#
#
#
# Elastic Constant Matrix: (Units=GPa)
#
#
# Indices 1 2 3 4 5 6 
#
# 1 151.6652 47.0359 50.4973 0.0000 0.0000 0.0000
# 2 47.0359 75.6397 25.5259 0.0000 0.0000 0.0000
# 3 50.4973 25.5259 107.2080 0.0000 0.0000 0.0000
# 4 0.0000 0.0000 0.0000 15.2285 0.0000 0.0000
# 5 0.0000 0.0000 0.0000 0.0000 25.6437 0.0000
# 6 0.0000 0.0000 0.0000 0.0000 0.0000 42.7545
#
#
#
# Elastic Compliance Matrix: (Units=1/GPa)
#
#
# Indices 1 2 3 4 5 6 
#
# 1 0.009070 -0.004565 -0.003185 0.000000 0.000000 0.000000
# 2 -0.004565 0.016673 -0.001820 0.000000 0.000000 0.000000
# 3 -0.003185 -0.001820 0.011261 0.000000 0.000000 0.000000
# 4 0.000000 0.000000 0.000000 0.065666 0.000000 0.000000
# 5 0.000000 0.000000 0.000000 0.000000 0.038996 0.000000
# 6 0.000000 0.000000 0.000000 0.000000 0.000000 0.023389
#
#
# Mechanical properties :
#
#
# Convention : Reuss Voigt Hill
#
# Bulk Modulus (GPa) = 55.97642 64.51455 60.24548
# Shear Modulus (GPa) = 26.29501 30.82228 28.55865
#
# Velocity S-wave (km/s) = 3.57874 3.87459 3.72960
# Velocity P-wave (km/s) = 6.65887 7.17212 6.92026
#
# Compressibility (1/GPa) = 0.01786467
#
# Stress axis : x y z
#
# Youngs Moduli (GPa) = 110.25700 59.97583 88.80074
#
# Poissons Ratio (x) = 0.27379 0.28284
# Poissons Ratio (y) = 0.50333 0.16158
# Poissons Ratio (z) = 0.35118 0.10913
#
# Static dielectric constant tensor:
#      x y z
#    x 1.746690 0.000000 0.000000 
#    y 0.000000 1.798650 0.000000 
#    z 0.000000 0.000000 1.712100 
# 
# From -- ./inp_files/10656.got.cif
#   From: 2010.05.17/outbox.cif.g08.bks.cpg/sg37_6_cif.got.tgz:10656.got - 2010.06.03 17:53:42.
