data_PCOD9354748
_publ_section_title
;
Structure prediction by ZEFSAII (Michael W. Deem and Ramdas Pophale) SiO2 
 PCOD9354748
Probable space group: C C C 2
;
_chemical_formula_sum "Si O2"
_cell_formula_units_Z 36
_cell_length_a 4.988951
_cell_length_b 21.009178
_cell_length_c 13.083169
_cell_angle_alpha 90.000000
_cell_angle_beta 90.000000
_cell_angle_gamma 90.000000
_cell_volume 1371.296130
_symmetry_space_group_name_H-M "C C C 2"
_symmetry_group_IT_number 37
_symmetry_cell_setting 'orthorhombic'
loop_
_space_group_symop_operation_xyz
x,y,z
-x,-y,z
-x,y,1/2+z
x,-y,1/2+z
1/2+x,1/2+y,z
1/2-x,1/2-y,z
1/2-x,1/2+y,1/2+z
1/2+x,1/2-y,1/2+z
loop_
_atom_site_type_symbol
_atom_site_label
_atom_site_fract_x
_atom_site_fract_y
_atom_site_fract_z
Si Si1 0.331664 0.399655 0.877500
Si Si2 0.668336 0.600345 0.632893
Si Si3 0.332078 0.819206 0.878491
Si Si4 0.667922 0.180794 0.631902
Si Si5 0.000000 0.500000 0.005196
O O1 0.328378 0.411417 0.755196
O O2 0.628171 0.376135 0.906149
O O3 0.134003 0.340114 0.899797
O O4 0.195178 0.458640 0.933137
O O5 0.371829 0.623865 0.604243
O O6 0.865997 0.659886 0.610596
O O7 0.804822 0.541360 0.577256
O O8 0.250000 0.750000 0.917562
O O9 0.310889 0.815851 0.755196
O O10 0.750000 0.250000 0.592831
#
# Coordination Sequence:
#
# PCOD9354748 Si02
#       5
#     8   8   8   8   4
#     4  10  22  39  62  91 124 164 209 259 311 371
#     4  10  22  39  62  91 124 164 209 259 311 371
#     4   9  18  37  65  93 120 154 201 262 326 375
#     4   9  18  37  65  93 120 154 201 262 326 375
#     4  12  26  42  60  88 132 178 218 252 304 376
#
# _framework density 26.252535000000002
#
# number of rings (size 3 to 8) (size 9 to 14) (size 15 to 20)
#    0.000    2.222    0.000    2.000    0.000   10.667 
#    0.000   11.111    0.000    0.000    0.000    0.000 
#    0.000    5.333    0.000    0.000    0.000    0.000 
#
# Total GULP energy -101033.200809 kJ/mol
# GULP energy per Si atom -5612.955600 kJ/mol
# Density = 2.619278 g / cm^3
# Si number density = 26.252535 Si / 1000 Ang^3
#
#
#
# Elastic Constant Matrix: (Units=GPa)
#
#
# Indices 1 2 3 4 5 6 
#
# 1 135.4944 33.3280 37.9544 0.0000 0.0000 0.0000
# 2 33.3280 128.6208 46.4172 0.0000 0.0000 0.0000
# 3 37.9544 46.4172 128.4176 0.0000 0.0000 0.0000
# 4 0.0000 0.0000 0.0000 39.8469 0.0000 0.0000
# 5 0.0000 0.0000 0.0000 0.0000 50.4910 0.0000
# 6 0.0000 0.0000 0.0000 0.0000 0.0000 21.8581
#
#
#
# Elastic Compliance Matrix: (Units=1/GPa)
#
#
# Indices 1 2 3 4 5 6 
#
# 1 0.008275 -0.001451 -0.001921 0.000000 0.000000 0.000000
# 2 -0.001451 0.009195 -0.002895 0.000000 0.000000 0.000000
# 3 -0.001921 -0.002895 0.009401 0.000000 0.000000 0.000000
# 4 0.000000 0.000000 0.000000 0.025096 0.000000 0.000000
# 5 0.000000 0.000000 0.000000 0.000000 0.019806 0.000000
# 6 0.000000 0.000000 0.000000 0.000000 0.000000 0.045750
#
#
# Mechanical properties :
#
#
# Convention : Reuss Voigt Hill
#
# Bulk Modulus (GPa) = 69.74567 69.77022 69.75795
# Shear Modulus (GPa) = 37.08171 40.76141 38.92156
#
# Velocity S-wave (km/s) = 3.76240 3.94466 3.85461
# Velocity P-wave (km/s) = 6.74530 6.88342 6.81471
#
# Compressibility (1/GPa) = 0.01433781
#
# Stress axis : x y z
#
# Youngs Moduli (GPa) = 120.83881 108.74901 106.36751
#
# Poissons Ratio (x) = 0.15779 0.20438
# Poissons Ratio (y) = 0.17533 0.30793
# Poissons Ratio (z) = 0.23218 0.31482
#
# Static dielectric constant tensor:
#      x y z
#    x 1.946530 0.000000 0.000000 
#    y 0.000000 1.989790 0.000000 
#    z 0.000000 0.000000 2.157210 
# 
# From -- ./inp_files/9545.got.cif
#   From: 2010.05.17/outbox.cif.g08.bks.cpg/sg37_5_cif.got.tgz:9545.got - 2010.06.03 17:53:42.
