data_PCOD9354571
_publ_section_title
;
Structure prediction by ZEFSAII (Michael W. Deem and Ramdas Pophale) SiO2 
 PCOD9354571
Probable space group: C C C 2
;
_chemical_formula_sum "Si O2"
_cell_formula_units_Z 64
_cell_length_a 9.134784
_cell_length_b 22.404572
_cell_length_c 14.356871
_cell_angle_alpha 90.000000
_cell_angle_beta 90.000000
_cell_angle_gamma 90.000000
_cell_volume 2938.290511
_symmetry_space_group_name_H-M "C C C 2"
_symmetry_group_IT_number 37
_symmetry_cell_setting 'orthorhombic'
loop_
_space_group_symop_operation_xyz
x,y,z
-x,-y,z
-x,y,1/2+z
x,-y,1/2+z
1/2+x,1/2+y,z
1/2-x,1/2-y,z
1/2-x,1/2+y,1/2+z
1/2+x,1/2-y,1/2+z
loop_
_atom_site_type_symbol
_atom_site_label
_atom_site_fract_x
_atom_site_fract_y
_atom_site_fract_z
Si Si1 0.690217 0.102657 0.948730
Si Si2 0.323051 0.414620 0.148948
Si Si3 0.879787 0.854547 0.621716
Si Si4 0.114671 0.371777 0.995756
Si Si5 0.627244 0.166277 0.773435
Si Si6 0.080281 0.741347 0.613634
Si Si7 0.187256 0.373850 0.797249
Si Si8 0.325490 0.497195 0.314102
O O1 0.522896 0.086578 0.972228
O O2 0.676039 0.159961 0.879319
O O3 0.762822 0.050107 0.888444
O O4 0.779851 0.121086 0.038996
O O5 0.494459 0.403585 0.139762
O O6 0.256808 0.360835 0.211403
O O7 0.293543 0.472443 0.210202
O O8 0.238617 0.406965 0.052297
O O9 0.785614 0.845734 0.715854
O O10 0.970287 0.794998 0.594593
O O11 0.177928 0.344348 0.899820
O O12 0.044937 0.319570 0.059458
O O13 0.582362 0.227721 0.724731
O O14 0.481499 0.125529 0.764093
O O15 0.250000 0.750000 0.585832
O O16 0.251254 0.438782 0.819530
O O17 0.500000 0.500000 0.326854
#
# Coordination Sequence:
#
# PCOD9354571 Si02
#       8
#     8   8   8   8   8   8   8   8
#     4  10  25  44  69 102 139 178 236 293 338 424
#     4  10  21  41  68  96 136 175 227 287 340 408
#     4  12  23  42  73 105 138 181 232 289 349 414
#     4  10  23  46  65 101 143 178 233 287 345 419
#     4   9  21  45  65  97 136 176 227 284 339 414
#     4  11  22  45  70  99 139 182 223 286 359 412
#     4  11  25  44  69 100 140 178 233 289 339 418
#     4  11  24  45  71 100 138 185 236 290 357 403
#
# _framework density 21.781372999999999
#
# number of rings (size 3 to 8) (size 9 to 14) (size 15 to 20)
#    0.000    1.500    3.750    1.500    1.750    7.500 
#    9.000    2.500    0.000    0.000    0.000    0.000 
#    0.000    0.000    0.000    0.000    0.000    0.000 
#
# Total GULP energy -178677.760649 kJ/mol
# GULP energy per Si atom -5583.680020 kJ/mol
# Density = 2.173180 g / cm^3
# Si number density = 21.781373 Si / 1000 Ang^3
#
#
#
# Elastic Constant Matrix: (Units=GPa)
#
#
# Indices 1 2 3 4 5 6 
#
# 1 124.2615 7.8568 54.6263 0.0000 0.0000 0.0000
# 2 7.8568 54.3435 9.0510 0.0000 0.0000 0.0000
# 3 54.6263 9.0510 128.4367 0.0000 0.0000 0.0000
# 4 0.0000 0.0000 0.0000 20.6281 0.0000 0.0000
# 5 0.0000 0.0000 0.0000 0.0000 34.8288 0.0000
# 6 0.0000 0.0000 0.0000 0.0000 0.0000 27.4086
#
#
#
# Elastic Compliance Matrix: (Units=1/GPa)
#
#
# Indices 1 2 3 4 5 6 
#
# 1 0.009928 -0.000741 -0.004170 0.000000 0.000000 0.000000
# 2 -0.000741 0.018675 -0.001001 0.000000 0.000000 0.000000
# 3 -0.004170 -0.001001 0.009630 0.000000 0.000000 0.000000
# 4 0.000000 0.000000 0.000000 0.048478 0.000000 0.000000
# 5 0.000000 0.000000 0.000000 0.000000 0.028712 0.000000
# 6 0.000000 0.000000 0.000000 0.000000 0.000000 0.036485
#
#
# Mechanical properties :
#
#
# Convention : Reuss Voigt Hill
#
# Bulk Modulus (GPa) = 37.86564 50.01219 43.93891
# Shear Modulus (GPa) = 28.97975 32.27360 30.62668
#
# Velocity S-wave (km/s) = 3.65154 3.85347 3.75386
# Velocity P-wave (km/s) = 5.93300 6.54292 6.24541
#
# Compressibility (1/GPa) = 0.02640917
#
# Stress axis : x y z
#
# Youngs Moduli (GPa) = 100.72895 53.54670 103.84073
#
# Poissons Ratio (x) = 0.03967 0.43304
# Poissons Ratio (y) = 0.07462 0.10394
# Poissons Ratio (z) = 0.42006 0.05360
#
# Static dielectric constant tensor:
#      x y z
#    x 1.791590 0.000000 0.000000 
#    y 0.000000 1.832750 0.000000 
#    z 0.000000 0.000000 1.828800 
# 
# From -- ./inp_files/11022.got.cif
#   From: 2010.05.17/outbox.cif.g08.bks.cpg/sg37_6_cif.got.tgz:11022.got - 2010.06.03 17:53:42.
