data_PCOD9354960
_publ_section_title
;
Structure prediction by ZEFSAII (Michael W. Deem and Ramdas Pophale) SiO2 
 PCOD9354960
Probable space group: C C C 2
;
_chemical_formula_sum "Si O2"
_cell_formula_units_Z 44
_cell_length_a 5.051558
_cell_length_b 13.453238
_cell_length_c 30.046396
_cell_angle_alpha 90.000000
_cell_angle_beta 90.000000
_cell_angle_gamma 90.000000
_cell_volume 2041.947425
_symmetry_space_group_name_H-M "C C C 2"
_symmetry_group_IT_number 37
_symmetry_cell_setting 'orthorhombic'
loop_
_space_group_symop_operation_xyz
x,y,z
-x,-y,z
-x,y,1/2+z
x,-y,1/2+z
1/2+x,1/2+y,z
1/2-x,1/2-y,z
1/2-x,1/2+y,1/2+z
1/2+x,1/2-y,1/2+z
loop_
_atom_site_type_symbol
_atom_site_label
_atom_site_fract_x
_atom_site_fract_y
_atom_site_fract_z
Si Si1 0.543390 0.886597 0.265380
Si Si2 0.750000 0.750000 0.628442
Si Si3 0.750000 0.750000 0.188303
Si Si4 0.754423 0.069290 0.062965
Si Si5 0.247107 0.930170 0.962249
Si Si6 0.459588 0.384150 0.828851
Si Si7 0.250000 0.250000 0.397110
O O1 0.589536 0.822976 0.221484
O O2 0.311689 0.867997 0.301682
O O3 0.813263 0.874023 0.292151
O O4 0.500000 0.000000 0.251439
O O5 0.492703 0.716876 0.656919
O O6 0.691225 0.842722 0.596571
O O7 0.500000 0.000000 0.060463
O O8 0.813299 0.106637 0.012526
O O9 0.000000 0.000000 0.076946
O O10 0.321516 0.841068 0.929276
O O11 0.500000 0.000000 0.963768
O O12 0.000000 0.000000 0.948502
O O13 0.500000 0.500000 0.844542
O O14 0.528646 0.302692 0.866086
#
# Coordination Sequence:
#
# PCOD9354960 Si02
#       7
#     8   4   4   8   8   8   4
#     4  10  23  45  63  85 125 169 208 260 323 384
#     4  12  25  40  66 105 130 161 218 272 321 390
#     4  12  25  40  68  99 126 161 218 272 325 390
#     4  10  22  44  68  93 135 179 211 257 323 388
#     4  10  24  43  65  97 134 175 220 260 315 390
#     4  10  23  41  65  91 123 169 218 259 316 386
#     4  12  24  40  68  98 134 170 214 282 324 356
#
# _framework density 21.548055999999999
#
# number of rings (size 3 to 8) (size 9 to 14) (size 15 to 20)
#    0.000    1.455    0.000    3.818    0.000   10.182 
#    0.000    7.273    0.000    0.000    0.000    0.000 
#    0.000    0.000    0.000    0.000    0.000    0.000 
#
# Total GULP energy -122848.275417 kJ/mol
# GULP energy per Si atom -5584.012519 kJ/mol
# Density = 2.149901 g / cm^3
# Si number density = 21.548056 Si / 1000 Ang^3
#
#
#
# Elastic Constant Matrix: (Units=GPa)
#
#
# Indices 1 2 3 4 5 6 
#
# 1 44.3645 -0.6471 -6.9812 0.0000 0.0000 0.0000
# 2 -0.6471 119.8004 63.4629 0.0000 0.0000 0.0000
# 3 -6.9812 63.4629 110.2847 0.0000 0.0000 0.0000
# 4 0.0000 0.0000 0.0000 19.8099 0.0000 0.0000
# 5 0.0000 0.0000 0.0000 0.0000 277.9954 0.0000
# 6 0.0000 0.0000 0.0000 0.0000 0.0000 26.7501
#
#
#
# Elastic Compliance Matrix: (Units=1/GPa)
#
#
# Indices 1 2 3 4 5 6 
#
# 1 0.022838 -0.000924 0.001978 0.000000 0.000000 0.000000
# 2 -0.000924 0.012045 -0.006990 0.000000 0.000000 0.000000
# 3 0.001978 -0.006990 0.013215 0.000000 0.000000 0.000000
# 4 0.000000 0.000000 0.000000 0.050480 0.000000 0.000000
# 5 0.000000 0.000000 0.000000 0.000000 0.003597 0.000000
# 6 0.000000 0.000000 0.000000 0.000000 0.000000 0.037383
#
#
# Mechanical properties :
#
#
# Convention : Reuss Voigt Hill
#
# Bulk Modulus (GPa) = 27.60507 42.90207 35.25357
# Shear Modulus (GPa) = 30.57991 79.48540 55.03266
#
# Velocity S-wave (km/s) = 3.77125 6.08010 5.05914
# Velocity P-wave (km/s) = 5.63931 8.32126 7.10792
#
# Compressibility (1/GPa) = 0.03622523
#
# Stress axis : x y z
#
# Youngs Moduli (GPa) = 43.78621 83.02239 75.67256
#
# Poissons Ratio (x) = 0.07673 -0.14964
# Poissons Ratio (y) = 0.04047 0.52893
# Poissons Ratio (z) = -0.08659 0.58030
#
# Static dielectric constant tensor:
#      x y z
#    x 1.733050 0.000000 0.000000 
#    y 0.000000 1.804350 0.000000 
#    z 0.000000 0.000000 1.806220 
# 
# From -- ./inp_files/19281.got.cif
#   From: 2010.05.17/outbox.cif.g08.bks.cpg/sg37_10_cif.got.tgz:19281.got - 2010.06.03 17:53:42.
