data_PCOD9354166
_publ_section_title
;
Structure prediction by ZEFSAII (Michael W. Deem and Ramdas Pophale) SiO2 
 PCOD9354166
Probable space group: C C C 2
;
_chemical_formula_sum "Si O2"
_cell_formula_units_Z 64
_cell_length_a 26.163794
_cell_length_b 8.818734
_cell_length_c 14.227444
_cell_angle_alpha 90.000000
_cell_angle_beta 90.000000
_cell_angle_gamma 90.000000
_cell_volume 3282.720060
_symmetry_space_group_name_H-M "C C C 2"
_symmetry_group_IT_number 37
_symmetry_cell_setting 'orthorhombic'
loop_
_space_group_symop_operation_xyz
x,y,z
-x,-y,z
-x,y,1/2+z
x,-y,1/2+z
1/2+x,1/2+y,z
1/2-x,1/2-y,z
1/2-x,1/2+y,1/2+z
1/2+x,1/2-y,1/2+z
loop_
_atom_site_type_symbol
_atom_site_label
_atom_site_fract_x
_atom_site_fract_y
_atom_site_fract_z
Si Si1 0.652899 0.569104 0.481920
Si Si2 0.964336 0.132611 0.167820
Si Si3 0.943113 0.738227 0.479557
Si Si4 0.476729 0.836591 0.330642
Si Si5 0.810151 0.234873 0.801523
Si Si6 0.151501 0.063387 0.700955
Si Si7 0.875825 0.500812 0.868549
Si Si8 0.189776 0.230791 0.884666
O O1 0.593065 0.613677 0.464661
O O2 0.683526 0.674706 0.408918
O O3 0.665004 0.594376 0.591727
O O4 0.666397 0.399551 0.450749
O O5 0.991200 0.212392 0.254637
O O6 0.909978 0.070732 0.202480
O O7 0.953586 0.258859 0.089510
O O8 0.000000 0.000000 0.128475
O O9 0.908331 0.601612 0.440462
O O10 0.996643 0.722187 0.425641
O O11 0.500000 0.000000 0.307767
O O12 0.416833 0.876140 0.330478
O O13 0.750000 0.250000 0.782027
O O14 0.845793 0.385465 0.799139
O O15 0.831521 0.103102 0.734552
O O16 0.175339 0.178531 0.777770
O O17 0.833239 0.607424 0.912201
O O18 0.250000 0.250000 0.891648
#
# Coordination Sequence:
#
# PCOD9354166 Si02
#       8
#     8   8   8   8   8   8   8   8
#     4   9  21  40  63  87 125 160 212 251 306 375
#     4  11  24  39  63  94 122 163 213 252 302 376
#     4   9  22  42  59  91 124 166 204 246 317 371
#     4  10  22  37  62  89 124 163 197 253 314 366
#     4  10  21  40  65  89 125 165 206 258 319 370
#     4  10  22  42  61  93 124 162 209 259 304 373
#     4  10  20  39  61  87 127 162 197 260 313 362
#     4  11  22  39  64  95 123 161 216 257 311 370
#
# _framework density 19.496026000000001
#
# number of rings (size 3 to 8) (size 9 to 14) (size 15 to 20)
#    0.000    2.000    1.250    1.500    7.000    5.000 
#    2.250    1.250    0.000    0.000    0.000    0.000 
#    0.000    0.000    0.000    0.000    0.000    0.000 
#
# Total GULP energy -178295.498745 kJ/mol
# GULP energy per Si atom -5571.734336 kJ/mol
# Density = 1.945165 g / cm^3
# Si number density = 19.496026 Si / 1000 Ang^3
#
#
#
# Elastic Constant Matrix: (Units=GPa)
#
#
# Indices 1 2 3 4 5 6 
#
# 1 85.9018 21.1660 10.9984 0.0000 0.0000 0.0000
# 2 21.1660 63.0353 14.7469 0.0000 0.0000 0.0000
# 3 10.9984 14.7469 67.2585 0.0000 0.0000 0.0000
# 4 0.0000 0.0000 0.0000 14.5453 0.0000 0.0000
# 5 0.0000 0.0000 0.0000 0.0000 14.1429 0.0000
# 6 0.0000 0.0000 0.0000 0.0000 0.0000 19.4477
#
#
#
# Elastic Compliance Matrix: (Units=1/GPa)
#
#
# Indices 1 2 3 4 5 6 
#
# 1 0.012784 -0.004009 -0.001211 0.000000 0.000000 0.000000
# 2 -0.004009 0.017979 -0.003286 0.000000 0.000000 0.000000
# 3 -0.001211 -0.003286 0.015787 0.000000 0.000000 0.000000
# 4 0.000000 0.000000 0.000000 0.068751 0.000000 0.000000
# 5 0.000000 0.000000 0.000000 0.000000 0.070707 0.000000
# 6 0.000000 0.000000 0.000000 0.000000 0.000000 0.051420
#
#
# Mechanical properties :
#
#
# Convention : Reuss Voigt Hill
#
# Bulk Modulus (GPa) = 33.85731 34.44648 34.15189
# Shear Modulus (GPa) = 18.91881 20.91280 19.91581
#
# Velocity S-wave (km/s) = 3.11849 3.27872 3.19961
# Velocity P-wave (km/s) = 5.51096 5.66040 5.58618
#
# Compressibility (1/GPa) = 0.02953572
#
# Stress axis : x y z
#
# Youngs Moduli (GPa) = 78.22170 55.61981 63.34451
#
# Poissons Ratio (x) = 0.22299 0.07674
# Poissons Ratio (y) = 0.31361 0.20818
# Poissons Ratio (z) = 0.09476 0.18279
#
# Static dielectric constant tensor:
#      x y z
#    x 2.035480 0.000000 0.000000 
#    y 0.000000 1.696810 0.000000 
#    z 0.000000 0.000000 1.664600 
# 
# From -- ./inp_files/11014.got.cif
#   From: 2010.05.17/outbox.cif.g08.bks.cpg/sg37_6_cif.got.tgz:11014.got - 2010.06.03 17:53:42.
