data_PCOD9355444
_publ_section_title
;
Structure prediction by ZEFSAII (Michael W. Deem and Ramdas Pophale) SiO2 
 PCOD9355444
Probable space group: C C C 2
;
_chemical_formula_sum "Si O2"
_cell_formula_units_Z 56
_cell_length_a 14.224272
_cell_length_b 13.148135
_cell_length_c 14.316877
_cell_angle_alpha 90.000000
_cell_angle_beta 90.000000
_cell_angle_gamma 90.000000
_cell_volume 2677.580255
_symmetry_space_group_name_H-M "C C C 2"
_symmetry_group_IT_number 37
_symmetry_cell_setting 'orthorhombic'
loop_
_space_group_symop_operation_xyz
x,y,z
-x,-y,z
-x,y,1/2+z
x,-y,1/2+z
1/2+x,1/2+y,z
1/2-x,1/2-y,z
1/2-x,1/2+y,1/2+z
1/2+x,1/2-y,1/2+z
loop_
_atom_site_type_symbol
_atom_site_label
_atom_site_fract_x
_atom_site_fract_y
_atom_site_fract_z
Si Si1 0.899512 0.041131 0.611650
Si Si2 0.491201 0.796297 0.782860
Si Si3 0.080444 0.073653 0.805138
Si Si4 0.085182 0.428906 0.933120
Si Si5 0.287118 0.494996 0.439454
Si Si6 0.643368 0.724423 0.439113
Si Si7 0.034654 0.265584 0.075949
O O1 0.814915 0.008848 0.546430
O O2 0.912721 0.161918 0.605778
O O3 0.889781 0.986600 0.711504
O O4 0.000000 0.000000 0.574298
O O5 0.539029 0.684235 0.784541
O O6 0.555465 0.877859 0.835666
O O7 0.398283 0.783181 0.848482
O O8 0.479485 0.821864 0.674489
O O9 0.163675 0.082119 0.878516
O O10 0.000000 0.000000 0.845814
O O11 0.177196 0.496822 0.926343
O O12 0.000000 0.500000 0.965579
O O13 0.093345 0.335991 0.005762
O O14 0.337858 0.391513 0.408906
O O15 0.750000 0.750000 0.471156
O O16 0.563006 0.738877 0.519384
#
# Coordination Sequence:
#
# PCOD9355444 Si02
#       7
#     8   8   8   8   8   8   8
#     4  11  20  38  68 105 129 155 210 278 345 392
#     4  11  22  44  69  94 131 176 216 278 337 395
#     4  11  20  38  68 105 129 155 210 278 345 392
#     4  11  28  48  60  91 139 187 231 257 328 398
#     4  12  21  40  66  93 135 170 209 283 320 387
#     4  11  22  39  66  94 128 177 228 262 326 403
#     4  11  22  44  69  94 131 176 216 278 337 395
#
# _framework density 20.914404999999999
#
# number of rings (size 3 to 8) (size 9 to 14) (size 15 to 20)
#    0.000    0.857    5.714    3.857    0.000    2.857 
#   15.429    0.000    0.000    0.000    0.000    0.000 
#    0.000    0.000    0.000    0.000    0.000    0.000 
#
# Total GULP energy -156278.800819 kJ/mol
# GULP energy per Si atom -5581.385744 kJ/mol
# Density = 2.086680 g / cm^3
# Si number density = 20.914405 Si / 1000 Ang^3
#
#
#
# Elastic Constant Matrix: (Units=GPa)
#
#
# Indices 1 2 3 4 5 6 
#
# 1 91.8105 2.8219 28.2331 0.0000 0.0000 0.0000
# 2 2.8219 57.0726 12.3401 0.0000 0.0000 0.0000
# 3 28.2331 12.3401 89.6939 0.0000 0.0000 0.0000
# 4 0.0000 0.0000 0.0000 22.0408 0.0000 0.0000
# 5 0.0000 0.0000 0.0000 0.0000 325.3660 0.0000
# 6 0.0000 0.0000 0.0000 0.0000 0.0000 17.9579
#
#
#
# Elastic Compliance Matrix: (Units=1/GPa)
#
#
# Indices 1 2 3 4 5 6 
#
# 1 0.012062 0.000231 -0.003829 0.000000 0.000000 0.000000
# 2 0.000231 0.018063 -0.002558 0.000000 0.000000 0.000000
# 3 -0.003829 -0.002558 0.012706 0.000000 0.000000 0.000000
# 4 0.000000 0.000000 0.000000 0.045370 0.000000 0.000000
# 5 0.000000 0.000000 0.000000 0.000000 0.003073 0.000000
# 6 0.000000 0.000000 0.000000 0.000000 0.000000 0.055686
#
#
# Mechanical properties :
#
#
# Convention : Reuss Voigt Hill
#
# Bulk Modulus (GPa) = 32.76425 36.15190 34.45807
# Shear Modulus (GPa) = 29.50801 86.08505 57.79653
#
# Velocity S-wave (km/s) = 3.76026 6.42262 5.26258
# Velocity P-wave (km/s) = 5.87815 8.50430 7.31012
#
# Compressibility (1/GPa) = 0.03052107
#
# Stress axis : x y z
#
# Youngs Moduli (GPa) = 82.90308 55.36121 78.70216
#
# Poissons Ratio (x) = -0.01281 0.30133
# Poissons Ratio (y) = -0.01919 0.20132
# Poissons Ratio (z) = 0.31741 0.14161
#
# Static dielectric constant tensor:
#      x y z
#    x 1.212190 0.000000 0.000000 
#    y 0.000000 1.833050 0.000000 
#    z 0.000000 0.000000 1.739940 
# 
# From -- ./inp_files/11620.got.cif
#   From: 2010.05.17/outbox.cif.g08.bks.cpg/sg37_6_cif.got.tgz:11620.got - 2010.06.03 17:53:42.
