data_PCOD9355484
_publ_section_title
;
Structure prediction by ZEFSAII (Michael W. Deem and Ramdas Pophale) SiO2 
 PCOD9355484
Probable space group: C C C 2
;
_chemical_formula_sum "Si O2"
_cell_formula_units_Z 48
_cell_length_a 12.378284
_cell_length_b 15.370720
_cell_length_c 12.792843
_cell_angle_alpha 90.000000
_cell_angle_beta 90.000000
_cell_angle_gamma 90.000000
_cell_volume 2434.006446
_symmetry_space_group_name_H-M "C C C 2"
_symmetry_group_IT_number 37
_symmetry_cell_setting 'orthorhombic'
loop_
_space_group_symop_operation_xyz
x,y,z
-x,-y,z
-x,y,1/2+z
x,-y,1/2+z
1/2+x,1/2+y,z
1/2-x,1/2-y,z
1/2-x,1/2+y,1/2+z
1/2+x,1/2-y,1/2+z
loop_
_atom_site_type_symbol
_atom_site_label
_atom_site_fract_x
_atom_site_fract_y
_atom_site_fract_z
Si Si1 0.207404 0.409515 0.478340
Si Si2 0.077467 0.768367 0.293496
Si Si3 0.038051 0.596517 0.793496
Si Si4 0.250000 0.250000 0.624988
Si Si5 0.332319 0.664351 0.793496
Si Si6 0.292596 0.090485 0.108652
Si Si7 0.250000 0.750000 0.462005
O O1 0.107539 0.396663 0.399179
O O2 0.206568 0.328882 0.556483
O O3 0.305994 0.392288 0.396864
O O4 0.207868 0.500000 0.543496
O O5 0.152650 0.787888 0.194793
O O6 0.152650 0.787889 0.392200
O O7 0.057857 0.664772 0.293496
O O8 0.956632 0.805991 0.293496
O O9 0.107539 0.603338 0.687814
O O10 0.000000 0.500000 0.793496
O O11 0.250000 0.750000 0.793496
O O12 0.305994 0.607712 0.690129
O O13 0.293432 0.171118 0.030509
#
# Coordination Sequence:
#
# PCOD9355484 Si02
#       7
#     8   8   8   4   8   8   4
#     4  11  23  41  66  97 130 168 221 269 330 390
#     4  11  23  40  65  91 130 174 216 267 324 389
#     4  11  22  39  64  97 128 163 217 283 337 378
#     4  11  24  41  62  98 132 171 220 269 322 392
#     4  11  21  46  65  90 130 175 210 264 324 391
#     4  11  23  41  66  97 130 168 221 269 330 390
#     4  11  24  41  62  98 132 171 220 269 322 392
#
# _framework density 19.720572000000001
#
# number of rings (size 3 to 8) (size 9 to 14) (size 15 to 20)
#    0.000    1.000    5.000    2.000    0.000   12.667 
#    0.000    5.000    0.000    0.000    0.000    0.000 
#    0.000    0.000    0.000    0.000    0.000    0.000 
#
# Total GULP energy -133924.853738 kJ/mol
# GULP energy per Si atom -5580.202239 kJ/mol
# Density = 1.967569 g / cm^3
# Si number density = 19.720572 Si / 1000 Ang^3
#
#
#
# Elastic Constant Matrix: (Units=GPa)
#
#
# Indices 1 2 3 4 5 6 
#
# 1 83.7316 -12.0428 36.4478 0.0000 0.0000 0.0000
# 2 -12.0428 73.9620 44.9670 0.0000 0.0000 0.0000
# 3 36.4478 44.9670 147.6535 0.0000 0.0000 0.0000
# 4 0.0000 0.0000 0.0000 37.2749 0.0000 0.0000
# 5 0.0000 0.0000 0.0000 0.0000 -4.9757 0.0000
# 6 0.0000 0.0000 0.0000 0.0000 0.0000 28.2504
#
#
#
# Elastic Compliance Matrix: (Units=1/GPa)
#
#
# Indices 1 2 3 4 5 6 
#
# 1 0.015187 0.005832 -0.005525 0.000000 0.000000 0.000000
# 2 0.005832 0.018832 -0.007175 0.000000 0.000000 0.000000
# 3 -0.005525 -0.007175 0.010321 0.000000 0.000000 0.000000
# 4 0.000000 0.000000 0.000000 0.026828 0.000000 0.000000
# 5 0.000000 0.000000 0.000000 0.000000 -0.200977 0.000000
# 6 0.000000 0.000000 0.000000 0.000000 0.000000 0.035398
#
#
# Mechanical properties :
#
#
# Convention : Reuss Voigt Hill
#
# Bulk Modulus (GPa) = 32.67510 49.34347 41.00929
# Shear Modulus (GPa) = -70.94776 27.84159 -21.55308
#
# Velocity S-wave (km/s) = -6.00455 3.76147 -3.30953
# Velocity P-wave (km/s) = 5.60962 6.62877 2.49727
#
# Compressibility (1/GPa) = 0.03060434
#
# Stress axis : x y z
#
# Youngs Moduli (GPa) = 65.84777 53.10100 96.88611
#
# Poissons Ratio (x) = -0.30967 0.53527
# Poissons Ratio (y) = -0.38400 0.69513
# Poissons Ratio (z) = 0.36379 0.38098
#
# Static dielectric constant tensor:
#      x y z
#    x 1.694190 0.000000 0.000000 
#    y 0.000000 1.685680 0.000000 
#    z 0.000000 0.000000 1.719750 
# 
# From -- ./inp_files/7216.got.cif
#   From: 2010.05.17/outbox.cif.g08.bks.cpg/sg37_4_cif.got.tgz:7216.got - 2010.06.03 17:53:42.
