data_PCOD9355532
_publ_section_title
;
Structure prediction by ZEFSAII (Michael W. Deem and Ramdas Pophale) SiO2 
 PCOD9355532
Probable space group: C C C 2
;
_chemical_formula_sum "Si O2"
_cell_formula_units_Z 48
_cell_length_a 10.466925
_cell_length_b 11.397067
_cell_length_c 19.215891
_cell_angle_alpha 90.000000
_cell_angle_beta 90.000000
_cell_angle_gamma 90.000000
_cell_volume 2292.306787
_symmetry_space_group_name_H-M "C C C 2"
_symmetry_group_IT_number 37
_symmetry_cell_setting 'orthorhombic'
loop_
_space_group_symop_operation_xyz
x,y,z
-x,-y,z
-x,y,1/2+z
x,-y,1/2+z
1/2+x,1/2+y,z
1/2-x,1/2-y,z
1/2-x,1/2+y,1/2+z
1/2+x,1/2-y,1/2+z
loop_
_atom_site_type_symbol
_atom_site_label
_atom_site_fract_x
_atom_site_fract_y
_atom_site_fract_z
Si Si1 0.309553 0.441164 0.160780
Si Si2 0.551294 0.211255 0.314191
Si Si3 0.179384 0.625813 0.064845
Si Si4 0.551303 0.211240 0.658333
Si Si5 0.309521 0.558823 0.311727
Si Si6 0.820639 0.374181 0.907691
O O1 0.274889 0.539732 0.105187
O O2 0.416320 0.346244 0.139182
O O3 0.179971 0.364345 0.163492
O O4 0.334304 0.499983 0.236258
O O5 0.499943 0.215157 0.236273
O O6 0.583714 0.346257 0.333329
O O7 0.679951 0.135658 0.308989
O O8 0.450096 0.148574 0.364348
O O9 0.250000 0.750000 0.061946
O O10 0.049949 0.648550 0.108211
O O11 0.152751 0.584879 0.986268
O O12 0.274827 0.460274 0.367329
O O13 0.750000 0.250000 0.910581
#
# Coordination Sequence:
#
# PCOD9355532 Si02
#       6
#     8   8   8   8   8   8
#     4  11  23  40  65  95 127 167 218 270 320 380
#     4  11  23  40  65  95 127 167 218 270 320 380
#     4  11  25  43  63  93 131 170 215 265 323 389
#     4  11  23  40  65  95 127 167 218 270 320 380
#     4  11  23  40  65  95 127 167 218 270 320 380
#     4  11  25  43  63  93 131 170 215 265 323 389
#
# _framework density 20.939606000000001
#
# number of rings (size 3 to 8) (size 9 to 14) (size 15 to 20)
#    0.000    1.000    3.333    3.000    0.000    8.667 
#    0.000    6.667    0.000    0.000    0.000    0.000 
#    0.000    0.000    0.000    0.000    0.000    0.000 
#
# Total GULP energy -134240.778425 kJ/mol
# GULP energy per Si atom -5593.365768 kJ/mol
# Density = 2.089195 g / cm^3
# Si number density = 20.939606 Si / 1000 Ang^3
#
#
#
# Elastic Constant Matrix: (Units=GPa)
#
#
# Indices 1 2 3 4 5 6 
#
# 1 52.7593 -1.7709 32.7282 0.0000 0.0000 0.0000
# 2 -1.7709 108.3836 56.9604 0.0000 0.0000 0.0000
# 3 32.7282 56.9604 149.0439 0.0000 0.0000 0.0000
# 4 0.0000 0.0000 0.0000 17.0855 0.0000 0.0000
# 5 0.0000 0.0000 0.0000 0.0000 -5.9084 0.0000
# 6 0.0000 0.0000 0.0000 0.0000 0.0000 40.7593
#
#
#
# Elastic Compliance Matrix: (Units=1/GPa)
#
#
# Indices 1 2 3 4 5 6 
#
# 1 0.023138 0.003814 -0.006539 0.000000 0.000000 0.000000
# 2 0.003814 0.012174 -0.005490 0.000000 0.000000 0.000000
# 3 -0.006539 -0.005490 0.010243 0.000000 0.000000 0.000000
# 4 0.000000 0.000000 0.000000 0.058529 0.000000 0.000000
# 5 0.000000 0.000000 0.000000 0.000000 -0.169251 0.000000
# 6 0.000000 0.000000 0.000000 0.000000 0.000000 0.024534
#
#
# Mechanical properties :
#
#
# Convention : Reuss Voigt Hill
#
# Bulk Modulus (GPa) = 34.33255 54.00247 44.16751
# Shear Modulus (GPa) = -344.97938 25.20522 -159.88708
#
# Velocity S-wave (km/s) = -12.84941 3.47322 -8.74769
# Velocity P-wave (km/s) = 14.27276 6.47533 8.99393
#
# Compressibility (1/GPa) = 0.02912688
#
# Stress axis : x y z
#
# Youngs Moduli (GPa) = 43.21868 82.14105 97.62337
#
# Poissons Ratio (x) = -0.31332 0.63832
# Poissons Ratio (y) = -0.16485 0.53597
# Poissons Ratio (z) = 0.28259 0.45097
#
# Static dielectric constant tensor:
#      x y z
#    x 1.762760 0.000000 0.000000 
#    y 0.000000 2.105470 0.000000 
#    z 0.000000 0.000000 1.791810 
# 
# From -- ./inp_files/14974.got.cif
#   From: 2010.05.17/outbox.cif.g08.bks.cpg/sg37_8_cif.got.tgz:14974.got - 2010.06.03 17:53:42.
