data_PCOD9355805
_publ_section_title
;
Structure prediction by ZEFSAII (Michael W. Deem and Ramdas Pophale) SiO2 
 PCOD9355805
Probable space group: A M M 2
;
_chemical_formula_sum "Si O2"
_cell_formula_units_Z 52
_cell_length_a 7.908373
_cell_length_b 17.784638
_cell_length_c 25.163120
_cell_angle_alpha 90.000000
_cell_angle_beta 90.000000
_cell_angle_gamma 90.000000
_cell_volume 3539.131203
_symmetry_space_group_name_H-M "A M M 2"
_symmetry_group_IT_number 38
_symmetry_cell_setting 'orthorhombic'
loop_
_space_group_symop_operation_xyz
x,y,z
-x,-y,z
-x,y,z
x,-y,z
x,1/2+y,1/2+z
-x,1/2-y,1/2+z
-x,1/2+y,1/2+z
x,1/2-y,1/2+z
loop_
_atom_site_type_symbol
_atom_site_label
_atom_site_fract_x
_atom_site_fract_y
_atom_site_fract_z
Si Si1 0.000000 0.682138 0.209291
Si Si2 0.312690 0.727770 0.671856
Si Si3 0.310218 0.818602 0.559939
Si Si4 0.000000 0.089696 0.817290
Si Si5 0.000000 0.910650 0.598296
Si Si6 0.796204 0.828348 0.002537
Si Si7 0.307062 0.411236 0.396079
Si Si8 0.795269 0.586238 0.610638
O O1 0.835370 0.735100 0.205724
O O2 0.000000 0.633158 0.262090
O O3 0.000000 0.629038 0.156582
O O4 0.500000 0.735669 0.694902
O O5 0.308954 0.772633 0.615685
O O6 0.275766 0.642127 0.655138
O O7 0.500000 0.847978 0.551729
O O8 0.264901 0.755660 0.516222
O O9 0.165149 0.880296 0.567247
O O10 0.833893 0.107535 0.852287
O O11 0.000000 0.000000 0.807583
O O12 0.000000 0.000000 0.603533
O O13 0.723507 0.862755 0.948814
O O14 0.000000 0.828449 0.999645
O O15 0.746558 0.880468 0.052930
O O16 0.500000 0.401392 0.377275
O O17 0.283994 0.500000 0.409395
O O18 0.742470 0.500000 0.616042
O O19 0.000000 0.589861 0.613223
#
# Coordination Sequence:
#
# PCOD9355805 Si02
#       8
#     4   8   8   4   4   8   8   8
#     4  10  19  34  49  62  82 114 154 198 237 270
#     4   9  17  29  45  64  87 117 151 185 223 265
#     4   9  17  29  44  65  92 119 148 183 220 264
#     4  10  21  35  49  64  85 115 152 197 240 268
#     4  10  19  31  47  66  87 115 152 191 232 276
#     4  10  16  27  46  67  94 130 159 178 208 257
#     4  10  20  32  46  67  95 124 154 187 220 257
#     4   9  16  25  41  67  98 128 155 179 206 252
#
# _framework density 14.692871
#
# number of rings (size 3 to 8) (size 9 to 14) (size 15 to 20)
#    0.000    2.462    2.308    1.154    0.000    2.462 
#    0.000    0.000    0.000    2.769    0.000    0.000 
#    0.000    4.923    0.000    6.462    0.000    0.000 
#
# Total GULP energy -144907.233753 kJ/mol
# GULP energy per Si atom -5573.355144 kJ/mol
# Density = 1.465943 g / cm^3
# Si number density = 14.692871 Si / 1000 Ang^3
#
#
#
# Elastic Constant Matrix: (Units=GPa)
#
#
# Indices 1 2 3 4 5 6 
#
# 1 122.6320 55.6641 47.6668 0.0000 0.0000 0.0000
# 2 55.6641 93.9264 36.1609 0.0000 0.0000 0.0000
# 3 47.6668 36.1609 70.9591 0.0000 0.0000 0.0000
# 4 0.0000 0.0000 0.0000 26.8151 0.0000 0.0000
# 5 0.0000 0.0000 0.0000 0.0000 5.3376 0.0000
# 6 0.0000 0.0000 0.0000 0.0000 0.0000 11.1063
#
#
#
# Elastic Compliance Matrix: (Units=1/GPa)
#
#
# Indices 1 2 3 4 5 6 
#
# 1 0.012891 -0.005357 -0.005930 0.000000 0.000000 0.000000
# 2 -0.005357 0.015471 -0.004286 0.000000 0.000000 0.000000
# 3 -0.005930 -0.004286 0.020260 0.000000 0.000000 0.000000
# 4 0.000000 0.000000 0.000000 0.037292 0.000000 0.000000
# 5 0.000000 0.000000 0.000000 0.000000 0.187349 0.000000
# 6 0.000000 0.000000 0.000000 0.000000 0.000000 0.090039
#
#
# Mechanical properties :
#
#
# Convention : Reuss Voigt Hill
#
# Bulk Modulus (GPa) = 57.21580 62.94455 60.08018
# Shear Modulus (GPa) = 12.49148 18.52017 15.50583
#
# Velocity S-wave (km/s) = 2.91894 3.55419 3.25211
# Velocity P-wave (km/s) = 7.09831 7.73151 7.42166
#
# Compressibility (1/GPa) = 0.01747769
#
# Stress axis : x y z
#
# Youngs Moduli (GPa) = 77.57497 64.63624 49.35857
#
# Poissons Ratio (x) = 0.34623 0.29268
# Poissons Ratio (y) = 0.41554 0.21154
# Poissons Ratio (z) = 0.45999 0.27702
#
# Static dielectric constant tensor:
#      x y z
#    x 1.521300 0.000000 0.000000 
#    y 0.000000 1.468730 0.000000 
#    z 0.000000 0.000000 1.445600 
# 
# From -- ./inp_files/22008.got.cif
#   From: 2010.05.17/outbox.cif.g08.bks.cpg/sg38_12_cif.got.tgz:22008.got - 2010.06.03 18:07:57.
