data_PCOD9355514
_publ_section_title
;
Structure prediction by ZEFSAII (Michael W. Deem and Ramdas Pophale) SiO2 
 PCOD9355514
Probable space group: C C C 2
;
_chemical_formula_sum "Si O2"
_cell_formula_units_Z 64
_cell_length_a 11.665816
_cell_length_b 17.856281
_cell_length_c 14.573788
_cell_angle_alpha 90.000000
_cell_angle_beta 90.000000
_cell_angle_gamma 90.000000
_cell_volume 3035.837922
_symmetry_space_group_name_H-M "C C C 2"
_symmetry_group_IT_number 37
_symmetry_cell_setting 'orthorhombic'
loop_
_space_group_symop_operation_xyz
x,y,z
-x,-y,z
-x,y,1/2+z
x,-y,1/2+z
1/2+x,1/2+y,z
1/2-x,1/2-y,z
1/2-x,1/2+y,1/2+z
1/2+x,1/2-y,1/2+z
loop_
_atom_site_type_symbol
_atom_site_label
_atom_site_fract_x
_atom_site_fract_y
_atom_site_fract_z
Si Si1 0.515842 0.661397 0.718800
Si Si2 0.746423 0.835000 0.801191
Si Si3 0.000351 0.324476 0.121675
Si Si4 0.999906 0.412170 0.293591
Si Si5 0.142243 0.651272 0.960982
Si Si6 0.897926 0.174715 0.913267
Si Si7 0.274457 0.832696 0.517734
Si Si8 0.056885 0.079332 0.044635
O O1 0.637746 0.634402 0.758560
O O2 0.517890 0.740449 0.661534
O O3 0.433279 0.670461 0.806700
O O4 0.478138 0.599927 0.647087
O O5 0.750000 0.750000 0.764544
O O6 0.628820 0.878709 0.786792
O O7 0.750947 0.828540 0.910378
O O8 0.053662 0.370135 0.206558
O O9 0.092721 0.337488 0.041100
O O10 0.887314 0.355884 0.069409
O O11 0.000000 0.500000 0.280170
O O12 0.064628 0.393844 0.388290
O O13 0.115377 0.738398 0.939454
O O14 0.275702 0.637621 0.937958
O O15 0.997120 0.138001 0.974767
O O16 0.250000 0.750000 0.560220
O O17 0.192594 0.901462 0.545606
O O18 0.000000 0.000000 0.019996
#
# Coordination Sequence:
#
# PCOD9355514 Si02
#       8
#     8   8   8   8   8   8   8   8
#     4  12  24  43  75 106 135 185 250 295 351 441
#     4  11  22  43  75  99 136 191 247 290 349 443
#     4  12  24  43  75 106 135 185 250 295 351 441
#     4  12  28  45  68 109 147 184 237 306 369 419
#     4  11  24  45  72 100 140 186 239 292 360 436
#     4  11  24  45  72 100 140 186 239 292 360 436
#     4  11  22  43  75  99 136 191 247 290 349 443
#     4  12  28  45  68 109 147 184 237 306 369 419
#
# _framework density 21.081495
#
# number of rings (size 3 to 8) (size 9 to 14) (size 15 to 20)
#    0.000    0.500    7.500    0.000    3.500    3.000 
#    0.000    0.000    0.000    0.000    0.000    0.000 
#    0.000    0.000    0.000    0.000    0.000    0.000 
#
# Total GULP energy -178471.083349 kJ/mol
# GULP energy per Si atom -5577.221355 kJ/mol
# Density = 2.103351 g / cm^3
# Si number density = 21.081495 Si / 1000 Ang^3
#
#
#
# Elastic Constant Matrix: (Units=GPa)
#
#
# Indices 1 2 3 4 5 6 
#
# 1 100.1707 -4.1313 10.4471 0.0000 0.0000 0.0000
# 2 -4.1313 49.4859 -20.6844 0.0000 0.0000 0.0000
# 3 10.4471 -20.6844 81.7929 0.0000 0.0000 0.0000
# 4 0.0000 0.0000 0.0000 18.5702 0.0000 0.0000
# 5 0.0000 0.0000 0.0000 0.0000 4.6923 0.0000
# 6 0.0000 0.0000 0.0000 0.0000 0.0000 19.4685
#
#
#
# Elastic Compliance Matrix: (Units=1/GPa)
#
#
# Indices 1 2 3 4 5 6 
#
# 1 0.010123 0.000341 -0.001207 0.000000 0.000000 0.000000
# 2 0.000341 0.022608 0.005674 0.000000 0.000000 0.000000
# 3 -0.001207 0.005674 0.013815 0.000000 0.000000 0.000000
# 4 0.000000 0.000000 0.000000 0.053850 0.000000 0.000000
# 5 0.000000 0.000000 0.000000 0.000000 0.213114 0.000000
# 6 0.000000 0.000000 0.000000 0.000000 0.000000 0.051365
#
#
# Mechanical properties :
#
#
# Convention : Reuss Voigt Hill
#
# Bulk Modulus (GPa) = 17.80604 22.52360 20.16482
# Shear Modulus (GPa) = 13.36973 24.93408 19.15190
#
# Velocity S-wave (km/s) = 2.52105 3.44284 3.01735
# Velocity P-wave (km/s) = 4.11569 5.14893 4.66103
#
# Compressibility (1/GPa) = 0.05616071
#
# Stress axis : x y z
#
# Youngs Moduli (GPa) = 98.78622 44.23260 72.38532
#
# Poissons Ratio (x) = -0.01507 0.08736
# Poissons Ratio (y) = -0.03365 -0.41069
# Poissons Ratio (z) = 0.11922 -0.25096
#
# Static dielectric constant tensor:
#      x y z
#    x 2.414320 0.000000 0.000000 
#    y 0.000000 1.760840 0.000000 
#    z 0.000000 0.000000 1.795790 
# 
# From -- ./inp_files/11773.got.cif
#   From: 2010.05.17/outbox.cif.g08.bks.cpg/sg37_6_cif.got.tgz:11773.got - 2010.06.03 17:53:42.
