data_PCOD9355200
_publ_section_title
;
Structure prediction by ZEFSAII (Michael W. Deem and Ramdas Pophale) SiO2 
 PCOD9355200
Probable space group: C C C 2
;
_chemical_formula_sum "Si O2"
_cell_formula_units_Z 40
_cell_length_a 22.002532
_cell_length_b 7.489907
_cell_length_c 9.044067
_cell_angle_alpha 90.000000
_cell_angle_beta 90.000000
_cell_angle_gamma 90.000000
_cell_volume 1490.434372
_symmetry_space_group_name_H-M "C C C 2"
_symmetry_group_IT_number 37
_symmetry_cell_setting 'orthorhombic'
loop_
_space_group_symop_operation_xyz
x,y,z
-x,-y,z
-x,y,1/2+z
x,-y,1/2+z
1/2+x,1/2+y,z
1/2-x,1/2-y,z
1/2-x,1/2+y,1/2+z
1/2+x,1/2-y,1/2+z
loop_
_atom_site_type_symbol
_atom_site_label
_atom_site_fract_x
_atom_site_fract_y
_atom_site_fract_z
Si Si1 0.853268 0.338098 0.648960
Si Si2 0.774239 0.422533 0.929134
Si Si3 0.931418 0.349477 0.213233
Si Si4 0.355597 0.418073 0.887810
Si Si5 0.964140 0.175619 0.913643
O O1 0.807195 0.342551 0.785273
O O2 0.820341 0.463238 0.525897
O O3 0.911733 0.444846 0.709333
O O4 0.866456 0.161383 0.553441
O O5 0.750000 0.250000 0.017385
O O6 0.714990 0.534341 0.883844
O O7 0.874507 0.234788 0.272654
O O8 0.986278 0.275568 0.312908
O O9 0.946926 0.301759 0.046876
O O10 0.401250 0.584433 0.858101
O O11 0.000000 0.000000 0.971894
#
# Coordination Sequence:
#
# PCOD9355200 Si02
#       5
#     8   8   8   8   8
#     4  12  27  49  76 121 162 213 266 348 409 511
#     4  12  27  45  80 118 161 214 270 339 426 501
#     4  11  25  51  76 112 160 213 278 334 422 492
#     4  11  25  49  81 115 165 207 283 338 426 499
#     4  10  23  49  82 109 152 219 272 340 410 496
#
# _framework density 26.837813000000001
#
# number of rings (size 3 to 8) (size 9 to 14) (size 15 to 20)
#    0.000    0.800    2.000    4.800    8.400    0.000 
#    7.200   10.000    0.000    0.000    0.000    0.000 
#    0.000    0.000    0.000    0.000    0.000    0.000 
#
# Total GULP energy -112218.788955 kJ/mol
# GULP energy per Si atom -5610.939448 kJ/mol
# Density = 2.677673 g / cm^3
# Si number density = 26.837813 Si / 1000 Ang^3
#
#
#
# Elastic Constant Matrix: (Units=GPa)
#
#
# Indices 1 2 3 4 5 6 
#
# 1 146.3971 65.1419 29.4812 0.0000 0.0000 0.0000
# 2 65.1419 108.1271 20.7957 0.0000 0.0000 0.0000
# 3 29.4812 20.7957 98.0416 0.0000 0.0000 0.0000
# 4 0.0000 0.0000 0.0000 40.2802 0.0000 0.0000
# 5 0.0000 0.0000 0.0000 0.0000 29.1812 0.0000
# 6 0.0000 0.0000 0.0000 0.0000 0.0000 79.4676
#
#
#
# Elastic Compliance Matrix: (Units=1/GPa)
#
#
# Indices 1 2 3 4 5 6 
#
# 1 0.009607 -0.005454 -0.001732 0.000000 0.000000 0.000000
# 2 -0.005454 0.012739 -0.001062 0.000000 0.000000 0.000000
# 3 -0.001732 -0.001062 0.010946 0.000000 0.000000 0.000000
# 4 0.000000 0.000000 0.000000 0.024826 0.000000 0.000000
# 5 0.000000 0.000000 0.000000 0.000000 0.034269 0.000000
# 6 0.000000 0.000000 0.000000 0.000000 0.000000 0.012584
#
#
# Mechanical properties :
#
#
# Convention : Reuss Voigt Hill
#
# Bulk Modulus (GPa) = 59.54218 64.82260 62.18239
# Shear Modulus (GPa) = 39.35034 45.59561 42.47297
#
# Velocity S-wave (km/s) = 3.83329 4.12628 3.98248
# Velocity P-wave (km/s) = 6.46732 6.84890 6.66085
#
# Compressibility (1/GPa) = 0.01679482
#
# Stress axis : x y z
#
# Youngs Moduli (GPa) = 104.09591 78.50112 91.35987
#
# Poissons Ratio (x) = 0.42818 0.15821
# Poissons Ratio (y) = 0.56779 0.09701
# Poissons Ratio (z) = 0.18027 0.08336
#
# Static dielectric constant tensor:
#      x y z
#    x 2.103290 0.000000 0.000000 
#    y 0.000000 2.109380 0.000000 
#    z 0.000000 0.000000 2.053730 
# 
# From -- ./inp_files/4528.got.cif
#   From: 2010.05.17/outbox.cif.g08.bks.cpg/sg37_3_cif.got.tgz:4528.got - 2010.06.03 17:53:42.
