data_PCOD9355753
_publ_section_title
;
Structure prediction by ZEFSAII (Michael W. Deem and Ramdas Pophale) SiO2 
 PCOD9355753
Probable space group: C C C 2
;
_chemical_formula_sum "Si O2"
_cell_formula_units_Z 64
_cell_length_a 11.905512
_cell_length_b 9.569519
_cell_length_c 25.533244
_cell_angle_alpha 90.000000
_cell_angle_beta 90.000000
_cell_angle_gamma 90.000000
_cell_volume 2909.003084
_symmetry_space_group_name_H-M "C C C 2"
_symmetry_group_IT_number 37
_symmetry_cell_setting 'orthorhombic'
loop_
_space_group_symop_operation_xyz
x,y,z
-x,-y,z
-x,y,1/2+z
x,-y,1/2+z
1/2+x,1/2+y,z
1/2-x,1/2-y,z
1/2-x,1/2+y,1/2+z
1/2+x,1/2-y,1/2+z
loop_
_atom_site_type_symbol
_atom_site_label
_atom_site_fract_x
_atom_site_fract_y
_atom_site_fract_z
Si Si1 0.056875 0.729223 0.891040
Si Si2 0.502939 0.733620 0.004552
Si Si3 0.340992 0.120284 0.082037
Si Si4 0.682950 0.515076 0.506181
Si Si5 0.492506 0.271796 0.277413
Si Si6 0.838590 0.618660 0.202184
Si Si7 0.684281 0.532515 0.778752
Si Si8 0.229628 0.971332 0.891632
O O1 0.992613 0.715798 0.836431
O O2 0.112108 0.884087 0.894214
O O3 0.164422 0.630059 0.885563
O O4 0.991996 0.706208 0.945267
O O5 0.548646 0.836236 0.049201
O O6 0.378712 0.665323 0.008242
O O7 0.587091 0.602596 0.010631
O O8 0.250000 0.250000 0.081501
O O9 0.363194 0.084818 0.142208
O O10 0.274970 0.000867 0.050839
O O11 0.738541 0.474854 0.450459
O O12 0.445974 0.166285 0.235065
O O13 0.395939 0.393472 0.281606
O O14 0.606005 0.343776 0.260083
O O15 0.750000 0.750000 0.201172
O O16 0.779698 0.501710 0.237469
O O17 0.723391 0.558338 0.838418
#
# Coordination Sequence:
#
# PCOD9355753 Si02
#       8
#     8   8   8   8   8   8   8   8
#     4   9  15  25  42  65  95 124 157 209 264 314
#     4   9  17  29  45  65  92 130 171 210 261 320
#     4   9  18  30  43  61  95 135 173 218 261 309
#     4   9  17  29  45  65  92 130 171 210 261 320
#     4   9  15  23  38  62  94 132 171 212 264 322
#     4   9  16  26  38  59  93 133 171 212 261 312
#     4   9  15  23  38  62  94 132 171 212 264 322
#     4   9  15  25  42  65  95 124 157 209 264 314
#
# _framework density 22.000664
#
# number of rings (size 3 to 8) (size 9 to 14) (size 15 to 20)
#    0.000    3.000    1.250    0.750    0.000    4.000 
#    0.000    5.625    0.000    0.000    0.000    0.000 
#    7.500    0.000    4.500    0.000    2.000    0.000 
#
# Total GULP energy -178574.204886 kJ/mol
# GULP energy per Si atom -5580.443903 kJ/mol
# Density = 2.195059 g / cm^3
# Si number density = 22.000664 Si / 1000 Ang^3
#
#
#
# Elastic Constant Matrix: (Units=GPa)
#
#
# Indices 1 2 3 4 5 6 
#
# 1 83.6020 36.7739 78.4272 0.0000 0.0000 0.0000
# 2 36.7739 31.3635 43.0900 0.0000 0.0000 0.0000
# 3 78.4272 43.0900 230.6554 0.0000 0.0000 0.0000
# 4 0.0000 0.0000 0.0000 16.2912 0.0000 0.0000
# 5 0.0000 0.0000 0.0000 0.0000 24.6639 0.0000
# 6 0.0000 0.0000 0.0000 0.0000 0.0000 21.5871
#
#
#
# Elastic Compliance Matrix: (Units=1/GPa)
#
#
# Indices 1 2 3 4 5 6 
#
# 1 0.027822 -0.026400 -0.004528 0.000000 0.000000 0.000000
# 2 -0.026400 0.067945 -0.003717 0.000000 0.000000 0.000000
# 3 -0.004528 -0.003717 0.006569 0.000000 0.000000 0.000000
# 4 0.000000 0.000000 0.000000 0.061383 0.000000 0.000000
# 5 0.000000 0.000000 0.000000 0.000000 0.040545 0.000000
# 6 0.000000 0.000000 0.000000 0.000000 0.000000 0.046324
#
#
# Mechanical properties :
#
#
# Convention : Reuss Voigt Hill
#
# Bulk Modulus (GPa) = 30.26048 73.57812 51.91930
# Shear Modulus (GPa) = 15.11063 24.99709 20.05386
#
# Velocity S-wave (km/s) = 2.62358 3.37441 3.02240
# Velocity P-wave (km/s) = 4.79184 6.97842 5.98582
#
# Compressibility (1/GPa) = 0.03304640
#
# Stress axis : x y z
#
# Youngs Moduli (GPa) = 35.94311 14.71782 152.22178
#
# Poissons Ratio (x) = 0.38855 0.68925
# Poissons Ratio (y) = 0.94891 0.56574
# Poissons Ratio (z) = 0.16275 0.05470
#
# Static dielectric constant tensor:
#      x y z
#    x 1.857760 0.000000 0.000000 
#    y 0.000000 1.849460 0.000000 
#    z 0.000000 0.000000 1.776930 
# 
# From -- ./inp_files/18736.got.cif
#   From: 2010.05.17/outbox.cif.g08.bks.cpg/sg37_10_cif.got.tgz:18736.got - 2010.06.03 17:53:42.
