data_PCOD9355603
_publ_section_title
;
Structure prediction by ZEFSAII (Michael W. Deem and Ramdas Pophale) SiO2 
 PCOD9355603
Probable space group: C C C 2
;
_chemical_formula_sum "Si O2"
_cell_formula_units_Z 36
_cell_length_a 21.050905
_cell_length_b 7.262333
_cell_length_c 10.144340
_cell_angle_alpha 90.000000
_cell_angle_beta 90.000000
_cell_angle_gamma 90.000000
_cell_volume 1550.853330
_symmetry_space_group_name_H-M "C C C 2"
_symmetry_group_IT_number 37
_symmetry_cell_setting 'orthorhombic'
loop_
_space_group_symop_operation_xyz
x,y,z
-x,-y,z
-x,y,1/2+z
x,-y,1/2+z
1/2+x,1/2+y,z
1/2-x,1/2-y,z
1/2-x,1/2+y,1/2+z
1/2+x,1/2-y,1/2+z
loop_
_atom_site_type_symbol
_atom_site_label
_atom_site_fract_x
_atom_site_fract_y
_atom_site_fract_z
Si Si1 0.349231 0.966041 0.314920
Si Si2 0.152458 0.059345 0.738587
Si Si3 0.250000 0.750000 0.769677
Si Si4 0.074532 0.009532 0.996054
Si Si5 0.071513 0.433328 0.063365
O O1 0.325305 0.755325 0.300021
O O2 0.405189 0.994490 0.419689
O O3 0.295162 0.112663 0.349561
O O4 0.378769 0.010471 0.173801
O O5 0.111392 0.978706 0.859971
O O6 0.204982 0.904774 0.699107
O O7 0.106833 0.103687 0.614381
O O8 0.078463 0.215184 0.052459
O O9 0.000000 0.000000 0.969889
O O10 0.000000 0.500000 0.090832
#
# Coordination Sequence:
#
# PCOD9355603 Si02
#       5
#     8   8   4   8   8
#     4  11  26  46  69 104 136 181 226 280 340 401
#     4  11  26  46  69 104 136 181 226 280 340 401
#     4  12  26  48  68  96 144 184 230 276 332 402
#     4  11  24  44  72 106 136 174 228 281 347 406
#     4  11  24  44  72 106 136 174 228 281 347 406
#
# _framework density 23.213025999999999
#
# number of rings (size 3 to 8) (size 9 to 14) (size 15 to 20)
#    0.000    0.889    2.222    3.333    6.222    5.333 
#    0.000    0.000    0.000    0.000    0.000    0.000 
#    0.000    0.000    0.000    0.000    0.000    0.000 
#
# Total GULP energy -100498.688013 kJ/mol
# GULP energy per Si atom -5583.260445 kJ/mol
# Density = 2.316019 g / cm^3
# Si number density = 23.213026 Si / 1000 Ang^3
#
#
#
# Elastic Constant Matrix: (Units=GPa)
#
#
# Indices 1 2 3 4 5 6 
#
# 1 104.2705 43.9348 5.9339 0.0000 0.0000 0.0000
# 2 43.9348 92.5302 16.9495 0.0000 0.0000 0.0000
# 3 5.9339 16.9495 84.6083 0.0000 0.0000 0.0000
# 4 0.0000 0.0000 0.0000 20.5553 0.0000 0.0000
# 5 0.0000 0.0000 0.0000 0.0000 -16.0796 0.0000
# 6 0.0000 0.0000 0.0000 0.0000 0.0000 25.2251
#
#
#
# Elastic Compliance Matrix: (Units=1/GPa)
#
#
# Indices 1 2 3 4 5 6 
#
# 1 0.011997 -0.005753 0.000311 0.000000 0.000000 0.000000
# 2 -0.005753 0.013978 -0.002397 0.000000 0.000000 0.000000
# 3 0.000311 -0.002397 0.012277 0.000000 0.000000 0.000000
# 4 0.000000 0.000000 0.000000 0.048649 0.000000 0.000000
# 5 0.000000 0.000000 0.000000 0.000000 -0.062191 0.000000
# 6 0.000000 0.000000 0.000000 0.000000 0.000000 0.039643
#
#
# Mechanical properties :
#
#
# Convention : Reuss Voigt Hill
#
# Bulk Modulus (GPa) = 44.29732 46.11616 45.20674
# Shear Modulus (GPa) = 57.10579 20.24621 38.67600
#
# Velocity S-wave (km/s) = 4.96530 2.95649 4.08626
# Velocity P-wave (km/s) = 7.21087 5.61819 6.46377
#
# Compressibility (1/GPa) = 0.02257473
#
# Stress axis : x y z
#
# Youngs Moduli (GPa) = 83.35473 71.54060 81.44996
#
# Poissons Ratio (x) = 0.41160 -0.02534
# Poissons Ratio (y) = 0.47957 0.19521
# Poissons Ratio (z) = -0.02594 0.17146
#
# Static dielectric constant tensor:
#      x y z
#    x 2.078110 0.000000 0.000000 
#    y 0.000000 1.965090 0.000000 
#    z 0.000000 0.000000 1.801270 
# 
# From -- ./inp_files/4246.got.cif
#   From: 2010.05.17/outbox.cif.g08.bks.cpg/sg37_3_cif.got.tgz:4246.got - 2010.06.03 17:53:42.
