data_PCOD9355313
_publ_section_title
;
Structure prediction by ZEFSAII (Michael W. Deem and Ramdas Pophale) SiO2 
 PCOD9355313
Probable space group: C C C 2
;
_chemical_formula_sum "Si O2"
_cell_formula_units_Z 40
_cell_length_a 16.426944
_cell_length_b 10.087382
_cell_length_c 10.327521
_cell_angle_alpha 90.000000
_cell_angle_beta 90.000000
_cell_angle_gamma 90.000000
_cell_volume 1711.320413
_symmetry_space_group_name_H-M "C C C 2"
_symmetry_group_IT_number 37
_symmetry_cell_setting 'orthorhombic'
loop_
_space_group_symop_operation_xyz
x,y,z
-x,-y,z
-x,y,1/2+z
x,-y,1/2+z
1/2+x,1/2+y,z
1/2-x,1/2-y,z
1/2-x,1/2+y,1/2+z
1/2+x,1/2-y,1/2+z
loop_
_atom_site_type_symbol
_atom_site_label
_atom_site_fract_x
_atom_site_fract_y
_atom_site_fract_z
Si Si1 0.879975 0.402733 0.119410
Si Si2 0.250000 0.750000 0.972198
Si Si3 0.945406 0.828539 0.763305
Si Si4 0.379975 0.902733 0.407200
Si Si5 0.136109 0.104992 0.263305
Si Si6 0.250000 0.250000 0.054411
O O1 0.929013 0.268068 0.142421
O O2 0.873470 0.465463 0.263305
O O3 0.794450 0.355062 0.063428
O O4 0.914286 0.500000 0.013305
O O5 0.184816 0.829437 0.883439
O O6 0.929013 0.731932 0.884189
O O7 0.040176 0.860584 0.763305
O O8 0.877643 0.945187 0.763305
O O9 0.294450 0.855062 0.463181
O O10 0.184816 0.170563 0.143170
#
# Coordination Sequence:
#
# PCOD9355313 Si02
#       6
#     8   4   8   8   8   4
#     4  10  25  45  76 107 151 199 248 315 377 462
#     4  11  25  40  76 112 156 192 260 316 392 446
#     4   9  24  49  76 106 157 202 261 314 389 469
#     4  10  25  45  76 107 151 199 248 315 377 462
#     4  10  24  46  77 114 146 207 254 326 388 468
#     4  11  25  40  76 112 156 192 260 316 392 446
#
# _framework density 23.373764999999999
#
# number of rings (size 3 to 8) (size 9 to 14) (size 15 to 20)
#    1.200    0.800    0.000    0.600   11.200    1.600 
#    0.000   10.000    0.000    0.000    0.000    0.000 
#    0.000    0.000    0.000    0.000    0.000    0.000 
#
# Total GULP energy -111635.349032 kJ/mol
# GULP energy per Si atom -5581.767452 kJ/mol
# Density = 2.332056 g / cm^3
# Si number density = 23.373765 Si / 1000 Ang^3
#
#
#
# Elastic Constant Matrix: (Units=GPa)
#
#
# Indices 1 2 3 4 5 6 
#
# 1 125.7364 51.3760 55.1789 0.0000 0.0000 0.0000
# 2 51.3760 150.6338 70.7029 0.0000 0.0000 0.0000
# 3 55.1789 70.7029 174.4229 0.0000 0.0000 0.0000
# 4 0.0000 0.0000 0.0000 218.5088 0.0000 0.0000
# 5 0.0000 0.0000 0.0000 0.0000 -3.2034 0.0000
# 6 0.0000 0.0000 0.0000 0.0000 0.0000 31.9777
#
#
#
# Elastic Compliance Matrix: (Units=1/GPa)
#
#
# Indices 1 2 3 4 5 6 
#
# 1 0.009864 -0.002346 -0.002169 0.000000 0.000000 0.000000
# 2 -0.002346 0.008756 -0.002807 0.000000 0.000000 0.000000
# 3 -0.002169 -0.002807 0.007557 0.000000 0.000000 0.000000
# 4 0.000000 0.000000 0.000000 0.004576 0.000000 0.000000
# 5 0.000000 0.000000 0.000000 0.000000 -0.312173 0.000000
# 6 0.000000 0.000000 0.000000 0.000000 0.000000 0.031272
#
#
# Mechanical properties :
#
#
# Convention : Reuss Voigt Hill
#
# Bulk Modulus (GPa) = 86.71358 89.47874 88.09616
# Shear Modulus (GPa) = -21.58356 67.69231 23.05438
#
# Velocity S-wave (km/s) = -3.04206 5.38736 3.14401
# Velocity P-wave (km/s) = 4.98401 8.77856 7.13805
#
# Compressibility (1/GPa) = 0.01153222
#
# Stress axis : x y z
#
# Youngs Moduli (GPa) = 101.38134 114.20238 132.31947
#
# Poissons Ratio (x) = 0.26791 0.28707
# Poissons Ratio (y) = 0.23783 0.37146
# Poissons Ratio (z) = 0.21995 0.32060
#
# Static dielectric constant tensor:
#      x y z
#    x 1.870920 0.000000 0.000000 
#    y 0.000000 2.006510 0.000000 
#    z 0.000000 0.000000 1.888080 
# 
# From -- ./inp_files/3904.got.cif
#   From: 2010.05.17/outbox.cif.g08.bks.cpg/sg37_2_cif.got.tgz:3904.got - 2010.06.03 17:53:42.
