data_PCOD9355749
_publ_section_title
;
Structure prediction by ZEFSAII (Michael W. Deem and Ramdas Pophale) SiO2 
 PCOD9355749
Probable space group: C C C 2
;
_chemical_formula_sum "Si O2"
_cell_formula_units_Z 32
_cell_length_a 9.303953
_cell_length_b 7.760385
_cell_length_c 18.379866
_cell_angle_alpha 90.000000
_cell_angle_beta 90.000000
_cell_angle_gamma 90.000000
_cell_volume 1327.067814
_symmetry_space_group_name_H-M "C C C 2"
_symmetry_group_IT_number 37
_symmetry_cell_setting 'orthorhombic'
loop_
_space_group_symop_operation_xyz
x,y,z
-x,-y,z
-x,y,1/2+z
x,-y,1/2+z
1/2+x,1/2+y,z
1/2-x,1/2-y,z
1/2-x,1/2+y,1/2+z
1/2+x,1/2-y,1/2+z
loop_
_atom_site_type_symbol
_atom_site_label
_atom_site_fract_x
_atom_site_fract_y
_atom_site_fract_z
Si Si1 0.651611 0.436021 0.111640
Si Si2 0.533568 0.297315 0.255546
Si Si3 0.171744 0.430168 0.468109
Si Si4 0.250000 0.750000 0.379290
Si Si5 0.250000 0.750000 0.709145
O O1 0.500000 0.500000 0.075858
O O2 0.604878 0.296375 0.174337
O O3 0.701494 0.594494 0.160193
O O4 0.776738 0.419160 0.052244
O O5 0.500000 0.500000 0.269110
O O6 0.621657 0.231341 0.322671
O O7 0.385892 0.194848 0.254776
O O8 0.250000 0.250000 0.439443
O O9 0.256549 0.583095 0.428970
O O10 0.000000 0.500000 0.465069
#
# Coordination Sequence:
#
# PCOD9355749 Si02
#       5
#     8   8   8   4   4
#     4   9  21  43  77 110 151 199 262 330 397 475
#     4   9  22  42  75 108 147 202 255 327 404 474
#     4  12  32  49  78 116 157 217 270 329 416 497
#     4  12  29  50  76 106 165 204 252 344 393 496
#     4   8  17  40  76 112 145 196 254 332 387 482
#
# _framework density 24.113310999999999
#
# number of rings (size 3 to 8) (size 9 to 14) (size 15 to 20)
#    0.000    2.500    0.000    0.750   15.750    4.000 
#    2.250    0.000    0.000    0.000    0.000    0.000 
#    0.000    0.000    0.000    0.000    0.000    0.000 
#
# Total GULP energy -89079.793142 kJ/mol
# GULP energy per Si atom -5567.487071 kJ/mol
# Density = 2.405843 g / cm^3
# Si number density = 24.113311 Si / 1000 Ang^3
#
#
#
# Elastic Constant Matrix: (Units=GPa)
#
#
# Indices 1 2 3 4 5 6 
#
# 1 157.0904 36.4381 33.0396 0.0000 0.0000 0.0000
# 2 36.4381 110.1550 39.2388 0.0000 0.0000 0.0000
# 3 33.0396 39.2388 111.6426 0.0000 0.0000 0.0000
# 4 0.0000 0.0000 0.0000 6.8624 0.0000 0.0000
# 5 0.0000 0.0000 0.0000 0.0000 80.1022 0.0000
# 6 0.0000 0.0000 0.0000 0.0000 0.0000 33.1533
#
#
#
# Elastic Compliance Matrix: (Units=1/GPa)
#
#
# Indices 1 2 3 4 5 6 
#
# 1 0.007096 -0.001828 -0.001458 0.000000 0.000000 0.000000
# 2 -0.001828 0.010848 -0.003272 0.000000 0.000000 0.000000
# 3 -0.001458 -0.003272 0.010538 0.000000 0.000000 0.000000
# 4 0.000000 0.000000 0.000000 0.145721 0.000000 0.000000
# 5 0.000000 0.000000 0.000000 0.000000 0.012484 0.000000
# 6 0.000000 0.000000 0.000000 0.000000 0.000000 0.030163
#
#
# Mechanical properties :
#
#
# Convention : Reuss Voigt Hill
#
# Bulk Modulus (GPa) = 65.07017 66.25790 65.66403
# Shear Modulus (GPa) = 21.26852 42.03502 31.65177
#
# Velocity S-wave (km/s) = 2.97311 4.17973 3.62695
# Velocity P-wave (km/s) = 6.23134 7.12958 6.69554
#
# Compressibility (1/GPa) = 0.01536803
#
# Stress axis : x y z
#
# Youngs Moduli (GPa) = 140.91690 92.18010 94.89076
#
# Poissons Ratio (x) = 0.16852 0.13831
# Poissons Ratio (y) = 0.25762 0.31046
# Poissons Ratio (z) = 0.20539 0.30160
#
# Static dielectric constant tensor:
#      x y z
#    x 1.814060 0.000000 0.000000 
#    y 0.000000 1.800670 0.000000 
#    z 0.000000 0.000000 1.871410 
# 
# From -- ./inp_files/16104.got.cif
#   From: 2010.05.17/outbox.cif.g08.bks.cpg/sg37_9_cif.got.tgz:16104.got - 2010.06.03 17:53:42.
