data_PCOD9355412
_publ_section_title
;
Structure prediction by ZEFSAII (Michael W. Deem and Ramdas Pophale) SiO2 
 PCOD9355412
Probable space group: C C C 2
;
_chemical_formula_sum "Si O2"
_cell_formula_units_Z 60
_cell_length_a 26.846945
_cell_length_b 11.657702
_cell_length_c 8.728971
_cell_angle_alpha 90.000000
_cell_angle_beta 90.000000
_cell_angle_gamma 90.000000
_cell_volume 2731.938215
_symmetry_space_group_name_H-M "C C C 2"
_symmetry_group_IT_number 37
_symmetry_cell_setting 'orthorhombic'
loop_
_space_group_symop_operation_xyz
x,y,z
-x,-y,z
-x,y,1/2+z
x,-y,1/2+z
1/2+x,1/2+y,z
1/2-x,1/2-y,z
1/2-x,1/2+y,1/2+z
1/2+x,1/2-y,1/2+z
loop_
_atom_site_type_symbol
_atom_site_label
_atom_site_fract_x
_atom_site_fract_y
_atom_site_fract_z
Si Si1 0.150632 0.929863 0.422930
Si Si2 0.850523 0.470922 0.794097
Si Si3 0.559028 0.622899 0.699081
Si Si4 0.500000 0.500000 0.942388
Si Si5 0.688765 0.343531 0.003567
Si Si6 0.692004 0.748706 0.158482
Si Si7 0.252760 0.883782 0.263879
Si Si8 0.613404 0.161680 0.092758
O O1 0.106510 0.908136 0.305247
O O2 0.159064 0.830446 0.547739
O O3 0.202939 0.937818 0.333091
O O4 0.149616 0.053046 0.502596
O O5 0.831867 0.374118 0.674634
O O6 0.800293 0.546412 0.821122
O O7 0.886764 0.563563 0.719284
O O8 0.877326 0.404404 0.932590
O O9 0.543170 0.540500 0.558702
O O10 0.569542 0.747820 0.625366
O O11 0.515666 0.602991 0.827412
O O12 0.693308 0.300921 0.830962
O O13 0.740057 0.384348 0.081356
O O14 0.663379 0.241208 0.100923
O O15 0.750000 0.750000 0.113041
O O16 0.250000 0.750000 0.303987
#
# Coordination Sequence:
#
# PCOD9355412 Si02
#       8
#     8   8   8   4   8   8   8   8
#     4  12  24  38  67 102 143 188 249 312 367 443
#     4  11  26  42  63  99 152 209 263 295 358 407
#     4  11  24  50  76 120 141 176 235 298 417 459
#     4  10  26  50  90 112 148 170 214 336 398 508
#     4  11  22  39  58  95 136 201 252 322 345 404
#     4  11  25  38  58  97 143 210 262 310 348 405
#     4  12  23  37  61  93 147 209 261 306 347 403
#     4  11  25  45  68  99 148 196 246 307 356 455
#
# _framework density 21.962429
#
# number of rings (size 3 to 8) (size 9 to 14) (size 15 to 20)
#    0.000    0.800    2.667    4.000   11.200    0.000 
#    2.400    0.000    0.000    2.400    0.000    0.000 
#    0.000    0.000    0.000    0.000    0.000    0.000 
#
# Total GULP energy -167562.518374 kJ/mol
# GULP energy per Si atom -5585.417279 kJ/mol
# Density = 2.191244 g / cm^3
# Si number density = 21.962429 Si / 1000 Ang^3
#
#
#
# Elastic Constant Matrix: (Units=GPa)
#
#
# Indices 1 2 3 4 5 6 
#
# 1 64.6941 32.4920 40.5893 0.0000 0.0000 0.0000
# 2 32.4920 152.3931 51.7850 0.0000 0.0000 0.0000
# 3 40.5893 51.7850 135.8128 0.0000 0.0000 0.0000
# 4 0.0000 0.0000 0.0000 39.4712 0.0000 0.0000
# 5 0.0000 0.0000 0.0000 0.0000 33.1749 0.0000
# 6 0.0000 0.0000 0.0000 0.0000 0.0000 37.0683
#
#
#
# Elastic Compliance Matrix: (Units=1/GPa)
#
#
# Indices 1 2 3 4 5 6 
#
# 1 0.019849 -0.002546 -0.004961 0.000000 0.000000 0.000000
# 2 -0.002546 0.007865 -0.002238 0.000000 0.000000 0.000000
# 3 -0.004961 -0.002238 0.009699 0.000000 0.000000 0.000000
# 4 0.000000 0.000000 0.000000 0.025335 0.000000 0.000000
# 5 0.000000 0.000000 0.000000 0.000000 0.030143 0.000000
# 6 0.000000 0.000000 0.000000 0.000000 0.000000 0.026977
#
#
# Mechanical properties :
#
#
# Convention : Reuss Voigt Hill
#
# Bulk Modulus (GPa) = 55.79588 66.95918 61.37753
# Shear Modulus (GPa) = 34.40353 37.14512 35.77432
#
# Velocity S-wave (km/s) = 3.96216 4.11701 4.04033
# Velocity P-wave (km/s) = 6.81116 7.29067 7.05499
#
# Compressibility (1/GPa) = 0.01792247
#
# Stress axis : x y z
#
# Youngs Moduli (GPa) = 50.38077 127.13950 103.10145
#
# Poissons Ratio (x) = 0.32371 0.51151
# Poissons Ratio (y) = 0.12828 0.23075
# Poissons Ratio (z) = 0.24995 0.28455
#
# Static dielectric constant tensor:
#      x y z
#    x 1.821490 0.000000 0.000000 
#    y 0.000000 1.856250 0.000000 
#    z 0.000000 0.000000 1.891180 
# 
# From -- ./inp_files/4799.got.cif
#   From: 2010.05.17/outbox.cif.g08.bks.cpg/sg37_3_cif.got.tgz:4799.got - 2010.06.03 17:53:42.
