data_PCOD9355835
_publ_section_title
;
Structure prediction by ZEFSAII (Michael W. Deem and Ramdas Pophale) SiO2 
 PCOD9355835
Probable space group: A M M 2
;
_chemical_formula_sum "Si O2"
_cell_formula_units_Z 64
_cell_length_a 7.357997
_cell_length_b 19.448487
_cell_length_c 22.478750
_cell_angle_alpha 90.000000
_cell_angle_beta 90.000000
_cell_angle_gamma 90.000000
_cell_volume 3216.752037
_symmetry_space_group_name_H-M "A M M 2"
_symmetry_group_IT_number 38
_symmetry_cell_setting 'orthorhombic'
loop_
_space_group_symop_operation_xyz
x,y,z
-x,-y,z
-x,y,z
x,-y,z
x,1/2+y,1/2+z
-x,1/2-y,1/2+z
-x,1/2+y,1/2+z
x,1/2-y,1/2+z
loop_
_atom_site_type_symbol
_atom_site_label
_atom_site_fract_x
_atom_site_fract_y
_atom_site_fract_z
Si Si1 0.718957 0.924254 0.625000
Si Si2 0.784929 0.273087 0.992336
Si Si3 0.777456 0.422311 0.313974
Si Si4 0.202542 0.313724 0.219336
Si Si5 0.221155 0.870466 0.942695
Si Si6 0.282664 0.925405 0.487501
Si Si7 0.778989 0.424785 0.570529
Si Si8 0.777422 0.279798 0.620258
O O1 0.500000 0.915805 0.626534
O O2 0.807918 0.867562 0.665031
O O3 0.777274 0.922230 0.556458
O O4 0.762016 0.000000 0.648486
O O5 0.719194 0.208556 0.953292
O O6 0.757878 0.348701 0.965006
O O7 0.000000 0.263752 0.997399
O O8 0.717217 0.262616 0.060789
O O9 0.719916 0.500000 0.297934
O O10 0.713691 0.360456 0.271161
O O11 0.721748 0.404387 0.381190
O O12 0.000000 0.422092 0.310789
O O13 0.287405 0.250085 0.183390
O O14 0.000000 0.293354 0.239788
O O15 0.000000 0.871093 0.941201
O O16 0.275012 0.911137 0.002093
O O17 0.500000 0.929359 0.487455
O O18 0.217514 0.000000 0.463094
O O19 0.718417 0.500000 0.590412
O O20 0.723188 0.358270 0.607953
O O21 0.000000 0.424403 0.571147
O O22 0.000000 0.276581 0.622072
#
# Coordination Sequence:
#
# PCOD9355835 Si02
#       8
#     8   8   8   8   8   8   8   8
#     4   9  17  27  37  51  75 107 137 161 188 227
#     4   9  15  25  40  57  77 102 130 163 203 238
#     4   9  16  24  35  55  81 109 140 166 190 227
#     4  10  17  25  38  56  81 108 133 164 197 229
#     4   8  14  23  36  54  77 102 131 166 200 232
#     4   9  17  27  38  55  80 106 131 161 197 237
#     4   8  12  19  33  51  73 101 126 155 199 242
#     4   8  14  22  32  52  78  99 124 160 198 234
#
# _framework density 19.895845000000001
#
# number of rings (size 3 to 8) (size 9 to 14) (size 15 to 20)
#    0.000    3.250    1.250    3.000    0.000    2.500 
#    0.000    1.250    0.000    0.750    0.000    0.875 
#    0.000   21.500    0.000    0.000    0.000    0.125 
#
# Total GULP energy -178227.036514 kJ/mol
# GULP energy per Si atom -5569.594891 kJ/mol
# Density = 1.985056 g / cm^3
# Si number density = 19.895845 Si / 1000 Ang^3
#
#
#
# Elastic Constant Matrix: (Units=GPa)
#
#
# Indices 1 2 3 4 5 6 
#
# 1 69.8320 0.1734 1.8099 0.0000 0.0000 0.0000
# 2 0.1734 162.8758 46.0591 0.0000 0.0000 0.0000
# 3 1.8099 46.0591 72.8331 0.0000 0.0000 0.0000
# 4 0.0000 0.0000 0.0000 25.1183 0.0000 0.0000
# 5 0.0000 0.0000 0.0000 0.0000 -160.6239 0.0000
# 6 0.0000 0.0000 0.0000 0.0000 0.0000 17.9150
#
#
#
# Elastic Compliance Matrix: (Units=1/GPa)
#
#
# Indices 1 2 3 4 5 6 
#
# 1 0.014331 0.000104 -0.000422 0.000000 0.000000 0.000000
# 2 0.000104 0.007477 -0.004731 0.000000 0.000000 0.000000
# 3 -0.000422 -0.004731 0.016733 0.000000 0.000000 0.000000
# 4 0.000000 0.000000 0.000000 0.039812 0.000000 0.000000
# 5 0.000000 0.000000 0.000000 0.000000 -0.006226 0.000000
# 6 0.000000 0.000000 0.000000 0.000000 0.000000 0.055819
#
#
# Mechanical properties :
#
#
# Convention : Reuss Voigt Hill
#
# Bulk Modulus (GPa) = 35.15869 44.62509 39.89189
# Shear Modulus (GPa) = 33.89257 -6.35156 13.77050
#
# Velocity S-wave (km/s) = 4.13183 -1.78867 2.63369
# Velocity P-wave (km/s) = 6.36179 4.26758 5.41685
#
# Compressibility (1/GPa) = 0.02844247
#
# Stress axis : x y z
#
# Youngs Moduli (GPa) = 69.77994 133.73485 59.76382
#
# Poissons Ratio (x) = -0.01392 0.02522
# Poissons Ratio (y) = -0.00726 0.28276
# Poissons Ratio (z) = 0.02944 0.63274
#
# Static dielectric constant tensor:
#      x y z
#    x 1.756690 0.000000 0.000000 
#    y 0.000000 1.792090 0.000000 
#    z 0.000000 0.000000 1.678120 
# 
# From -- ./inp_files/20834.got.cif
#   From: 2010.05.17/outbox.cif.g08.bks.cpg/sg38_11_cif.got.tgz:20834.got - 2010.06.03 18:07:57.
