data_PCOD9355028
_publ_section_title
;
Structure prediction by ZEFSAII (Michael W. Deem and Ramdas Pophale) SiO2 
 PCOD9355028
Probable space group: C C C 2
;
_chemical_formula_sum "Si O2"
_cell_formula_units_Z 48
_cell_length_a 5.373924
_cell_length_b 13.902845
_cell_length_c 28.093577
_cell_angle_alpha 90.000000
_cell_angle_beta 90.000000
_cell_angle_gamma 90.000000
_cell_volume 2098.950710
_symmetry_space_group_name_H-M "C C C 2"
_symmetry_group_IT_number 37
_symmetry_cell_setting 'orthorhombic'
loop_
_space_group_symop_operation_xyz
x,y,z
-x,-y,z
-x,y,1/2+z
x,-y,1/2+z
1/2+x,1/2+y,z
1/2-x,1/2-y,z
1/2-x,1/2+y,1/2+z
1/2+x,1/2-y,1/2+z
loop_
_atom_site_type_symbol
_atom_site_label
_atom_site_fract_x
_atom_site_fract_y
_atom_site_fract_z
Si Si1 0.014747 0.612101 0.985030
Si Si2 0.750000 0.750000 0.616259
Si Si3 0.271017 0.585995 0.739503
Si Si4 0.484545 0.386920 0.046467
Si Si5 0.218774 0.384216 0.702008
Si Si6 0.997798 0.693788 0.881353
Si Si7 0.500000 0.000000 0.823029
O O1 0.000000 0.500000 0.970370
O O2 0.000580 0.676109 0.938159
O O3 0.779274 0.627383 0.020131
O O4 0.279959 0.624500 0.010824
O O5 0.541840 0.695269 0.585270
O O6 0.245566 0.500103 0.700376
O O7 0.519405 0.641451 0.726908
O O8 0.014453 0.642045 0.734897
O O9 0.231820 0.526655 0.788243
O O10 0.500000 0.500000 0.063163
O O11 0.833573 0.334138 0.152156
O O12 0.250000 0.750000 0.867843
O O13 0.750000 0.750000 0.868509
O O14 0.974227 0.592213 0.855594
#
# Coordination Sequence:
#
# PCOD9355028 Si02
#       7
#     8   4   8   8   8   8   4
#     4  10  22  48  67  94 143 189 226 285 367 397
#     4  12  26  42  72 104 132 182 242 298 342 420
#     4   9  21  46  69  91 139 180 212 290 352 424
#     4  10  25  42  66  98 135 185 233 289 341 428
#     4   9  21  40  65  95 127 174 222 275 356 399
#     4  12  27  43  75 110 141 188 243 294 351 444
#     4  10  24  52  72 106 148 188 236 300 360 424
#
# _framework density 22.868569999999998
#
# number of rings (size 3 to 8) (size 9 to 14) (size 15 to 20)
#    0.000    2.000    0.833    1.000    5.833    9.333 
#   18.000    0.000    0.000    0.000    0.000    0.000 
#    0.000    0.000    0.000    0.000    0.000    0.000 
#
# Total GULP energy -133922.327639 kJ/mol
# GULP energy per Si atom -5580.096985 kJ/mol
# Density = 2.281652 g / cm^3
# Si number density = 22.868570 Si / 1000 Ang^3
#
#
#
# Elastic Constant Matrix: (Units=GPa)
#
#
# Indices 1 2 3 4 5 6 
#
# 1 200.7121 49.8664 39.7779 0.0000 0.0000 0.0000
# 2 49.8664 159.6494 55.5637 0.0000 0.0000 0.0000
# 3 39.7779 55.5637 84.1107 0.0000 0.0000 0.0000
# 4 0.0000 0.0000 0.0000 -245.7952 0.0000 0.0000
# 5 0.0000 0.0000 0.0000 0.0000 -15.7328 0.0000
# 6 0.0000 0.0000 0.0000 0.0000 0.0000 16.5617
#
#
#
# Elastic Compliance Matrix: (Units=1/GPa)
#
#
# Indices 1 2 3 4 5 6 
#
# 1 0.005638 -0.001082 -0.001952 0.000000 0.000000 0.000000
# 2 -0.001082 0.008341 -0.004999 0.000000 0.000000 0.000000
# 3 -0.001952 -0.004999 0.016114 0.000000 0.000000 0.000000
# 4 0.000000 0.000000 0.000000 -0.004068 0.000000 0.000000
# 5 0.000000 0.000000 0.000000 0.000000 -0.063562 0.000000
# 6 0.000000 0.000000 0.000000 0.000000 0.000000 0.060380
#
#
# Mechanical properties :
#
#
# Convention : Reuss Voigt Hill
#
# Bulk Modulus (GPa) = 71.28008 81.65423 76.46715
# Shear Modulus (GPa) = 114.72074 -29.04229 42.83922
#
# Velocity S-wave (km/s) = 7.09043 -3.56752 4.33284
# Velocity P-wave (km/s) = 9.91309 4.33748 7.65124
#
# Compressibility (1/GPa) = 0.01402917
#
# Stress axis : x y z
#
# Youngs Moduli (GPa) = 177.37423 119.88482 62.05682
#
# Poissons Ratio (x) = 0.12968 0.12111
# Poissons Ratio (y) = 0.19187 0.31021
# Poissons Ratio (z) = 0.34617 0.59927
#
# Static dielectric constant tensor:
#      x y z
#    x 1.892230 0.000000 0.000000 
#    y 0.000000 1.873290 0.000000 
#    z 0.000000 0.000000 1.878980 
# 
# From -- ./inp_files/19371.got.cif
#   From: 2010.05.17/outbox.cif.g08.bks.cpg/sg37_10_cif.got.tgz:19371.got - 2010.06.03 17:53:42.
