data_PCOD9355370
_publ_section_title
;
Structure prediction by ZEFSAII (Michael W. Deem and Ramdas Pophale) SiO2 
 PCOD9355370
Probable space group: C C C 2
;
_chemical_formula_sum "Si O2"
_cell_formula_units_Z 48
_cell_length_a 11.229844
_cell_length_b 15.893117
_cell_length_c 12.247345
_cell_angle_alpha 90.000000
_cell_angle_beta 90.000000
_cell_angle_gamma 90.000000
_cell_volume 2185.872144
_symmetry_space_group_name_H-M "C C C 2"
_symmetry_group_IT_number 37
_symmetry_cell_setting 'orthorhombic'
loop_
_space_group_symop_operation_xyz
x,y,z
-x,-y,z
-x,y,1/2+z
x,-y,1/2+z
1/2+x,1/2+y,z
1/2-x,1/2-y,z
1/2-x,1/2+y,1/2+z
1/2+x,1/2-y,1/2+z
loop_
_atom_site_type_symbol
_atom_site_label
_atom_site_fract_x
_atom_site_fract_y
_atom_site_fract_z
Si Si1 0.750000 0.250000 0.629781
Si Si2 0.423209 0.344086 0.969991
Si Si3 0.801946 0.939207 0.775739
Si Si4 0.814119 0.387557 0.810067
Si Si5 0.627241 0.222970 0.016246
Si Si6 0.000000 0.000000 0.610055
Si Si7 0.456696 0.913833 0.173288
O O1 0.649936 0.281733 0.546951
O O2 0.770650 0.328549 0.710894
O O3 0.551153 0.298108 0.961576
O O4 0.440032 0.430585 0.034655
O O5 0.352705 0.370759 0.860706
O O6 0.676679 0.917324 0.719497
O O7 0.769454 0.031199 0.825998
O O8 0.903039 0.955010 0.686139
O O9 0.948093 0.409395 0.770973
O O10 0.825668 0.336029 0.919891
O O11 0.750000 0.250000 0.075362
O O12 0.545604 0.166516 0.095068
O O13 0.500000 0.000000 0.113559
#
# Coordination Sequence:
#
# PCOD9355370 Si02
#       7
#     4   8   8   8   8   4   8
#     4  12  24  50  70 106 146 188 236 304 370 430
#     4  12  29  45  76 106 144 197 241 303 366 439
#     4  11  27  46  74 106 143 194 247 297 366 443
#     4  11  25  46  72 102 146 192 240 301 363 433
#     4  12  27  43  74 110 146 190 245 301 366 431
#     4  12  26  48  74 102 148 186 246 298 370 440
#     4  10  25  48  71 103 146 194 242 299 358 436
#
# _framework density 21.959198000000001
#
# number of rings (size 3 to 8) (size 9 to 14) (size 15 to 20)
#    0.000    0.667    4.167    1.500   11.667    3.333 
#    0.000    0.000    0.000    0.000    0.000    0.000 
#    0.000    0.000    0.000    0.000    0.000    0.000 
#
# Total GULP energy -134117.321277 kJ/mol
# GULP energy per Si atom -5588.221720 kJ/mol
# Density = 2.190922 g / cm^3
# Si number density = 21.959198 Si / 1000 Ang^3
#
#
#
# Elastic Constant Matrix: (Units=GPa)
#
#
# Indices 1 2 3 4 5 6 
#
# 1 107.7467 30.0177 20.2291 0.0000 0.0000 0.0000
# 2 30.0177 98.1100 26.9917 0.0000 0.0000 0.0000
# 3 20.2291 26.9917 51.5614 0.0000 0.0000 0.0000
# 4 0.0000 0.0000 0.0000 39.3748 0.0000 0.0000
# 5 0.0000 0.0000 0.0000 0.0000 218.5410 0.0000
# 6 0.0000 0.0000 0.0000 0.0000 0.0000 46.3850
#
#
#
# Elastic Compliance Matrix: (Units=1/GPa)
#
#
# Indices 1 2 3 4 5 6 
#
# 1 0.010491 -0.002427 -0.002846 0.000000 0.000000 0.000000
# 2 -0.002427 0.012469 -0.005575 0.000000 0.000000 0.000000
# 3 -0.002846 -0.005575 0.023429 0.000000 0.000000 0.000000
# 4 0.000000 0.000000 0.000000 0.025397 0.000000 0.000000
# 5 0.000000 0.000000 0.000000 0.000000 0.004576 0.000000
# 6 0.000000 0.000000 0.000000 0.000000 0.000000 0.021559
#
#
# Mechanical properties :
#
#
# Convention : Reuss Voigt Hill
#
# Bulk Modulus (GPa) = 40.49541 45.76611 43.13076
# Shear Modulus (GPa) = 39.10888 72.87214 55.99051
#
# Velocity S-wave (km/s) = 4.22474 5.76691 5.05498
# Velocity P-wave (km/s) = 6.50224 8.07649 7.33174
#
# Compressibility (1/GPa) = 0.02469416
#
# Stress axis : x y z
#
# Youngs Moduli (GPa) = 95.31578 80.19862 42.68165
#
# Poissons Ratio (x) = 0.19465 0.12145
# Poissons Ratio (y) = 0.23134 0.23796
# Poissons Ratio (z) = 0.27123 0.44712
#
# Static dielectric constant tensor:
#      x y z
#    x 1.767290 0.000000 0.000000 
#    y 0.000000 1.866010 0.000000 
#    z 0.000000 0.000000 1.747650 
# 
# From -- ./inp_files/7215.got.cif
#   From: 2010.05.17/outbox.cif.g08.bks.cpg/sg37_4_cif.got.tgz:7215.got - 2010.06.03 17:53:42.
