data_PCOD9355107
_publ_section_title
;
Structure prediction by ZEFSAII (Michael W. Deem and Ramdas Pophale) SiO2 
 PCOD9355107
Probable space group: C C C 2
;
_chemical_formula_sum "Si O2"
_cell_formula_units_Z 56
_cell_length_a 5.644951
_cell_length_b 14.342626
_cell_length_c 32.263276
_cell_angle_alpha 90.000000
_cell_angle_beta 90.000000
_cell_angle_gamma 90.000000
_cell_volume 2612.145197
_symmetry_space_group_name_H-M "C C C 2"
_symmetry_group_IT_number 37
_symmetry_cell_setting 'orthorhombic'
loop_
_space_group_symop_operation_xyz
x,y,z
-x,-y,z
-x,y,1/2+z
x,-y,1/2+z
1/2+x,1/2+y,z
1/2-x,1/2-y,z
1/2-x,1/2+y,1/2+z
1/2+x,1/2-y,1/2+z
loop_
_atom_site_type_symbol
_atom_site_label
_atom_site_fract_x
_atom_site_fract_y
_atom_site_fract_z
Si Si1 0.889169 0.898905 0.372110
Si Si2 0.500013 0.693531 0.549541
Si Si3 0.349076 0.647899 0.714692
Si Si4 0.000000 0.500000 0.675652
Si Si5 0.000012 0.193531 0.458425
Si Si6 0.500000 0.000000 0.332316
Si Si7 0.110832 0.898904 0.135857
Si Si8 0.849076 0.852101 0.793276
O O1 0.964428 0.865524 0.417046
O O2 0.617704 0.922278 0.362577
O O3 0.992462 0.838326 0.334715
O O4 0.000000 0.000000 0.365977
O O5 0.250000 0.750000 0.553489
O O6 0.484082 0.646140 0.503983
O O7 0.535576 0.634478 0.590921
O O8 0.750000 0.750000 0.548363
O O9 0.250000 0.750000 0.724832
O O10 0.165636 0.565284 0.703981
O O11 0.507538 0.661674 0.673252
O O12 0.500000 0.617246 0.753984
O O13 0.117704 0.422278 0.645391
O O14 0.250000 0.250000 0.459604
O O15 0.750000 0.250000 0.454477
O O16 0.334365 0.934715 0.303987
O O17 0.000000 0.000000 0.141989
O O18 0.750000 0.750000 0.783135
#
# Coordination Sequence:
#
# PCOD9355107 Si02
#       8
#     8   8   8   4   8   4   8   8
#     4  10  24  42  67  96 133 182 226 292 358 418
#     4  10  23  42  69 102 137 181 234 291 352 423
#     4  11  27  45  68 101 132 186 237 289 361 434
#     4  10  26  47  65  98 140 176 233 302 354 431
#     4  10  23  42  69 102 137 181 234 291 352 423
#     4  10  26  47  65  98 140 176 233 302 354 431
#     4  10  24  42  67  96 133 182 226 292 358 418
#     4  11  27  45  68 101 132 186 237 289 361 434
#
# _framework density 21.438319
#
# number of rings (size 3 to 8) (size 9 to 14) (size 15 to 20)
#    0.000    1.714    0.000    0.857   16.000    6.857 
#    0.000    0.714    0.000    0.000    0.000    0.000 
#    0.000    0.000    0.000    0.000    0.000    0.000 
#
# Total GULP energy -156071.807638 kJ/mol
# GULP energy per Si atom -5573.993130 kJ/mol
# Density = 2.138952 g / cm^3
# Si number density = 21.438319 Si / 1000 Ang^3
#
#
#
# Elastic Constant Matrix: (Units=GPa)
#
#
# Indices 1 2 3 4 5 6 
#
# 1 107.8731 36.7542 52.1640 0.0000 0.0000 0.0000
# 2 36.7542 63.5233 38.3067 0.0000 0.0000 0.0000
# 3 52.1640 38.3067 161.4218 0.0000 0.0000 0.0000
# 4 0.0000 0.0000 0.0000 39.3495 0.0000 0.0000
# 5 0.0000 0.0000 0.0000 0.0000 36.6550 0.0000
# 6 0.0000 0.0000 0.0000 0.0000 0.0000 10.9406
#
#
#
# Elastic Compliance Matrix: (Units=1/GPa)
#
#
# Indices 1 2 3 4 5 6 
#
# 1 0.012484 -0.005590 -0.002708 0.000000 0.000000 0.000000
# 2 -0.005590 0.020875 -0.003147 0.000000 0.000000 0.000000
# 3 -0.002708 -0.003147 0.007817 0.000000 0.000000 0.000000
# 4 0.000000 0.000000 0.000000 0.025413 0.000000 0.000000
# 5 0.000000 0.000000 0.000000 0.000000 0.027281 0.000000
# 6 0.000000 0.000000 0.000000 0.000000 0.000000 0.091402
#
#
# Mechanical properties :
#
#
# Convention : Reuss Voigt Hill
#
# Bulk Modulus (GPa) = 54.68922 65.25200 59.97061
# Shear Modulus (GPa) = 23.33631 31.09526 27.21579
#
# Velocity S-wave (km/s) = 3.30287 3.81261 3.56686
# Velocity P-wave (km/s) = 6.33330 7.06290 6.70803
#
# Compressibility (1/GPa) = 0.01828514
#
# Stress axis : x y z
#
# Youngs Moduli (GPa) = 80.10083 47.90483 127.92977
#
# Poissons Ratio (x) = 0.26781 0.34639
# Poissons Ratio (y) = 0.44780 0.40261
# Poissons Ratio (z) = 0.21689 0.15076
#
# Static dielectric constant tensor:
#      x y z
#    x 2.149680 0.000000 0.000000 
#    y 0.000000 1.767150 0.000000 
#    z 0.000000 0.000000 1.804440 
# 
# From -- ./inp_files/20210.got.cif
#   From: 2010.05.17/outbox.cif.g08.bks.cpg/sg37_11_cif.got.tgz:20210.got - 2010.06.03 17:53:42.
