data_PCOD9355271
_publ_section_title
;
Structure prediction by ZEFSAII (Michael W. Deem and Ramdas Pophale) SiO2 
 PCOD9355271
Probable space group: C C C 2
;
_chemical_formula_sum "Si O2"
_cell_formula_units_Z 44
_cell_length_a 25.052111
_cell_length_b 5.735411
_cell_length_c 13.525952
_cell_angle_alpha 90.000000
_cell_angle_beta 90.000000
_cell_angle_gamma 90.000000
_cell_volume 1943.464957
_symmetry_space_group_name_H-M "C C C 2"
_symmetry_group_IT_number 37
_symmetry_cell_setting 'orthorhombic'
loop_
_space_group_symop_operation_xyz
x,y,z
-x,-y,z
-x,y,1/2+z
x,-y,1/2+z
1/2+x,1/2+y,z
1/2-x,1/2-y,z
1/2-x,1/2+y,1/2+z
1/2+x,1/2-y,1/2+z
loop_
_atom_site_type_symbol
_atom_site_label
_atom_site_fract_x
_atom_site_fract_y
_atom_site_fract_z
Si Si1 0.554463 0.353706 0.957040
Si Si2 0.942961 0.440305 0.152944
Si Si3 0.111146 0.495875 0.831609
Si Si4 0.631806 0.266531 0.534444
Si Si5 0.250000 0.750000 0.618573
Si Si6 0.266627 0.008061 0.308416
O O1 0.500000 0.500000 0.939823
O O2 0.573117 0.212705 0.860025
O O3 0.606257 0.491093 0.999483
O O4 0.543289 0.193111 0.052410
O O5 0.912834 0.329932 0.246713
O O6 0.000000 0.500000 0.195580
O O7 0.904772 0.655280 0.120901
O O8 0.120180 0.383472 0.937591
O O9 0.170649 0.545572 0.797321
O O10 0.694330 0.249737 0.559924
O O11 0.255889 0.537372 0.697135
O O12 0.250000 0.750000 0.345280
O O13 0.250000 0.250000 0.364249
#
# Coordination Sequence:
#
# PCOD9355271 Si02
#       6
#     8   8   8   8   4   8
#     4  11  26  46  70 104 147 191 252 312 381 459
#     4  11  23  45  68  98 144 193 238 304 379 446
#     4  11  27  42  71 109 145 194 251 312 379 455
#     4  11  25  45  68 106 146 188 243 308 374 445
#     4  10  24  44  72 102 144 198 242 310 380 450
#     4  10  24  44  72 104 149 193 258 306 375 463
#
# _framework density 22.639976999999998
#
# number of rings (size 3 to 8) (size 9 to 14) (size 15 to 20)
#    0.545    0.727    3.636    0.000    8.909    1.455 
#    0.000    0.000    0.000    0.000    0.000    0.000 
#    0.000    0.000    0.000    0.000    0.000    0.000 
#
# Total GULP energy -122490.706500 kJ/mol
# GULP energy per Si atom -5567.759386 kJ/mol
# Density = 2.258845 g / cm^3
# Si number density = 22.639977 Si / 1000 Ang^3
#
#
#
# Elastic Constant Matrix: (Units=GPa)
#
#
# Indices 1 2 3 4 5 6 
#
# 1 132.3075 30.6189 31.5537 0.0000 0.0000 0.0000
# 2 30.6189 87.6344 11.1919 0.0000 0.0000 0.0000
# 3 31.5537 11.1919 83.0055 0.0000 0.0000 0.0000
# 4 0.0000 0.0000 0.0000 1806.4616 0.0000 0.0000
# 5 0.0000 0.0000 0.0000 0.0000 18.6371 0.0000
# 6 0.0000 0.0000 0.0000 0.0000 0.0000 29.3638
#
#
#
# Elastic Compliance Matrix: (Units=1/GPa)
#
#
# Indices 1 2 3 4 5 6 
#
# 1 0.008909 -0.002727 -0.003019 0.000000 0.000000 0.000000
# 2 -0.002727 0.012446 -0.000641 0.000000 0.000000 0.000000
# 3 -0.003019 -0.000641 0.013282 0.000000 0.000000 0.000000
# 4 0.000000 0.000000 0.000000 0.000554 0.000000 0.000000
# 5 0.000000 0.000000 0.000000 0.000000 0.053656 0.000000
# 6 0.000000 0.000000 0.000000 0.000000 0.000000 0.034056
#
#
# Mechanical properties :
#
#
# Convention : Reuss Voigt Hill
#
# Bulk Modulus (GPa) = 45.74297 49.96405 47.85351
# Shear Modulus (GPa) = 34.97366 386.19803 210.58584
#
# Velocity S-wave (km/s) = 3.93463 13.07489 9.65489
# Velocity P-wave (km/s) = 6.39454 15.81309 12.06117
#
# Compressibility (1/GPa) = 0.02186128
#
# Stress axis : x y z
#
# Youngs Moduli (GPa) = 112.24201 80.34802 75.29249
#
# Poissons Ratio (x) = 0.21913 0.22731
# Poissons Ratio (y) = 0.30612 0.04829
# Poissons Ratio (z) = 0.33887 0.05153
#
# Static dielectric constant tensor:
#      x y z
#    x 1.811400 0.000000 0.000000 
#    y 0.000000 -21.306390 0.000000 
#    z 0.000000 0.000000 1.909390 
# 
# From -- ./inp_files/13226.got.cif
#   From: 2010.05.17/outbox.cif.g08.bks.cpg/sg37_7_cif.got.tgz:13226.got - 2010.06.03 17:53:42.
