data_PCOD9355874
_publ_section_title
;
Structure prediction by ZEFSAII (Michael W. Deem and Ramdas Pophale) SiO2 
 PCOD9355874
Probable space group: A M M 2
;
_chemical_formula_sum "Si O2"
_cell_formula_units_Z 64
_cell_length_a 8.678790
_cell_length_b 23.326512
_cell_length_c 13.541207
_cell_angle_alpha 90.000000
_cell_angle_beta 90.000000
_cell_angle_gamma 90.000000
_cell_volume 2741.361826
_symmetry_space_group_name_H-M "A M M 2"
_symmetry_group_IT_number 38
_symmetry_cell_setting 'orthorhombic'
loop_
_space_group_symop_operation_xyz
x,y,z
-x,-y,z
-x,y,z
x,-y,z
x,1/2+y,1/2+z
-x,1/2-y,1/2+z
-x,1/2+y,1/2+z
x,1/2-y,1/2+z
loop_
_atom_site_type_symbol
_atom_site_label
_atom_site_fract_x
_atom_site_fract_y
_atom_site_fract_z
Si Si1 0.169261 0.804273 0.444860
Si Si2 0.325193 0.201522 0.703102
Si Si3 0.323022 0.416674 0.973532
Si Si4 0.823242 0.414071 0.174765
Si Si5 0.314022 0.563267 0.747616
Si Si6 0.173547 0.182021 0.206937
Si Si7 0.683681 0.435939 0.389372
Si Si8 0.819878 0.680228 0.408737
O O1 0.303053 0.847719 0.472126
O O2 0.162750 0.807527 0.325468
O O3 0.188212 0.737905 0.472651
O O4 0.000000 0.825052 0.478798
O O5 0.500000 0.186526 0.677413
O O6 0.204600 0.154426 0.665874
O O7 0.283431 0.266131 0.675272
O O8 0.298780 0.194188 0.820487
O O9 0.500000 0.432776 0.983099
O O10 0.268491 0.435086 0.864464
O O11 0.233688 0.437371 0.069943
O O12 0.728395 0.431990 0.272370
O O13 0.000000 0.427772 0.192292
O O14 0.500000 0.569507 0.744980
O O15 0.274357 0.500000 0.708571
O O16 0.239210 0.618128 0.695759
O O17 0.000000 0.186678 0.166462
O O18 0.500000 0.429181 0.399450
O O19 0.726014 0.500000 0.423532
O O20 0.770188 0.383000 0.442127
O O21 0.000000 0.677197 0.375414
#
# Coordination Sequence:
#
# PCOD9355874 Si02
#       8
#     8   8   8   8   8   8   8   8
#     4   8  15  27  42  61  83 107 136 174 218 260
#     4  10  17  27  44  63  83 107 138 176 219 263
#     4  10  19  30  44  62  85 116 151 184 217 254
#     4  11  21  32  45  61  85 116 149 184 219 257
#     4   9  18  31  45  62  86 117 151 184 217 254
#     4   9  16  27  43  63  85 108 138 176 219 262
#     4  10  20  32  45  62  86 116 150 185 217 253
#     4   9  16  27  44  64  85 108 137 175 218 261
#
# _framework density 23.346060999999999
#
# number of rings (size 3 to 8) (size 9 to 14) (size 15 to 20)
#    0.000    2.500    0.000    6.000    0.000    5.750 
#    0.000    1.250    0.000    0.000    0.000    0.000 
#    0.000    1.000    0.000    7.250    0.000    6.500 
#
# Total GULP energy -178598.177491 kJ/mol
# GULP energy per Si atom -5581.193047 kJ/mol
# Density = 2.329292 g / cm^3
# Si number density = 23.346061 Si / 1000 Ang^3
#
#
#
# Elastic Constant Matrix: (Units=GPa)
#
#
# Indices 1 2 3 4 5 6 
#
# 1 80.2362 40.4217 5.5290 0.0000 0.0000 0.0000
# 2 40.4217 200.9227 -10.1875 0.0000 0.0000 0.0000
# 3 5.5290 -10.1875 41.8372 0.0000 0.0000 0.0000
# 4 0.0000 0.0000 0.0000 -14.8257 0.0000 0.0000
# 5 0.0000 0.0000 0.0000 0.0000 16.4573 0.0000
# 6 0.0000 0.0000 0.0000 0.0000 0.0000 13.0631
#
#
#
# Elastic Compliance Matrix: (Units=1/GPa)
#
#
# Indices 1 2 3 4 5 6 
#
# 1 0.014141 -0.002976 -0.002594 0.000000 0.000000 0.000000
# 2 -0.002976 0.005666 0.001773 0.000000 0.000000 0.000000
# 3 -0.002594 0.001773 0.024677 0.000000 0.000000 0.000000
# 4 0.000000 0.000000 0.000000 -0.067450 0.000000 0.000000
# 5 0.000000 0.000000 0.000000 0.000000 0.060763 0.000000
# 6 0.000000 0.000000 0.000000 0.000000 0.000000 0.076552
#
#
# Mechanical properties :
#
#
# Convention : Reuss Voigt Hill
#
# Bulk Modulus (GPa) = 27.10794 43.83583 35.47189
# Shear Modulus (GPa) = 37.24700 22.08781 29.66740
#
# Velocity S-wave (km/s) = 3.99862 3.07922 3.56865
# Velocity P-wave (km/s) = 5.74066 5.60887 5.67515
#
# Compressibility (1/GPa) = 0.03688955
#
# Stress axis : x y z
#
# Youngs Moduli (GPa) = 70.71420 176.49932 40.52410
#
# Poissons Ratio (x) = 0.52535 0.10511
# Poissons Ratio (y) = 0.21048 -0.07185
# Poissons Ratio (z) = 0.18341 -0.31293
#
# Static dielectric constant tensor:
#      x y z
#    x 1.795380 0.000000 0.000000 
#    y 0.000000 1.928140 0.000000 
#    z 0.000000 0.000000 1.981380 
# 
# From -- ./inp_files/17279.got.cif
#   From: 2010.05.17/outbox.cif.g08.bks.cpg/sg38_9_cif.got.tgz:17279.got - 2010.06.03 18:07:57.
