data_PCOD9355161
_publ_section_title
;
Structure prediction by ZEFSAII (Michael W. Deem and Ramdas Pophale) SiO2 
 PCOD9355161
Probable space group: C C C 2
;
_chemical_formula_sum "Si O2"
_cell_formula_units_Z 40
_cell_length_a 13.412747
_cell_length_b 6.207076
_cell_length_c 20.792609
_cell_angle_alpha 90.000000
_cell_angle_beta 90.000000
_cell_angle_gamma 90.000000
_cell_volume 1731.066622
_symmetry_space_group_name_H-M "C C C 2"
_symmetry_group_IT_number 37
_symmetry_cell_setting 'orthorhombic'
loop_
_space_group_symop_operation_xyz
x,y,z
-x,-y,z
-x,y,1/2+z
x,-y,1/2+z
1/2+x,1/2+y,z
1/2-x,1/2-y,z
1/2-x,1/2+y,1/2+z
1/2+x,1/2-y,1/2+z
loop_
_atom_site_type_symbol
_atom_site_label
_atom_site_fract_x
_atom_site_fract_y
_atom_site_fract_z
Si Si1 0.893482 0.877432 0.973410
Si Si2 0.854859 0.147723 0.093993
Si Si3 0.500000 0.000000 0.037113
Si Si4 0.106519 0.122566 0.831257
Si Si5 0.645142 0.647723 0.210675
Si Si6 0.500000 0.000000 0.767554
O O1 0.848338 0.890248 0.902334
O O2 0.000000 0.000000 0.970721
O O3 0.922423 0.636236 0.994050
O O4 0.837742 0.000246 0.030600
O O5 0.750000 0.250000 0.112787
O O6 0.936013 0.329608 0.077688
O O7 0.889007 0.000004 0.152335
O O8 0.077577 0.363761 0.810617
O O9 0.162260 0.999749 0.774069
O O10 0.000000 0.000000 0.833946
O O11 0.750000 0.750000 0.191879
O O12 0.563989 0.829610 0.226979
#
# Coordination Sequence:
#
# PCOD9355161 Si02
#       6
#     8   8   4   8   8   4
#     4   9  20  41  70 103 134 174 225 277 343 416
#     4  11  27  45  67 100 139 178 231 285 337 409
#     4  10  23  45  70  96 135 181 220 286 347 405
#     4   9  20  41  70 103 134 174 225 277 343 416
#     4  11  27  45  67 100 139 178 231 285 337 409
#     4  10  23  45  70  96 135 181 220 286 347 405
#
# _framework density 23.107139
#
# number of rings (size 3 to 8) (size 9 to 14) (size 15 to 20)
#    0.000    2.000    0.000    0.600    5.600   11.200 
#    0.000    2.000    0.000    0.000    0.000    0.000 
#    0.000    0.000    0.000    0.000    0.000    0.000 
#
# Total GULP energy -111958.458661 kJ/mol
# GULP energy per Si atom -5597.922933 kJ/mol
# Density = 2.305455 g / cm^3
# Si number density = 23.107139 Si / 1000 Ang^3
#
#
#
# Elastic Constant Matrix: (Units=GPa)
#
#
# Indices 1 2 3 4 5 6 
#
# 1 60.8363 21.1769 29.0640 0.0000 0.0000 0.0000
# 2 21.1769 145.1657 87.6222 0.0000 0.0000 0.0000
# 3 29.0640 87.6222 165.7221 0.0000 0.0000 0.0000
# 4 0.0000 0.0000 0.0000 13.4942 0.0000 0.0000
# 5 0.0000 0.0000 0.0000 0.0000 19.8593 0.0000
# 6 0.0000 0.0000 0.0000 0.0000 0.0000 26.4298
#
#
#
# Elastic Compliance Matrix: (Units=1/GPa)
#
#
# Indices 1 2 3 4 5 6 
#
# 1 0.018051 -0.001061 -0.002605 0.000000 0.000000 0.000000
# 2 -0.001061 0.010180 -0.005196 0.000000 0.000000 0.000000
# 3 -0.002605 -0.005196 0.009238 0.000000 0.000000 0.000000
# 4 0.000000 0.000000 0.000000 0.074106 0.000000 0.000000
# 5 0.000000 0.000000 0.000000 0.000000 0.050354 0.000000
# 6 0.000000 0.000000 0.000000 0.000000 0.000000 0.037836
#
#
# Mechanical properties :
#
#
# Convention : Reuss Voigt Hill
#
# Bulk Modulus (GPa) = 50.64487 71.93892 61.29190
# Shear Modulus (GPa) = 22.31419 27.54738 24.93079
#
# Velocity S-wave (km/s) = 3.11092 3.45651 3.28826
# Velocity P-wave (km/s) = 5.90498 6.86515 6.40309
#
# Compressibility (1/GPa) = 0.01974534
#
# Stress axis : x y z
#
# Youngs Moduli (GPa) = 55.39757 98.23165 108.24271
#
# Poissons Ratio (x) = 0.10423 0.28195
# Poissons Ratio (y) = 0.05878 0.56247
# Poissons Ratio (z) = 0.14430 0.51045
#
# Static dielectric constant tensor:
#      x y z
#    x 1.828440 0.000000 0.000000 
#    y 0.000000 1.867980 0.000000 
#    z 0.000000 0.000000 1.881210 
# 
# From -- ./inp_files/18814.got.cif
#   From: 2010.05.17/outbox.cif.g08.bks.cpg/sg37_10_cif.got.tgz:18814.got - 2010.06.03 17:53:42.
