data_PCOD9355050
_publ_section_title
;
Structure prediction by ZEFSAII (Michael W. Deem and Ramdas Pophale) SiO2 
 PCOD9355050
Probable space group: C C C 2
;
_chemical_formula_sum "Si O2"
_cell_formula_units_Z 60
_cell_length_a 17.926864
_cell_length_b 20.571296
_cell_length_c 7.828223
_cell_angle_alpha 90.000000
_cell_angle_beta 90.000000
_cell_angle_gamma 90.000000
_cell_volume 2886.882885
_symmetry_space_group_name_H-M "C C C 2"
_symmetry_group_IT_number 37
_symmetry_cell_setting 'orthorhombic'
loop_
_space_group_symop_operation_xyz
x,y,z
-x,-y,z
-x,y,1/2+z
x,-y,1/2+z
1/2+x,1/2+y,z
1/2-x,1/2-y,z
1/2-x,1/2+y,1/2+z
1/2+x,1/2-y,1/2+z
loop_
_atom_site_type_symbol
_atom_site_label
_atom_site_fract_x
_atom_site_fract_y
_atom_site_fract_z
Si Si1 0.561112 0.794432 0.213360
Si Si2 0.000000 0.000000 0.359069
Si Si3 0.242890 0.427284 0.777571
Si Si4 0.586379 0.734996 0.583086
Si Si5 0.157369 0.485256 0.481295
Si Si6 0.095650 0.918279 0.110481
Si Si7 0.679880 0.792264 0.904726
Si Si8 0.445306 0.938736 0.697936
O O1 0.590904 0.773202 0.400821
O O2 0.496260 0.745987 0.157354
O O3 0.523379 0.866615 0.208577
O O4 0.622268 0.796171 0.062290
O O5 0.931739 0.967448 0.463050
O O6 0.035671 0.940158 0.254067
O O7 0.176640 0.444874 0.646756
O O8 0.322126 0.427885 0.687530
O O9 0.218470 0.360166 0.858923
O O10 0.233830 0.484174 0.915538
O O11 0.594533 0.657491 0.558399
O O12 0.641599 0.762096 0.732478
O O13 0.100558 0.543541 0.527692
O O14 0.116430 0.441070 0.345520
O O15 0.750000 0.750000 0.961185
O O16 0.500000 0.000000 0.718366
#
# Coordination Sequence:
#
# PCOD9355050 Si02
#       8
#     8   4   8   8   8   8   8   8
#     4  12  27  45  69 106 142 191 240 293 355 427
#     4  10  24  42  76 102 134 170 234 286 370 432
#     4  11  22  44  66  95 139 177 225 284 358 407
#     4  12  26  44  74 102 142 188 239 291 356 430
#     4  10  23  38  63  95 130 175 227 282 343 409
#     4  11  23  46  69 104 132 179 226 295 356 436
#     4  12  26  48  71 101 142 190 235 298 353 424
#     4  11  24  38  62  95 131 181 232 283 331 401
#
# _framework density 20.783660999999999
#
# number of rings (size 3 to 8) (size 9 to 14) (size 15 to 20)
#    0.000    0.800    4.000    2.800    7.467    0.533 
#    2.400    0.000    0.000    0.000    0.000    0.000 
#    0.000    0.000    0.000    0.000    0.000    0.000 
#
# Total GULP energy -167409.924257 kJ/mol
# GULP energy per Si atom -5580.330809 kJ/mol
# Density = 2.073636 g / cm^3
# Si number density = 20.783661 Si / 1000 Ang^3
#
#
#
# Elastic Constant Matrix: (Units=GPa)
#
#
# Indices 1 2 3 4 5 6 
#
# 1 79.0032 20.0803 14.5427 0.0000 0.0000 0.0000
# 2 20.0803 86.0722 17.9087 0.0000 0.0000 0.0000
# 3 14.5427 17.9087 88.3818 0.0000 0.0000 0.0000
# 4 0.0000 0.0000 0.0000 16.7231 0.0000 0.0000
# 5 0.0000 0.0000 0.0000 0.0000 23.9319 0.0000
# 6 0.0000 0.0000 0.0000 0.0000 0.0000 23.5558
#
#
#
# Elastic Compliance Matrix: (Units=1/GPa)
#
#
# Indices 1 2 3 4 5 6 
#
# 1 0.013689 -0.002845 -0.001676 0.000000 0.000000 0.000000
# 2 -0.002845 0.012721 -0.002109 0.000000 0.000000 0.000000
# 3 -0.001676 -0.002109 0.012018 0.000000 0.000000 0.000000
# 4 0.000000 0.000000 0.000000 0.059798 0.000000 0.000000
# 5 0.000000 0.000000 0.000000 0.000000 0.041785 0.000000
# 6 0.000000 0.000000 0.000000 0.000000 0.000000 0.042452
#
#
# Mechanical properties :
#
#
# Convention : Reuss Voigt Hill
#
# Bulk Modulus (GPa) = 39.73461 39.83562 39.78511
# Shear Modulus (GPa) = 24.49625 26.23720 25.36673
#
# Velocity S-wave (km/s) = 3.43684 3.55688 3.49737
# Velocity P-wave (km/s) = 5.90837 6.00640 5.95759
#
# Compressibility (1/GPa) = 0.02516698
#
# Stress axis : x y z
#
# Youngs Moduli (GPa) = 73.04955 78.61158 83.21010
#
# Poissons Ratio (x) = 0.22365 0.13946
# Poissons Ratio (y) = 0.20782 0.17553
# Poissons Ratio (z) = 0.12243 0.16583
#
# Static dielectric constant tensor:
#      x y z
#    x 1.719510 0.000000 0.000000 
#    y 0.000000 1.758410 0.000000 
#    z 0.000000 0.000000 1.793570 
# 
# From -- ./inp_files/4100.got.cif
#   From: 2010.05.17/outbox.cif.g08.bks.cpg/sg37_3_cif.got.tgz:4100.got - 2010.06.03 17:53:42.
