data_PCOD9355115
_publ_section_title
;
Structure prediction by ZEFSAII (Michael W. Deem and Ramdas Pophale) SiO2 
 PCOD9355115
Probable space group: C C C 2
;
_chemical_formula_sum "Si O2"
_cell_formula_units_Z 32
_cell_length_a 15.822506
_cell_length_b 9.149266
_cell_length_c 8.897802
_cell_angle_alpha 90.000000
_cell_angle_beta 90.000000
_cell_angle_gamma 90.000000
_cell_volume 1288.084222
_symmetry_space_group_name_H-M "C C C 2"
_symmetry_group_IT_number 37
_symmetry_cell_setting 'orthorhombic'
loop_
_space_group_symop_operation_xyz
x,y,z
-x,-y,z
-x,y,1/2+z
x,-y,1/2+z
1/2+x,1/2+y,z
1/2-x,1/2-y,z
1/2-x,1/2+y,1/2+z
1/2+x,1/2-y,1/2+z
loop_
_atom_site_type_symbol
_atom_site_label
_atom_site_fract_x
_atom_site_fract_y
_atom_site_fract_z
Si Si1 0.312200 0.589103 0.575880
Si Si2 0.557580 0.796808 0.947073
Si Si3 0.898597 0.780969 0.631386
Si Si4 0.305810 0.043566 0.796126
O O1 0.379858 0.718373 0.565416
O O2 0.362286 0.435501 0.581345
O O3 0.243911 0.584175 0.710724
O O4 0.260592 0.593769 0.420775
O O5 0.558352 0.700243 0.795362
O O6 0.603860 0.944531 0.884684
O O7 0.467176 0.789420 0.021969
O O8 0.826259 0.661195 0.665262
#
# Coordination Sequence:
#
# PCOD9355115 Si02
#       4
#     8   8   8   8
#     4  12  19  42  71  92 128 168 220 268 313 378
#     4  10  23  43  64  97 134 164 213 269 320 381
#     4  10  23  43  64  97 134 164 213 269 320 381
#     4  10  25  44  62 100 131 166 220 264 318 382
#
# _framework density 24.843095000000002
#
# number of rings (size 3 to 8) (size 9 to 14) (size 15 to 20)
#    1.500    0.000    2.500    3.750    3.500    2.000 
#    4.500    6.250    0.000    0.000    0.000    0.000 
#    0.000    0.000    0.000    0.000    0.000    0.000 
#
# Total GULP energy -89220.934657 kJ/mol
# GULP energy per Si atom -5576.308416 kJ/mol
# Density = 2.478655 g / cm^3
# Si number density = 24.843095 Si / 1000 Ang^3
#
#
#
# Elastic Constant Matrix: (Units=GPa)
#
#
# Indices 1 2 3 4 5 6 
#
# 1 148.4602 63.4443 69.1407 0.0000 0.0000 0.0000
# 2 63.4443 100.5202 56.3275 0.0000 0.0000 0.0000
# 3 69.1407 56.3275 80.9671 0.0000 0.0000 0.0000
# 4 0.0000 0.0000 0.0000 7.4246 0.0000 0.0000
# 5 0.0000 0.0000 0.0000 0.0000 64.2869 0.0000
# 6 0.0000 0.0000 0.0000 0.0000 0.0000 38.7603
#
#
#
# Elastic Compliance Matrix: (Units=1/GPa)
#
#
# Indices 1 2 3 4 5 6 
#
# 1 0.011685 -0.002923 -0.007945 0.000000 0.000000 0.000000
# 2 -0.002923 0.017035 -0.009355 0.000000 0.000000 0.000000
# 3 -0.007945 -0.009355 0.025643 0.000000 0.000000 0.000000
# 4 0.000000 0.000000 0.000000 0.134687 0.000000 0.000000
# 5 0.000000 0.000000 0.000000 0.000000 0.015555 0.000000
# 6 0.000000 0.000000 0.000000 0.000000 0.000000 0.025800
#
#
# Mechanical properties :
#
#
# Convention : Reuss Voigt Hill
#
# Bulk Modulus (GPa) = 71.85075 78.64140 75.24608
# Shear Modulus (GPa) = 18.14950 31.49672 24.82311
#
# Velocity S-wave (km/s) = 2.70583 3.56452 3.16443
# Velocity P-wave (km/s) = 6.22468 6.97603 6.61104
#
# Compressibility (1/GPa) = 0.01391774
#
# Stress axis : x y z
#
# Youngs Moduli (GPa) = 85.57975 58.70104 38.99707
#
# Poissons Ratio (x) = 0.17160 0.30981
# Poissons Ratio (y) = 0.25017 0.36482
# Poissons Ratio (z) = 0.67989 0.54915
#
# Static dielectric constant tensor:
#      x y z
#    x 1.969190 0.000000 0.000000 
#    y 0.000000 2.092140 0.000000 
#    z 0.000000 0.000000 1.974340 
# 
# From -- ./inp_files/2620.got.cif
#   From: 2010.05.17/outbox.cif.g08.bks.cpg/sg37_2_cif.got.tgz:2620.got - 2010.06.03 17:53:42.
