data_PCOD9355959
_publ_section_title
;
Structure prediction by ZEFSAII (Michael W. Deem and Ramdas Pophale) SiO2 
 PCOD9355959
Probable space group: A M M 2
;
_chemical_formula_sum "Si O2"
_cell_formula_units_Z 44
_cell_length_a 8.422458
_cell_length_b 21.923883
_cell_length_c 10.216132
_cell_angle_alpha 90.000000
_cell_angle_beta 90.000000
_cell_angle_gamma 90.000000
_cell_volume 1886.439256
_symmetry_space_group_name_H-M "A M M 2"
_symmetry_group_IT_number 38
_symmetry_cell_setting 'orthorhombic'
loop_
_space_group_symop_operation_xyz
x,y,z
-x,-y,z
-x,y,z
x,-y,z
x,1/2+y,1/2+z
-x,1/2-y,1/2+z
-x,1/2+y,1/2+z
x,1/2-y,1/2+z
loop_
_atom_site_type_symbol
_atom_site_label
_atom_site_fract_x
_atom_site_fract_y
_atom_site_fract_z
Si Si1 0.315507 0.500000 0.158571
Si Si2 0.676055 0.372392 0.015107
Si Si3 0.677422 0.372269 0.538278
Si Si4 0.000000 0.805586 0.779259
Si Si5 0.813148 0.500000 0.444872
Si Si6 0.000000 0.820615 0.059041
Si Si7 0.334968 0.789548 0.776249
Si Si8 0.000000 0.824807 0.497527
O O1 0.500000 0.500000 0.204821
O O2 0.295208 0.560141 0.071239
O O3 0.209848 0.500000 0.287945
O O4 0.500000 0.371165 0.952294
O O5 0.663079 0.327719 0.141793
O O6 0.833993 0.349284 0.942180
O O7 0.500000 0.369473 0.597511
O O8 0.725757 0.440680 0.502249
O O9 0.830440 0.343235 0.611167
O O10 0.663883 0.333718 0.402411
O O11 0.000000 0.846675 0.908404
O O12 0.842568 0.764781 0.779834
O O13 0.000000 0.847217 0.650817
O O14 0.000000 0.500000 0.478051
O O15 0.000000 0.748095 0.026767
O O16 0.500000 0.753327 0.781375
#
# Coordination Sequence:
#
# PCOD9355959 Si02
#       8
#     4   8   8   4   4   4   8   4
#     4  10  18  26  40  66  98 127 156 184 219 284
#     4   9  17  27  40  61  88 119 151 182 221 269
#     4  10  18  29  42  60  89 121 151 185 223 265
#     4   8  16  28  42  57  80 109 144 188 226 252
#     4  12  20  24  42  69  99 126 154 183 222 284
#     4  10  20  33  44  65  85 118 166 195 225 273
#     4   8  13  22  37  56  80 110 142 170 202 253
#     4  10  20  31  46  61  87 120 158 199 229 263
#
# _framework density 23.324365
#
# number of rings (size 3 to 8) (size 9 to 14) (size 15 to 20)
#    0.000    2.545    2.727    0.818    1.273    0.727 
#    0.000    0.000    0.000    0.000    0.000    0.000 
#    0.000    2.909    0.000    4.182    0.000    0.000 
#
# Total GULP energy -122572.166379 kJ/mol
# GULP energy per Si atom -5571.462108 kJ/mol
# Density = 2.327128 g / cm^3
# Si number density = 23.324365 Si / 1000 Ang^3
#
#
#
# Elastic Constant Matrix: (Units=GPa)
#
#
# Indices 1 2 3 4 5 6 
#
# 1 318.9125 65.7177 2.6646 0.0000 0.0000 0.0000
# 2 65.7177 113.6025 11.6478 0.0000 0.0000 0.0000
# 3 2.6646 11.6478 34.3317 0.0000 0.0000 0.0000
# 4 0.0000 0.0000 0.0000 27.6660 0.0000 0.0000
# 5 0.0000 0.0000 0.0000 0.0000 -75.9812 0.0000
# 6 0.0000 0.0000 0.0000 0.0000 0.0000 61.9128
#
#
#
# Elastic Compliance Matrix: (Units=1/GPa)
#
#
# Indices 1 2 3 4 5 6 
#
# 1 0.003566 -0.002108 0.000438 0.000000 0.000000 0.000000
# 2 -0.002108 0.010366 -0.003353 0.000000 0.000000 0.000000
# 3 0.000438 -0.003353 0.030231 0.000000 0.000000 0.000000
# 4 0.000000 0.000000 0.000000 0.036145 0.000000 0.000000
# 5 0.000000 0.000000 0.000000 0.000000 -0.013161 0.000000
# 6 0.000000 0.000000 0.000000 0.000000 0.000000 0.016152
#
#
# Mechanical properties :
#
#
# Convention : Reuss Voigt Hill
#
# Bulk Modulus (GPa) = 29.31027 69.65631 49.48329
# Shear Modulus (GPa) = 47.74728 28.50730 38.12729
#
# Velocity S-wave (km/s) = 4.52940 3.49981 4.04747
# Velocity P-wave (km/s) = 6.32041 6.80151 6.56537
#
# Compressibility (1/GPa) = 0.03411774
#
# Stress axis : x y z
#
# Youngs Moduli (GPa) = 280.39484 96.46992 33.07837
#
# Poissons Ratio (x) = 0.20337 -0.01450
# Poissons Ratio (y) = 0.59109 0.11092
# Poissons Ratio (z) = -0.12293 0.32349
#
# Static dielectric constant tensor:
#      x y z
#    x 2.023680 0.000000 0.000000 
#    y 0.000000 1.818910 0.000000 
#    z 0.000000 0.000000 1.955220 
# 
# From -- ./inp_files/11997.got.cif
#   From: 2010.05.17/outbox.cif.g08.bks.cpg/sg38_6_cif.got.tgz:11997.got - 2010.06.03 18:07:57.
