data_PCOD9355016
_publ_section_title
;
Structure prediction by ZEFSAII (Michael W. Deem and Ramdas Pophale) SiO2 
 PCOD9355016
Probable space group: C C C 2
;
_chemical_formula_sum "Si O2"
_cell_formula_units_Z 48
_cell_length_a 16.018615
_cell_length_b 11.218690
_cell_length_c 12.148006
_cell_angle_alpha 90.000000
_cell_angle_beta 90.000000
_cell_angle_gamma 90.000000
_cell_volume 2183.092355
_symmetry_space_group_name_H-M "C C C 2"
_symmetry_group_IT_number 37
_symmetry_cell_setting 'orthorhombic'
loop_
_space_group_symop_operation_xyz
x,y,z
-x,-y,z
-x,y,1/2+z
x,-y,1/2+z
1/2+x,1/2+y,z
1/2-x,1/2-y,z
1/2-x,1/2+y,1/2+z
1/2+x,1/2-y,1/2+z
loop_
_atom_site_type_symbol
_atom_site_label
_atom_site_fract_x
_atom_site_fract_y
_atom_site_fract_z
Si Si1 0.660357 0.082576 0.167640
Si Si2 0.354920 0.455942 0.622802
Si Si3 0.415282 0.283789 0.786438
Si Si4 0.653058 0.716800 0.024642
Si Si5 0.912111 0.343399 0.737384
Si Si6 0.150848 0.264067 0.471992
O O1 0.756320 0.046220 0.152894
O O2 0.658641 0.205039 0.234831
O O3 0.605746 0.984664 0.231809
O O4 0.625823 0.122459 0.047580
O O5 0.405317 0.413690 0.731261
O O6 0.364522 0.586596 0.574827
O O7 0.380153 0.357444 0.530115
O O8 0.496459 0.213257 0.745407
O O9 0.403263 0.277167 0.916059
O O10 0.750000 0.750000 0.998256
O O11 0.627324 0.804384 0.122036
O O12 0.869820 0.288072 0.846007
O O13 0.250000 0.250000 0.481007
#
# Coordination Sequence:
#
# PCOD9355016 Si02
#       6
#     8   8   8   8   8   8
#     4  10  22  46  73  98 139 187 240 300 357 439
#     4  10  23  47  71  98 141 188 241 293 353 440
#     4  11  27  45  69 108 148 184 232 309 380 417
#     4  12  26  46  75 104 139 193 253 288 355 456
#     4  12  26  43  71 108 143 183 242 298 369 434
#     4   9  22  42  70 100 135 187 240 293 363 428
#
# _framework density 21.987159999999999
#
# number of rings (size 3 to 8) (size 9 to 14) (size 15 to 20)
#    0.000    1.333    1.667    3.500    9.333    2.000 
#    0.000    0.000    0.000    0.000    0.000    0.000 
#    0.000    0.000    0.000    0.000    0.000    0.000 
#
# Total GULP energy -133982.177088 kJ/mol
# GULP energy per Si atom -5582.590712 kJ/mol
# Density = 2.193712 g / cm^3
# Si number density = 21.987160 Si / 1000 Ang^3
#
#
#
# Elastic Constant Matrix: (Units=GPa)
#
#
# Indices 1 2 3 4 5 6 
#
# 1 65.4692 11.7247 11.6357 0.0000 0.0000 0.0000
# 2 11.7247 70.3650 -0.3165 0.0000 0.0000 0.0000
# 3 11.6357 -0.3165 104.4845 0.0000 0.0000 0.0000
# 4 0.0000 0.0000 0.0000 16.6828 0.0000 0.0000
# 5 0.0000 0.0000 0.0000 0.0000 141.8417 0.0000
# 6 0.0000 0.0000 0.0000 0.0000 0.0000 28.3057
#
#
#
# Elastic Compliance Matrix: (Units=1/GPa)
#
#
# Indices 1 2 3 4 5 6 
#
# 1 0.016075 -0.002687 -0.001798 0.000000 0.000000 0.000000
# 2 -0.002687 0.014661 0.000344 0.000000 0.000000 0.000000
# 3 -0.001798 0.000344 0.009772 0.000000 0.000000 0.000000
# 4 0.000000 0.000000 0.000000 0.059942 0.000000 0.000000
# 5 0.000000 0.000000 0.000000 0.000000 0.007050 0.000000
# 6 0.000000 0.000000 0.000000 0.000000 0.000000 0.035329
#
#
# Mechanical properties :
#
#
# Convention : Reuss Voigt Hill
#
# Bulk Modulus (GPa) = 31.03146 31.82293 31.42720
# Shear Modulus (GPa) = 30.89221 51.85104 41.37162
#
# Velocity S-wave (km/s) = 3.75241 4.86144 4.34248
# Velocity P-wave (km/s) = 5.73744 6.78353 6.28230
#
# Compressibility (1/GPa) = 0.03222536
#
# Stress axis : x y z
#
# Youngs Moduli (GPa) = 62.20801 68.20901 102.33216
#
# Poissons Ratio (x) = 0.18325 0.18402
# Poissons Ratio (y) = 0.16713 -0.03516
# Poissons Ratio (z) = 0.11187 -0.02344
#
# Static dielectric constant tensor:
#      x y z
#    x 1.763000 0.000000 0.000000 
#    y 0.000000 1.848990 0.000000 
#    z 0.000000 0.000000 1.816020 
# 
# From -- ./inp_files/8240.got.cif
#   From: 2010.05.17/outbox.cif.g08.bks.cpg/sg37_5_cif.got.tgz:8240.got - 2010.06.03 17:53:42.
