data_PCOD9355101
_publ_section_title
;
Structure prediction by ZEFSAII (Michael W. Deem and Ramdas Pophale) SiO2 
 PCOD9355101
Probable space group: C C C 2
;
_chemical_formula_sum "Si O2"
_cell_formula_units_Z 64
_cell_length_a 8.997347
_cell_length_b 29.103316
_cell_length_c 11.082905
_cell_angle_alpha 90.000000
_cell_angle_beta 90.000000
_cell_angle_gamma 90.000000
_cell_volume 2902.087854
_symmetry_space_group_name_H-M "C C C 2"
_symmetry_group_IT_number 37
_symmetry_cell_setting 'orthorhombic'
loop_
_space_group_symop_operation_xyz
x,y,z
-x,-y,z
-x,y,1/2+z
x,-y,1/2+z
1/2+x,1/2+y,z
1/2-x,1/2-y,z
1/2-x,1/2+y,1/2+z
1/2+x,1/2-y,1/2+z
loop_
_atom_site_type_symbol
_atom_site_label
_atom_site_fract_x
_atom_site_fract_y
_atom_site_fract_z
Si Si1 0.249911 0.085889 0.733500
Si Si2 0.978659 0.875849 0.090037
Si Si3 0.987442 0.952411 0.901347
Si Si4 0.978680 0.375801 0.876811
Si Si5 0.249929 0.434399 0.233389
Si Si6 0.080880 0.231900 0.102574
Si Si7 0.487148 0.952423 0.065620
Si Si8 0.080788 0.731976 0.864558
O O1 0.118895 0.116266 0.677238
O O2 0.380976 0.116248 0.789751
O O3 0.329377 0.055980 0.630106
O O4 0.170319 0.056003 0.836857
O O5 0.836610 0.903070 0.138800
O O6 0.935298 0.822895 0.090335
O O7 0.018044 0.904585 0.969957
O O8 0.116981 0.959433 0.802464
O O9 0.000000 0.000000 0.976994
O O10 0.836516 0.402868 0.827671
O O11 0.935713 0.322813 0.876750
O O12 0.017632 0.404621 0.996863
O O13 0.116620 0.459424 0.164572
O O14 0.250000 0.250000 0.097603
O O15 0.022390 0.249945 0.233567
O O16 0.999967 0.249941 0.983579
O O17 0.500000 0.000000 0.989953
O O18 0.250000 0.750000 0.869499
#
# Coordination Sequence:
#
# PCOD9355101 Si02
#       8
#     8   8   8   8   8   8   8   8
#     4  10  25  42  69 100 146 186 248 289 377 428
#     4  11  25  43  71  99 141 184 239 302 361 442
#     4  11  24  42  68 103 142 192 243 297 366 441
#     4  11  25  43  71  99 141 184 239 302 361 442
#     4  10  23  42  67  90 144 180 233 294 365 420
#     4  11  28  48  76 108 148 191 246 303 380 442
#     4  11  24  42  68 103 142 192 243 297 366 441
#     4  11  28  48  76 108 148 191 246 303 380 442
#
# _framework density 22.053087999999999
#
# number of rings (size 3 to 8) (size 9 to 14) (size 15 to 20)
#    0.000    1.250    0.000    3.750   14.000    8.500 
#    0.000    0.000    0.000    0.000    0.000    0.000 
#    0.000    0.000    0.000    0.000    0.000    0.000 
#
# Total GULP energy -178671.806394 kJ/mol
# GULP energy per Si atom -5583.493950 kJ/mol
# Density = 2.200289 g / cm^3
# Si number density = 22.053088 Si / 1000 Ang^3
#
#
#
# Elastic Constant Matrix: (Units=GPa)
#
#
# Indices 1 2 3 4 5 6 
#
# 1 120.4749 27.8548 24.1021 0.0000 0.0000 0.0000
# 2 27.8548 178.7729 32.8618 0.0000 0.0000 0.0000
# 3 24.1021 32.8618 99.4274 0.0000 0.0000 0.0000
# 4 0.0000 0.0000 0.0000 26.3347 0.0000 0.0000
# 5 0.0000 0.0000 0.0000 0.0000 38.4733 0.0000
# 6 0.0000 0.0000 0.0000 0.0000 0.0000 1241.7135
#
#
#
# Elastic Compliance Matrix: (Units=1/GPa)
#
#
# Indices 1 2 3 4 5 6 
#
# 1 0.008907 -0.001055 -0.001810 0.000000 0.000000 0.000000
# 2 -0.001055 0.006080 -0.001754 0.000000 0.000000 0.000000
# 3 -0.001810 -0.001754 0.011076 0.000000 0.000000 0.000000
# 4 0.000000 0.000000 0.000000 0.037973 0.000000 0.000000
# 5 0.000000 0.000000 0.000000 0.000000 0.025992 0.000000
# 6 0.000000 0.000000 0.000000 0.000000 0.000000 0.000805
#
#
# Mechanical properties :
#
#
# Convention : Reuss Voigt Hill
#
# Bulk Modulus (GPa) = 59.43647 63.14582 61.29115
# Shear Modulus (GPa) = 47.31262 282.22805 164.77033
#
# Velocity S-wave (km/s) = 4.63687 11.32495 8.65318
# Velocity P-wave (km/s) = 7.46173 14.13158 11.29998
#
# Compressibility (1/GPa) = 0.01682469
#
# Stress axis : x y z
#
# Youngs Moduli (GPa) = 112.27652 164.46096 90.28422
#
# Poissons Ratio (x) = 0.17350 0.16345
# Poissons Ratio (y) = 0.11845 0.15835
# Poissons Ratio (z) = 0.20326 0.28845
#
# Static dielectric constant tensor:
#      x y z
#    x 1.764100 0.000000 0.000000 
#    y 0.000000 1.859970 0.000000 
#    z 0.000000 0.000000 2.669800 
# 
# From -- ./inp_files/6631.got.cif
#   From: 2010.05.17/outbox.cif.g08.bks.cpg/sg37_4_cif.got.tgz:6631.got - 2010.06.03 17:53:42.
