data_PCOD9355074
_publ_section_title
;
Structure prediction by ZEFSAII (Michael W. Deem and Ramdas Pophale) SiO2 
 PCOD9355074
Probable space group: C C C 2
;
_chemical_formula_sum "Si O2"
_cell_formula_units_Z 36
_cell_length_a 12.349256
_cell_length_b 14.156726
_cell_length_c 8.183133
_cell_angle_alpha 90.000000
_cell_angle_beta 90.000000
_cell_angle_gamma 90.000000
_cell_volume 1430.616501
_symmetry_space_group_name_H-M "C C C 2"
_symmetry_group_IT_number 37
_symmetry_cell_setting 'orthorhombic'
loop_
_space_group_symop_operation_xyz
x,y,z
-x,-y,z
-x,y,1/2+z
x,-y,1/2+z
1/2+x,1/2+y,z
1/2-x,1/2-y,z
1/2-x,1/2+y,1/2+z
1/2+x,1/2-y,1/2+z
loop_
_atom_site_type_symbol
_atom_site_label
_atom_site_fract_x
_atom_site_fract_y
_atom_site_fract_z
Si Si1 0.108141 0.872861 0.626940
Si Si2 0.316868 0.884774 0.421260
Si Si3 0.024348 0.690165 0.808807
Si Si4 0.125089 0.583503 0.081798
Si Si5 0.000000 0.000000 0.366942
O O1 0.057674 0.782917 0.715448
O O2 0.225490 0.858858 0.549818
O O3 0.383503 0.841353 0.934971
O O4 0.097204 0.958396 0.758092
O O5 0.410286 0.805346 0.406463
O O6 0.360508 0.985279 0.488611
O O7 0.037323 0.913956 0.479030
O O8 0.288810 0.899348 0.227793
O O9 0.985451 0.605816 0.686170
#
# Coordination Sequence:
#
# PCOD9355074 Si02
#       5
#     8   8   8   8   4
#     4  11  22  50  77 116 163 220 279 334 409 496
#     4  10  24  41  79 116 161 212 270 329 413 504
#     4  10  24  41  77 119 166 208 266 355 400 479
#     4  10  23  40  74 120 160 209 266 334 417 478
#     4  10  24  42  84 104 168 224 262 342 412 480
#
# _framework density 25.163975000000001
#
# number of rings (size 3 to 8) (size 9 to 14) (size 15 to 20)
#    1.333    0.444    0.000    3.333    6.222    0.000 
#    0.000    4.444    4.889    8.000    0.000    0.000 
#    0.000    0.000    0.000    0.000    0.000    0.000 
#
# Total GULP energy -100468.483144 kJ/mol
# GULP energy per Si atom -5581.582397 kJ/mol
# Density = 2.510670 g / cm^3
# Si number density = 25.163975 Si / 1000 Ang^3
#
#
#
# Elastic Constant Matrix: (Units=GPa)
#
#
# Indices 1 2 3 4 5 6 
#
# 1 108.8333 91.6304 70.0286 0.0000 0.0000 0.0000
# 2 91.6304 172.8133 106.7920 0.0000 0.0000 0.0000
# 3 70.0286 106.7920 173.1623 0.0000 0.0000 0.0000
# 4 0.0000 0.0000 0.0000 69.6041 0.0000 0.0000
# 5 0.0000 0.0000 0.0000 0.0000 12.2918 0.0000
# 6 0.0000 0.0000 0.0000 0.0000 0.0000 32.8603
#
#
#
# Elastic Compliance Matrix: (Units=1/GPa)
#
#
# Indices 1 2 3 4 5 6 
#
# 1 0.017073 -0.007733 -0.002135 0.000000 0.000000 0.000000
# 2 -0.007733 0.012852 -0.004799 0.000000 0.000000 0.000000
# 3 -0.002135 -0.004799 0.009598 0.000000 0.000000 0.000000
# 4 0.000000 0.000000 0.000000 0.014367 0.000000 0.000000
# 5 0.000000 0.000000 0.000000 0.000000 0.081355 0.000000
# 6 0.000000 0.000000 0.000000 0.000000 0.000000 0.030432
#
#
# Mechanical properties :
#
#
# Convention : Reuss Voigt Hill
#
# Bulk Modulus (GPa) = 98.14745 110.19012 104.16879
# Shear Modulus (GPa) = 25.20050 35.37510 30.28780
#
# Velocity S-wave (km/s) = 3.16800 3.75345 3.47308
# Velocity P-wave (km/s) = 7.24358 7.91634 7.58742
#
# Compressibility (1/GPa) = 0.01018875
#
# Stress axis : x y z
#
# Youngs Moduli (GPa) = 58.57172 77.80630 104.18661
#
# Poissons Ratio (x) = 0.60167 0.22249
# Poissons Ratio (y) = 0.45293 0.49999
# Poissons Ratio (z) = 0.12508 0.37339
#
# Static dielectric constant tensor:
#      x y z
#    x 2.077900 0.000000 0.000000 
#    y 0.000000 2.012730 0.000000 
#    z 0.000000 0.000000 2.077160 
# 
# From -- ./inp_files/6221.got.cif
#   From: 2010.05.17/outbox.cif.g08.bks.cpg/sg37_4_cif.got.tgz:6221.got - 2010.06.03 17:53:42.
