data_PCOD9355165
_publ_section_title
;
Structure prediction by ZEFSAII (Michael W. Deem and Ramdas Pophale) SiO2 
 PCOD9355165
Probable space group: C C C 2
;
_chemical_formula_sum "Si O2"
_cell_formula_units_Z 48
_cell_length_a 7.644282
_cell_length_b 20.169251
_cell_length_c 13.957422
_cell_angle_alpha 90.000000
_cell_angle_beta 90.000000
_cell_angle_gamma 90.000000
_cell_volume 2151.947541
_symmetry_space_group_name_H-M "C C C 2"
_symmetry_group_IT_number 37
_symmetry_cell_setting 'orthorhombic'
loop_
_space_group_symop_operation_xyz
x,y,z
-x,-y,z
-x,y,1/2+z
x,-y,1/2+z
1/2+x,1/2+y,z
1/2-x,1/2-y,z
1/2-x,1/2+y,1/2+z
1/2+x,1/2-y,1/2+z
loop_
_atom_site_type_symbol
_atom_site_label
_atom_site_fract_x
_atom_site_fract_y
_atom_site_fract_z
Si Si1 0.191047 0.441190 0.495330
Si Si2 0.933111 0.872470 0.225075
Si Si3 0.000000 0.500000 0.818993
Si Si4 0.975290 0.392854 0.666143
Si Si5 0.000000 0.000000 0.615115
Si Si6 0.539468 0.749570 0.099837
Si Si7 0.864209 0.809048 0.417346
O O1 0.025948 0.428661 0.566165
O O2 0.332801 0.488411 0.546718
O O3 0.264205 0.367237 0.474309
O O4 0.143048 0.472044 0.392724
O O5 0.728108 0.884960 0.197018
O O6 0.016084 0.938551 0.186204
O O7 0.009240 0.812476 0.164118
O O8 0.956010 0.850541 0.333920
O O9 0.054669 0.439273 0.749574
O O10 0.030236 0.316981 0.647156
O O11 0.750000 0.750000 0.097473
O O12 0.474254 0.732878 0.993689
O O13 0.750000 0.750000 0.368631
#
# Coordination Sequence:
#
# PCOD9355165 Si02
#       7
#     8   8   4   8   4   8   8
#     4  12  26  44  72 103 145 186 235 293 351 422
#     4  11  24  45  71 103 142 189 231 293 356 418
#     4  12  24  44  70 108 136 194 234 282 360 430
#     4  11  23  46  71 102 140 184 240 289 348 426
#     4  12  26  48  66 102 156 184 232 304 352 416
#     4  10  23  45  74 102 142 186 232 295 356 415
#     4  12  23  47  72 102 136 184 239 292 356 419
#
# _framework density 22.305377
#
# number of rings (size 3 to 8) (size 9 to 14) (size 15 to 20)
#    0.000    0.667    5.000    4.000    0.000    0.667 
#    0.000    4.167    0.000    0.000    0.000    0.000 
#    0.000    0.000    0.000    0.000    0.000    0.000 
#
# Total GULP energy -133974.992299 kJ/mol
# GULP energy per Si atom -5582.291346 kJ/mol
# Density = 2.225461 g / cm^3
# Si number density = 22.305377 Si / 1000 Ang^3
#
#
#
# Elastic Constant Matrix: (Units=GPa)
#
#
# Indices 1 2 3 4 5 6 
#
# 1 40.8820 27.1217 23.8608 0.0000 0.0000 0.0000
# 2 27.1217 186.3404 78.1639 0.0000 0.0000 0.0000
# 3 23.8608 78.1639 164.5764 0.0000 0.0000 0.0000
# 4 0.0000 0.0000 0.0000 54.3289 0.0000 0.0000
# 5 0.0000 0.0000 0.0000 0.0000 20.3997 0.0000
# 6 0.0000 0.0000 0.0000 0.0000 0.0000 23.0270
#
#
#
# Elastic Compliance Matrix: (Units=1/GPa)
#
#
# Indices 1 2 3 4 5 6 
#
# 1 0.027971 -0.002960 -0.002650 0.000000 0.000000 0.000000
# 2 -0.002960 0.007015 -0.002903 0.000000 0.000000 0.000000
# 3 -0.002650 -0.002903 0.007839 0.000000 0.000000 0.000000
# 4 0.000000 0.000000 0.000000 0.018406 0.000000 0.000000
# 5 0.000000 0.000000 0.000000 0.000000 0.049020 0.000000
# 6 0.000000 0.000000 0.000000 0.000000 0.000000 0.043427
#
#
# Mechanical properties :
#
#
# Convention : Reuss Voigt Hill
#
# Bulk Modulus (GPa) = 38.75861 72.23238 55.49550
# Shear Modulus (GPa) = 27.88592 37.06129 32.47360
#
# Velocity S-wave (km/s) = 3.53964 4.08062 3.81972
# Velocity P-wave (km/s) = 5.84118 7.39295 6.66240
#
# Compressibility (1/GPa) = 0.02580072
#
# Stress axis : x y z
#
# Youngs Moduli (GPa) = 35.75184 142.55556 127.56948
#
# Poissons Ratio (x) = 0.42192 0.33801
# Poissons Ratio (y) = 0.10581 0.37027
# Poissons Ratio (z) = 0.09473 0.41377
#
# Static dielectric constant tensor:
#      x y z
#    x 1.908660 0.000000 0.000000 
#    y 0.000000 1.820050 0.000000 
#    z 0.000000 0.000000 1.802680 
# 
# From -- ./inp_files/10650.got.cif
#   From: 2010.05.17/outbox.cif.g08.bks.cpg/sg37_6_cif.got.tgz:10650.got - 2010.06.03 17:53:42.
