data_PCOD9355038
_publ_section_title
;
Structure prediction by ZEFSAII (Michael W. Deem and Ramdas Pophale) SiO2 
 PCOD9355038
Probable space group: C C C 2
;
_chemical_formula_sum "Si O2"
_cell_formula_units_Z 44
_cell_length_a 10.738206
_cell_length_b 14.440015
_cell_length_c 11.157004
_cell_angle_alpha 90.000000
_cell_angle_beta 90.000000
_cell_angle_gamma 90.000000
_cell_volume 1730.003430
_symmetry_space_group_name_H-M "C C C 2"
_symmetry_group_IT_number 37
_symmetry_cell_setting 'orthorhombic'
loop_
_space_group_symop_operation_xyz
x,y,z
-x,-y,z
-x,y,1/2+z
x,-y,1/2+z
1/2+x,1/2+y,z
1/2-x,1/2-y,z
1/2-x,1/2+y,1/2+z
1/2+x,1/2-y,1/2+z
loop_
_atom_site_type_symbol
_atom_site_label
_atom_site_fract_x
_atom_site_fract_y
_atom_site_fract_z
Si Si1 0.702480 0.631856 0.491750
Si Si2 0.500000 0.500000 0.485397
Si Si3 0.960067 0.188567 0.388082
Si Si4 0.610265 0.168644 0.204322
Si Si5 0.144361 0.527653 0.414683
Si Si6 0.848508 0.681708 0.097522
O O1 0.600606 0.562214 0.553957
O O2 0.609226 0.696790 0.414946
O O3 0.802470 0.664185 0.588852
O O4 0.778439 0.565806 0.402874
O O5 0.438147 0.579443 0.403094
O O6 0.902124 0.231610 0.268829
O O7 0.899380 0.248615 0.493885
O O8 0.650903 0.092919 0.299951
O O9 0.466842 0.150465 0.172463
O O10 0.192075 0.589405 0.527250
O O11 0.000000 0.500000 0.436456
O O12 0.750000 0.750000 0.160133
#
# Coordination Sequence:
#
# PCOD9355038 Si02
#       6
#     8   4   8   8   8   8
#     4  10  22  49  73 108 164 203 267 341 397 495
#     4   8  20  48  72 106 162 194 266 340 382 478
#     4   9  23  49  72 111 149 208 264 331 394 496
#     4  11  25  46  79 112 155 218 260 329 438 464
#     4  11  24  45  74 107 151 197 269 327 397 488
#     4  11  24  47  72 103 153 193 262 325 400 482
#
# _framework density 25.433474
#
# number of rings (size 3 to 8) (size 9 to 14) (size 15 to 20)
#    1.091    0.727    1.818    1.091    2.545    2.182 
#   22.909    1.818    0.000    0.000    0.000    0.000 
#    0.000    0.000    0.000    0.000    0.000    0.000 
#
# Total GULP energy -122924.337732 kJ/mol
# GULP energy per Si atom -5587.469897 kJ/mol
# Density = 2.537559 g / cm^3
# Si number density = 25.433474 Si / 1000 Ang^3
#
#
#
# Elastic Constant Matrix: (Units=GPa)
#
#
# Indices 1 2 3 4 5 6 
#
# 1 150.0740 38.7898 40.0211 0.0000 0.0000 0.0000
# 2 38.7898 127.8077 46.6950 0.0000 0.0000 0.0000
# 3 40.0211 46.6950 71.9220 0.0000 0.0000 0.0000
# 4 0.0000 0.0000 0.0000 22.2008 0.0000 0.0000
# 5 0.0000 0.0000 0.0000 0.0000 15.1390 0.0000
# 6 0.0000 0.0000 0.0000 0.0000 0.0000 65.3951
#
#
#
# Elastic Compliance Matrix: (Units=1/GPa)
#
#
# Indices 1 2 3 4 5 6 
#
# 1 0.007929 -0.001042 -0.003736 0.000000 0.000000 0.000000
# 2 -0.001042 0.010394 -0.006169 0.000000 0.000000 0.000000
# 3 -0.003736 -0.006169 0.019988 0.000000 0.000000 0.000000
# 4 0.000000 0.000000 0.000000 0.045044 0.000000 0.000000
# 5 0.000000 0.000000 0.000000 0.000000 0.066055 0.000000
# 6 0.000000 0.000000 0.000000 0.000000 0.000000 0.015292
#
#
# Mechanical properties :
#
#
# Convention : Reuss Voigt Hill
#
# Bulk Modulus (GPa) = 60.90674 66.75729 63.83201
# Shear Modulus (GPa) = 26.03276 35.50015 30.76646
#
# Velocity S-wave (km/s) = 3.20279 3.74010 3.48182
# Velocity P-wave (km/s) = 6.13813 6.70492 6.42777
#
# Compressibility (1/GPa) = 0.01641854
#
# Stress axis : x y z
#
# Youngs Moduli (GPa) = 126.12198 96.20802 50.03050
#
# Poissons Ratio (x) = 0.10020 0.18690
# Poissons Ratio (y) = 0.13136 0.30863
# Poissons Ratio (z) = 0.47117 0.59349
#
# Static dielectric constant tensor:
#      x y z
#    x 2.130700 0.000000 0.000000 
#    y 0.000000 2.078580 0.000000 
#    z 0.000000 0.000000 1.952870 
# 
# From -- ./inp_files/7138.got.cif
#   From: 2010.05.17/outbox.cif.g08.bks.cpg/sg37_4_cif.got.tgz:7138.got - 2010.06.03 17:53:42.
