data_PCOD9355901
_publ_section_title
;
Structure prediction by ZEFSAII (Michael W. Deem and Ramdas Pophale) SiO2 
 PCOD9355901
Probable space group: A M M 2
;
_chemical_formula_sum "Si O2"
_cell_formula_units_Z 64
_cell_length_a 8.787124
_cell_length_b 31.056738
_cell_length_c 14.971251
_cell_angle_alpha 90.000000
_cell_angle_beta 90.000000
_cell_angle_gamma 90.000000
_cell_volume 4085.645533
_symmetry_space_group_name_H-M "A M M 2"
_symmetry_group_IT_number 38
_symmetry_cell_setting 'orthorhombic'
loop_
_space_group_symop_operation_xyz
x,y,z
-x,-y,z
-x,y,z
x,-y,z
x,1/2+y,1/2+z
-x,1/2-y,1/2+z
-x,1/2+y,1/2+z
x,1/2-y,1/2+z
loop_
_atom_site_type_symbol
_atom_site_label
_atom_site_fract_x
_atom_site_fract_y
_atom_site_fract_z
Si Si1 0.818125 0.549417 0.021920
Si Si2 0.175426 0.173993 0.615967
Si Si3 0.186352 0.704913 0.434009
Si Si4 0.817973 0.224062 0.130338
Si Si5 0.680315 0.450426 0.218379
Si Si6 0.184517 0.292788 0.829589
Si Si7 0.178402 0.128260 0.807361
Si Si8 0.321800 0.867637 0.448267
O O1 0.774731 0.500000 0.001011
O O2 0.762119 0.558086 0.123375
O O3 0.000000 0.552862 0.020831
O O4 0.748033 0.584701 0.956207
O O5 0.202025 0.224644 0.624100
O O6 0.188568 0.153172 0.712930
O O7 0.287085 0.153204 0.545016
O O8 0.000000 0.167489 0.584330
O O9 0.239789 0.705222 0.536642
O O10 0.231191 0.749100 0.382807
O O11 0.234673 0.662171 0.381106
O O12 0.000000 0.705184 0.433148
O O13 0.760643 0.208983 0.226838
O O14 0.000000 0.216199 0.131350
O O15 0.500000 0.446288 0.204230
O O16 0.714142 0.500000 0.242968
O O17 0.735071 0.416243 0.291396
O O18 0.243626 0.335144 0.878974
O O19 0.000000 0.292882 0.830195
O O20 0.000000 0.119347 0.824140
O O21 0.500000 0.869908 0.431338
#
# Coordination Sequence:
#
# PCOD9355901 Si02
#       8
#     8   8   8   8   8   8   8   8
#     4  10  20  34  52  72  94 123 160 199 239 288
#     4  10  17  28  48  70  95 129 168 202 232 278
#     4   9  16  27  47  74  98 123 164 209 242 280
#     4   9  16  28  49  73  95 125 166 209 244 272
#     4  10  20  32  46  68  99 130 159 196 243 293
#     4  10  18  31  51  70  93 128 167 202 237 284
#     4  10  18  28  47  73  98 129 167 201 237 282
#     4  12  23  32  45  70 102 134 162 194 240 288
#
# _framework density 15.6646
#
# number of rings (size 3 to 8) (size 9 to 14) (size 15 to 20)
#    0.000    2.000    3.750    1.875    0.000    1.500 
#    0.000    1.250    0.000    0.000    0.000    0.875 
#    0.000    3.000    0.000    0.000    0.000    0.000 
#
# Total GULP energy -178434.408012 kJ/mol
# GULP energy per Si atom -5576.075250 kJ/mol
# Density = 1.562895 g / cm^3
# Si number density = 15.664600 Si / 1000 Ang^3
#
#
#
# Elastic Constant Matrix: (Units=GPa)
#
#
# Indices 1 2 3 4 5 6 
#
# 1 25.2073 20.9912 22.0546 0.0000 0.0000 0.0000
# 2 20.9912 93.2443 59.8287 0.0000 0.0000 0.0000
# 3 22.0546 59.8287 90.8502 0.0000 0.0000 0.0000
# 4 0.0000 0.0000 0.0000 22.6332 0.0000 0.0000
# 5 0.0000 0.0000 0.0000 0.0000 -7.0622 0.0000
# 6 0.0000 0.0000 0.0000 0.0000 0.0000 9.5542
#
#
#
# Elastic Compliance Matrix: (Units=1/GPa)
#
#
# Indices 1 2 3 4 5 6 
#
# 1 0.052420 -0.006296 -0.008579 0.000000 0.000000 0.000000
# 2 -0.006296 0.019328 -0.011200 0.000000 0.000000 0.000000
# 3 -0.008579 -0.011200 0.020465 0.000000 0.000000 0.000000
# 4 0.000000 0.000000 0.000000 0.044183 0.000000 0.000000
# 5 0.000000 0.000000 0.000000 0.000000 -0.141599 0.000000
# 6 0.000000 0.000000 0.000000 0.000000 0.000000 0.104666
#
#
# Mechanical properties :
#
#
# Convention : Reuss Voigt Hill
#
# Bulk Modulus (GPa) = 24.96052 46.11674 35.53863
# Shear Modulus (GPa) = 30.30888 12.12021 21.21454
#
# Velocity S-wave (km/s) = 4.40348 2.78462 3.68407
# Velocity P-wave (km/s) = 6.46708 6.31212 6.39007
#
# Compressibility (1/GPa) = 0.04006328
#
# Stress axis : x y z
#
# Youngs Moduli (GPa) = 19.07662 51.73789 48.86295
#
# Poissons Ratio (x) = 0.32575 0.41920
# Poissons Ratio (y) = 0.12011 0.54726
# Poissons Ratio (z) = 0.16366 0.57946
#
# Static dielectric constant tensor:
#      x y z
#    x 1.530400 0.000000 0.000000 
#    y 0.000000 1.530510 0.000000 
#    z 0.000000 0.000000 1.520240 
# 
# From -- ./inp_files/13049.got.cif
#   From: 2010.05.17/outbox.cif.g08.bks.cpg/sg38_7_cif.got.tgz:13049.got - 2010.06.03 18:07:57.
