data_PCOD9355192
_publ_section_title
;
Structure prediction by ZEFSAII (Michael W. Deem and Ramdas Pophale) SiO2 
 PCOD9355192
Probable space group: C C C 2
;
_chemical_formula_sum "Si O2"
_cell_formula_units_Z 64
_cell_length_a 26.329907
_cell_length_b 12.066094
_cell_length_c 9.027646
_cell_angle_alpha 90.000000
_cell_angle_beta 90.000000
_cell_angle_gamma 90.000000
_cell_volume 2868.075306
_symmetry_space_group_name_H-M "C C C 2"
_symmetry_group_IT_number 37
_symmetry_cell_setting 'orthorhombic'
loop_
_space_group_symop_operation_xyz
x,y,z
-x,-y,z
-x,y,1/2+z
x,-y,1/2+z
1/2+x,1/2+y,z
1/2-x,1/2-y,z
1/2-x,1/2+y,1/2+z
1/2+x,1/2-y,1/2+z
loop_
_atom_site_type_symbol
_atom_site_label
_atom_site_fract_x
_atom_site_fract_y
_atom_site_fract_z
Si Si1 0.644356 0.084208 0.888730
Si Si2 0.248167 0.884606 0.033432
Si Si3 0.018887 0.223355 0.186998
Si Si4 0.314487 0.491280 0.780769
Si Si5 0.608068 0.906397 0.685825
Si Si6 0.882404 0.168045 0.804561
Si Si7 0.900630 0.844893 0.651835
Si Si8 0.018124 0.617471 0.416387
O O1 0.695954 0.084233 0.980776
O O2 0.632511 0.202785 0.816833
O O3 0.644968 0.989435 0.767902
O O4 0.602846 0.058650 0.015985
O O5 0.250000 0.750000 0.018853
O O6 0.210884 0.958706 0.928960
O O7 0.227916 0.922378 0.193308
O O8 0.065496 0.142508 0.217870
O O9 0.962121 0.170135 0.175175
O O10 0.021346 0.305248 0.328160
O O11 0.033042 0.300765 0.048408
O O12 0.336677 0.607569 0.719303
O O13 0.367093 0.420097 0.762817
O O14 0.622372 0.777948 0.676870
O O15 0.557944 0.907194 0.785588
O O16 0.890432 0.129864 0.977276
O O17 0.000000 0.500000 0.473875
#
# Coordination Sequence:
#
# PCOD9355192 Si02
#       8
#     8   8   8   8   8   8   8   8
#     4  11  23  45  68 103 151 194 241 319 383 449
#     4  12  25  50  78 110 148 193 251 314 385 458
#     4  11  23  41  68 100 148 200 250 306 373 451
#     4  12  25  48  82 106 142 198 245 308 378 453
#     4  10  24  39  67 102 147 195 246 302 379 439
#     4  11  23  46  73 104 148 195 246 309 374 447
#     4  10  23  48  66 104 150 194 245 309 372 442
#     4  11  23  36  62 100 146 200 251 303 370 441
#
# _framework density 22.314616000000001
#
# number of rings (size 3 to 8) (size 9 to 14) (size 15 to 20)
#    0.000    1.000    3.750    2.625    7.000    2.500 
#    0.000    1.875    0.000    0.000    0.000    0.000 
#    0.000    0.000    0.000    0.000    0.000    0.000 
#
# Total GULP energy -178311.954444 kJ/mol
# GULP energy per Si atom -5572.248576 kJ/mol
# Density = 2.226383 g / cm^3
# Si number density = 22.314616 Si / 1000 Ang^3
#
#
#
# Elastic Constant Matrix: (Units=GPa)
#
#
# Indices 1 2 3 4 5 6 
#
# 1 104.0630 31.3955 1.2276 0.0000 0.0000 0.0000
# 2 31.3955 75.8215 46.9300 0.0000 0.0000 0.0000
# 3 1.2276 46.9300 66.9895 0.0000 0.0000 0.0000
# 4 0.0000 0.0000 0.0000 33.2272 0.0000 0.0000
# 5 0.0000 0.0000 0.0000 0.0000 39.5699 0.0000
# 6 0.0000 0.0000 0.0000 0.0000 0.0000 28.9530
#
#
#
# Elastic Compliance Matrix: (Units=1/GPa)
#
#
# Indices 1 2 3 4 5 6 
#
# 1 0.012146 -0.008637 0.005828 0.000000 0.000000 0.000000
# 2 -0.008637 0.029427 -0.020457 0.000000 0.000000 0.000000
# 3 0.005828 -0.020457 0.029152 0.000000 0.000000 0.000000
# 4 0.000000 0.000000 0.000000 0.030096 0.000000 0.000000
# 5 0.000000 0.000000 0.000000 0.000000 0.025272 0.000000
# 6 0.000000 0.000000 0.000000 0.000000 0.000000 0.034539
#
#
# Mechanical properties :
#
#
# Convention : Reuss Voigt Hill
#
# Bulk Modulus (GPa) = 41.33240 45.10890 43.22065
# Shear Modulus (GPa) = 23.23113 31.50475 27.36794
#
# Velocity S-wave (km/s) = 3.23007 3.76153 3.50588
# Velocity P-wave (km/s) = 5.69859 6.25494 5.98323
#
# Compressibility (1/GPa) = 0.02419410
#
# Stress axis : x y z
#
# Youngs Moduli (GPa) = 82.32827 33.98236 34.30267
#
# Poissons Ratio (x) = 0.29350 -0.19991
# Poissons Ratio (y) = 0.71105 0.70173
# Poissons Ratio (z) = -0.47980 0.69518
#
# Static dielectric constant tensor:
#      x y z
#    x 1.981020 0.000000 0.000000 
#    y 0.000000 1.882610 0.000000 
#    z 0.000000 0.000000 1.867150 
# 
# From -- ./inp_files/5006.got.cif
#   From: 2010.05.17/outbox.cif.g08.bks.cpg/sg37_3_cif.got.tgz:5006.got - 2010.06.03 17:53:42.
