data_PCOD9355338
_publ_section_title
;
Structure prediction by ZEFSAII (Michael W. Deem and Ramdas Pophale) SiO2 
 PCOD9355338
Probable space group: C C C 2
;
_chemical_formula_sum "Si O2"
_cell_formula_units_Z 36
_cell_length_a 14.973479
_cell_length_b 10.217271
_cell_length_c 9.338317
_cell_angle_alpha 90.000000
_cell_angle_beta 90.000000
_cell_angle_gamma 90.000000
_cell_volume 1428.651307
_symmetry_space_group_name_H-M "C C C 2"
_symmetry_group_IT_number 37
_symmetry_cell_setting 'orthorhombic'
loop_
_space_group_symop_operation_xyz
x,y,z
-x,-y,z
-x,y,1/2+z
x,-y,1/2+z
1/2+x,1/2+y,z
1/2-x,1/2-y,z
1/2-x,1/2+y,1/2+z
1/2+x,1/2-y,1/2+z
loop_
_atom_site_type_symbol
_atom_site_label
_atom_site_fract_x
_atom_site_fract_y
_atom_site_fract_z
Si Si1 0.668394 0.050378 0.466300
Si Si2 0.899345 0.759611 0.748299
Si Si3 0.096059 0.348479 0.262203
Si Si4 0.000000 0.000000 0.381397
Si Si5 0.837576 0.139332 0.967177
O O1 0.654582 0.180500 0.370361
O O2 0.644080 0.086526 0.627604
O O3 0.600193 0.948017 0.394439
O O4 0.762674 0.972370 0.460397
O O5 0.839311 0.769862 0.607215
O O6 0.994637 0.687523 0.724129
O O7 0.933111 0.902966 0.798625
O O8 0.151482 0.223118 0.321215
O O9 0.063892 0.082112 0.480219
#
# Coordination Sequence:
#
# PCOD9355338 Si02
#       5
#     8   8   8   4   8
#     4  12  27  48  81 116 155 201 271 330 398 474
#     4  11  25  50  82 112 158 211 257 325 402 485
#     4  11  25  50  79 113 157 210 256 328 406 475
#     4  10  24  48  80 112 152 210 260 324 396 492
#     4  11  26  51  77 116 157 204 267 328 396 477
#
# _framework density 25.198592000000001
#
# number of rings (size 3 to 8) (size 9 to 14) (size 15 to 20)
#    0.000    0.889    0.000    6.000    3.111    4.444 
#    8.000    2.222    0.000    0.000    0.000    0.000 
#    0.000    0.000    0.000    0.000    0.000    0.000 
#
# Total GULP energy -100757.128969 kJ/mol
# GULP energy per Si atom -5597.618276 kJ/mol
# Density = 2.514124 g / cm^3
# Si number density = 25.198592 Si / 1000 Ang^3
#
#
#
# Elastic Constant Matrix: (Units=GPa)
#
#
# Indices 1 2 3 4 5 6 
#
# 1 169.5252 49.5044 82.4901 0.0000 0.0000 0.0000
# 2 49.5044 115.3306 75.4971 0.0000 0.0000 0.0000
# 3 82.4901 75.4971 165.8910 0.0000 0.0000 0.0000
# 4 0.0000 0.0000 0.0000 -306.3867 0.0000 0.0000
# 5 0.0000 0.0000 0.0000 0.0000 -11.8472 0.0000
# 6 0.0000 0.0000 0.0000 0.0000 0.0000 73.9945
#
#
#
# Elastic Compliance Matrix: (Units=1/GPa)
#
#
# Indices 1 2 3 4 5 6 
#
# 1 0.007890 -0.001166 -0.003393 0.000000 0.000000 0.000000
# 2 -0.001166 0.012522 -0.005119 0.000000 0.000000 0.000000
# 3 -0.003393 -0.005119 0.010045 0.000000 0.000000 0.000000
# 4 0.000000 0.000000 0.000000 -0.003264 0.000000 0.000000
# 5 0.000000 0.000000 0.000000 0.000000 -0.084408 0.000000
# 6 0.000000 0.000000 0.000000 0.000000 0.000000 0.013515
#
#
# Mechanical properties :
#
#
# Convention : Reuss Voigt Hill
#
# Bulk Modulus (GPa) = 90.07655 96.19222 93.13438
# Shear Modulus (GPa) = -242.20135 -32.63086 -137.41611
#
# Velocity S-wave (km/s) = -9.81456 -3.60244 -7.39267
# Velocity P-wave (km/s) = 9.62341 4.57745 5.98569
#
# Compressibility (1/GPa) = 0.01110167
#
# Stress axis : x y z
#
# Youngs Moduli (GPa) = 126.73916 79.85815 99.55252
#
# Poissons Ratio (x) = 0.09309 0.33777
# Poissons Ratio (y) = 0.14774 0.50963
# Poissons Ratio (z) = 0.43002 0.40881
#
# Static dielectric constant tensor:
#      x y z
#    x 1.939540 0.000000 0.000000 
#    y 0.000000 2.290320 0.000000 
#    z 0.000000 0.000000 1.941290 
# 
# From -- ./inp_files/3248.got.cif
#   From: 2010.05.17/outbox.cif.g08.bks.cpg/sg37_2_cif.got.tgz:3248.got - 2010.06.03 17:53:42.
