data_PCOD9355676
_publ_section_title
;
Structure prediction by ZEFSAII (Michael W. Deem and Ramdas Pophale) SiO2 
 PCOD9355676
Probable space group: C C C 2
;
_chemical_formula_sum "Si O2"
_cell_formula_units_Z 36
_cell_length_a 10.648633
_cell_length_b 17.158878
_cell_length_c 9.471788
_cell_angle_alpha 90.000000
_cell_angle_beta 90.000000
_cell_angle_gamma 90.000000
_cell_volume 1730.671791
_symmetry_space_group_name_H-M "C C C 2"
_symmetry_group_IT_number 37
_symmetry_cell_setting 'orthorhombic'
loop_
_space_group_symop_operation_xyz
x,y,z
-x,-y,z
-x,y,1/2+z
x,-y,1/2+z
1/2+x,1/2+y,z
1/2-x,1/2-y,z
1/2-x,1/2+y,1/2+z
1/2+x,1/2-y,1/2+z
loop_
_atom_site_type_symbol
_atom_site_label
_atom_site_fract_x
_atom_site_fract_y
_atom_site_fract_z
Si Si1 0.750000 0.250000 0.190120
Si Si2 0.906530 0.571833 0.101245
Si Si3 0.467495 0.161928 0.842365
Si Si4 0.927806 0.191842 0.971110
Si Si5 0.671789 0.665820 0.159621
O O1 0.649507 0.211347 0.291517
O O2 0.819741 0.187973 0.088989
O O3 0.759707 0.589950 0.131219
O O4 0.000000 0.500000 0.132008
O O5 0.962884 0.637388 0.202817
O O6 0.925441 0.590589 0.937409
O O7 0.555551 0.216519 0.936106
O O8 0.886483 0.159337 0.818229
O O9 0.058517 0.167183 0.045107
O O10 0.750000 0.750000 0.149501
#
# Coordination Sequence:
#
# PCOD9355676 Si02
#       5
#     4   8   8   8   8
#     4  12  20  34  68 100 138 174 232 298 348 402
#     4  12  26  43  64  99 142 189 233 284 357 438
#     4  12  21  40  65 100 134 180 230 288 350 405
#     4  12  21  36  66 109 139 178 228 308 354 395
#     4  12  22  39  67 105 147 177 238 305 349 415
#
# _framework density 20.801169999999999
#
# number of rings (size 3 to 8) (size 9 to 14) (size 15 to 20)
#    0.000    0.000   10.000    2.000    0.000    0.000 
#    0.000    0.000    0.000    1.333    5.778    0.000 
#    0.000    0.000    0.000    0.000    0.000    0.000 
#
# Total GULP energy -100310.816585 kJ/mol
# GULP energy per Si atom -5572.823144 kJ/mol
# Density = 2.075383 g / cm^3
# Si number density = 20.801170 Si / 1000 Ang^3
#
#
#
# Elastic Constant Matrix: (Units=GPa)
#
#
# Indices 1 2 3 4 5 6 
#
# 1 105.6969 17.6137 32.8902 0.0000 0.0000 0.0000
# 2 17.6137 33.0851 9.4877 0.0000 0.0000 0.0000
# 3 32.8902 9.4877 111.8122 0.0000 0.0000 0.0000
# 4 0.0000 0.0000 0.0000 5.0155 0.0000 0.0000
# 5 0.0000 0.0000 0.0000 0.0000 -943.6344 0.0000
# 6 0.0000 0.0000 0.0000 0.0000 0.0000 27.7793
#
#
#
# Elastic Compliance Matrix: (Units=1/GPa)
#
#
# Indices 1 2 3 4 5 6 
#
# 1 0.011209 -0.005147 -0.002860 0.000000 0.000000 0.000000
# 2 -0.005147 0.033342 -0.001315 0.000000 0.000000 0.000000
# 3 -0.002860 -0.001315 0.009897 0.000000 0.000000 0.000000
# 4 0.000000 0.000000 0.000000 0.199382 0.000000 0.000000
# 5 0.000000 0.000000 0.000000 0.000000 -0.001060 0.000000
# 6 0.000000 0.000000 0.000000 0.000000 0.000000 0.035998
#
#
# Mechanical properties :
#
#
# Convention : Reuss Voigt Hill
#
# Bulk Modulus (GPa) = 27.93100 41.17529 34.55314
# Shear Modulus (GPa) = 15.65691 -169.46108 -76.90209
#
# Velocity S-wave (km/s) = 2.74650 -9.03570 -6.08690
# Velocity P-wave (km/s) = 4.84917 9.43509 5.72304
#
# Compressibility (1/GPa) = 0.03580252
#
# Stress axis : x y z
#
# Youngs Moduli (GPa) = 89.21547 29.99182 101.04514
#
# Poissons Ratio (x) = 0.15437 0.28903
# Poissons Ratio (y) = 0.45920 0.13289
# Poissons Ratio (z) = 0.25519 0.03945
#
# Static dielectric constant tensor:
#      x y z
#    x 1.921340 0.000000 0.000000 
#    y 0.000000 1.783690 0.000000 
#    z 0.000000 0.000000 1.720670 
# 
# From -- ./inp_files/2809.got.cif
#   From: 2010.05.17/outbox.cif.g08.bks.cpg/sg37_2_cif.got.tgz:2809.got - 2010.06.03 17:53:42.
