data_PCOD9355818
_publ_section_title
;
Structure prediction by ZEFSAII (Michael W. Deem and Ramdas Pophale) SiO2 
 PCOD9355818
Probable space group: A M M 2
;
_chemical_formula_sum "Si O2"
_cell_formula_units_Z 64
_cell_length_a 37.826040
_cell_length_b 14.238076
_cell_length_c 5.323882
_cell_angle_alpha 90.000000
_cell_angle_beta 90.000000
_cell_angle_gamma 90.000000
_cell_volume 2867.283301
_symmetry_space_group_name_H-M "A M M 2"
_symmetry_group_IT_number 38
_symmetry_cell_setting 'orthorhombic'
loop_
_space_group_symop_operation_xyz
x,y,z
-x,-y,z
-x,y,z
x,-y,z
x,1/2+y,1/2+z
-x,1/2-y,1/2+z
-x,1/2+y,1/2+z
x,1/2-y,1/2+z
loop_
_atom_site_type_symbol
_atom_site_label
_atom_site_fract_x
_atom_site_fract_y
_atom_site_fract_z
Si Si1 0.809548 0.363504 0.217710
Si Si2 0.342550 0.309248 0.078830
Si Si3 0.959864 0.114130 0.615587
Si Si4 0.082580 0.886012 0.112591
Si Si5 0.459580 0.114837 0.167759
Si Si6 0.838515 0.348605 0.718320
Si Si7 0.733112 0.313449 0.171067
Si Si8 0.419546 0.112160 0.669409
O O1 0.819673 0.400072 0.489168
O O2 0.819179 0.252186 0.243865
O O3 0.768469 0.374222 0.154572
O O4 0.833454 0.395890 0.987438
O O5 0.342284 0.226845 0.291227
O O6 0.305255 0.360493 0.134374
O O7 0.378887 0.361985 0.129181
O O8 0.941998 0.136852 0.350316
O O9 0.000000 0.149646 0.633929
O O10 0.961549 0.000000 0.625609
O O11 0.936152 0.141850 0.853411
O O12 0.120645 0.839316 0.148357
O O13 0.087838 0.000000 0.109982
O O14 0.500000 0.146482 0.139637
O O15 0.442807 0.143927 0.432270
O O16 0.460160 0.000000 0.166436
O O17 0.435375 0.145148 0.934332
O O18 0.734663 0.262192 0.442567
O O19 0.422159 0.000000 0.673398
#
# Coordination Sequence:
#
# PCOD9355818 Si02
#       8
#     8   8   8   8   8   8   8   8
#     4  10  17  30  48  72  87 117 160 199 224 265
#     4  10  21  33  53  77 103 137 171 219 262 306
#     4   9  17  30  47  66  90 121 160 197 227 272
#     4  10  19  30  45  70  98 123 149 186 243 292
#     4   9  17  30  52  78 101 133 178 218 251 302
#     4  10  18  28  47  70  96 118 148 198 233 270
#     4  10  16  30  49  74  92 116 163 208 242 268
#     4  10  19  33  53  77 106 135 170 218 266 310
#
# _framework density 22.320781
#
# number of rings (size 3 to 8) (size 9 to 14) (size 15 to 20)
#    0.000    2.250    2.500    2.250    0.000    3.000 
#    0.000    0.000    0.000    9.000    0.000   35.000 
#    0.000    0.000    0.000    0.000    0.000    0.000 
#
# Total GULP energy -178761.946583 kJ/mol
# GULP energy per Si atom -5586.310831 kJ/mol
# Density = 2.226998 g / cm^3
# Si number density = 22.320781 Si / 1000 Ang^3
#
#
#
# Elastic Constant Matrix: (Units=GPa)
#
#
# Indices 1 2 3 4 5 6 
#
# 1 114.4412 -2.9455 -16.6100 0.0000 0.0000 0.0000
# 2 -2.9455 69.0347 -8.6025 0.0000 0.0000 0.0000
# 3 -16.6100 -8.6025 103.5623 0.0000 0.0000 0.0000
# 4 0.0000 0.0000 0.0000 42.6791 0.0000 0.0000
# 5 0.0000 0.0000 0.0000 0.0000 40.5166 0.0000
# 6 0.0000 0.0000 0.0000 0.0000 0.0000 49.1988
#
#
#
# Elastic Compliance Matrix: (Units=1/GPa)
#
#
# Indices 1 2 3 4 5 6 
#
# 1 0.008968 0.000568 0.001486 0.000000 0.000000 0.000000
# 2 0.000568 0.014673 0.001310 0.000000 0.000000 0.000000
# 3 0.001486 0.001310 0.010003 0.000000 0.000000 0.000000
# 4 0.000000 0.000000 0.000000 0.023431 0.000000 0.000000
# 5 0.000000 0.000000 0.000000 0.000000 0.024681 0.000000
# 6 0.000000 0.000000 0.000000 0.000000 0.000000 0.020326
#
#
# Mechanical properties :
#
#
# Convention : Reuss Voigt Hill
#
# Bulk Modulus (GPa) = 24.77038 25.63579 25.20308
# Shear Modulus (GPa) = 45.95062 47.49198 46.72130
#
# Velocity S-wave (km/s) = 4.54215 4.61771 4.58009
# Velocity P-wave (km/s) = 6.21528 6.31989 6.26781
#
# Compressibility (1/GPa) = 0.04037080
#
# Stress axis : x y z
#
# Youngs Moduli (GPa) = 111.50336 68.15275 99.96901
#
# Poissons Ratio (x) = -0.03869 -0.14851
# Poissons Ratio (y) = -0.06331 -0.13095
# Poissons Ratio (z) = -0.16565 -0.08927
#
# Static dielectric constant tensor:
#      x y z
#    x 1.790000 0.000000 0.000000 
#    y 0.000000 1.655600 0.000000 
#    z 0.000000 0.000000 1.826010 
# 
# From -- ./inp_files/2318.got.cif
#   From: 2010.05.17/outbox.cif.g08.bks.cpg/sg38_2_cif.got.tgz:2318.got - 2010.06.03 18:07:57.
