data_PCOD9355767
_publ_section_title
;
Structure prediction by ZEFSAII (Michael W. Deem and Ramdas Pophale) SiO2 
 PCOD9355767
Probable space group: C C C 2
;
_chemical_formula_sum "Si O2"
_cell_formula_units_Z 32
_cell_length_a 15.000000
_cell_length_b 9.000000
_cell_length_c 24.000000
_cell_angle_alpha 90.000000
_cell_angle_beta 90.000000
_cell_angle_gamma 90.000000
_cell_volume 3240.000000
_symmetry_space_group_name_H-M "C C C 2"
_symmetry_group_IT_number 37
_symmetry_cell_setting 'orthorhombic'
loop_
_space_group_symop_operation_xyz
x,y,z
-x,-y,z
-x,y,1/2+z
x,-y,1/2+z
1/2+x,1/2+y,z
1/2-x,1/2-y,z
1/2-x,1/2+y,1/2+z
1/2+x,1/2-y,1/2+z
loop_
_atom_site_type_symbol
_atom_site_label
_atom_site_fract_x
_atom_site_fract_y
_atom_site_fract_z
Si Si1 0.769566 0.421370 0.778200
Si Si2 0.666983 0.864324 0.397641
Si Si3 0.651484 0.321784 0.305049
Si Si4 0.558411 0.149812 0.078236
Si Si5 0.983424 0.824768 0.903440
Si Si6 0.894448 0.185204 0.524401
Si Si7 0.788294 0.512362 0.013406
Si Si8 0.158042 0.664120 0.194765
O O1 0.750000 0.250000 0.765091
O O2 0.829747 0.427978 0.834517
O O3 0.677989 0.505806 0.796082
O O4 0.812074 0.510369 0.725785
O O5 0.750000 0.750000 0.399576
O O6 0.573257 0.776099 0.405719
O O7 0.691337 0.979199 0.447664
O O8 0.750000 0.250000 0.314741
O O9 0.583641 0.283434 0.353604
O O10 0.618077 0.258272 0.246147
O O11 0.487449 0.282779 0.060592
O O12 0.593201 0.156920 0.142027
O O13 0.500000 0.000000 0.070191
O O14 0.651729 0.118957 0.043356
O O15 0.932533 0.814925 0.961985
O O16 0.000000 0.000000 0.894703
O O17 0.836497 0.334808 0.531192
O O18 0.818365 0.049058 0.526992
O O19 0.250000 0.750000 0.178704
#
# Coordination Sequence:
#
# PCOD9355767 Si02
#       8
#     8   8   8   8   8   8   8   8
#     4   9  18  37  60  93 127 162 213 262 323 390
#     4  11  22  36  59  95 133 167 212 265 329 398
#     4   9  21  40  64  93 129 171 213 259 328 402
#     4  10  21  42  63  91 123 163 224 275 311 407
#     4  12  23  37  61  94 134 167 211 267 327 394
#     4  10  22  39  62  91 127 166 215 268 330 401
#     4  10  21  39  63  90 126 171 207 272 337 386
#     4   9  21  41  66  90 125 172 214 264 330 387
#
# _framework density 9.8765429999999999
#
# number of rings (size 3 to 8) (size 9 to 14) (size 15 to 20)
#    0.000    2.250    1.250    3.000    5.250    1.500 
#    6.750    0.000    5.500    0.000    0.000    0.000 
#    0.000    0.000    0.000    0.000    0.000    0.000 
#
# Total GULP energy -178278.427528 kJ/mol
# GULP energy per Si atom -5571.200860 kJ/mol
# Density = 0.985406 g / cm^3
# Si number density = 9.876543 Si / 1000 Ang^3
#
#
#
# Elastic Constant Matrix: (Units=GPa)
#
#
# Indices 1 2 3 4 5 6 
#
# 1 133.2160 26.7603 57.4203 0.0000 0.0000 0.0000
# 2 26.7603 80.3726 16.8543 0.0000 0.0000 0.0000
# 3 57.4203 16.8543 119.3004 0.0000 0.0000 0.0000
# 4 0.0000 0.0000 0.0000 13.1327 0.0000 0.0000
# 5 0.0000 0.0000 0.0000 0.0000 50.8936 0.0000
# 6 0.0000 0.0000 0.0000 0.0000 0.0000 30.4238
#
#
#
# Elastic Compliance Matrix: (Units=1/GPa)
#
#
# Indices 1 2 3 4 5 6 
#
# 1 0.009889 -0.002365 -0.004426 0.000000 0.000000 0.000000
# 2 -0.002365 0.013387 -0.000753 0.000000 0.000000 0.000000
# 3 -0.004426 -0.000753 0.010619 0.000000 0.000000 0.000000
# 4 0.000000 0.000000 0.000000 0.076146 0.000000 0.000000
# 5 0.000000 0.000000 0.000000 0.000000 0.019649 0.000000
# 6 0.000000 0.000000 0.000000 0.000000 0.000000 0.032869
#
#
# Mechanical properties :
#
#
# Convention : Reuss Voigt Hill
#
# Bulk Modulus (GPa) = 53.16809 59.43986 56.30398
# Shear Modulus (GPa) = 27.18642 34.34697 30.76669
#
# Velocity S-wave (km/s) = 3.71389 4.17443 3.95088
# Velocity P-wave (km/s) = 6.73539 7.30693 7.02697
#
# Compressibility (1/GPa) = 0.01880827
#
# Stress axis : x y z
#
# Youngs Moduli (GPa) = 101.12029 74.69767 94.17309
#
# Poissons Ratio (x) = 0.17663 0.41678
# Poissons Ratio (y) = 0.23910 0.07093
# Poissons Ratio (z) = 0.44753 0.05626
#
# Static dielectric constant tensor:
#      x y z
#    x 1.717200 0.000000 0.000000 
#    y 0.000000 1.777060 0.000000 
#    z 0.000000 0.000000 1.708370 
# 
# From -- ./inp_files/18894.got.cif
#   From: 2010.05.17/outbox.ucp.g08.bks.cvg/sg37_10_cif.got.tgz:18894.got - 2010.06.11 10:38:43.
