data_PCOD9355132
_publ_section_title
;
Structure prediction by ZEFSAII (Michael W. Deem and Ramdas Pophale) SiO2 
 PCOD9355132
Probable space group: C C C 2
;
_chemical_formula_sum "Si O2"
_cell_formula_units_Z 56
_cell_length_a 24.717271
_cell_length_b 10.365224
_cell_length_c 9.149102
_cell_angle_alpha 90.000000
_cell_angle_beta 90.000000
_cell_angle_gamma 90.000000
_cell_volume 2344.000395
_symmetry_space_group_name_H-M "C C C 2"
_symmetry_group_IT_number 37
_symmetry_cell_setting 'orthorhombic'
loop_
_space_group_symop_operation_xyz
x,y,z
-x,-y,z
-x,y,1/2+z
x,-y,1/2+z
1/2+x,1/2+y,z
1/2-x,1/2-y,z
1/2-x,1/2+y,1/2+z
1/2+x,1/2-y,1/2+z
loop_
_atom_site_type_symbol
_atom_site_label
_atom_site_fract_x
_atom_site_fract_y
_atom_site_fract_z
Si Si1 0.525980 0.177231 0.329770
Si Si2 0.368461 0.890135 0.195471
Si Si3 0.546479 0.401982 0.944654
Si Si4 0.262361 0.388174 0.143934
Si Si5 0.110016 0.090033 0.154485
Si Si6 0.694644 0.953763 0.423081
Si Si7 0.932773 0.631894 0.103641
O O1 0.489901 0.272317 0.434059
O O2 0.483370 0.138492 0.209794
O O3 0.549426 0.078047 0.447340
O O4 0.581996 0.204836 0.239429
O O5 0.390869 0.035134 0.172613
O O6 0.331169 0.920904 0.337533
O O7 0.343822 0.867129 0.031550
O O8 0.500000 0.500000 0.893545
O O9 0.591069 0.394088 0.820277
O O10 0.424304 0.526564 0.080601
O O11 0.250000 0.250000 0.074035
O O12 0.325656 0.418775 0.153824
O O13 0.228440 0.385691 0.295222
O O14 0.236284 0.494706 0.042020
O O15 0.092353 0.226019 0.080948
#
# Coordination Sequence:
#
# PCOD9355132 Si02
#       7
#     8   8   8   8   8   8   8
#     4  11  25  39  65 103 138 185 229 282 358 439
#     4  11  22  43  68  96 144 179 232 297 369 430
#     4  11  23  41  66  98 140 180 243 285 354 451
#     4  11  24  46  72 101 140 185 251 307 375 431
#     4  11  23  42  69  95 136 192 231 304 361 420
#     4  10  23  43  70 104 134 182 242 305 355 442
#     4  11  24  41  65 101 135 187 231 281 360 437
#
# _framework density 23.890781
#
# number of rings (size 3 to 8) (size 9 to 14) (size 15 to 20)
#    0.000    1.143    2.857    3.429    4.000    1.143 
#    0.000    4.286    0.000    0.000    0.000    0.000 
#    0.000    0.000    0.000    0.000    0.000    0.000 
#
# Total GULP energy -156120.292659 kJ/mol
# GULP energy per Si atom -5575.724738 kJ/mol
# Density = 2.383640 g / cm^3
# Si number density = 23.890781 Si / 1000 Ang^3
#
#
#
# Elastic Constant Matrix: (Units=GPa)
#
#
# Indices 1 2 3 4 5 6 
#
# 1 151.5506 22.1877 41.5024 0.0000 0.0000 0.0000
# 2 22.1877 61.4326 15.2823 0.0000 0.0000 0.0000
# 3 41.5024 15.2823 109.6353 0.0000 0.0000 0.0000
# 4 0.0000 0.0000 0.0000 20.9192 0.0000 0.0000
# 5 0.0000 0.0000 0.0000 0.0000 32.2877 0.0000
# 6 0.0000 0.0000 0.0000 0.0000 0.0000 28.4805
#
#
#
# Elastic Compliance Matrix: (Units=1/GPa)
#
#
# Indices 1 2 3 4 5 6 
#
# 1 0.007616 -0.002107 -0.002589 0.000000 0.000000 0.000000
# 2 -0.002107 0.017445 -0.001634 0.000000 0.000000 0.000000
# 3 -0.002589 -0.001634 0.010329 0.000000 0.000000 0.000000
# 4 0.000000 0.000000 0.000000 0.047803 0.000000 0.000000
# 5 0.000000 0.000000 0.000000 0.000000 0.030972 0.000000
# 6 0.000000 0.000000 0.000000 0.000000 0.000000 0.035112
#
#
# Mechanical properties :
#
#
# Convention : Reuss Voigt Hill
#
# Bulk Modulus (GPa) = 43.99462 53.39593 48.69528
# Shear Modulus (GPa) = 29.49607 32.58053 31.03830
#
# Velocity S-wave (km/s) = 3.51753 3.69688 3.60832
# Velocity P-wave (km/s) = 5.91204 6.37346 6.14708
#
# Compressibility (1/GPa) = 0.02273005
#
# Stress axis : x y z
#
# Youngs Moduli (GPa) = 131.30300 57.32172 96.81313
#
# Poissons Ratio (x) = 0.12075 0.25069
# Poissons Ratio (y) = 0.27659 0.15822
# Poissons Ratio (z) = 0.34000 0.09368
#
# Static dielectric constant tensor:
#      x y z
#    x 1.987370 0.000000 0.000000 
#    y 0.000000 1.996070 0.000000 
#    z 0.000000 0.000000 1.946990 
# 
# From -- ./inp_files/4378.got.cif
#   From: 2010.05.17/outbox.cif.g08.bks.cpg/sg37_3_cif.got.tgz:4378.got - 2010.06.03 17:53:42.
