data_PCOD9355504
_publ_section_title
;
Structure prediction by ZEFSAII (Michael W. Deem and Ramdas Pophale) SiO2 
 PCOD9355504
Probable space group: C C C 2
;
_chemical_formula_sum "Si O2"
_cell_formula_units_Z 64
_cell_length_a 8.290936
_cell_length_b 13.640407
_cell_length_c 27.178633
_cell_angle_alpha 90.000000
_cell_angle_beta 90.000000
_cell_angle_gamma 90.000000
_cell_volume 3073.678936
_symmetry_space_group_name_H-M "C C C 2"
_symmetry_group_IT_number 37
_symmetry_cell_setting 'orthorhombic'
loop_
_space_group_symop_operation_xyz
x,y,z
-x,-y,z
-x,y,1/2+z
x,-y,1/2+z
1/2+x,1/2+y,z
1/2-x,1/2-y,z
1/2-x,1/2+y,1/2+z
1/2+x,1/2-y,1/2+z
loop_
_atom_site_type_symbol
_atom_site_label
_atom_site_fract_x
_atom_site_fract_y
_atom_site_fract_z
Si Si1 0.870299 0.080303 0.519400
Si Si2 0.124923 0.335836 0.251391
Si Si3 0.886460 0.331444 0.341235
Si Si4 0.329173 0.048254 0.598934
Si Si5 0.088232 0.604083 0.448446
Si Si6 0.790533 0.639303 0.696687
Si Si7 0.318440 0.523959 0.285987
Si Si8 0.077848 0.273021 0.532227
O O1 0.769822 0.098420 0.469530
O O2 0.963694 0.177655 0.539447
O O3 0.764208 0.023909 0.561320
O O4 0.000000 0.000000 0.505843
O O5 0.250000 0.250000 0.237259
O O6 0.231806 0.431184 0.261741
O O7 0.030156 0.312973 0.302638
O O8 0.979370 0.360549 0.213464
O O9 0.750000 0.250000 0.334382
O O10 0.932754 0.337461 0.398055
O O11 0.798795 0.434351 0.328038
O O12 0.249701 0.068291 0.651487
O O13 0.369629 0.156277 0.577038
O O14 0.500000 0.000000 0.608200
O O15 0.000000 0.500000 0.443136
O O16 0.009966 0.658430 0.494116
O O17 0.750000 0.750000 0.683308
O O18 0.686497 0.607197 0.743854
O O19 0.500000 0.500000 0.301536
O O20 0.250000 0.250000 0.508634
#
# Coordination Sequence:
#
# PCOD9355504 Si02
#       8
#     8   8   8   8   8   8   8   8
#     4  12  24  42  67  92 129 175 217 281 335 401
#     4  11  22  43  67  98 134 176 217 270 335 393
#     4  11  23  40  66  98 134 173 218 274 327 405
#     4  12  24  45  65  95 131 173 223 274 334 399
#     4  12  23  44  66  98 131 175 225 273 341 401
#     4  11  24  43  66  96 132 171 215 273 327 399
#     4  11  22  42  67  96 133 173 216 272 328 389
#     4  12  23  43  65  93 130 170 220 275 336 393
#
# _framework density 20.821954999999999
#
# number of rings (size 3 to 8) (size 9 to 14) (size 15 to 20)
#    0.000    0.500    3.750    7.500    0.000    1.500 
#    4.500    5.000    0.000    0.000    0.000    0.000 
#    0.000    0.000    0.000    0.000    0.000    0.000 
#
# Total GULP energy -178692.085187 kJ/mol
# GULP energy per Si atom -5584.127662 kJ/mol
# Density = 2.077456 g / cm^3
# Si number density = 20.821955 Si / 1000 Ang^3
#
#
#
# Elastic Constant Matrix: (Units=GPa)
#
#
# Indices 1 2 3 4 5 6 
#
# 1 51.8793 5.3749 -0.4360 0.0000 0.0000 0.0000
# 2 5.3749 72.9951 -13.9774 0.0000 0.0000 0.0000
# 3 -0.4360 -13.9774 65.5483 0.0000 0.0000 0.0000
# 4 0.0000 0.0000 0.0000 21.1969 0.0000 0.0000
# 5 0.0000 0.0000 0.0000 0.0000 9.9000 0.0000
# 6 0.0000 0.0000 0.0000 0.0000 0.0000 43.1563
#
#
#
# Elastic Compliance Matrix: (Units=1/GPa)
#
#
# Indices 1 2 3 4 5 6 
#
# 1 0.019426 -0.001465 -0.000183 0.000000 0.000000 0.000000
# 2 -0.001465 0.014393 0.003059 0.000000 0.000000 0.000000
# 3 -0.000183 0.003059 0.015907 0.000000 0.000000 0.000000
# 4 0.000000 0.000000 0.000000 0.047177 0.000000 0.000000
# 5 0.000000 0.000000 0.000000 0.000000 0.101010 0.000000
# 6 0.000000 0.000000 0.000000 0.000000 0.000000 0.023172
#
#
# Mechanical properties :
#
#
# Convention : Reuss Voigt Hill
#
# Bulk Modulus (GPa) = 19.03039 19.14952 19.08996
# Shear Modulus (GPa) = 21.20630 28.14806 24.67718
#
# Velocity S-wave (km/s) = 3.19479 3.68073 3.44634
# Velocity P-wave (km/s) = 4.77162 5.22307 5.00244
#
# Compressibility (1/GPa) = 0.05254754
#
# Stress axis : x y z
#
# Youngs Moduli (GPa) = 51.47795 69.47674 62.86502
#
# Poissons Ratio (x) = 0.10182 0.01152
# Poissons Ratio (y) = 0.07544 -0.19233
# Poissons Ratio (z) = 0.00944 -0.21256
#
# Static dielectric constant tensor:
#      x y z
#    x 1.643290 0.000000 0.000000 
#    y 0.000000 1.872900 0.000000 
#    z 0.000000 0.000000 1.744680 
# 
# From -- ./inp_files/20442.got.cif
#   From: 2010.05.17/outbox.cif.g08.bks.cpg/sg37_11_cif.got.tgz:20442.got - 2010.06.03 17:53:42.
