data_PCOD9355105
_publ_section_title
;
Structure prediction by ZEFSAII (Michael W. Deem and Ramdas Pophale) SiO2 
 PCOD9355105
Probable space group: C C C 2
;
_chemical_formula_sum "Si O2"
_cell_formula_units_Z 48
_cell_length_a 12.228814
_cell_length_b 13.925786
_cell_length_c 12.895197
_cell_angle_alpha 90.000000
_cell_angle_beta 90.000000
_cell_angle_gamma 90.000000
_cell_volume 2195.998493
_symmetry_space_group_name_H-M "C C C 2"
_symmetry_group_IT_number 37
_symmetry_cell_setting 'orthorhombic'
loop_
_space_group_symop_operation_xyz
x,y,z
-x,-y,z
-x,y,1/2+z
x,-y,1/2+z
1/2+x,1/2+y,z
1/2-x,1/2-y,z
1/2-x,1/2+y,1/2+z
1/2+x,1/2-y,1/2+z
loop_
_atom_site_type_symbol
_atom_site_label
_atom_site_fract_x
_atom_site_fract_y
_atom_site_fract_z
Si Si1 0.028939 0.166185 0.086020
Si Si2 0.750000 0.250000 0.680653
Si Si3 0.678865 0.053213 0.678992
Si Si4 0.500000 0.000000 0.830532
Si Si5 0.137943 0.074047 0.741749
Si Si6 0.750000 0.750000 0.855792
Si Si7 0.941606 0.650801 0.989255
Si Si8 0.500000 0.500000 0.418347
O O1 0.152988 0.195869 0.117437
O O2 0.965595 0.118211 0.181420
O O3 0.986332 0.270725 0.050035
O O4 0.013385 0.092431 0.991625
O O5 0.697123 0.157503 0.733412
O O6 0.618185 0.081370 0.572476
O O7 0.602749 0.992689 0.754937
O O8 0.788703 0.991727 0.666755
O O9 0.492919 0.909723 0.906005
O O10 0.203528 0.163881 0.786877
O O11 0.101435 0.008107 0.838770
O O12 0.847452 0.707478 0.926123
#
# Coordination Sequence:
#
# PCOD9355105 Si02
#       8
#     8   4   8   4   8   4   8   4
#     4  11  25  43  69 103 143 184 234 294 361 421
#     4  10  23  42  68  95 138 186 219 284 362 421
#     4  11  25  44  70 100 144 182 239 298 355 425
#     4  12  26  44  70 104 136 186 240 290 366 432
#     4  12  27  43  71 107 140 186 243 297 354 425
#     4  12  25  46  70 101 142 190 237 286 360 435
#     4  11  25  45  69  99 140 189 233 293 365 427
#     4  12  24  40  70 104 140 178 234 292 356 434
#
# _framework density 21.857938000000001
#
# number of rings (size 3 to 8) (size 9 to 14) (size 15 to 20)
#    0.000    0.667    3.333    5.000    7.000    2.667 
#    0.000    0.000    0.000    1.000    0.000    0.000 
#    0.000    0.000    0.000    0.000    0.000    0.000 
#
# Total GULP energy -134017.254710 kJ/mol
# GULP energy per Si atom -5584.052280 kJ/mol
# Density = 2.180819 g / cm^3
# Si number density = 21.857938 Si / 1000 Ang^3
#
#
#
# Elastic Constant Matrix: (Units=GPa)
#
#
# Indices 1 2 3 4 5 6 
#
# 1 73.4936 45.1943 30.9416 0.0000 0.0000 0.0000
# 2 45.1943 106.8132 54.8468 0.0000 0.0000 0.0000
# 3 30.9416 54.8468 88.2418 0.0000 0.0000 0.0000
# 4 0.0000 0.0000 0.0000 38.2415 0.0000 0.0000
# 5 0.0000 0.0000 0.0000 0.0000 12.4445 0.0000
# 6 0.0000 0.0000 0.0000 0.0000 0.0000 51.7029
#
#
#
# Elastic Compliance Matrix: (Units=1/GPa)
#
#
# Indices 1 2 3 4 5 6 
#
# 1 0.018735 -0.006689 -0.002412 0.000000 0.000000 0.000000
# 2 -0.006689 0.016139 -0.007686 0.000000 0.000000 0.000000
# 3 -0.002412 -0.007686 0.016955 0.000000 0.000000 0.000000
# 4 0.000000 0.000000 0.000000 0.026150 0.000000 0.000000
# 5 0.000000 0.000000 0.000000 0.000000 0.080357 0.000000
# 6 0.000000 0.000000 0.000000 0.000000 0.000000 0.019341
#
#
# Mechanical properties :
#
#
# Convention : Reuss Voigt Hill
#
# Bulk Modulus (GPa) = 54.77516 58.94601 56.86058
# Shear Modulus (GPa) = 23.00595 29.64884 26.32739
#
# Velocity S-wave (km/s) = 3.24778 3.68697 3.47432
# Velocity P-wave (km/s) = 6.25924 6.71948 6.49344
#
# Compressibility (1/GPa) = 0.01825645
#
# Stress axis : x y z
#
# Youngs Moduli (GPa) = 53.37532 61.96319 58.97849
#
# Poissons Ratio (x) = 0.41444 0.14227
# Poissons Ratio (y) = 0.35700 0.45329
# Poissons Ratio (z) = 0.12875 0.47623
#
# Static dielectric constant tensor:
#      x y z
#    x 1.859300 0.000000 0.000000 
#    y 0.000000 1.842350 0.000000 
#    z 0.000000 0.000000 1.776950 
# 
# From -- ./inp_files/11562.got.cif
#   From: 2010.05.17/outbox.cif.g08.bks.cpg/sg37_6_cif.got.tgz:11562.got - 2010.06.03 17:53:42.
