data_PCOD9355808
_publ_section_title
;
Structure prediction by ZEFSAII (Michael W. Deem and Ramdas Pophale) SiO2 
 PCOD9355808
Probable space group: A M M 2
;
_chemical_formula_sum "Si O2"
_cell_formula_units_Z 48
_cell_length_a 7.548485
_cell_length_b 19.870888
_cell_length_c 13.662921
_cell_angle_alpha 90.000000
_cell_angle_beta 90.000000
_cell_angle_gamma 90.000000
_cell_volume 2049.371202
_symmetry_space_group_name_H-M "A M M 2"
_symmetry_group_IT_number 38
_symmetry_cell_setting 'orthorhombic'
loop_
_space_group_symop_operation_xyz
x,y,z
-x,-y,z
-x,y,z
x,-y,z
x,1/2+y,1/2+z
-x,1/2-y,1/2+z
-x,1/2+y,1/2+z
x,1/2-y,1/2+z
loop_
_atom_site_type_symbol
_atom_site_label
_atom_site_fract_x
_atom_site_fract_y
_atom_site_fract_z
Si Si1 0.300940 0.881499 0.741570
Si Si2 0.712342 0.219735 0.585070
Si Si3 0.283818 0.000000 0.879912
Si Si4 0.710914 0.146794 0.167659
Si Si5 0.715869 0.500000 0.608216
Si Si6 0.202409 0.000000 0.615949
Si Si7 0.200769 0.500000 0.885311
Si Si8 0.210199 0.146258 0.380579
O O1 0.500000 0.862063 0.773593
O O2 0.215083 0.820339 0.680860
O O3 0.224273 0.930312 0.826803
O O4 0.304555 0.935701 0.653851
O O5 0.500000 0.219249 0.598014
O O6 0.775148 0.296917 0.590878
O O7 0.742128 0.184655 0.480076
O O8 0.500000 0.000000 0.869049
O O9 0.240576 0.000000 0.993346
O O10 0.500000 0.141478 0.154888
O O11 0.781197 0.070843 0.153127
O O12 0.746457 0.177181 0.275465
O O13 0.500000 0.500000 0.617194
O O14 0.186301 0.000000 0.501708
O O15 0.000000 0.000000 0.654906
O O16 0.291093 0.571317 0.866944
O O17 0.000000 0.500000 0.843237
O O18 0.000000 0.137085 0.388027
#
# Coordination Sequence:
#
# PCOD9355808 Si02
#       8
#     8   8   4   8   4   4   4   8
#     4   9  17  30  49  79 112 144 183 227 278 334
#     4  10  21  36  56  82 115 149 186 238 291 340
#     4   8  15  28  50  77 104 138 181 225 272 327
#     4  10  22  39  59  85 113 147 192 238 285 337
#     4   9  18  36  60  83 109 147 192 236 279 332
#     4  10  16  27  47  74 110 145 177 220 268 320
#     4   9  18  31  51  80 111 148 186 227 273 321
#     4  11  22  38  59  84 115 153 192 232 284 339
#
# _framework density 23.421818999999999
#
# number of rings (size 3 to 8) (size 9 to 14) (size 15 to 20)
#    0.000    2.333    1.667    1.750    0.000    2.000 
#    0.000    6.250    0.000    4.000    0.000    0.000 
#    0.000    0.000    0.000    0.000    0.000    0.000 
#
# Total GULP energy -133680.121631 kJ/mol
# GULP energy per Si atom -5570.005068 kJ/mol
# Density = 2.336851 g / cm^3
# Si number density = 23.421819 Si / 1000 Ang^3
#
#
#
# Elastic Constant Matrix: (Units=GPa)
#
#
# Indices 1 2 3 4 5 6 
#
# 1 67.9181 6.1593 -11.4153 0.0000 0.0000 0.0000
# 2 6.1593 169.8618 65.9925 0.0000 0.0000 0.0000
# 3 -11.4153 65.9925 126.5952 0.0000 0.0000 0.0000
# 4 0.0000 0.0000 0.0000 -34.6373 0.0000 0.0000
# 5 0.0000 0.0000 0.0000 0.0000 83.3124 0.0000
# 6 0.0000 0.0000 0.0000 0.0000 0.0000 -1.1607
#
#
#
# Elastic Compliance Matrix: (Units=1/GPa)
#
#
# Indices 1 2 3 4 5 6 
#
# 1 0.015196 -0.001359 0.002078 0.000000 0.000000 0.000000
# 2 -0.001359 0.007504 -0.004034 0.000000 0.000000 0.000000
# 3 0.002078 -0.004034 0.010190 0.000000 0.000000 0.000000
# 4 0.000000 0.000000 0.000000 -0.028871 0.000000 0.000000
# 5 0.000000 0.000000 0.000000 0.000000 0.012003 0.000000
# 6 0.000000 0.000000 0.000000 0.000000 0.000000 -0.861548
#
#
# Mechanical properties :
#
#
# Convention : Reuss Voigt Hill
#
# Bulk Modulus (GPa) = 38.07921 53.98312 46.03117
# Shear Modulus (GPa) = -6.02305 29.74545 11.86120
#
# Velocity S-wave (km/s) = -1.60535 3.56756 2.25281
# Velocity P-wave (km/s) = 3.58568 6.32994 5.14419
#
# Compressibility (1/GPa) = 0.02626105
#
# Stress axis : x y z
#
# Youngs Moduli (GPa) = 65.80614 133.26826 98.14011
#
# Poissons Ratio (x) = 0.18105 -0.20398
# Poissons Ratio (y) = 0.08940 0.39590
# Poissons Ratio (z) = -0.13677 0.53761
#
# Static dielectric constant tensor:
#      x y z
#    x 1.822450 0.000000 0.000000 
#    y 0.000000 1.973710 0.000000 
#    z 0.000000 0.000000 1.845860 
# 
# From -- ./inp_files/12158.got.cif
#   From: 2010.05.17/outbox.cif.g08.bks.cpg/sg38_7_cif.got.tgz:12158.got - 2010.06.03 18:07:57.
