data_PCOD9355158
_publ_section_title
;
Structure prediction by ZEFSAII (Michael W. Deem and Ramdas Pophale) SiO2 
 PCOD9355158
Probable space group: C C C 2
;
_chemical_formula_sum "Si O2"
_cell_formula_units_Z 60
_cell_length_a 31.748764
_cell_length_b 8.784357
_cell_length_c 10.500144
_cell_angle_alpha 90.000000
_cell_angle_beta 90.000000
_cell_angle_gamma 90.000000
_cell_volume 2928.411172
_symmetry_space_group_name_H-M "C C C 2"
_symmetry_group_IT_number 37
_symmetry_cell_setting 'orthorhombic'
loop_
_space_group_symop_operation_xyz
x,y,z
-x,-y,z
-x,y,1/2+z
x,-y,1/2+z
1/2+x,1/2+y,z
1/2-x,1/2-y,z
1/2-x,1/2+y,1/2+z
1/2+x,1/2-y,1/2+z
loop_
_atom_site_type_symbol
_atom_site_label
_atom_site_fract_x
_atom_site_fract_y
_atom_site_fract_z
Si Si1 0.855418 0.909071 0.978110
Si Si2 0.635681 0.890293 0.126171
Si Si3 0.225131 0.408661 0.261659
Si Si4 0.421250 0.161000 0.572458
Si Si5 0.405623 0.544596 0.218629
Si Si6 0.058902 0.746630 0.790536
Si Si7 0.241742 0.931095 0.500783
Si Si8 0.500000 0.000000 0.184034
O O1 0.879019 0.948214 0.848252
O O2 0.806913 0.957187 0.968809
O O3 0.857831 0.729019 0.011261
O O4 0.877145 0.988753 0.099873
O O5 0.677790 0.888592 0.210809
O O6 0.597608 0.827680 0.212578
O O7 0.620278 0.055267 0.078651
O O8 0.250000 0.250000 0.280499
O O9 0.229090 0.497964 0.392691
O O10 0.248239 0.490272 0.142429
O O11 0.420294 0.287923 0.681503
O O12 0.428142 0.239956 0.437366
O O13 0.461551 0.056018 0.598138
O O14 0.442239 0.419899 0.241029
O O15 0.018459 0.641142 0.765076
O O16 0.250000 0.750000 0.504862
#
# Coordination Sequence:
#
# PCOD9355158 Si02
#       8
#     8   8   8   8   8   8   8   4
#     4  11  22  44  65  94 137 177 229 284 332 399
#     4  10  24  40  68  93 131 177 226 280 334 404
#     4  11  24  43  60  92 132 176 228 282 335 394
#     4  11  24  43  70 100 129 173 218 271 342 405
#     4  11  24  42  71 100 133 179 224 272 335 405
#     4  10  23  45  67 100 131 172 218 271 336 408
#     4  11  24  41  62  91 131 178 226 282 338 385
#     4  10  24  46  70 100 134 166 216 278 332 410
#
# _framework density 20.488927
#
# number of rings (size 3 to 8) (size 9 to 14) (size 15 to 20)
#    0.000    1.333    4.000    1.200    9.333    1.067 
#    2.400    1.333    0.000    0.000    0.000    0.000 
#    0.000    0.000    0.000    0.000    0.000    0.000 
#
# Total GULP energy -167593.662279 kJ/mol
# GULP energy per Si atom -5586.455409 kJ/mol
# Density = 2.044229 g / cm^3
# Si number density = 20.488927 Si / 1000 Ang^3
#
#
#
# Elastic Constant Matrix: (Units=GPa)
#
#
# Indices 1 2 3 4 5 6 
#
# 1 73.9311 13.8700 -8.1831 0.0000 0.0000 0.0000
# 2 13.8700 69.3223 3.3332 0.0000 0.0000 0.0000
# 3 -8.1831 3.3332 90.2538 0.0000 0.0000 0.0000
# 4 0.0000 0.0000 0.0000 22.3384 0.0000 0.0000
# 5 0.0000 0.0000 0.0000 0.0000 20.7929 0.0000
# 6 0.0000 0.0000 0.0000 0.0000 0.0000 25.3465
#
#
#
# Elastic Compliance Matrix: (Units=1/GPa)
#
#
# Indices 1 2 3 4 5 6 
#
# 1 0.014227 -0.002914 0.001398 0.000000 0.000000 0.000000
# 2 -0.002914 0.015048 -0.000820 0.000000 0.000000 0.000000
# 3 0.001398 -0.000820 0.011237 0.000000 0.000000 0.000000
# 4 0.000000 0.000000 0.000000 0.044766 0.000000 0.000000
# 5 0.000000 0.000000 0.000000 0.000000 0.048093 0.000000
# 6 0.000000 0.000000 0.000000 0.000000 0.000000 0.039453
#
#
# Mechanical properties :
#
#
# Convention : Reuss Voigt Hill
#
# Bulk Modulus (GPa) = 27.90195 27.94970 27.92582
# Shear Modulus (GPa) = 26.39312 28.66140 27.52726
#
# Velocity S-wave (km/s) = 3.59300 3.74421 3.66938
# Velocity P-wave (km/s) = 5.55522 5.68886 5.62244
#
# Compressibility (1/GPa) = 0.03583979
#
# Stress axis : x y z
#
# Youngs Moduli (GPa) = 70.28664 66.45498 88.99281
#
# Poissons Ratio (x) = 0.19364 -0.12438
# Poissons Ratio (y) = 0.20480 0.07297
# Poissons Ratio (z) = -0.09823 0.05449
#
# Static dielectric constant tensor:
#      x y z
#    x 1.716270 0.000000 0.000000 
#    y 0.000000 1.773210 0.000000 
#    z 0.000000 0.000000 1.698710 
# 
# From -- ./inp_files/6597.got.cif
#   From: 2010.05.17/outbox.cif.g08.bks.cpg/sg37_4_cif.got.tgz:6597.got - 2010.06.03 17:53:42.
