data_PCOD9355814
_publ_section_title
;
Structure prediction by ZEFSAII (Michael W. Deem and Ramdas Pophale) SiO2 
 PCOD9355814
Probable space group: A M M 2
;
_chemical_formula_sum "Si O2"
_cell_formula_units_Z 52
_cell_length_a 7.778340
_cell_length_b 12.521812
_cell_length_c 25.984809
_cell_angle_alpha 90.000000
_cell_angle_beta 90.000000
_cell_angle_gamma 90.000000
_cell_volume 2530.892103
_symmetry_space_group_name_H-M "A M M 2"
_symmetry_group_IT_number 38
_symmetry_cell_setting 'orthorhombic'
loop_
_space_group_symop_operation_xyz
x,y,z
-x,-y,z
-x,y,z
x,-y,z
x,1/2+y,1/2+z
-x,1/2-y,1/2+z
-x,1/2+y,1/2+z
x,1/2-y,1/2+z
loop_
_atom_site_type_symbol
_atom_site_label
_atom_site_fract_x
_atom_site_fract_y
_atom_site_fract_z
Si Si1 0.295745 0.619558 0.420360
Si Si2 0.711173 0.235023 0.515521
Si Si3 0.205704 0.122198 0.228536
Si Si4 0.253309 0.000000 0.506050
Si Si5 0.196428 0.000000 0.615964
Si Si6 0.295551 0.232578 0.633442
Si Si7 0.793635 0.000000 0.396147
Si Si8 0.205288 0.215677 0.333558
O O1 0.500000 0.611245 0.427512
O O2 0.223691 0.500000 0.416838
O O3 0.234980 0.683407 0.471062
O O4 0.268903 0.687751 0.368697
O O5 0.500000 0.217470 0.511826
O O6 0.806762 0.122984 0.506115
O O7 0.748999 0.265214 0.574635
O O8 0.237400 0.181687 0.175075
O O9 0.272566 0.194491 0.275938
O O10 0.000000 0.114546 0.235805
O O11 0.272268 0.000000 0.229752
O O12 0.317505 0.000000 0.565410
O O13 0.317588 0.000000 0.447535
O O14 0.224663 0.887301 0.643727
O O15 0.000000 0.000000 0.596158
O O16 0.500000 0.224846 0.635965
O O17 0.759817 0.894420 0.363684
O O18 0.000000 0.000000 0.409875
O O19 0.000000 0.229038 0.330728
#
# Coordination Sequence:
#
# PCOD9355814 Si02
#       8
#     8   8   8   4   4   8   4   8
#     4  10  21  37  55  79 113 150 186 224 271 328
#     4   9  18  32  52  79 111 147 183 225 275 330
#     4  10  21  39  61  83 110 144 186 235 287 341
#     4  10  16  28  53  83 112 142 182 226 274 326
#     4  10  20  35  56  85 118 151 187 228 278 334
#     4  10  21  37  58  84 114 149 190 235 282 332
#     4  10  17  29  53  84 111 139 172 218 275 326
#     4  10  20  37  59  82 110 143 181 224 279 335
#
# _framework density 20.546115
#
# number of rings (size 3 to 8) (size 9 to 14) (size 15 to 20)
#    0.000    2.154    2.308    1.154    0.000    3.692 
#    1.385    2.692    0.000    0.000    0.000    0.000 
#    0.000    0.000    0.000    0.000    0.000    0.000 
#
# Total GULP energy -144786.220625 kJ/mol
# GULP energy per Si atom -5568.700793 kJ/mol
# Density = 2.049935 g / cm^3
# Si number density = 20.546115 Si / 1000 Ang^3
#
#
#
# Elastic Constant Matrix: (Units=GPa)
#
#
# Indices 1 2 3 4 5 6 
#
# 1 47.9468 14.6684 14.1948 0.0000 0.0000 0.0000
# 2 14.6684 177.4129 89.1689 0.0000 0.0000 0.0000
# 3 14.1948 89.1689 154.7352 0.0000 0.0000 0.0000
# 4 0.0000 0.0000 0.0000 20.9254 0.0000 0.0000
# 5 0.0000 0.0000 0.0000 0.0000 25.6020 0.0000
# 6 0.0000 0.0000 0.0000 0.0000 0.0000 28.1159
#
#
#
# Elastic Compliance Matrix: (Units=1/GPa)
#
#
# Indices 1 2 3 4 5 6 
#
# 1 0.021593 -0.001112 -0.001340 0.000000 0.000000 0.000000
# 2 -0.001112 0.007992 -0.004504 0.000000 0.000000 0.000000
# 3 -0.001340 -0.004504 0.009181 0.000000 0.000000 0.000000
# 4 0.000000 0.000000 0.000000 0.047789 0.000000 0.000000
# 5 0.000000 0.000000 0.000000 0.000000 0.039059 0.000000
# 6 0.000000 0.000000 0.000000 0.000000 0.000000 0.035567
#
#
# Mechanical properties :
#
#
# Convention : Reuss Voigt Hill
#
# Bulk Modulus (GPa) = 40.23309 68.46215 54.34762
# Shear Modulus (GPa) = 27.26616 32.39953 29.83285
#
# Velocity S-wave (km/s) = 3.64685 3.97535 3.81464
# Velocity P-wave (km/s) = 6.11204 7.38002 6.77576
#
# Compressibility (1/GPa) = 0.02485516
#
# Stress axis : x y z
#
# Youngs Moduli (GPa) = 46.31061 125.12520 108.92234
#
# Poissons Ratio (x) = 0.13910 0.14598
# Poissons Ratio (y) = 0.05148 0.49054
# Poissons Ratio (z) = 0.06207 0.56351
#
# Static dielectric constant tensor:
#      x y z
#    x 1.856340 0.000000 0.000000 
#    y 0.000000 1.719730 0.000000 
#    z 0.000000 0.000000 1.733230 
# 
# From -- ./inp_files/23429.got.cif
#   From: 2010.05.17/outbox.cif.g08.bks.cpg/sg38_12_cif.got.tgz:23429.got - 2010.06.03 18:07:57.
