data_PCOD9355671
_publ_section_title
;
Structure prediction by ZEFSAII (Michael W. Deem and Ramdas Pophale) SiO2 
 PCOD9355671
Probable space group: C C C 2
;
_chemical_formula_sum "Si O2"
_cell_formula_units_Z 48
_cell_length_a 8.692851
_cell_length_b 11.807584
_cell_length_c 20.930731
_cell_angle_alpha 90.000000
_cell_angle_beta 90.000000
_cell_angle_gamma 90.000000
_cell_volume 2148.363057
_symmetry_space_group_name_H-M "C C C 2"
_symmetry_group_IT_number 37
_symmetry_cell_setting 'orthorhombic'
loop_
_space_group_symop_operation_xyz
x,y,z
-x,-y,z
-x,y,1/2+z
x,-y,1/2+z
1/2+x,1/2+y,z
1/2-x,1/2-y,z
1/2-x,1/2+y,1/2+z
1/2+x,1/2-y,1/2+z
loop_
_atom_site_type_symbol
_atom_site_label
_atom_site_fract_x
_atom_site_fract_y
_atom_site_fract_z
Si Si1 0.175244 0.534595 0.199700
Si Si2 0.136124 0.142688 0.602796
Si Si3 0.113358 0.161695 0.216630
Si Si4 0.565188 0.880039 0.420169
Si Si5 0.577276 0.380472 0.955740
Si Si6 0.598004 0.792815 0.805176
O O1 0.250804 0.547793 0.130608
O O2 0.293410 0.450573 0.233014
O O3 0.165257 0.645237 0.242724
O O4 0.000000 0.500000 0.193265
O O5 0.250000 0.250000 0.599646
O O6 0.077640 0.117145 0.532780
O O7 0.001641 0.154715 0.655905
O O8 0.250000 0.250000 0.202084
O O9 0.015670 0.198863 0.277739
O O10 0.519064 0.749599 0.441383
O O11 0.747898 0.883793 0.429747
O O12 0.502648 0.875847 0.347927
O O13 0.500000 0.000000 0.448534
O O14 0.500000 0.500000 0.933761
O O15 0.750000 0.750000 0.840854
#
# Coordination Sequence:
#
# PCOD9355671 Si02
#       6
#     8   8   8   8   8   8
#     4  12  23  41  71 107 147 189 238 304 378 455
#     4  12  22  49  73 106 150 188 244 313 378 451
#     4  12  24  42  68 109 143 189 236 295 384 448
#     4  11  28  49  74 108 145 200 262 314 369 451
#     4  11  27  53  77 106 150 202 260 320 376 445
#     4  12  26  45  70 104 152 194 246 313 375 455
#
# _framework density 22.342592
#
# number of rings (size 3 to 8) (size 9 to 14) (size 15 to 20)
#    0.000    0.333    6.667    2.000    4.667    0.667 
#    6.000    0.000    0.000    0.000    0.000    0.000 
#    0.000    0.000    0.000    0.000    0.000    0.000 
#
# Total GULP energy -133902.828532 kJ/mol
# GULP energy per Si atom -5579.284522 kJ/mol
# Density = 2.229174 g / cm^3
# Si number density = 22.342592 Si / 1000 Ang^3
#
#
#
# Elastic Constant Matrix: (Units=GPa)
#
#
# Indices 1 2 3 4 5 6 
#
# 1 136.8038 63.3787 31.7242 0.0000 0.0000 0.0000
# 2 63.3787 165.3651 21.2693 0.0000 0.0000 0.0000
# 3 31.7242 21.2693 62.8769 0.0000 0.0000 0.0000
# 4 0.0000 0.0000 0.0000 2.0195 0.0000 0.0000
# 5 0.0000 0.0000 0.0000 0.0000 16.1152 0.0000
# 6 0.0000 0.0000 0.0000 0.0000 0.0000 45.3006
#
#
#
# Elastic Compliance Matrix: (Units=1/GPa)
#
#
# Indices 1 2 3 4 5 6 
#
# 1 0.009683 -0.003223 -0.003795 0.000000 0.000000 0.000000
# 2 -0.003223 0.007395 -0.000875 0.000000 0.000000 0.000000
# 3 -0.003795 -0.000875 0.018115 0.000000 0.000000 0.000000
# 4 0.000000 0.000000 0.000000 0.495166 0.000000 0.000000
# 5 0.000000 0.000000 0.000000 0.000000 0.062053 0.000000
# 6 0.000000 0.000000 0.000000 0.000000 0.000000 0.022075
#
#
# Mechanical properties :
#
#
# Convention : Reuss Voigt Hill
#
# Bulk Modulus (GPa) = 51.53079 66.42114 58.97597
# Shear Modulus (GPa) = 7.85246 29.26530 18.55888
#
# Velocity S-wave (km/s) = 1.87675 3.62310 2.88523
# Velocity P-wave (km/s) = 5.27354 6.87717 6.12804
#
# Compressibility (1/GPa) = 0.01940587
#
# Stress axis : x y z
#
# Youngs Moduli (GPa) = 103.27370 135.22497 55.20265
#
# Poissons Ratio (x) = 0.43583 0.20951
# Poissons Ratio (y) = 0.33285 0.04832
# Poissons Ratio (z) = 0.39195 0.11837
#
# Static dielectric constant tensor:
#      x y z
#    x 1.781180 0.000000 0.000000 
#    y 0.000000 1.853500 0.000000 
#    z 0.000000 0.000000 1.799760 
# 
# From -- ./inp_files/18343.got.cif
#   From: 2010.05.17/outbox.cif.g08.bks.cpg/sg37_10_cif.got.tgz:18343.got - 2010.06.03 17:53:42.
