data_PCOD9355049
_publ_section_title
;
Structure prediction by ZEFSAII (Michael W. Deem and Ramdas Pophale) SiO2 
 PCOD9355049
Probable space group: C C C 2
;
_chemical_formula_sum "Si O2"
_cell_formula_units_Z 64
_cell_length_a 21.386180
_cell_length_b 17.190280
_cell_length_c 7.769568
_cell_angle_alpha 90.000000
_cell_angle_beta 90.000000
_cell_angle_gamma 90.000000
_cell_volume 2856.360643
_symmetry_space_group_name_H-M "C C C 2"
_symmetry_group_IT_number 37
_symmetry_cell_setting 'orthorhombic'
loop_
_space_group_symop_operation_xyz
x,y,z
-x,-y,z
-x,y,1/2+z
x,-y,1/2+z
1/2+x,1/2+y,z
1/2-x,1/2-y,z
1/2-x,1/2+y,1/2+z
1/2+x,1/2-y,1/2+z
loop_
_atom_site_type_symbol
_atom_site_label
_atom_site_fract_x
_atom_site_fract_y
_atom_site_fract_z
Si Si1 0.547134 0.779403 0.324990
Si Si2 0.069220 0.964396 0.301795
Si Si3 0.640570 0.412399 0.619939
Si Si4 0.549632 0.061903 0.970288
Si Si5 0.720937 0.094418 0.504741
Si Si6 0.143378 0.470250 0.721313
Si Si7 0.076611 0.204157 0.685830
Si Si8 0.358751 0.239677 0.038324
O O1 0.519988 0.862079 0.388640
O O2 0.579887 0.740848 0.493833
O O3 0.492608 0.723769 0.257645
O O4 0.588845 0.800670 0.158064
O O5 0.083954 0.928497 0.487868
O O6 0.080967 0.889927 0.178608
O O7 0.000000 0.000000 0.290888
O O8 0.120691 0.031689 0.273196
O O9 0.708216 0.429000 0.539216
O O10 0.645869 0.320403 0.643086
O O11 0.500000 0.000000 0.038680
O O12 0.593679 0.013855 0.841595
O O13 0.599842 0.086954 0.112438
O O14 0.697708 0.076635 0.313798
O O15 0.700681 0.183014 0.540054
O O16 0.677402 0.037767 0.616386
O O17 0.121087 0.237574 0.841593
#
# Coordination Sequence:
#
# PCOD9355049 Si02
#       8
#     8   8   8   8   8   8   8   8
#     4  12  24  41  64  98 139 182 226 280 346 409
#     4  11  25  44  69 104 132 165 219 286 352 418
#     4  11  25  43  73  96 130 176 221 283 345 413
#     4  11  24  36  60  95 133 182 227 278 337 399
#     4  11  22  45  65  94 133 177 234 276 335 405
#     4  10  23  38  62  93 130 180 223 282 330 389
#     4  11  26  39  66 101 137 182 224 284 350 410
#     4  11  24  44  67  98 135 183 228 286 342 401
#
# _framework density 22.406133000000001
#
# number of rings (size 3 to 8) (size 9 to 14) (size 15 to 20)
#    0.000    1.000    2.500    3.375   12.250    0.000 
#    0.000    0.000    0.000    1.500    0.000    0.000 
#    0.000    0.000    0.000    0.000    0.000    0.000 
#
# Total GULP energy -178629.386079 kJ/mol
# GULP energy per Si atom -5582.168315 kJ/mol
# Density = 2.235514 g / cm^3
# Si number density = 22.406133 Si / 1000 Ang^3
#
#
#
# Elastic Constant Matrix: (Units=GPa)
#
#
# Indices 1 2 3 4 5 6 
#
# 1 99.9674 27.4142 22.3685 0.0000 0.0000 0.0000
# 2 27.4142 124.7242 16.6769 0.0000 0.0000 0.0000
# 3 22.3685 16.6769 63.5749 0.0000 0.0000 0.0000
# 4 0.0000 0.0000 0.0000 19.8601 0.0000 0.0000
# 5 0.0000 0.0000 0.0000 0.0000 17.5241 0.0000
# 6 0.0000 0.0000 0.0000 0.0000 0.0000 32.9549
#
#
#
# Elastic Compliance Matrix: (Units=1/GPa)
#
#
# Indices 1 2 3 4 5 6 
#
# 1 0.011333 -0.002029 -0.003455 0.000000 0.000000 0.000000
# 2 -0.002029 0.008672 -0.001561 0.000000 0.000000 0.000000
# 3 -0.003455 -0.001561 0.017355 0.000000 0.000000 0.000000
# 4 0.000000 0.000000 0.000000 0.050352 0.000000 0.000000
# 5 0.000000 0.000000 0.000000 0.000000 0.057064 0.000000
# 6 0.000000 0.000000 0.000000 0.000000 0.000000 0.030345
#
#
# Mechanical properties :
#
#
# Convention : Reuss Voigt Hill
#
# Bulk Modulus (GPa) = 42.97470 46.79842 44.88656
# Shear Modulus (GPa) = 25.38487 28.85493 27.11990
#
# Velocity S-wave (km/s) = 3.36957 3.59251 3.48282
# Velocity P-wave (km/s) = 5.86176 6.17575 6.02080
#
# Compressibility (1/GPa) = 0.02326950
#
# Stress axis : x y z
#
# Youngs Moduli (GPa) = 88.23961 115.30863 57.62147
#
# Poissons Ratio (x) = 0.23395 0.19909
# Poissons Ratio (y) = 0.17903 0.08995
# Poissons Ratio (z) = 0.30488 0.18000
#
# Static dielectric constant tensor:
#      x y z
#    x 1.843880 0.000000 0.000000 
#    y 0.000000 1.893060 0.000000 
#    z 0.000000 0.000000 1.943790 
# 
# From -- ./inp_files/4653.got.cif
#   From: 2010.05.17/outbox.cif.g08.bks.cpg/sg37_3_cif.got.tgz:4653.got - 2010.06.03 17:53:42.
