data_PCOD9355066
_publ_section_title
;
Structure prediction by ZEFSAII (Michael W. Deem and Ramdas Pophale) SiO2 
 PCOD9355066
Probable space group: C C C 2
;
_chemical_formula_sum "Si O2"
_cell_formula_units_Z 24
_cell_length_a 29.271937
_cell_length_b 7.005277
_cell_length_c 5.257264
_cell_angle_alpha 90.000000
_cell_angle_beta 90.000000
_cell_angle_gamma 90.000000
_cell_volume 1078.044183
_symmetry_space_group_name_H-M "C C C 2"
_symmetry_group_IT_number 37
_symmetry_cell_setting 'orthorhombic'
loop_
_space_group_symop_operation_xyz
x,y,z
-x,-y,z
-x,y,1/2+z
x,-y,1/2+z
1/2+x,1/2+y,z
1/2-x,1/2-y,z
1/2-x,1/2+y,1/2+z
1/2+x,1/2-y,1/2+z
loop_
_atom_site_type_symbol
_atom_site_label
_atom_site_fract_x
_atom_site_fract_y
_atom_site_fract_z
Si Si1 0.203937 0.372315 0.356900
Si Si2 0.981445 0.285092 0.938605
Si Si3 0.387284 0.626507 0.793093
O O1 0.202983 0.472728 0.631382
O O2 0.250000 0.250000 0.332919
O O3 0.159924 0.238640 0.324596
O O4 0.930120 0.266754 0.840424
O O5 0.000000 0.500000 0.976866
O O6 0.013262 0.198038 0.718518
O O7 0.389753 0.532028 0.515461
#
# Coordination Sequence:
#
# PCOD9355066 Si02
#       3
#     8   8   8
#     4  12  26  46  76 103 142 181 229 284 347 414
#     4  10  23  40  66  93 138 179 236 271 340 405
#     4  12  26  44  70 104 141 179 234 288 347 405
#
# _framework density 22.262536999999998
#
# number of rings (size 3 to 8) (size 9 to 14) (size 15 to 20)
#    0.000    0.667    0.000    7.000    9.333    4.000 
#    0.000    0.000    0.000    0.000    0.000    0.000 
#    0.000    0.000    0.000    0.000    0.000    0.000 
#
# Total GULP energy -67182.585465 kJ/mol
# GULP energy per Si atom -5598.548789 kJ/mol
# Density = 2.221187 g / cm^3
# Si number density = 22.262537 Si / 1000 Ang^3
#
#
#
# Elastic Constant Matrix: (Units=GPa)
#
#
# Indices 1 2 3 4 5 6 
#
# 1 175.3553 29.5995 -13.4249 0.0000 0.0000 0.0000
# 2 29.5995 75.3910 -19.5873 0.0000 0.0000 0.0000
# 3 -13.4249 -19.5873 110.0900 0.0000 0.0000 0.0000
# 4 0.0000 0.0000 0.0000 34.3657 0.0000 0.0000
# 5 0.0000 0.0000 0.0000 0.0000 33.8572 0.0000
# 6 0.0000 0.0000 0.0000 0.0000 0.0000 60.5122
#
#
#
# Elastic Compliance Matrix: (Units=1/GPa)
#
#
# Indices 1 2 3 4 5 6 
#
# 1 0.006119 -0.002316 0.000334 0.000000 0.000000 0.000000
# 2 -0.002316 0.014783 0.002348 0.000000 0.000000 0.000000
# 3 0.000334 0.002348 0.009542 0.000000 0.000000 0.000000
# 4 0.000000 0.000000 0.000000 0.029099 0.000000 0.000000
# 5 0.000000 0.000000 0.000000 0.000000 0.029536 0.000000
# 6 0.000000 0.000000 0.000000 0.000000 0.000000 0.016526
#
#
# Mechanical properties :
#
#
# Convention : Reuss Voigt Hill
#
# Bulk Modulus (GPa) = 32.07457 39.33455 35.70456
# Shear Modulus (GPa) = 43.37862 50.03030 46.70446
#
# Velocity S-wave (km/s) = 4.41897 4.74570 4.58525
# Velocity P-wave (km/s) = 6.36201 6.90910 6.64119
#
# Compressibility (1/GPa) = 0.03117734
#
# Stress axis : x y z
#
# Youngs Moduli (GPa) = 163.42100 67.64379 104.80021
#
# Poissons Ratio (x) = 0.15664 -0.03502
# Poissons Ratio (y) = 0.37842 -0.24606
# Poissons Ratio (z) = -0.05462 -0.15882
#
# Static dielectric constant tensor:
#      x y z
#    x 1.764670 0.000000 0.000000 
#    y 0.000000 1.480480 0.000000 
#    z 0.000000 0.000000 1.857540 
# 
# From -- ./inp_files/104.got.cif
#   From: 2010.05.17/outbox.cif.g08.bks.cpg/sg37_1_cif.got.tgz:104.got - 2010.06.03 17:53:42.
