data_PCOD9355106
_publ_section_title
;
Structure prediction by ZEFSAII (Michael W. Deem and Ramdas Pophale) SiO2 
 PCOD9355106
Probable space group: C C C 2
;
_chemical_formula_sum "Si O2"
_cell_formula_units_Z 60
_cell_length_a 13.474543
_cell_length_b 7.808629
_cell_length_c 26.531860
_cell_angle_alpha 90.000000
_cell_angle_beta 90.000000
_cell_angle_gamma 90.000000
_cell_volume 2791.621478
_symmetry_space_group_name_H-M "C C C 2"
_symmetry_group_IT_number 37
_symmetry_cell_setting 'orthorhombic'
loop_
_space_group_symop_operation_xyz
x,y,z
-x,-y,z
-x,y,1/2+z
x,-y,1/2+z
1/2+x,1/2+y,z
1/2-x,1/2-y,z
1/2-x,1/2+y,1/2+z
1/2+x,1/2-y,1/2+z
loop_
_atom_site_type_symbol
_atom_site_label
_atom_site_fract_x
_atom_site_fract_y
_atom_site_fract_z
Si Si1 0.615339 0.428522 0.397720
Si Si2 0.833547 0.461588 0.427148
Si Si3 0.000000 0.500000 0.349470
Si Si4 0.173941 0.400906 0.536155
Si Si5 0.433529 0.663705 0.290018
Si Si6 0.486983 0.314826 0.591361
Si Si7 0.173391 0.617950 0.630282
Si Si8 0.363318 0.783847 0.183064
O O1 0.500000 0.500000 0.406186
O O2 0.718026 0.513811 0.416944
O O3 0.634046 0.237747 0.419645
O O4 0.628292 0.409892 0.337295
O O5 0.907437 0.544809 0.386271
O O6 0.850439 0.501373 0.485373
O O7 0.983552 0.331935 0.315197
O O8 0.250000 0.250000 0.524789
O O9 0.075601 0.313161 0.557617
O O10 0.217115 0.512730 0.582589
O O11 0.500000 0.500000 0.275134
O O12 0.380972 0.731626 0.240176
O O13 0.500000 0.500000 0.567692
O O14 0.590049 0.230803 0.604439
O O15 0.429228 0.325460 0.644639
O O16 0.250000 0.750000 0.654538
O O17 0.124757 0.484195 0.669110
O O18 0.250000 0.750000 0.169978
#
# Coordination Sequence:
#
# PCOD9355106 Si02
#       8
#     8   8   4   8   8   8   8   8
#     4   9  21  46  70  99 140 185 236 293 352 422
#     4  10  23  42  69 101 142 183 233 298 351 422
#     4  10  24  42  72  98 150 176 238 292 362 422
#     4  11  24  41  65 100 134 180 229 282 350 420
#     4  10  23  43  69 100 136 183 230 285 351 423
#     4  11  23  45  67  94 135 179 224 289 347 423
#     4  11  24  43  67  97 136 174 227 286 348 424
#     4  11  23  40  70  96 134 174 225 284 350 416
#
# _framework density 21.492885000000001
#
# number of rings (size 3 to 8) (size 9 to 14) (size 15 to 20)
#    0.000    1.600    0.000    5.200    9.333    3.200 
#    0.000    0.667    0.000    0.000    0.000    0.000 
#    0.000    0.000    0.000    0.000    0.000    0.000 
#
# Total GULP energy -167372.166077 kJ/mol
# GULP energy per Si atom -5579.072203 kJ/mol
# Density = 2.144397 g / cm^3
# Si number density = 21.492885 Si / 1000 Ang^3
#
#
#
# Elastic Constant Matrix: (Units=GPa)
#
#
# Indices 1 2 3 4 5 6 
#
# 1 97.0753 22.1607 31.3034 0.0000 0.0000 0.0000
# 2 22.1607 68.3038 28.1240 0.0000 0.0000 0.0000
# 3 31.3034 28.1240 106.1687 0.0000 0.0000 0.0000
# 4 0.0000 0.0000 0.0000 24.1944 0.0000 0.0000
# 5 0.0000 0.0000 0.0000 0.0000 -6.1013 0.0000
# 6 0.0000 0.0000 0.0000 0.0000 0.0000 39.5285
#
#
#
# Elastic Compliance Matrix: (Units=1/GPa)
#
#
# Indices 1 2 3 4 5 6 
#
# 1 0.011808 -0.002691 -0.002769 0.000000 0.000000 0.000000
# 2 -0.002691 0.017046 -0.003722 0.000000 0.000000 0.000000
# 3 -0.002769 -0.003722 0.011221 0.000000 0.000000 0.000000
# 4 0.000000 0.000000 0.000000 0.041332 0.000000 0.000000
# 5 0.000000 0.000000 0.000000 0.000000 -0.163899 0.000000
# 6 0.000000 0.000000 0.000000 0.000000 0.000000 0.025298
#
#
# Mechanical properties :
#
#
# Convention : Reuss Voigt Hill
#
# Bulk Modulus (GPa) = 46.05753 48.30266 47.18009
# Shear Modulus (GPa) = -158.26892 24.18830 -67.04031
#
# Velocity S-wave (km/s) = -8.59056 3.35835 -5.59103
# Velocity P-wave (km/s) = 8.77047 6.12867 4.43625
#
# Compressibility (1/GPa) = 0.02171198
#
# Stress axis : x y z
#
# Youngs Moduli (GPa) = 84.68500 58.66435 89.11624
#
# Poissons Ratio (x) = 0.15787 0.24674
# Poissons Ratio (y) = 0.22790 0.33169
# Poissons Ratio (z) = 0.23448 0.21835
#
# Static dielectric constant tensor:
#      x y z
#    x 1.884380 0.000000 0.000000 
#    y 0.000000 1.835370 0.000000 
#    z 0.000000 0.000000 1.749160 
# 
# From -- ./inp_files/19791.got.cif
#   From: 2010.05.17/outbox.cif.g08.bks.cpg/sg37_10_cif.got.tgz:19791.got - 2010.06.03 17:53:42.
