data_PCOD9355728
_publ_section_title
;
Structure prediction by ZEFSAII (Michael W. Deem and Ramdas Pophale) SiO2 
 PCOD9355728
Probable space group: C C C 2
;
_chemical_formula_sum "Si O2"
_cell_formula_units_Z 32
_cell_length_a 15.752046
_cell_length_b 4.641913
_cell_length_c 17.278988
_cell_angle_alpha 90.000000
_cell_angle_beta 90.000000
_cell_angle_gamma 90.000000
_cell_volume 1263.433159
_symmetry_space_group_name_H-M "C C C 2"
_symmetry_group_IT_number 37
_symmetry_cell_setting 'orthorhombic'
loop_
_space_group_symop_operation_xyz
x,y,z
-x,-y,z
-x,y,1/2+z
x,-y,1/2+z
1/2+x,1/2+y,z
1/2-x,1/2-y,z
1/2-x,1/2+y,1/2+z
1/2+x,1/2-y,1/2+z
loop_
_atom_site_type_symbol
_atom_site_label
_atom_site_fract_x
_atom_site_fract_y
_atom_site_fract_z
Si Si1 0.911291 0.157031 0.207910
Si Si2 0.690674 0.495805 0.359244
Si Si3 0.649629 0.168430 0.608382
Si Si4 0.939407 0.730688 0.477810
O O1 0.889102 0.480815 0.180320
O O2 0.856759 0.121823 0.284744
O O3 0.884022 0.981143 0.131337
O O4 0.000000 0.000000 0.227025
O O5 0.750000 0.750000 0.329969
O O6 0.628699 0.625226 0.422594
O O7 0.750000 0.250000 0.394727
O O8 0.750000 0.250000 0.601638
O O9 0.609162 0.986608 0.537638
O O10 0.000000 0.500000 0.434156
O O11 0.000000 0.000000 0.503362
#
# Coordination Sequence:
#
# PCOD9355728 Si02
#       4
#     8   8   8   8
#     4  12  25  46  75 107 143 189 245 305 369 440
#     4  12  27  48  73 106 146 193 245 306 371 439
#     4  12  26  47  75 108 145 190 243 307 371 438
#     4  12  27  49  74 107 149 198 249 304 370 447
#
# _framework density 25.327811000000001
#
# number of rings (size 3 to 8) (size 9 to 14) (size 15 to 20)
#    0.000    0.000    0.000   11.250    0.000    7.000 
#    0.000    3.750    0.000    0.000    0.000    0.000 
#    0.000    0.000    0.000    0.000    0.000    0.000 
#
# Total GULP energy -89362.771328 kJ/mol
# GULP energy per Si atom -5585.173208 kJ/mol
# Density = 2.527016 g / cm^3
# Si number density = 25.327811 Si / 1000 Ang^3
#
#
#
# Elastic Constant Matrix: (Units=GPa)
#
#
# Indices 1 2 3 4 5 6 
#
# 1 139.2853 52.6187 28.8624 0.0000 0.0000 0.0000
# 2 52.6187 166.8700 12.9017 0.0000 0.0000 0.0000
# 3 28.8624 12.9017 79.3968 0.0000 0.0000 0.0000
# 4 0.0000 0.0000 0.0000 26.9216 0.0000 0.0000
# 5 0.0000 0.0000 0.0000 0.0000 19.7570 0.0000
# 6 0.0000 0.0000 0.0000 0.0000 0.0000 62.9313
#
#
#
# Elastic Compliance Matrix: (Units=1/GPa)
#
#
# Indices 1 2 3 4 5 6 
#
# 1 0.008707 -0.002533 -0.002754 0.000000 0.000000 0.000000
# 2 -0.002533 0.006806 -0.000185 0.000000 0.000000 0.000000
# 3 -0.002754 -0.000185 0.013626 0.000000 0.000000 0.000000
# 4 0.000000 0.000000 0.000000 0.037145 0.000000 0.000000
# 5 0.000000 0.000000 0.000000 0.000000 0.050615 0.000000
# 6 0.000000 0.000000 0.000000 0.000000 0.000000 0.015890
#
#
# Mechanical properties :
#
#
# Convention : Reuss Voigt Hill
#
# Bulk Modulus (GPa) = 54.95814 63.81306 59.38560
# Shear Modulus (GPa) = 33.37856 41.33328 37.35592
#
# Velocity S-wave (km/s) = 3.63418 4.04410 3.84461
# Velocity P-wave (km/s) = 6.27339 6.85973 6.57310
#
# Compressibility (1/GPa) = 0.01819567
#
# Stress axis : x y z
#
# Youngs Moduli (GPa) = 114.85189 146.93755 73.38885
#
# Poissons Ratio (x) = 0.37214 0.20208
# Poissons Ratio (y) = 0.29088 0.01359
# Poissons Ratio (z) = 0.31625 0.02722
#
# Static dielectric constant tensor:
#      x y z
#    x 2.054470 0.000000 0.000000 
#    y 0.000000 1.968630 0.000000 
#    z 0.000000 0.000000 1.963450 
# 
# From -- ./inp_files/15136.got.cif
#   From: 2010.05.17/outbox.cif.g08.bks.cpg/sg37_8_cif.got.tgz:15136.got - 2010.06.03 17:53:42.
