data_PCOD9355580
_publ_section_title
;
Structure prediction by ZEFSAII (Michael W. Deem and Ramdas Pophale) SiO2 
 PCOD9355580
Probable space group: C C C 2
;
_chemical_formula_sum "Si O2"
_cell_formula_units_Z 48
_cell_length_a 11.073838
_cell_length_b 23.993558
_cell_length_c 9.058589
_cell_angle_alpha 90.000000
_cell_angle_beta 90.000000
_cell_angle_gamma 90.000000
_cell_volume 2406.874112
_symmetry_space_group_name_H-M "C C C 2"
_symmetry_group_IT_number 37
_symmetry_cell_setting 'orthorhombic'
loop_
_space_group_symop_operation_xyz
x,y,z
-x,-y,z
-x,y,1/2+z
x,-y,1/2+z
1/2+x,1/2+y,z
1/2-x,1/2-y,z
1/2-x,1/2+y,1/2+z
1/2+x,1/2-y,1/2+z
loop_
_atom_site_type_symbol
_atom_site_label
_atom_site_fract_x
_atom_site_fract_y
_atom_site_fract_z
Si Si1 0.812446 0.938056 0.476930
Si Si2 0.482904 0.349292 0.369030
Si Si3 0.671094 0.305693 0.592542
Si Si4 0.649796 0.456434 0.311556
Si Si5 0.853965 0.403538 0.506793
Si Si6 0.944246 0.561539 0.322115
O O1 0.883500 0.879617 0.472239
O O2 0.811573 0.961110 0.642149
O O3 0.679772 0.931678 0.410896
O O4 0.881591 0.982182 0.371331
O O5 0.573906 0.309196 0.458271
O O6 0.408629 0.320957 0.236685
O O7 0.563850 0.402405 0.318669
O O8 0.750000 0.250000 0.605534
O O9 0.771762 0.352947 0.562302
O O10 0.760033 0.442162 0.420261
O O11 0.915470 0.430168 0.650394
O O12 0.959810 0.394386 0.387574
O O13 0.000000 0.500000 0.344876
#
# Coordination Sequence:
#
# PCOD9355580 Si02
#       6
#     8   8   8   8   8   8
#     4  12  23  39  65 101 144 192 220 270 336 410
#     4  11  24  46  72 100 134 176 227 291 344 419
#     4  11  26  50  74  99 131 173 240 301 360 405
#     4  11  24  38  65 102 142 182 230 266 339 416
#     4  11  24  41  64  99 138 188 230 283 335 406
#     4  12  23  37  62  99 147 186 227 265 331 411
#
# _framework density 19.942879000000001
#
# number of rings (size 3 to 8) (size 9 to 14) (size 15 to 20)
#    0.000    0.667    5.000    3.000    2.333    2.667 
#    0.000    0.833    0.000    0.000    0.000    0.000 
#    0.000    0.000    0.000    0.000    0.000    0.000 
#
# Total GULP energy -133984.458903 kJ/mol
# GULP energy per Si atom -5582.685788 kJ/mol
# Density = 1.989749 g / cm^3
# Si number density = 19.942879 Si / 1000 Ang^3
#
#
#
# Elastic Constant Matrix: (Units=GPa)
#
#
# Indices 1 2 3 4 5 6 
#
# 1 137.3119 54.8284 52.9728 0.0000 0.0000 0.0000
# 2 54.8284 68.7868 40.1750 0.0000 0.0000 0.0000
# 3 52.9728 40.1750 149.9908 0.0000 0.0000 0.0000
# 4 0.0000 0.0000 0.0000 11.7811 0.0000 0.0000
# 5 0.0000 0.0000 0.0000 0.0000 -23.9132 0.0000
# 6 0.0000 0.0000 0.0000 0.0000 0.0000 39.2463
#
#
#
# Elastic Compliance Matrix: (Units=1/GPa)
#
#
# Indices 1 2 3 4 5 6 
#
# 1 0.011094 -0.007770 -0.001837 0.000000 0.000000 0.000000
# 2 -0.007770 0.022675 -0.003330 0.000000 0.000000 0.000000
# 3 -0.001837 -0.003330 0.008208 0.000000 0.000000 0.000000
# 4 0.000000 0.000000 0.000000 0.084882 0.000000 0.000000
# 5 0.000000 0.000000 0.000000 0.000000 -0.041818 0.000000
# 6 0.000000 0.000000 0.000000 0.000000 0.000000 0.025480
#
#
# Mechanical properties :
#
#
# Convention : Reuss Voigt Hill
#
# Bulk Modulus (GPa) = 62.09472 72.44909 67.27191
# Shear Modulus (GPa) = 35.27055 19.29706 27.28380
#
# Velocity S-wave (km/s) = 4.21001 3.11403 3.70279
# Velocity P-wave (km/s) = 7.40514 7.02401 7.21709
#
# Compressibility (1/GPa) = 0.01610443
#
# Stress axis : x y z
#
# Youngs Moduli (GPa) = 90.14053 44.10071 121.83778
#
# Poissons Ratio (x) = 0.34265 0.22380
# Poissons Ratio (y) = 0.70037 0.40566
# Poissons Ratio (z) = 0.16558 0.14683
#
# Static dielectric constant tensor:
#      x y z
#    x 1.782790 0.000000 0.000000 
#    y 0.000000 1.719450 0.000000 
#    z 0.000000 0.000000 1.692430 
# 
# From -- ./inp_files/2925.got.cif
#   From: 2010.05.17/outbox.cif.g08.bks.cpg/sg37_2_cif.got.tgz:2925.got - 2010.06.03 17:53:42.
