data_PCOD9355096
_publ_section_title
;
Structure prediction by ZEFSAII (Michael W. Deem and Ramdas Pophale) SiO2 
 PCOD9355096
Probable space group: C C C 2
;
_chemical_formula_sum "Si O2"
_cell_formula_units_Z 48
_cell_length_a 5.924172
_cell_length_b 14.289476
_cell_length_c 26.570764
_cell_angle_alpha 90.000000
_cell_angle_beta 90.000000
_cell_angle_gamma 90.000000
_cell_volume 2249.303218
_symmetry_space_group_name_H-M "C C C 2"
_symmetry_group_IT_number 37
_symmetry_cell_setting 'orthorhombic'
loop_
_space_group_symop_operation_xyz
x,y,z
-x,-y,z
-x,y,1/2+z
x,-y,1/2+z
1/2+x,1/2+y,z
1/2-x,1/2-y,z
1/2-x,1/2+y,1/2+z
1/2+x,1/2-y,1/2+z
loop_
_atom_site_type_symbol
_atom_site_label
_atom_site_fract_x
_atom_site_fract_y
_atom_site_fract_z
Si Si1 0.821396 0.353286 0.961990
Si Si2 0.354367 0.146652 0.753252
Si Si3 0.163397 0.643652 0.546625
Si Si4 0.500000 0.500000 0.790987
Si Si5 0.999022 0.696662 0.648853
Si Si6 0.370111 0.097313 0.350031
Si Si7 0.000000 0.000000 0.012979
O O1 0.750000 0.250000 0.979320
O O2 0.864479 0.350681 0.902687
O O3 0.638083 0.430211 0.976933
O O4 0.037096 0.378958 0.994941
O O5 0.250000 0.250000 0.752132
O O6 0.487416 0.138920 0.700742
O O7 0.503944 0.144330 0.803399
O O8 0.175605 0.062032 0.759140
O O9 0.250000 0.750000 0.542501
O O10 0.358273 0.567969 0.548775
O O11 0.011873 0.640908 0.596459
O O12 0.372591 0.571548 0.827831
O O13 0.750000 0.750000 0.646548
O O14 0.250000 0.750000 0.650815
O O15 0.500000 0.000000 0.359837
#
# Coordination Sequence:
#
# PCOD9355096 Si02
#       7
#     8   8   8   4   8   8   4
#     4  12  25  43  71 105 145 193 243 302 372 439
#     4  10  24  43  73 100 140 190 238 297 371 429
#     4  11  24  47  74 102 147 188 247 302 375 435
#     4  10  23  44  67 100 142 182 244 298 360 442
#     4  10  24  45  79 107 146 193 245 308 370 443
#     4  10  23  42  64 101 143 183 239 303 357 440
#     4  12  25  46  73 102 142 192 244 304 368 448
#
# _framework density 21.339941
#
# number of rings (size 3 to 8) (size 9 to 14) (size 15 to 20)
#    0.000    1.333    1.667    2.500    9.333    2.000 
#    0.000    6.667    0.000    0.000    0.000    0.000 
#    0.000    0.000    0.000    0.000    0.000    0.000 
#
# Total GULP energy -133939.323836 kJ/mol
# GULP energy per Si atom -5580.805160 kJ/mol
# Density = 2.129137 g / cm^3
# Si number density = 21.339941 Si / 1000 Ang^3
#
#
#
# Elastic Constant Matrix: (Units=GPa)
#
#
# Indices 1 2 3 4 5 6 
#
# 1 99.1004 35.1410 55.9959 0.0000 0.0000 0.0000
# 2 35.1410 92.9525 39.8799 0.0000 0.0000 0.0000
# 3 55.9959 39.8799 158.0946 0.0000 0.0000 0.0000
# 4 0.0000 0.0000 0.0000 54.7398 0.0000 0.0000
# 5 0.0000 0.0000 0.0000 0.0000 -88.7959 0.0000
# 6 0.0000 0.0000 0.0000 0.0000 0.0000 34.4006
#
#
#
# Elastic Compliance Matrix: (Units=1/GPa)
#
#
# Indices 1 2 3 4 5 6 
#
# 1 0.013525 -0.003429 -0.003925 0.000000 0.000000 0.000000
# 2 -0.003429 0.012933 -0.002048 0.000000 0.000000 0.000000
# 3 -0.003925 -0.002048 0.008232 0.000000 0.000000 0.000000
# 4 0.000000 0.000000 0.000000 0.018268 0.000000 0.000000
# 5 0.000000 0.000000 0.000000 0.000000 -0.011262 0.000000
# 6 0.000000 0.000000 0.000000 0.000000 0.000000 0.029069
#
#
# Mechanical properties :
#
#
# Convention : Reuss Voigt Hill
#
# Bulk Modulus (GPa) = 62.95004 68.02012 65.48508
# Shear Modulus (GPa) = 52.70622 14.67762 33.69192
#
# Velocity S-wave (km/s) = 4.97514 2.62544 3.97775
# Velocity P-wave (km/s) = 7.90983 6.41361 7.20069
#
# Compressibility (1/GPa) = 0.01588561
#
# Stress axis : x y z
#
# Youngs Moduli (GPa) = 73.93893 77.32081 121.47331
#
# Poissons Ratio (x) = 0.26513 0.47683
# Poissons Ratio (y) = 0.25353 0.24877
# Poissons Ratio (z) = 0.29024 0.15835
#
# Static dielectric constant tensor:
#      x y z
#    x 1.882080 0.000000 0.000000 
#    y 0.000000 1.797700 0.000000 
#    z 0.000000 0.000000 1.740730 
# 
# From -- ./inp_files/19379.got.cif
#   From: 2010.05.17/outbox.cif.g08.bks.cpg/sg37_10_cif.got.tgz:19379.got - 2010.06.03 17:53:42.
