data_PCOD9355151
_publ_section_title
;
Structure prediction by ZEFSAII (Michael W. Deem and Ramdas Pophale) SiO2 
 PCOD9355151
Probable space group: C C C 2
;
_chemical_formula_sum "Si O2"
_cell_formula_units_Z 56
_cell_length_a 8.054191
_cell_length_b 21.503693
_cell_length_c 13.258171
_cell_angle_alpha 90.000000
_cell_angle_beta 90.000000
_cell_angle_gamma 90.000000
_cell_volume 2296.246946
_symmetry_space_group_name_H-M "C C C 2"
_symmetry_group_IT_number 37
_symmetry_cell_setting 'orthorhombic'
loop_
_space_group_symop_operation_xyz
x,y,z
-x,-y,z
-x,y,1/2+z
x,-y,1/2+z
1/2+x,1/2+y,z
1/2-x,1/2-y,z
1/2-x,1/2+y,1/2+z
1/2+x,1/2-y,1/2+z
loop_
_atom_site_type_symbol
_atom_site_label
_atom_site_fract_x
_atom_site_fract_y
_atom_site_fract_z
Si Si1 0.701847 0.914916 0.034520
Si Si2 0.136311 0.644651 0.132630
Si Si3 0.431275 0.569499 0.034887
Si Si4 0.096221 0.852409 0.851048
Si Si5 0.774748 0.323193 0.352416
Si Si6 0.500000 0.000000 0.890436
Si Si7 0.250000 0.750000 0.987477
Si Si8 0.850008 0.413390 0.723913
O O1 0.733508 0.959590 0.146884
O O2 0.896691 0.891188 0.042809
O O3 0.653347 0.859187 0.947802
O O4 0.640900 0.972277 0.962820
O O5 0.287060 0.598578 0.105869
O O6 0.122766 0.665139 0.249107
O O7 0.154319 0.703059 0.060822
O O8 0.955160 0.611056 0.121443
O O9 0.500000 0.500000 0.034154
O O10 0.370979 0.588347 0.922300
O O11 0.228284 0.860613 0.762111
O O12 0.905779 0.850315 0.821464
O O13 0.136172 0.791639 0.916124
O O14 0.750000 0.250000 0.370051
O O15 0.557881 0.053317 0.812749
#
# Coordination Sequence:
#
# PCOD9355151 Si02
#       8
#     8   8   8   8   8   4   4   8
#     4  11  26  45  69 105 143 193 250 302 380 454
#     4  11  24  43  71 105 139 189 243 302 383 435
#     4  10  23  44  72 102 144 190 241 309 369 458
#     4  10  25  44  70 104 142 192 249 301 383 447
#     4  11  24  46  69  97 144 192 247 309 367 454
#     4  12  26  44  76 108 150 194 246 326 380 462
#     4  10  24  42  74 100 144 186 236 316 364 446
#     4  12  27  45  72 109 148 191 248 314 383 462
#
# _framework density 24.387619999999998
#
# number of rings (size 3 to 8) (size 9 to 14) (size 15 to 20)
#    0.000    1.143    2.143    2.143   12.000    0.000 
#    1.286    1.429    0.000    0.000    0.000    0.000 
#    0.000    0.000    0.000    0.000    0.000    0.000 
#
# Total GULP energy -155904.826358 kJ/mol
# GULP energy per Si atom -5568.029513 kJ/mol
# Density = 2.433211 g / cm^3
# Si number density = 24.387620 Si / 1000 Ang^3
#
#
#
# Elastic Constant Matrix: (Units=GPa)
#
#
# Indices 1 2 3 4 5 6 
#
# 1 123.0608 37.8720 64.3792 0.0000 0.0000 0.0000
# 2 37.8720 137.8172 45.2659 0.0000 0.0000 0.0000
# 3 64.3792 45.2659 130.0670 0.0000 0.0000 0.0000
# 4 0.0000 0.0000 0.0000 27.6569 0.0000 0.0000
# 5 0.0000 0.0000 0.0000 0.0000 43.4714 0.0000
# 6 0.0000 0.0000 0.0000 0.0000 0.0000 18.4479
#
#
#
# Elastic Compliance Matrix: (Units=1/GPa)
#
#
# Indices 1 2 3 4 5 6 
#
# 1 0.011206 -0.001420 -0.005053 0.000000 0.000000 0.000000
# 2 -0.001420 0.008372 -0.002211 0.000000 0.000000 0.000000
# 3 -0.005053 -0.002211 0.010959 0.000000 0.000000 0.000000
# 4 0.000000 0.000000 0.000000 0.036157 0.000000 0.000000
# 5 0.000000 0.000000 0.000000 0.000000 0.023004 0.000000
# 6 0.000000 0.000000 0.000000 0.000000 0.000000 0.054207
#
#
# Mechanical properties :
#
#
# Convention : Reuss Voigt Hill
#
# Bulk Modulus (GPa) = 75.92788 76.21991 76.07389
# Shear Modulus (GPa) = 30.18188 34.14375 32.16281
#
# Velocity S-wave (km/s) = 3.52176 3.74578 3.63549
# Velocity P-wave (km/s) = 6.90930 7.07313 6.99169
#
# Compressibility (1/GPa) = 0.01317039
#
# Stress axis : x y z
#
# Youngs Moduli (GPa) = 89.23528 119.44060 91.25180
#
# Poissons Ratio (x) = 0.16960 0.46106
# Poissons Ratio (y) = 0.12671 0.20175
# Poissons Ratio (z) = 0.45087 0.26407
#
# Static dielectric constant tensor:
#      x y z
#    x 2.319710 0.000000 0.000000 
#    y 0.000000 1.963230 0.000000 
#    z 0.000000 0.000000 2.032790 
# 
# From -- ./inp_files/10845.got.cif
#   From: 2010.05.17/outbox.cif.g08.bks.cpg/sg37_6_cif.got.tgz:10845.got - 2010.06.03 17:53:42.
