data_PCOD9355155
_publ_section_title
;
Structure prediction by ZEFSAII (Michael W. Deem and Ramdas Pophale) SiO2 
 PCOD9355155
Probable space group: C C C 2
;
_chemical_formula_sum "Si O2"
_cell_formula_units_Z 28
_cell_length_a 7.332295
_cell_length_b 16.348720
_cell_length_c 10.060896
_cell_angle_alpha 90.000000
_cell_angle_beta 90.000000
_cell_angle_gamma 90.000000
_cell_volume 1206.036204
_symmetry_space_group_name_H-M "C C C 2"
_symmetry_group_IT_number 37
_symmetry_cell_setting 'orthorhombic'
loop_
_space_group_symop_operation_xyz
x,y,z
-x,-y,z
-x,y,1/2+z
x,-y,1/2+z
1/2+x,1/2+y,z
1/2-x,1/2-y,z
1/2-x,1/2+y,1/2+z
1/2+x,1/2-y,1/2+z
loop_
_atom_site_type_symbol
_atom_site_label
_atom_site_fract_x
_atom_site_fract_y
_atom_site_fract_z
Si Si1 0.790382 0.524065 0.143890
Si Si2 0.319443 0.587230 0.912546
Si Si3 0.250000 0.250000 0.512423
Si Si4 0.879876 0.178358 0.508988
O O1 0.743412 0.527170 0.298674
O O2 0.735016 0.614743 0.095395
O O3 0.000000 0.500000 0.124935
O O4 0.684791 0.459201 0.052973
O O5 0.198579 0.669603 0.926007
O O6 0.520411 0.625130 0.895272
O O7 0.439073 0.280586 0.578446
O O8 0.750000 0.250000 0.461805
#
# Coordination Sequence:
#
# PCOD9355155 Si02
#       4
#     8   8   4   8
#     4  12  25  46  79 115 155 202 255 320 388 465
#     4  10  25  48  73 113 155 197 256 315 389 456
#     4   8  22  48  68 106 156 188 258 310 378 458
#     4  10  23  44  73 110 151 198 251 322 383 451
#
# _framework density 23.216550999999999
#
# number of rings (size 3 to 8) (size 9 to 14) (size 15 to 20)
#    1.714    0.000    0.000    3.429    2.000    4.571 
#    2.571    0.000    0.000    0.000    0.000    0.000 
#    0.000    0.000    0.000    0.000    0.000    0.000 
#
# Total GULP energy -77985.259297 kJ/mol
# GULP energy per Si atom -5570.375664 kJ/mol
# Density = 2.316371 g / cm^3
# Si number density = 23.216551 Si / 1000 Ang^3
#
#
#
# Elastic Constant Matrix: (Units=GPa)
#
#
# Indices 1 2 3 4 5 6 
#
# 1 167.5910 68.4253 17.8754 0.0000 0.0000 0.0000
# 2 68.4253 155.9719 51.3390 0.0000 0.0000 0.0000
# 3 17.8754 51.3390 68.5025 0.0000 0.0000 0.0000
# 4 0.0000 0.0000 0.0000 16.4072 0.0000 0.0000
# 5 0.0000 0.0000 0.0000 0.0000 8.5445 0.0000
# 6 0.0000 0.0000 0.0000 0.0000 0.0000 63.1655
#
#
#
# Elastic Compliance Matrix: (Units=1/GPa)
#
#
# Indices 1 2 3 4 5 6 
#
# 1 0.007291 -0.003415 0.000657 0.000000 0.000000 0.000000
# 2 -0.003415 0.010110 -0.006686 0.000000 0.000000 0.000000
# 3 0.000657 -0.006686 0.019437 0.000000 0.000000 0.000000
# 4 0.000000 0.000000 0.000000 0.060949 0.000000 0.000000
# 5 0.000000 0.000000 0.000000 0.000000 0.117034 0.000000
# 6 0.000000 0.000000 0.000000 0.000000 0.000000 0.015831
#
#
# Mechanical properties :
#
#
# Convention : Reuss Voigt Hill
#
# Bulk Modulus (GPa) = 55.70886 74.14940 64.92913
# Shear Modulus (GPa) = 19.56758 34.58517 27.07638
#
# Velocity S-wave (km/s) = 2.90630 3.86382 3.41875
# Velocity P-wave (km/s) = 5.94218 7.20507 6.60388
#
# Compressibility (1/GPa) = 0.01795047
#
# Stress axis : x y z
#
# Youngs Moduli (GPa) = 137.15415 98.91013 51.44701
#
# Poissons Ratio (x) = 0.33775 -0.03378
# Poissons Ratio (y) = 0.46834 0.34397
# Poissons Ratio (z) = -0.09005 0.66131
#
# Static dielectric constant tensor:
#      x y z
#    x 1.936140 0.000000 0.000000 
#    y 0.000000 1.895960 0.000000 
#    z 0.000000 0.000000 1.897240 
# 
# From -- ./inp_files/2020.got.cif
#   From: 2010.05.17/outbox.cif.g08.bks.cpg/sg37_2_cif.got.tgz:2020.got - 2010.06.03 17:53:42.
