data_PCOD9355643
_publ_section_title
;
Structure prediction by ZEFSAII (Michael W. Deem and Ramdas Pophale) SiO2 
 PCOD9355643
Probable space group: C C C 2
;
_chemical_formula_sum "Si O2"
_cell_formula_units_Z 36
_cell_length_a 4.944760
_cell_length_b 13.728899
_cell_length_c 20.892256
_cell_angle_alpha 90.000000
_cell_angle_beta 90.000000
_cell_angle_gamma 90.000000
_cell_volume 1418.294002
_symmetry_space_group_name_H-M "C C C 2"
_symmetry_group_IT_number 37
_symmetry_cell_setting 'orthorhombic'
loop_
_space_group_symop_operation_xyz
x,y,z
-x,-y,z
-x,y,1/2+z
x,-y,1/2+z
1/2+x,1/2+y,z
1/2-x,1/2-y,z
1/2-x,1/2+y,1/2+z
1/2+x,1/2-y,1/2+z
loop_
_atom_site_type_symbol
_atom_site_label
_atom_site_fract_x
_atom_site_fract_y
_atom_site_fract_z
Si Si1 0.250000 0.750000 0.329170
Si Si2 0.000000 0.000000 0.306098
Si Si3 0.314996 0.907874 0.408330
Si Si4 0.355483 0.644328 0.134422
Si Si5 0.500000 0.000000 0.218699
Si Si6 0.750000 0.250000 0.726608
Si Si7 0.000000 0.000000 0.023275
O O1 0.430078 0.806306 0.387455
O O2 0.491542 0.762870 0.273918
O O3 0.744805 0.970089 0.265086
O O4 0.088763 0.910521 0.351256
O O5 0.190153 0.936934 0.475880
O O6 0.500000 0.000000 0.393840
O O7 0.250000 0.750000 0.116772
O O8 0.623974 0.669306 0.175951
O O9 0.381758 0.579467 0.071310
O O10 0.148164 0.582138 0.177242
#
# Coordination Sequence:
#
# PCOD9355643 Si02
#       7
#     4   4   8   8   4   4   4
#     4  12  30  49  84 125 168 200 290 358 438 512
#     4  11  25  46  82 116 165 205 272 350 428 511
#     4  11  28  50  81 117 159 228 272 352 416 501
#     4  12  31  51  84 125 172 226 283 359 425 521
#     4  12  28  48  84 124 166 220 272 352 440 512
#     4  12  30  51  82 133 164 214 276 366 450 508
#     4  11  31  54  80 116 169 229 300 322 426 501
#
# _framework density 25.38261
#
# number of rings (size 3 to 8) (size 9 to 14) (size 15 to 20)
#    0.000    0.444    2.222    2.000   20.222    2.667 
#    0.000    0.000    0.000    0.000    0.000    0.000 
#    0.000    0.000    0.000    0.000    0.000    0.000 
#
# Total GULP energy -100239.818534 kJ/mol
# GULP energy per Si atom -5568.878807 kJ/mol
# Density = 2.532484 g / cm^3
# Si number density = 25.382610 Si / 1000 Ang^3
#
#
#
# Elastic Constant Matrix: (Units=GPa)
#
#
# Indices 1 2 3 4 5 6 
#
# 1 175.6917 32.9820 78.4131 0.0000 0.0000 0.0000
# 2 32.9820 82.9296 62.6335 0.0000 0.0000 0.0000
# 3 78.4131 62.6335 208.3248 0.0000 0.0000 0.0000
# 4 0.0000 0.0000 0.0000 66.4980 0.0000 0.0000
# 5 0.0000 0.0000 0.0000 0.0000 -4.1991 0.0000
# 6 0.0000 0.0000 0.0000 0.0000 0.0000 41.3866
#
#
#
# Elastic Compliance Matrix: (Units=1/GPa)
#
#
# Indices 1 2 3 4 5 6 
#
# 1 0.006906 -0.001014 -0.002295 0.000000 0.000000 0.000000
# 2 -0.001014 0.015750 -0.004354 0.000000 0.000000 0.000000
# 3 -0.002295 -0.004354 0.006973 0.000000 0.000000 0.000000
# 4 0.000000 0.000000 0.000000 0.015038 0.000000 0.000000
# 5 0.000000 0.000000 0.000000 0.000000 -0.238146 0.000000
# 6 0.000000 0.000000 0.000000 0.000000 0.000000 0.024162
#
#
# Mechanical properties :
#
#
# Convention : Reuss Voigt Hill
#
# Bulk Modulus (GPa) = 69.90655 90.55593 80.23124
# Shear Modulus (GPa) = -33.50662 40.26493 3.37915
#
# Velocity S-wave (km/s) = -3.63721 3.98718 1.15507
# Velocity P-wave (km/s) = 3.15624 7.54657 5.78414
#
# Compressibility (1/GPa) = 0.01430481
#
# Stress axis : x y z
#
# Youngs Moduli (GPa) = 144.79664 63.49329 143.41232
#
# Poissons Ratio (x) = 0.06435 0.32910
# Poissons Ratio (y) = 0.14676 0.62438
# Poissons Ratio (z) = 0.33228 0.27643
#
# Static dielectric constant tensor:
#      x y z
#    x 2.075110 0.000000 0.000000 
#    y 0.000000 1.630560 0.000000 
#    z 0.000000 0.000000 1.977790 
# 
# From -- ./inp_files/15644.got.cif
#   From: 2010.05.17/outbox.cif.g08.bks.cpg/sg37_8_cif.got.tgz:15644.got - 2010.06.03 17:53:42.
