data_PCOD9355099
_publ_section_title
;
Structure prediction by ZEFSAII (Michael W. Deem and Ramdas Pophale) SiO2 
 PCOD9355099
Probable space group: C C C 2
;
_chemical_formula_sum "Si O2"
_cell_formula_units_Z 40
_cell_length_a 8.982751
_cell_length_b 23.458991
_cell_length_c 7.896138
_cell_angle_alpha 90.000000
_cell_angle_beta 90.000000
_cell_angle_gamma 90.000000
_cell_volume 1663.923747
_symmetry_space_group_name_H-M "C C C 2"
_symmetry_group_IT_number 37
_symmetry_cell_setting 'orthorhombic'
loop_
_space_group_symop_operation_xyz
x,y,z
-x,-y,z
-x,y,1/2+z
x,-y,1/2+z
1/2+x,1/2+y,z
1/2-x,1/2-y,z
1/2-x,1/2+y,1/2+z
1/2+x,1/2-y,1/2+z
loop_
_atom_site_type_symbol
_atom_site_label
_atom_site_fract_x
_atom_site_fract_y
_atom_site_fract_z
Si Si1 0.058737 0.436824 0.781700
Si Si2 0.428155 0.664948 0.790512
Si Si3 0.398608 0.225290 0.923000
Si Si4 0.143481 0.361068 0.484442
Si Si5 0.704431 0.624147 0.933505
O O1 0.139683 0.412782 0.616043
O O2 0.181938 0.428190 0.930680
O O3 0.000000 0.500000 0.768370
O O4 0.924593 0.393235 0.819947
O O5 0.516393 0.725558 0.816460
O O6 0.302390 0.663552 0.934611
O O7 0.554441 0.618145 0.828293
O O8 0.352913 0.647317 0.614023
O O9 0.250000 0.250000 0.019066
O O10 0.526572 0.190337 0.019693
O O11 0.305109 0.173367 0.839644
#
# Coordination Sequence:
#
# PCOD9355099 Si02
#       5
#     8   8   8   8   8
#     4  11  24  45  69  96 133 180 237 301 357 413
#     4  11  22  40  67 101 145 183 226 291 351 424
#     4   9  21  38  62  95 140 183 221 269 340 418
#     4  11  22  39  67 100 135 181 234 284 348 424
#     4  10  23  42  66 100 139 185 238 289 352 427
#
# _framework density 24.039565
#
# number of rings (size 3 to 8) (size 9 to 14) (size 15 to 20)
#    0.000    1.600    0.000    4.800    0.000   11.200 
#    0.000   10.000    0.000    9.600    0.000    0.000 
#    0.000    0.000    0.000    0.000    0.000    0.000 
#
# Total GULP energy -111425.630175 kJ/mol
# GULP energy per Si atom -5571.281509 kJ/mol
# Density = 2.398485 g / cm^3
# Si number density = 24.039565 Si / 1000 Ang^3
#
#
#
# Elastic Constant Matrix: (Units=GPa)
#
#
# Indices 1 2 3 4 5 6 
#
# 1 196.2582 76.9678 50.1831 0.0000 0.0000 0.0000
# 2 76.9678 125.8035 46.6106 0.0000 0.0000 0.0000
# 3 50.1831 46.6106 102.2370 0.0000 0.0000 0.0000
# 4 0.0000 0.0000 0.0000 27.8586 0.0000 0.0000
# 5 0.0000 0.0000 0.0000 0.0000 41.6974 0.0000
# 6 0.0000 0.0000 0.0000 0.0000 0.0000 30.0610
#
#
#
# Elastic Compliance Matrix: (Units=1/GPa)
#
#
# Indices 1 2 3 4 5 6 
#
# 1 0.006962 -0.003602 -0.001775 0.000000 0.000000 0.000000
# 2 -0.003602 0.011428 -0.003442 0.000000 0.000000 0.000000
# 3 -0.001775 -0.003442 0.012222 0.000000 0.000000 0.000000
# 4 0.000000 0.000000 0.000000 0.035896 0.000000 0.000000
# 5 0.000000 0.000000 0.000000 0.000000 0.023982 0.000000
# 6 0.000000 0.000000 0.000000 0.000000 0.000000 0.033266
#
#
# Mechanical properties :
#
#
# Convention : Reuss Voigt Hill
#
# Bulk Modulus (GPa) = 77.08026 85.75797 81.41912
# Shear Modulus (GPa) = 34.31311 36.62589 35.46950
#
# Velocity S-wave (km/s) = 3.78214 3.90752 3.84534
# Velocity P-wave (km/s) = 7.15586 7.49062 7.32515
#
# Compressibility (1/GPa) = 0.01297349
#
# Stress axis : x y z
#
# Youngs Moduli (GPa) = 143.64368 87.50687 81.82071
#
# Poissons Ratio (x) = 0.31516 0.14525
# Poissons Ratio (y) = 0.51733 0.28164
# Poissons Ratio (z) = 0.25499 0.30121
#
# Static dielectric constant tensor:
#      x y z
#    x 1.919660 0.000000 0.000000 
#    y 0.000000 1.962270 0.000000 
#    z 0.000000 0.000000 2.092530 
# 
# From -- ./inp_files/2292.got.cif
#   From: 2010.05.17/outbox.cif.g08.bks.cpg/sg37_2_cif.got.tgz:2292.got - 2010.06.03 17:53:42.
