data_PCOD9355081
_publ_section_title
;
Structure prediction by ZEFSAII (Michael W. Deem and Ramdas Pophale) SiO2 
 PCOD9355081
Probable space group: C C C 2
;
_chemical_formula_sum "Si O2"
_cell_formula_units_Z 52
_cell_length_a 10.949459
_cell_length_b 23.864805
_cell_length_c 9.309499
_cell_angle_alpha 90.000000
_cell_angle_beta 90.000000
_cell_angle_gamma 90.000000
_cell_volume 2432.634499
_symmetry_space_group_name_H-M "C C C 2"
_symmetry_group_IT_number 37
_symmetry_cell_setting 'orthorhombic'
loop_
_space_group_symop_operation_xyz
x,y,z
-x,-y,z
-x,y,1/2+z
x,-y,1/2+z
1/2+x,1/2+y,z
1/2-x,1/2-y,z
1/2-x,1/2+y,1/2+z
1/2+x,1/2-y,1/2+z
loop_
_atom_site_type_symbol
_atom_site_label
_atom_site_fract_x
_atom_site_fract_y
_atom_site_fract_z
Si Si1 0.536252 0.841235 0.358130
Si Si2 0.500000 0.000000 0.464598
Si Si3 0.264882 0.000617 0.793328
Si Si4 0.541297 0.434845 0.732619
Si Si5 0.598196 0.911076 0.621575
Si Si6 0.327658 0.193572 0.064840
Si Si7 0.861865 0.899898 0.949942
O O1 0.616211 0.869417 0.487223
O O2 0.442769 0.881514 0.268175
O O3 0.618263 0.818249 0.225639
O O4 0.442069 0.803569 0.452951
O O5 0.391119 0.016134 0.362727
O O6 0.481683 0.946946 0.566239
O O7 0.297755 0.042935 0.660475
O O8 0.206089 0.042708 0.908864
O O9 0.183227 0.945805 0.770580
O O10 0.500000 0.500000 0.743335
O O11 0.452580 0.392567 0.815227
O O12 0.541989 0.414526 0.572060
O O13 0.250000 0.250000 0.067403
O O14 0.234356 0.145768 0.004662
#
# Coordination Sequence:
#
# PCOD9355081 Si02
#       7
#     8   4   8   8   8   8   8
#     4  10  23  44  68 100 139 173 231 303 364 422
#     4  12  22  30  58 102 138 184 236 270 324 422
#     4  11  21  36  61  94 137 186 229 277 343 422
#     4  10  23  41  64  92 141 189 232 276 343 438
#     4  11  20  36  59  96 139 186 221 285 341 412
#     4  11  25  48  76 101 136 180 241 313 377 427
#     4  11  23  45  63  94 132 184 228 289 348 417
#
# _framework density 21.376004999999999
#
# number of rings (size 3 to 8) (size 9 to 14) (size 15 to 20)
#    0.000    1.231    3.077    3.692    2.154    2.462 
#    0.000    3.077    0.000    0.000    0.000    0.000 
#    0.000    0.000    0.000    0.000    0.000    0.000 
#
# Total GULP energy -144800.970769 kJ/mol
# GULP energy per Si atom -5569.268107 kJ/mol
# Density = 2.132735 g / cm^3
# Si number density = 21.376005 Si / 1000 Ang^3
#
#
#
# Elastic Constant Matrix: (Units=GPa)
#
#
# Indices 1 2 3 4 5 6 
#
# 1 70.3835 15.4299 42.4782 0.0000 0.0000 0.0000
# 2 15.4299 58.3939 33.7563 0.0000 0.0000 0.0000
# 3 42.4782 33.7563 154.8186 0.0000 0.0000 0.0000
# 4 0.0000 0.0000 0.0000 15.8763 0.0000 0.0000
# 5 0.0000 0.0000 0.0000 0.0000 45.4441 0.0000
# 6 0.0000 0.0000 0.0000 0.0000 0.0000 24.1488
#
#
#
# Elastic Compliance Matrix: (Units=1/GPa)
#
#
# Indices 1 2 3 4 5 6 
#
# 1 0.017246 -0.002084 -0.004277 0.000000 0.000000 0.000000
# 2 -0.002084 0.019847 -0.003755 0.000000 0.000000 0.000000
# 3 -0.004277 -0.003755 0.008452 0.000000 0.000000 0.000000
# 4 0.000000 0.000000 0.000000 0.062987 0.000000 0.000000
# 5 0.000000 0.000000 0.000000 0.000000 0.022005 0.000000
# 6 0.000000 0.000000 0.000000 0.000000 0.000000 0.041410
#
#
# Mechanical properties :
#
#
# Convention : Reuss Voigt Hill
#
# Bulk Modulus (GPa) = 39.50987 51.88052 45.69520
# Shear Modulus (GPa) = 24.92300 29.88931 27.40616
#
# Velocity S-wave (km/s) = 3.41828 3.74339 3.58453
# Velocity P-wave (km/s) = 5.83977 6.55798 6.20927
#
# Compressibility (1/GPa) = 0.02531013
#
# Stress axis : x y z
#
# Youngs Moduli (GPa) = 57.98313 50.38599 118.32045
#
# Poissons Ratio (x) = 0.10503 0.50611
# Poissons Ratio (y) = 0.12086 0.44434
# Poissons Ratio (z) = 0.24802 0.18922
#
# Static dielectric constant tensor:
#      x y z
#    x 1.948110 0.000000 0.000000 
#    y 0.000000 1.803210 0.000000 
#    z 0.000000 0.000000 1.892930 
# 
# From -- ./inp_files/3002.got.cif
#   From: 2010.05.17/outbox.cif.g08.bks.cpg/sg37_2_cif.got.tgz:3002.got - 2010.06.03 17:53:42.
