data_PCOD9355765
_publ_section_title
;
Structure prediction by ZEFSAII (Michael W. Deem and Ramdas Pophale) SiO2 
 PCOD9355765
Probable space group: C C C 2
;
_chemical_formula_sum "Si O2"
_cell_formula_units_Z 32
_cell_length_a 9.000000
_cell_length_b 18.000000
_cell_length_c 21.000000
_cell_angle_alpha 90.000000
_cell_angle_beta 90.000000
_cell_angle_gamma 90.000000
_cell_volume 3402.000000
_symmetry_space_group_name_H-M "C C C 2"
_symmetry_group_IT_number 37
_symmetry_cell_setting 'orthorhombic'
loop_
_space_group_symop_operation_xyz
x,y,z
-x,-y,z
-x,y,1/2+z
x,-y,1/2+z
1/2+x,1/2+y,z
1/2-x,1/2-y,z
1/2-x,1/2+y,1/2+z
1/2+x,1/2-y,1/2+z
loop_
_atom_site_type_symbol
_atom_site_label
_atom_site_fract_x
_atom_site_fract_y
_atom_site_fract_z
Si Si1 0.095010 0.921020 0.237400
Si Si2 0.679740 0.830256 0.490642
Si Si3 0.153996 0.403850 0.359358
Si Si4 0.689148 0.921060 0.859250
Si Si5 0.820260 0.669744 0.984158
Si Si6 0.693640 0.334597 0.737400
Si Si7 0.653996 0.096150 0.615442
Si Si8 0.689149 0.078940 0.115550
O O1 0.198978 0.914474 0.299966
O O2 0.198978 0.914475 0.174834
O O3 0.980825 0.852242 0.237400
O O4 0.000000 0.000000 0.237400
O O5 0.750000 0.750000 0.498330
O O6 0.715882 0.863817 0.421878
O O7 0.500000 0.826923 0.487400
O O8 0.731788 0.880720 0.549797
O O9 0.173062 0.491220 0.370228
O O10 0.241918 0.375472 0.298926
O O11 0.978210 0.391117 0.346227
O O12 0.731787 0.880721 0.925003
O O13 0.750000 0.750000 0.976469
O O14 0.784117 0.636184 0.052923
O O15 0.750000 0.250000 0.737399
O O16 0.758082 0.375474 0.675875
O O17 0.478211 0.108882 0.628573
O O18 0.673062 0.008780 0.604571
#
# Coordination Sequence:
#
# PCOD9355765 Si02
#       8
#     8   8   8   8   8   8   8   8
#     4  12  23  41  61  93 126 154 210 269 310 369
#     4  10  22  39  60  90 125 161 204 257 311 374
#     4  10  20  40  64  90 120 165 209 248 312 378
#     4  10  21  39  66  88 119 162 209 257 306 376
#     4  10  22  39  60  90 125 161 204 257 311 374
#     4  12  25  39  61  91 129 162 201 256 321 371
#     4  10  20  40  64  90 120 165 209 248 312 378
#     4  10  21  39  66  88 119 162 209 257 306 376
#
# _framework density 9.4062319999999993
#
# number of rings (size 3 to 8) (size 9 to 14) (size 15 to 20)
#    0.000    1.500    2.500    2.250    0.000   11.000 
#    0.000    1.875    0.000    0.000    0.000    0.000 
#    0.000    0.000    0.000    0.000    0.000    0.000 
#
# Total GULP energy -178571.498144 kJ/mol
# GULP energy per Si atom -5580.359317 kJ/mol
# Density = 0.938482 g / cm^3
# Si number density = 9.406232 Si / 1000 Ang^3
#
#
#
# Elastic Constant Matrix: (Units=GPa)
#
#
# Indices 1 2 3 4 5 6 
#
# 1 56.3975 35.1975 68.9639 0.0000 0.0000 0.0000
# 2 35.1975 97.5729 68.7167 0.0000 0.0000 0.0000
# 3 68.9639 68.7167 201.0931 0.0000 0.0000 0.0000
# 4 0.0000 0.0000 0.0000 62.7126 0.0000 0.0000
# 5 0.0000 0.0000 0.0000 0.0000 -36.5256 0.0000
# 6 0.0000 0.0000 0.0000 0.0000 0.0000 32.5197
#
#
#
# Elastic Compliance Matrix: (Units=1/GPa)
#
#
# Indices 1 2 3 4 5 6 
#
# 1 0.032341 -0.005077 -0.009356 0.000000 0.000000 0.000000
# 2 -0.005077 0.014294 -0.003143 0.000000 0.000000 0.000000
# 3 -0.009356 -0.003143 0.009256 0.000000 0.000000 0.000000
# 4 0.000000 0.000000 0.000000 0.015946 0.000000 0.000000
# 5 0.000000 0.000000 0.000000 0.000000 -0.027378 0.000000
# 6 0.000000 0.000000 0.000000 0.000000 0.000000 0.030751
#
#
# Mechanical properties :
#
#
# Convention : Reuss Voigt Hill
#
# Bulk Modulus (GPa) = 48.22265 77.86885 63.04575
# Shear Modulus (GPa) = 42.63513 23.88703 33.26108
#
# Velocity S-wave (km/s) = 4.76576 3.56721 4.20936
# Velocity P-wave (km/s) = 7.48146 7.64518 7.56376
#
# Compressibility (1/GPa) = 0.02073714
#
# Stress axis : x y z
#
# Youngs Moduli (GPa) = 30.92067 69.95996 108.04270
#
# Poissons Ratio (x) = 0.35519 1.01087
# Poissons Ratio (y) = 0.15699 0.33961
# Poissons Ratio (z) = 0.28930 0.21990
#
# Static dielectric constant tensor:
#      x y z
#    x 1.660540 0.000000 0.000000 
#    y 0.000000 1.623800 0.000000 
#    z 0.000000 0.000000 1.632240 
# 
# From -- ./inp_files/16532.got.cif
#   From: 2010.05.17/outbox.ucp.g08.bks.cvg/sg37_9_cif.got.tgz:16532.got - 2010.06.11 10:38:43.
