data_PCOD9355746
_publ_section_title
;
Structure prediction by ZEFSAII (Michael W. Deem and Ramdas Pophale) SiO2 
 PCOD9355746
Probable space group: C C C 2
;
_chemical_formula_sum "Si O2"
_cell_formula_units_Z 32
_cell_length_a 11.206827
_cell_length_b 11.755547
_cell_length_c 8.734952
_cell_angle_alpha 90.000000
_cell_angle_beta 90.000000
_cell_angle_gamma 90.000000
_cell_volume 1150.763379
_symmetry_space_group_name_H-M "C C C 2"
_symmetry_group_IT_number 37
_symmetry_cell_setting 'orthorhombic'
loop_
_space_group_symop_operation_xyz
x,y,z
-x,-y,z
-x,y,1/2+z
x,-y,1/2+z
1/2+x,1/2+y,z
1/2-x,1/2-y,z
1/2-x,1/2+y,1/2+z
1/2+x,1/2-y,1/2+z
loop_
_atom_site_type_symbol
_atom_site_label
_atom_site_fract_x
_atom_site_fract_y
_atom_site_fract_z
Si Si1 0.288824 0.462054 0.718480
Si Si2 0.086905 0.246630 0.885114
Si Si3 0.341453 0.646976 0.904752
Si Si4 0.930738 0.601378 0.153409
O O1 0.327905 0.349177 0.810807
O O2 0.373835 0.566319 0.762421
O O3 0.289590 0.427238 0.542863
O O4 0.165581 0.530025 0.751306
O O5 0.968930 0.190817 0.958428
O O6 0.024101 0.325763 0.754477
O O7 0.132905 0.321656 0.026683
O O8 0.250000 0.750000 0.872463
O O9 0.000000 0.500000 0.068632
#
# Coordination Sequence:
#
# PCOD9355746 Si02
#       4
#     8   8   8   8
#     4  12  30  48  89 121 169 232 281 360 442 518
#     4  12  27  54  84 124 176 219 294 359 432 528
#     4  12  27  51  79 127 170 226 290 355 442 518
#     4  12  28  53  84 126 175 227 287 362 438 520
#
# _framework density 27.807631000000001
#
# number of rings (size 3 to 8) (size 9 to 14) (size 15 to 20)
#    0.000    0.000    5.000    3.000    7.000    2.000 
#    0.000    0.000    0.000    0.000    0.000    0.000 
#    0.000    0.000    0.000    0.000    0.000    0.000 
#
# Total GULP energy -89597.311106 kJ/mol
# GULP energy per Si atom -5599.831944 kJ/mol
# Density = 2.774434 g / cm^3
# Si number density = 27.807631 Si / 1000 Ang^3
#
#
#
# Elastic Constant Matrix: (Units=GPa)
#
#
# Indices 1 2 3 4 5 6 
#
# 1 99.8181 85.0289 47.9090 0.0000 0.0000 0.0000
# 2 85.0289 211.3912 109.5998 0.0000 0.0000 0.0000
# 3 47.9090 109.5998 156.4354 0.0000 0.0000 0.0000
# 4 0.0000 0.0000 0.0000 48.4799 0.0000 0.0000
# 5 0.0000 0.0000 0.0000 0.0000 45.4658 0.0000
# 6 0.0000 0.0000 0.0000 0.0000 0.0000 75.7898
#
#
#
# Elastic Compliance Matrix: (Units=1/GPa)
#
#
# Indices 1 2 3 4 5 6 
#
# 1 0.015274 -0.005840 -0.000586 0.000000 0.000000 0.000000
# 2 -0.005840 0.009662 -0.004981 0.000000 0.000000 0.000000
# 3 -0.000586 -0.004981 0.010062 0.000000 0.000000 0.000000
# 4 0.000000 0.000000 0.000000 0.020627 0.000000 0.000000
# 5 0.000000 0.000000 0.000000 0.000000 0.021995 0.000000
# 6 0.000000 0.000000 0.000000 0.000000 0.000000 0.013194
#
#
# Mechanical properties :
#
#
# Convention : Reuss Voigt Hill
#
# Bulk Modulus (GPa) = 82.07607 105.85779 93.96693
# Shear Modulus (GPa) = 42.48492 48.95424 45.71958
#
# Velocity S-wave (km/s) = 3.91297 4.20034 4.05920
# Velocity P-wave (km/s) = 7.07070 7.85330 7.47225
#
# Compressibility (1/GPa) = 0.01218382
#
# Stress axis : x y z
#
# Youngs Moduli (GPa) = 65.46971 103.49940 99.38844
#
# Poissons Ratio (x) = 0.60442 0.05828
# Poissons Ratio (y) = 0.38233 0.49503
# Poissons Ratio (z) = 0.03839 0.51550
#
# Static dielectric constant tensor:
#      x y z
#    x 2.434500 0.000000 0.000000 
#    y 0.000000 2.245350 0.000000 
#    z 0.000000 0.000000 2.081870 
# 
# From -- ./inp_files/3228.got.cif
#   From: 2010.05.17/outbox.cif.g08.bks.cpg/sg37_2_cif.got.tgz:3228.got - 2010.06.03 17:53:42.
