data_PCOD9355900
_publ_section_title
;
Structure prediction by ZEFSAII (Michael W. Deem and Ramdas Pophale) SiO2 
 PCOD9355900
Probable space group: A M M 2
;
_chemical_formula_sum "Si O2"
_cell_formula_units_Z 64
_cell_length_a 20.227316
_cell_length_b 7.347992
_cell_length_c 21.043596
_cell_angle_alpha 90.000000
_cell_angle_beta 90.000000
_cell_angle_gamma 90.000000
_cell_volume 3127.712959
_symmetry_space_group_name_H-M "A M M 2"
_symmetry_group_IT_number 38
_symmetry_cell_setting 'orthorhombic'
loop_
_space_group_symop_operation_xyz
x,y,z
-x,-y,z
-x,y,z
x,-y,z
x,1/2+y,1/2+z
-x,1/2-y,1/2+z
-x,1/2+y,1/2+z
x,1/2-y,1/2+z
loop_
_atom_site_type_symbol
_atom_site_label
_atom_site_fract_x
_atom_site_fract_y
_atom_site_fract_z
Si Si1 0.791601 0.711044 0.788260
Si Si2 0.426015 0.278597 0.615559
Si Si3 0.710096 0.779938 0.914380
Si Si4 0.074075 0.719181 0.846558
Si Si5 0.426176 0.278637 0.467899
Si Si6 0.711381 0.722562 0.667289
Si Si7 0.211366 0.722059 0.540703
Si Si8 0.927144 0.215678 0.996482
O O1 0.803691 0.500000 0.772064
O O2 0.746889 0.717932 0.851317
O O3 0.863691 0.788674 0.806207
O O4 0.749958 0.787506 0.729545
O O5 0.500000 0.219568 0.633922
O O6 0.426282 0.500000 0.616051
O O7 0.414636 0.226390 0.541670
O O8 0.364620 0.218700 0.658292
O O9 0.634437 0.719707 0.924138
O O10 0.710885 0.000000 0.913008
O O11 0.749832 0.722322 0.977280
O O12 0.073566 0.500000 0.841774
O O13 0.000000 0.783585 0.829527
O O14 0.085028 0.761634 0.921022
O O15 0.500000 0.219638 0.449566
O O16 0.426033 0.500000 0.467500
O O17 0.709886 0.500000 0.668838
O O18 0.751248 0.777154 0.604232
O O19 0.211307 0.500000 0.540494
O O20 0.135923 0.785804 0.534436
O O21 0.000000 0.291338 0.010547
O O22 0.929883 0.000000 0.008399
#
# Coordination Sequence:
#
# PCOD9355900 Si02
#       8
#     8   8   8   8   8   8   8   8
#     4  10  20  31  44  65  93 122 149 180 220 268
#     4   8  12  20  37  61  86 110 141 181 219 256
#     4  10  17  28  48  69  89 115 147 186 225 261
#     4   9  17  29  43  60  85 118 152 179 210 261
#     4   8  13  22  40  68  93 111 142 188 227 256
#     4   9  16  27  41  61  90 119 145 178 221 263
#     4   9  15  25  43  66  87 110 143 182 222 257
#     4   9  16  26  43  68  91 109 138 183 228 263
#
# _framework density 20.462235
#
# number of rings (size 3 to 8) (size 9 to 14) (size 15 to 20)
#    0.000    3.000    2.500    0.750    0.000    0.000 
#    0.000    1.250    0.000    6.375    0.000    0.000 
#    0.000    4.000    0.000    0.000    0.000    0.000 
#
# Total GULP energy -178505.517748 kJ/mol
# GULP energy per Si atom -5578.297430 kJ/mol
# Density = 2.041566 g / cm^3
# Si number density = 20.462235 Si / 1000 Ang^3
#
#
#
# Elastic Constant Matrix: (Units=GPa)
#
#
# Indices 1 2 3 4 5 6 
#
# 1 211.6649 1.4414 79.1748 0.0000 0.0000 0.0000
# 2 1.4414 76.0051 -6.2514 0.0000 0.0000 0.0000
# 3 79.1748 -6.2514 102.1509 0.0000 0.0000 0.0000
# 4 0.0000 0.0000 0.0000 6.3728 0.0000 0.0000
# 5 0.0000 0.0000 0.0000 0.0000 25.6822 0.0000
# 6 0.0000 0.0000 0.0000 0.0000 0.0000 -1.6770
#
#
#
# Elastic Compliance Matrix: (Units=1/GPa)
#
#
# Indices 1 2 3 4 5 6 
#
# 1 0.006677 -0.000555 -0.005209 0.000000 0.000000 0.000000
# 2 -0.000555 0.013270 0.001242 0.000000 0.000000 0.000000
# 3 -0.005209 0.001242 0.013903 0.000000 0.000000 0.000000
# 4 0.000000 0.000000 0.000000 0.156918 0.000000 0.000000
# 5 0.000000 0.000000 0.000000 0.000000 0.038937 0.000000
# 6 0.000000 0.000000 0.000000 0.000000 0.000000 -0.596290
#
#
# Mechanical properties :
#
#
# Convention : Reuss Voigt Hill
#
# Bulk Modulus (GPa) = 40.31315 59.83896 50.07605
# Shear Modulus (GPa) = -14.31540 27.10600 6.39530
#
# Velocity S-wave (km/s) = -2.64787 3.64357 1.76980
# Velocity P-wave (km/s) = 3.22424 6.85623 5.35741
#
# Compressibility (1/GPa) = 0.02480580
#
# Stress axis : x y z
#
# Youngs Moduli (GPa) = 149.77569 75.35957 71.92822
#
# Poissons Ratio (x) = 0.04183 0.37467
# Poissons Ratio (y) = 0.08313 -0.08935
# Poissons Ratio (z) = 0.78016 -0.09362
#
# Static dielectric constant tensor:
#      x y z
#    x 1.758870 0.000000 0.000000 
#    y 0.000000 1.704750 0.000000 
#    z 0.000000 0.000000 1.662130 
# 
# From -- ./inp_files/21511.got.cif
#   From: 2010.05.17/outbox.cif.g08.bks.cpg/sg38_11_cif.got.tgz:21511.got - 2010.06.03 18:07:57.
