data_PCOD9355073
_publ_section_title
;
Structure prediction by ZEFSAII (Michael W. Deem and Ramdas Pophale) SiO2 
 PCOD9355073
Probable space group: C C C 2
;
_chemical_formula_sum "Si O2"
_cell_formula_units_Z 40
_cell_length_a 21.231639
_cell_length_b 9.095947
_cell_length_c 9.095381
_cell_angle_alpha 90.000000
_cell_angle_beta 90.000000
_cell_angle_gamma 90.000000
_cell_volume 1756.516924
_symmetry_space_group_name_H-M "C C C 2"
_symmetry_group_IT_number 37
_symmetry_cell_setting 'orthorhombic'
loop_
_space_group_symop_operation_xyz
x,y,z
-x,-y,z
-x,y,1/2+z
x,-y,1/2+z
1/2+x,1/2+y,z
1/2-x,1/2-y,z
1/2-x,1/2+y,1/2+z
1/2+x,1/2-y,1/2+z
loop_
_atom_site_type_symbol
_atom_site_label
_atom_site_fract_x
_atom_site_fract_y
_atom_site_fract_z
Si Si1 0.114888 0.145293 0.007280
Si Si2 0.667654 0.147361 0.720167
Si Si3 0.470275 0.841373 0.661102
Si Si4 0.807001 0.651154 0.551937
Si Si5 0.911037 0.145517 0.182030
O O1 0.170318 0.210546 0.111582
O O2 0.063445 0.276825 0.015695
O O3 0.087614 0.002873 0.087975
O O4 0.124018 0.114925 0.836775
O O5 0.700571 0.141993 0.876561
O O6 0.592396 0.142470 0.759891
O O7 0.687624 0.007311 0.625488
O O8 0.521052 0.719728 0.706822
O O9 0.500000 0.000000 0.641527
O O10 0.750000 0.750000 0.611566
O O11 0.870263 0.737459 0.592412
#
# Coordination Sequence:
#
# PCOD9355073 Si02
#       5
#     8   8   8   8   8
#     4  10  25  40  69 106 147 183 233 293 356 429
#     4  10  25  46  69 106 135 185 236 290 360 409
#     4  10  23  40  74 102 148 178 236 291 362 423
#     4  12  27  48  75 100 142 188 244 291 348 433
#     4  12  23  44  68 107 145 191 235 290 363 411
#
# _framework density 22.77234
#
# number of rings (size 3 to 8) (size 9 to 14) (size 15 to 20)
#    1.200    0.000    2.000    3.000    2.800    5.600 
#    0.000    2.000    0.000    0.000    0.000    0.000 
#    0.000    0.000    0.000    0.000    0.000    0.000 
#
# Total GULP energy -111613.829399 kJ/mol
# GULP energy per Si atom -5580.691470 kJ/mol
# Density = 2.272051 g / cm^3
# Si number density = 22.772340 Si / 1000 Ang^3
#
#
#
# Elastic Constant Matrix: (Units=GPa)
#
#
# Indices 1 2 3 4 5 6 
#
# 1 60.4149 24.2672 2.6197 0.0000 0.0000 0.0000
# 2 24.2672 133.6318 42.2557 0.0000 0.0000 0.0000
# 3 2.6197 42.2557 144.3445 0.0000 0.0000 0.0000
# 4 0.0000 0.0000 0.0000 26.7275 0.0000 0.0000
# 5 0.0000 0.0000 0.0000 0.0000 8.5447 0.0000
# 6 0.0000 0.0000 0.0000 0.0000 0.0000 39.4487
#
#
#
# Elastic Compliance Matrix: (Units=1/GPa)
#
#
# Indices 1 2 3 4 5 6 
#
# 1 0.017917 -0.003472 0.000691 0.000000 0.000000 0.000000
# 2 -0.003472 0.008920 -0.002548 0.000000 0.000000 0.000000
# 3 0.000691 -0.002548 0.007661 0.000000 0.000000 0.000000
# 4 0.000000 0.000000 0.000000 0.037415 0.000000 0.000000
# 5 0.000000 0.000000 0.000000 0.000000 0.117031 0.000000
# 6 0.000000 0.000000 0.000000 0.000000 0.000000 0.025349
#
#
# Mechanical properties :
#
#
# Convention : Reuss Voigt Hill
#
# Bulk Modulus (GPa) = 41.94697 52.96404 47.45550
# Shear Modulus (GPa) = 21.46868 32.89411 27.18140
#
# Velocity S-wave (km/s) = 3.07376 3.80475 3.45862
# Velocity P-wave (km/s) = 5.57292 6.52764 6.06908
#
# Compressibility (1/GPa) = 0.02383963
#
# Stress axis : x y z
#
# Youngs Moduli (GPa) = 55.81303 112.11337 130.52678
#
# Poissons Ratio (x) = 0.38929 -0.09023
# Poissons Ratio (y) = 0.19380 0.33260
# Poissons Ratio (z) = -0.03858 0.28568
#
# Static dielectric constant tensor:
#      x y z
#    x 1.917950 0.000000 0.000000 
#    y 0.000000 1.808570 0.000000 
#    z 0.000000 0.000000 1.817880 
# 
# From -- ./inp_files/4537.got.cif
#   From: 2010.05.17/outbox.cif.g08.bks.cpg/sg37_3_cif.got.tgz:4537.got - 2010.06.03 17:53:42.
