data_PCOD9355736
_publ_section_title
;
Structure prediction by ZEFSAII (Michael W. Deem and Ramdas Pophale) SiO2 
 PCOD9355736
Probable space group: C C C 2
;
_chemical_formula_sum "Si O2"
_cell_formula_units_Z 36
_cell_length_a 7.979982
_cell_length_b 20.265201
_cell_length_c 9.172053
_cell_angle_alpha 90.000000
_cell_angle_beta 90.000000
_cell_angle_gamma 90.000000
_cell_volume 1483.267165
_symmetry_space_group_name_H-M "C C C 2"
_symmetry_group_IT_number 37
_symmetry_cell_setting 'orthorhombic'
loop_
_space_group_symop_operation_xyz
x,y,z
-x,-y,z
-x,y,1/2+z
x,-y,1/2+z
1/2+x,1/2+y,z
1/2-x,1/2-y,z
1/2-x,1/2+y,1/2+z
1/2+x,1/2-y,1/2+z
loop_
_atom_site_type_symbol
_atom_site_label
_atom_site_fract_x
_atom_site_fract_y
_atom_site_fract_z
Si Si1 0.354749 0.641492 0.750000
Si Si2 0.509836 0.133409 0.908612
Si Si3 0.078961 0.225462 0.960658
Si Si4 0.638780 0.947238 0.677539
Si Si5 0.500000 0.500000 0.200185
O O1 0.161653 0.639190 0.794109
O O2 0.451169 0.688824 0.858882
O O3 0.377927 0.676321 0.593053
O O4 0.434863 0.568832 0.768674
O O5 0.496666 0.202757 0.993559
O O6 0.355557 0.105420 0.811358
O O7 0.561339 0.082557 0.032135
O O8 0.250000 0.250000 0.884614
O O9 0.821130 0.975775 0.634985
O O10 0.500000 0.000000 0.729521
#
# Coordination Sequence:
#
# PCOD9355736 Si02
#       5
#     8   8   8   8   4
#     4  12  27  48  74 113 151 212 258 330 396 481
#     4  12  26  50  80 112 159 206 268 332 401 473
#     4  12  26  46  75 108 152 199 267 324 400 469
#     4  12  26  50  78 116 157 209 260 329 401 474
#     4  12  28  48  78 112 160 202 268 312 406 478
#
# _framework density 24.270745999999999
#
# number of rings (size 3 to 8) (size 9 to 14) (size 15 to 20)
#    0.000    0.000    2.222    8.000    0.000    5.333 
#    0.000    0.000    0.000    0.000    0.000    0.000 
#    0.000    0.000    0.000    0.000    0.000    0.000 
#
# Total GULP energy -100590.580383 kJ/mol
# GULP energy per Si atom -5588.365577 kJ/mol
# Density = 2.421550 g / cm^3
# Si number density = 24.270746 Si / 1000 Ang^3
#
#
#
# Elastic Constant Matrix: (Units=GPa)
#
#
# Indices 1 2 3 4 5 6 
#
# 1 102.5823 27.7740 12.0604 0.0000 0.0000 0.0000
# 2 27.7740 148.8859 27.3837 0.0000 0.0000 0.0000
# 3 12.0604 27.3837 81.5717 0.0000 0.0000 0.0000
# 4 0.0000 0.0000 0.0000 22.3805 0.0000 0.0000
# 5 0.0000 0.0000 0.0000 0.0000 17.2062 0.0000
# 6 0.0000 0.0000 0.0000 0.0000 0.0000 42.1389
#
#
#
# Elastic Compliance Matrix: (Units=1/GPa)
#
#
# Indices 1 2 3 4 5 6 
#
# 1 0.010334 -0.001755 -0.000939 0.000000 0.000000 0.000000
# 2 -0.001755 0.007457 -0.002244 0.000000 0.000000 0.000000
# 3 -0.000939 -0.002244 0.013151 0.000000 0.000000 0.000000
# 4 0.000000 0.000000 0.000000 0.044682 0.000000 0.000000
# 5 0.000000 0.000000 0.000000 0.000000 0.058119 0.000000
# 6 0.000000 0.000000 0.000000 0.000000 0.000000 0.023731
#
#
# Mechanical properties :
#
#
# Convention : Reuss Voigt Hill
#
# Bulk Modulus (GPa) = 47.46836 51.94178 49.70507
# Shear Modulus (GPa) = 28.67463 34.06657 31.37060
#
# Velocity S-wave (km/s) = 3.44095 3.75054 3.59907
# Velocity P-wave (km/s) = 5.94871 6.34057 6.14776
#
# Compressibility (1/GPa) = 0.02106667
#
# Stress axis : x y z
#
# Youngs Moduli (GPa) = 96.76973 134.10886 76.03901
#
# Poissons Ratio (x) = 0.23537 0.07138
# Poissons Ratio (y) = 0.16984 0.17061
# Poissons Ratio (z) = 0.09083 0.30090
#
# Static dielectric constant tensor:
#      x y z
#    x 1.962570 0.000000 0.000000 
#    y 0.000000 2.018690 0.000000 
#    z 0.000000 0.000000 1.909210 
# 
# From -- ./inp_files/2119.got.cif
#   From: 2010.05.17/outbox.cif.g08.bks.cpg/sg37_2_cif.got.tgz:2119.got - 2010.06.03 17:53:42.
