data_PCOD9355615
_publ_section_title
;
Structure prediction by ZEFSAII (Michael W. Deem and Ramdas Pophale) SiO2 
 PCOD9355615
Probable space group: C C C 2
;
_chemical_formula_sum "Si O2"
_cell_formula_units_Z 48
_cell_length_a 9.196247
_cell_length_b 14.913123
_cell_length_c 16.065963
_cell_angle_alpha 90.000000
_cell_angle_beta 90.000000
_cell_angle_gamma 90.000000
_cell_volume 2203.362682
_symmetry_space_group_name_H-M "C C C 2"
_symmetry_group_IT_number 37
_symmetry_cell_setting 'orthorhombic'
loop_
_space_group_symop_operation_xyz
x,y,z
-x,-y,z
-x,y,1/2+z
x,-y,1/2+z
1/2+x,1/2+y,z
1/2-x,1/2-y,z
1/2-x,1/2+y,1/2+z
1/2+x,1/2-y,1/2+z
loop_
_atom_site_type_symbol
_atom_site_label
_atom_site_fract_x
_atom_site_fract_y
_atom_site_fract_z
Si Si1 0.872307 0.428598 0.466560
Si Si2 0.486078 0.251033 0.407324
Si Si3 0.750000 0.750000 0.263213
Si Si4 0.149128 0.104738 0.662443
Si Si5 0.186464 0.895759 0.629384
Si Si6 0.250000 0.250000 0.549528
Si Si7 0.627822 0.427319 0.351629
O O1 0.785586 0.391397 0.547070
O O2 0.756903 0.473724 0.403110
O O3 0.000000 0.500000 0.486484
O O4 0.930516 0.342236 0.416612
O O5 0.388064 0.252312 0.324257
O O6 0.384696 0.255585 0.487901
O O7 0.578760 0.341520 0.404740
O O8 0.747333 0.836130 0.203122
O O9 0.257437 0.164863 0.609547
O O10 0.163288 0.113214 0.761402
O O11 0.985850 0.129308 0.630632
O O12 0.179665 0.001035 0.647323
O O13 0.500000 0.500000 0.340568
#
# Coordination Sequence:
#
# PCOD9355615 Si02
#       7
#     8   8   4   8   8   4   8
#     4  12  30  46  73 111 150 188 241 308 367 430
#     4  11  26  48  71 108 145 191 235 298 368 429
#     4  11  24  46  77 102 150 188 243 300 358 435
#     4  11  24  46  73 103 138 196 245 294 355 436
#     4  11  25  48  71 105 143 192 246 297 363 427
#     4  11  26  42  75 104 144 186 241 294 360 431
#     4  12  26  48  75 103 145 194 246 291 363 439
#
# _framework density 21.784884000000002
#
# number of rings (size 3 to 8) (size 9 to 14) (size 15 to 20)
#    0.000    0.667    3.333    2.500   18.667    0.000 
#    3.000    0.000    0.000    0.000    0.000    0.000 
#    0.000    0.000    0.000    0.000    0.000    0.000 
#
# Total GULP energy -134212.939719 kJ/mol
# GULP energy per Si atom -5592.205822 kJ/mol
# Density = 2.173530 g / cm^3
# Si number density = 21.784884 Si / 1000 Ang^3
#
#
#
# Elastic Constant Matrix: (Units=GPa)
#
#
# Indices 1 2 3 4 5 6 
#
# 1 57.9484 8.7580 71.6154 0.0000 0.0000 0.0000
# 2 8.7580 60.9560 38.7545 0.0000 0.0000 0.0000
# 3 71.6154 38.7545 167.3999 0.0000 0.0000 0.0000
# 4 0.0000 0.0000 0.0000 30.0349 0.0000 0.0000
# 5 0.0000 0.0000 0.0000 0.0000 1.1123 0.0000
# 6 0.0000 0.0000 0.0000 0.0000 0.0000 25.6058
#
#
#
# Elastic Compliance Matrix: (Units=1/GPa)
#
#
# Indices 1 2 3 4 5 6 
#
# 1 0.038265 0.005757 -0.017703 0.000000 0.000000 0.000000
# 2 0.005757 0.020103 -0.007117 0.000000 0.000000 0.000000
# 3 -0.017703 -0.007117 0.015195 0.000000 0.000000 0.000000
# 4 0.000000 0.000000 0.000000 0.033295 0.000000 0.000000
# 5 0.000000 0.000000 0.000000 0.000000 0.899058 0.000000
# 6 0.000000 0.000000 0.000000 0.000000 0.000000 0.039054
#
#
# Mechanical properties :
#
#
# Convention : Reuss Voigt Hill
#
# Bulk Modulus (GPa) = 28.21886 58.28446 43.25166
# Shear Modulus (GPa) = 4.56660 22.49570 13.53115
#
# Velocity S-wave (km/s) = 1.44941 3.21694 2.49494
# Velocity P-wave (km/s) = 3.97273 6.37267 5.31006
#
# Compressibility (1/GPa) = 0.03543729
#
# Stress axis : x y z
#
# Youngs Moduli (GPa) = 26.13376 49.74394 65.81168
#
# Poissons Ratio (x) = -0.28639 1.16506
# Poissons Ratio (y) = -0.15046 0.46839
# Poissons Ratio (z) = 0.46264 0.35403
#
# Static dielectric constant tensor:
#      x y z
#    x 1.885820 0.000000 0.000000 
#    y 0.000000 1.814960 0.000000 
#    z 0.000000 0.000000 1.799550 
# 
# From -- ./inp_files/14558.got.cif
#   From: 2010.05.17/outbox.cif.g08.bks.cpg/sg37_8_cif.got.tgz:14558.got - 2010.06.03 17:53:42.
