data_PCOD9355953
_publ_section_title
;
Structure prediction by ZEFSAII (Michael W. Deem and Ramdas Pophale) SiO2 
 PCOD9355953
Probable space group: A M M 2
;
_chemical_formula_sum "Si O2"
_cell_formula_units_Z 42
_cell_length_a 7.372378
_cell_length_b 22.476866
_cell_length_c 9.578278
_cell_angle_alpha 90.000000
_cell_angle_beta 90.000000
_cell_angle_gamma 90.000000
_cell_volume 1587.196835
_symmetry_space_group_name_H-M "A M M 2"
_symmetry_group_IT_number 38
_symmetry_cell_setting 'orthorhombic'
loop_
_space_group_symop_operation_xyz
x,y,z
-x,-y,z
-x,y,z
x,-y,z
x,1/2+y,1/2+z
-x,1/2-y,1/2+z
-x,1/2+y,1/2+z
x,1/2-y,1/2+z
loop_
_atom_site_type_symbol
_atom_site_label
_atom_site_fract_x
_atom_site_fract_y
_atom_site_fract_z
Si Si1 0.500000 0.000000 0.309310
Si Si2 0.276215 0.679336 0.655637
Si Si3 0.716349 0.934995 0.996668
Si Si4 0.789446 0.566126 0.961505
Si Si5 0.293465 0.253483 0.903555
Si Si6 0.784252 0.137054 0.726985
O O1 0.342346 0.947834 0.332608
O O2 0.500000 0.680312 0.653072
O O3 0.211060 0.618777 0.588021
O O4 0.212756 0.694452 0.810201
O O5 0.212877 0.730574 0.547371
O O6 0.500000 0.938628 0.024341
O O7 0.742041 0.915346 0.837006
O O8 0.790996 0.000000 0.024703
O O9 0.777316 0.500000 0.035247
O O10 0.000000 0.574716 0.926405
O O11 0.726442 0.615163 0.073694
O O12 0.500000 0.269754 0.933922
O O13 0.295325 0.195934 0.799737
O O14 0.000000 0.145238 0.721625
#
# Coordination Sequence:
#
# PCOD9355953 Si02
#       6
#     2   8   8   8   8   8
#     4   8  14  20  36  46  76 116 154 178 246 290
#     4   8  15  29  46  72  94 123 163 204 240 291
#     4   9  17  27  45  68  95 124 160 198 246 299
#     4   8  15  22  31  52  80 110 150 192 234 291
#     4   9  17  29  48  65  92 124 163 201 244 294
#     4  10  18  26  37  60  91 120 153 196 241 286
#
# _framework density 26.461748
#
# number of rings (size 3 to 8) (size 9 to 14) (size 15 to 20)
#    0.571    2.667    0.000    2.286    2.667    1.143 
#    0.000    3.810    0.000    0.000    0.000    6.667 
#    0.000   41.524    0.000    0.190    0.000    3.429 
#
# Total GULP energy -117165.528970 kJ/mol
# GULP energy per Si atom -5579.310903 kJ/mol
# Density = 2.640152 g / cm^3
# Si number density = 26.461748 Si / 1000 Ang^3
#
#
#
# Elastic Constant Matrix: (Units=GPa)
#
#
# Indices 1 2 3 4 5 6 
#
# 1 119.9224 7.8200 4.2975 0.0000 0.0000 0.0000
# 2 7.8200 76.7760 60.5298 0.0000 0.0000 0.0000
# 3 4.2975 60.5298 141.7177 0.0000 0.0000 0.0000
# 4 0.0000 0.0000 0.0000 92.5441 0.0000 0.0000
# 5 0.0000 0.0000 0.0000 0.0000 24.5267 0.0000
# 6 0.0000 0.0000 0.0000 0.0000 0.0000 3.9083
#
#
#
# Elastic Compliance Matrix: (Units=1/GPa)
#
#
# Indices 1 2 3 4 5 6 
#
# 1 0.008397 -0.000987 0.000167 0.000000 0.000000 0.000000
# 2 -0.000987 0.019754 -0.008407 0.000000 0.000000 0.000000
# 3 0.000167 -0.008407 0.010642 0.000000 0.000000 0.000000
# 4 0.000000 0.000000 0.000000 0.010806 0.000000 0.000000
# 5 0.000000 0.000000 0.000000 0.000000 0.040772 0.000000
# 6 0.000000 0.000000 0.000000 0.000000 0.000000 0.255869
#
#
# Mechanical properties :
#
#
# Convention : Reuss Voigt Hill
#
# Bulk Modulus (GPa) = 49.16785 53.74561 51.45673
# Shear Modulus (GPa) = 13.45994 41.91374 27.68684
#
# Velocity S-wave (km/s) = 2.25779 3.98419 3.23816
# Velocity P-wave (km/s) = 5.04161 6.44358 5.78522
#
# Compressibility (1/GPa) = 0.02033849
#
# Stress axis : x y z
#
# Youngs Moduli (GPa) = 119.08879 50.62383 93.96706
#
# Poissons Ratio (x) = 0.04996 -0.01568
# Poissons Ratio (y) = 0.11752 0.78999
# Poissons Ratio (z) = -0.01987 0.42560
#
# Static dielectric constant tensor:
#      x y z
#    x 1.952120 0.000000 0.000000 
#    y 0.000000 2.117600 0.000000 
#    z 0.000000 0.000000 2.094110 
# 
# From -- ./inp_files/8077.got.cif
#   From: 2010.05.17/outbox.cif.g08.bks.cpg/sg38_5_cif.got.tgz:8077.got - 2010.06.03 18:07:57.
