data_PCOD9355890
_publ_section_title
;
Structure prediction by ZEFSAII (Michael W. Deem and Ramdas Pophale) SiO2 
 PCOD9355890
Probable space group: A M M 2
;
_chemical_formula_sum "Si O2"
_cell_formula_units_Z 48
_cell_length_a 7.498589
_cell_length_b 12.537780
_cell_length_c 25.881464
_cell_angle_alpha 90.000000
_cell_angle_beta 90.000000
_cell_angle_gamma 90.000000
_cell_volume 2433.262899
_symmetry_space_group_name_H-M "A M M 2"
_symmetry_group_IT_number 38
_symmetry_cell_setting 'orthorhombic'
loop_
_space_group_symop_operation_xyz
x,y,z
-x,-y,z
-x,y,z
x,-y,z
x,1/2+y,1/2+z
-x,1/2-y,1/2+z
-x,1/2+y,1/2+z
x,1/2-y,1/2+z
loop_
_atom_site_type_symbol
_atom_site_label
_atom_site_fract_x
_atom_site_fract_y
_atom_site_fract_z
Si Si1 0.718575 0.622305 0.189370
Si Si2 0.287675 0.500000 0.773513
Si Si3 0.785912 0.121159 0.998364
Si Si4 0.291501 0.233263 0.285042
Si Si5 0.711712 0.218966 0.103035
Si Si6 0.286410 0.000000 0.150687
Si Si7 0.215530 0.378435 0.381497
O O1 0.500000 0.619266 0.190729
O O2 0.778311 0.500000 0.193541
O O3 0.779653 0.695649 0.237494
O O4 0.775917 0.680512 0.136253
O O5 0.500000 0.500000 0.786246
O O6 0.214516 0.614401 0.791363
O O7 0.264632 0.500000 0.711805
O O8 0.738313 0.206444 0.041957
O O9 0.000000 0.115820 0.996944
O O10 0.722068 0.000000 0.011647
O O11 0.725425 0.146243 0.940112
O O12 0.500000 0.217861 0.271762
O O13 0.278379 0.298938 0.337638
O O14 0.500000 0.217901 0.111910
O O15 0.786523 0.108780 0.126690
O O16 0.500000 0.000000 0.140917
O O17 0.271480 0.500000 0.369723
O O18 0.000000 0.376622 0.381166
#
# Coordination Sequence:
#
# PCOD9355890 Si02
#       7
#     8   4   8   8   8   4   8
#     4   9  17  28  45  72 102 128 153 187 235 284
#     4   9  16  28  47  73 103 129 151 188 243 288
#     4   9  18  32  49  69  94 123 154 194 244 285
#     4  10  18  30  51  75  98 125 160 198 235 281
#     4  10  17  27  48  73  96 122 155 192 228 276
#     4   9  14  24  43  71  99 123 147 180 233 282
#     4   9  19  35  51  68  95 129 160 196 245 289
#
# _framework density 19.726597999999999
#
# number of rings (size 3 to 8) (size 9 to 14) (size 15 to 20)
#    0.000    2.667    2.500    1.500    0.000    1.667 
#    0.000    2.917    1.833    2.500    0.000    0.000 
#    0.000    0.000    0.000    0.000    0.000    0.000 
#
# Total GULP energy -133834.769609 kJ/mol
# GULP energy per Si atom -5576.448734 kJ/mol
# Density = 1.968170 g / cm^3
# Si number density = 19.726598 Si / 1000 Ang^3
#
#
#
# Elastic Constant Matrix: (Units=GPa)
#
#
# Indices 1 2 3 4 5 6 
#
# 1 50.4105 7.8768 -4.6625 0.0000 0.0000 0.0000
# 2 7.8768 180.0235 95.9795 0.0000 0.0000 0.0000
# 3 -4.6625 95.9795 107.4773 0.0000 0.0000 0.0000
# 4 0.0000 0.0000 0.0000 26.6859 0.0000 0.0000
# 5 0.0000 0.0000 0.0000 0.0000 28.7946 0.0000
# 6 0.0000 0.0000 0.0000 0.0000 0.0000 28.3931
#
#
#
# Elastic Compliance Matrix: (Units=1/GPa)
#
#
# Indices 1 2 3 4 5 6 
#
# 1 0.020546 -0.002623 0.003234 0.000000 0.000000 0.000000
# 2 -0.002623 0.010938 -0.009882 0.000000 0.000000 0.000000
# 3 0.003234 -0.009882 0.018269 0.000000 0.000000 0.000000
# 4 0.000000 0.000000 0.000000 0.037473 0.000000 0.000000
# 5 0.000000 0.000000 0.000000 0.000000 0.034729 0.000000
# 6 0.000000 0.000000 0.000000 0.000000 0.000000 0.035220
#
#
# Mechanical properties :
#
#
# Convention : Reuss Voigt Hill
#
# Bulk Modulus (GPa) = 32.03966 59.58875 45.81420
# Shear Modulus (GPa) = 26.86434 32.68923 29.77678
#
# Velocity S-wave (km/s) = 3.69431 4.07518 3.88941
# Velocity P-wave (km/s) = 5.87148 7.23987 6.59128
#
# Compressibility (1/GPa) = 0.03121132
#
# Stress axis : x y z
#
# Youngs Moduli (GPa) = 48.67103 91.42438 54.73721
#
# Poissons Ratio (x) = 0.23981 -0.17701
# Poissons Ratio (y) = 0.12767 0.54089
# Poissons Ratio (z) = -0.15739 0.90342
#
# Static dielectric constant tensor:
#      x y z
#    x 1.754170 0.000000 0.000000 
#    y 0.000000 1.695450 0.000000 
#    z 0.000000 0.000000 1.683830 
# 
# From -- ./inp_files/22500.got.cif
#   From: 2010.05.17/outbox.cif.g08.bks.cpg/sg38_12_cif.got.tgz:22500.got - 2010.06.03 18:07:57.
