data_PCOD9355831
_publ_section_title
;
Structure prediction by ZEFSAII (Michael W. Deem and Ramdas Pophale) SiO2 
 PCOD9355831
Probable space group: A M M 2
;
_chemical_formula_sum "Si O2"
_cell_formula_units_Z 58
_cell_length_a 17.460624
_cell_length_b 17.656536
_cell_length_c 9.412455
_cell_angle_alpha 90.000000
_cell_angle_beta 90.000000
_cell_angle_gamma 90.000000
_cell_volume 2901.804684
_symmetry_space_group_name_H-M "A M M 2"
_symmetry_group_IT_number 38
_symmetry_cell_setting 'orthorhombic'
loop_
_space_group_symop_operation_xyz
x,y,z
-x,-y,z
-x,y,z
x,-y,z
x,1/2+y,1/2+z
-x,1/2-y,1/2+z
-x,1/2+y,1/2+z
x,1/2-y,1/2+z
loop_
_atom_site_type_symbol
_atom_site_label
_atom_site_fract_x
_atom_site_fract_y
_atom_site_fract_z
Si Si1 0.916499 0.310857 0.461880
Si Si2 0.205539 0.346975 0.235781
Si Si3 0.635952 0.246620 0.471235
Si Si4 0.265906 0.315516 0.714761
Si Si5 0.500000 0.500000 0.239487
Si Si6 0.914670 0.630360 0.011713
Si Si7 0.612546 0.857021 0.729552
Si Si8 0.127040 0.916073 0.205017
O O1 0.844957 0.346267 0.377673
O O2 0.909095 0.220568 0.477968
O O3 0.915143 0.353681 0.611066
O O4 0.000000 0.323989 0.392570
O O5 0.211089 0.257501 0.198934
O O6 0.294758 0.369753 0.242405
O O7 0.154454 0.387684 0.117984
O O8 0.678070 0.304080 0.580903
O O9 0.692463 0.199370 0.365905
O O10 0.598735 0.186908 0.579963
O O11 0.592310 0.299089 0.358061
O O12 0.215841 0.390210 0.711111
O O13 0.566108 0.433233 0.238277
O O14 0.903682 0.588328 0.864052
O O15 0.000000 0.615653 0.068292
O O16 0.117654 0.000000 0.145877
#
# Coordination Sequence:
#
# PCOD9355831 Si02
#       8
#     8   8   8   8   2   8   8   8
#     4  11  21  36  59  88 125 171 224 271 306 360
#     4  10  19  37  66  89 115 165 223 262 299 369
#     4   8  18  37  70  96 121 164 216 246 305 378
#     4  10  16  34  59  95 124 157 214 269 288 376
#     4  12  28  48  64 106 142 154 200 262 348 396
#     4  11  21  36  59  88 125 171 224 271 306 360
#     4  10  22  41  71  96 130 165 204 266 312 390
#     4  12  23  35  53  84 129 169 206 270 336 358
#
# _framework density 19.987563000000002
#
# number of rings (size 3 to 8) (size 9 to 14) (size 15 to 20)
#    0.000    1.931    2.759    4.138    1.931    3.862 
#    9.931    0.000    0.000    4.966    0.000    0.000 
#    0.000    0.000    0.000    0.000    0.000    0.000 
#
# Total GULP energy -161459.117174 kJ/mol
# GULP energy per Si atom -5567.555765 kJ/mol
# Density = 1.994207 g / cm^3
# Si number density = 19.987563 Si / 1000 Ang^3
#
#
#
# Elastic Constant Matrix: (Units=GPa)
#
#
# Indices 1 2 3 4 5 6 
#
# 1 128.2961 37.3201 24.1902 0.0000 0.0000 0.0000
# 2 37.3201 94.4493 14.9304 0.0000 0.0000 0.0000
# 3 24.1902 14.9304 82.4567 0.0000 0.0000 0.0000
# 4 0.0000 0.0000 0.0000 10.1827 0.0000 0.0000
# 5 0.0000 0.0000 0.0000 0.0000 -262.0961 0.0000
# 6 0.0000 0.0000 0.0000 0.0000 0.0000 70.7270
#
#
#
# Elastic Compliance Matrix: (Units=1/GPa)
#
#
# Indices 1 2 3 4 5 6 
#
# 1 0.009143 -0.003283 -0.002088 0.000000 0.000000 0.000000
# 2 -0.003283 0.012078 -0.001224 0.000000 0.000000 0.000000
# 3 -0.002088 -0.001224 0.012962 0.000000 0.000000 0.000000
# 4 0.000000 0.000000 0.000000 0.098206 0.000000 0.000000
# 5 0.000000 0.000000 0.000000 0.000000 -0.003815 0.000000
# 6 0.000000 0.000000 0.000000 0.000000 0.000000 0.014139
#
#
# Mechanical properties :
#
#
# Convention : Reuss Voigt Hill
#
# Bulk Modulus (GPa) = 47.63275 50.89817 49.26546
# Shear Modulus (GPa) = 30.69371 -20.98652 4.85360
#
# Velocity S-wave (km/s) = 3.92298 -3.24385 1.55999
# Velocity P-wave (km/s) = 6.66353 3.38970 5.28643
#
# Compressibility (1/GPa) = 0.02099396
#
# Stress axis : x y z
#
# Youngs Moduli (GPa) = 109.37282 82.79326 77.15026
#
# Poissons Ratio (x) = 0.27178 0.16108
# Poissons Ratio (y) = 0.35904 0.09443
# Poissons Ratio (z) = 0.22836 0.10134
#
# Static dielectric constant tensor:
#      x y z
#    x 1.774180 0.000000 0.000000 
#    y 0.000000 1.661910 0.000000 
#    z 0.000000 0.000000 1.755750 
# 
# From -- ./inp_files/6397.got.cif
#   From: 2010.05.17/outbox.cif.g08.bks.cpg/sg38_4_cif.got.tgz:6397.got - 2010.06.03 18:07:57.
