data_PCOD9355967
_publ_section_title
;
Structure prediction by ZEFSAII (Michael W. Deem and Ramdas Pophale) SiO2 
 PCOD9355967
Probable space group: A M M 2
;
_chemical_formula_sum "Si O2"
_cell_formula_units_Z 64
_cell_length_a 8.890419
_cell_length_b 27.306350
_cell_length_c 18.889637
_cell_angle_alpha 90.000000
_cell_angle_beta 90.000000
_cell_angle_gamma 90.000000
_cell_volume 4585.740702
_symmetry_space_group_name_H-M "A M M 2"
_symmetry_group_IT_number 38
_symmetry_cell_setting 'orthorhombic'
loop_
_space_group_symop_operation_xyz
x,y,z
-x,-y,z
-x,y,z
x,-y,z
x,1/2+y,1/2+z
-x,1/2-y,1/2+z
-x,1/2+y,1/2+z
x,1/2-y,1/2+z
loop_
_atom_site_type_symbol
_atom_site_label
_atom_site_fract_x
_atom_site_fract_y
_atom_site_fract_z
Si Si1 0.319720 0.242887 0.004690
Si Si2 0.182820 0.555054 0.661655
Si Si3 0.818976 0.943197 0.998210
Si Si4 0.680324 0.353465 0.416888
Si Si5 0.174002 0.300788 0.289610
Si Si6 0.173114 0.299088 0.883159
Si Si7 0.318913 0.243426 0.167496
Si Si8 0.183137 0.649861 0.746663
O O1 0.500000 0.242997 0.003950
O O2 0.270646 0.247810 0.085786
O O3 0.271542 0.190965 0.969866
O O4 0.262793 0.285851 0.953419
O O5 0.233914 0.500000 0.679621
O O6 0.225939 0.565888 0.580267
O O7 0.229829 0.597908 0.714394
O O8 0.000000 0.554318 0.662329
O O9 0.741581 0.904025 0.947865
O O10 0.000000 0.937889 0.993880
O O11 0.783044 0.000000 0.982131
O O12 0.500000 0.353707 0.413938
O O13 0.746233 0.340130 0.339960
O O14 0.177573 0.250343 0.335375
O O15 0.257181 0.286931 0.217109
O O16 0.000000 0.313218 0.277255
O O17 0.227939 0.340357 0.828260
O O18 0.000000 0.308859 0.901658
O O19 0.500000 0.242105 0.171269
O O20 0.252658 0.193086 0.199317
O O21 0.000000 0.654004 0.743956
#
# Coordination Sequence:
#
# PCOD9355967 Si02
#       8
#     8   8   8   8   8   8   8   8
#     4   9  18  28  38  55  79 105 132 161 194 235
#     4   8  14  25  41  59  79 105 138 174 206 234
#     4   9  17  28  41  58  80 107 139 172 203 234
#     4  10  18  28  42  59  80 108 138 166 200 238
#     4   9  17  29  42  57  77 102 132 164 198 235
#     4   8  15  25  37  54  75  99 128 161 193 230
#     4  10  18  27  39  57  80 104 131 162 197 236
#     4   9  16  26  40  58  78 103 136 167 197 235
#
# _framework density 13.956306
#
# number of rings (size 3 to 8) (size 9 to 14) (size 15 to 20)
#    0.000    3.000    0.000    3.375    0.000    4.750 
#    0.000    0.000    0.000    1.125    0.000    0.000 
#    0.000    1.000    0.000    9.250    0.000    2.500 
#
# Total GULP energy -178154.713155 kJ/mol
# GULP energy per Si atom -5567.334786 kJ/mol
# Density = 1.392454 g / cm^3
# Si number density = 13.956306 Si / 1000 Ang^3
#
#
#
# Elastic Constant Matrix: (Units=GPa)
#
#
# Indices 1 2 3 4 5 6 
#
# 1 29.6674 24.8879 33.1674 0.0000 0.0000 0.0000
# 2 24.8879 85.5480 56.3880 0.0000 0.0000 0.0000
# 3 33.1674 56.3880 109.7780 0.0000 0.0000 0.0000
# 4 0.0000 0.0000 0.0000 27.7082 0.0000 0.0000
# 5 0.0000 0.0000 0.0000 0.0000 20.6478 0.0000
# 6 0.0000 0.0000 0.0000 0.0000 0.0000 13.6394
#
#
#
# Elastic Compliance Matrix: (Units=1/GPa)
#
#
# Indices 1 2 3 4 5 6 
#
# 1 0.053888 -0.007477 -0.012440 0.000000 0.000000 0.000000
# 2 -0.007477 0.018710 -0.007352 0.000000 0.000000 0.000000
# 3 -0.012440 -0.007352 0.016644 0.000000 0.000000 0.000000
# 4 0.000000 0.000000 0.000000 0.036090 0.000000 0.000000
# 5 0.000000 0.000000 0.000000 0.000000 0.048431 0.000000
# 6 0.000000 0.000000 0.000000 0.000000 0.000000 0.073317
#
#
# Mechanical properties :
#
#
# Convention : Reuss Voigt Hill
#
# Bulk Modulus (GPa) = 28.81537 50.43111 39.62324
# Shear Modulus (GPa) = 15.96491 19.76909 17.86700
#
# Velocity S-wave (km/s) = 3.38586 3.76772 3.58188
# Velocity P-wave (km/s) = 5.99809 7.42571 6.74975
#
# Compressibility (1/GPa) = 0.03470370
#
# Stress axis : x y z
#
# Youngs Moduli (GPa) = 18.55713 53.44646 60.08132
#
# Poissons Ratio (x) = 0.39963 0.74744
# Poissons Ratio (y) = 0.13875 0.44169
# Poissons Ratio (z) = 0.23086 0.39291
#
# Static dielectric constant tensor:
#      x y z
#    x 1.470350 0.000000 0.000000 
#    y 0.000000 1.449430 0.000000 
#    z 0.000000 0.000000 1.459370 
# 
# From -- ./inp_files/17332.got.cif
#   From: 2010.05.17/outbox.cif.g08.bks.cpg/sg38_9_cif.got.tgz:17332.got - 2010.06.03 18:07:57.
