data_PCOD9355976
_publ_section_title
;
Structure prediction by ZEFSAII (Michael W. Deem and Ramdas Pophale) SiO2 
 PCOD9355976
Probable space group: A M M 2
;
_chemical_formula_sum "Si O2"
_cell_formula_units_Z 64
_cell_length_a 9.143902
_cell_length_b 18.813703
_cell_length_c 26.618662
_cell_angle_alpha 90.000000
_cell_angle_beta 90.000000
_cell_angle_gamma 90.000000
_cell_volume 4579.225899
_symmetry_space_group_name_H-M "A M M 2"
_symmetry_group_IT_number 38
_symmetry_cell_setting 'orthorhombic'
loop_
_space_group_symop_operation_xyz
x,y,z
-x,-y,z
-x,y,z
x,-y,z
x,1/2+y,1/2+z
-x,1/2-y,1/2+z
-x,1/2+y,1/2+z
x,1/2-y,1/2+z
loop_
_atom_site_type_symbol
_atom_site_label
_atom_site_fract_x
_atom_site_fract_y
_atom_site_fract_z
Si Si1 0.826179 0.165349 0.532510
Si Si2 0.324827 0.082052 0.444306
Si Si3 0.825257 0.665638 0.738423
Si Si4 0.325772 0.583739 0.826945
Si Si5 0.668733 0.293927 0.189724
Si Si6 0.824529 0.917089 0.635470
Si Si7 0.667353 0.789421 0.082799
Si Si8 0.324681 0.916783 0.147063
O O1 0.753354 0.133570 0.483029
O O2 0.788057 0.114895 0.580373
O O3 0.767534 0.243527 0.546354
O O4 0.000000 0.165808 0.527709
O O5 0.500000 0.086841 0.450495
O O6 0.293314 0.096645 0.385696
O O7 0.282061 0.000000 0.454540
O O8 0.765927 0.632836 0.790055
O O9 0.757963 0.743412 0.727249
O O10 0.762528 0.614758 0.694245
O O11 0.000000 0.667761 0.736661
O O12 0.500000 0.594884 0.818992
O O13 0.297199 0.500000 0.816722
O O14 0.500000 0.301689 0.205143
O O15 0.743994 0.368583 0.176555
O O16 0.669877 0.251436 0.136524
O O17 0.000000 0.910087 0.641458
O O18 0.785787 0.000000 0.638139
O O19 0.500000 0.789068 0.064564
O O20 0.711821 0.869054 0.098296
O O21 0.500000 0.906892 0.156165
O O22 0.296999 0.000000 0.140698
#
# Coordination Sequence:
#
# PCOD9355976 Si02
#       8
#     8   8   8   8   8   8   8   8
#     4  10  18  27  41  60  83 111 139 168 204 243
#     4   9  18  31  45  60  79 106 140 175 207 239
#     4  11  20  28  41  61  84 110 139 170 207 248
#     4   9  18  32  46  59  79 108 140 173 207 241
#     4   9  17  29  43  58  78 107 142 175 204 238
#     4   9  17  28  41  60  87 114 138 168 208 249
#     4   8  15  27  41  57  78 106 138 169 200 237
#     4   9  17  29  44  61  82 109 140 172 205 242
#
# _framework density 13.976162
#
# number of rings (size 3 to 8) (size 9 to 14) (size 15 to 20)
#    0.000    2.750    0.000    4.125    0.000    7.000 
#    0.000    1.250    0.000    0.000    0.000    0.000 
#    0.000    1.000    0.000    8.250    0.000    3.875 
#
# Total GULP energy -178297.090775 kJ/mol
# GULP energy per Si atom -5571.784087 kJ/mol
# Density = 1.394435 g / cm^3
# Si number density = 13.976162 Si / 1000 Ang^3
#
#
#
# Elastic Constant Matrix: (Units=GPa)
#
#
# Indices 1 2 3 4 5 6 
#
# 1 62.9345 50.8678 47.4481 0.0000 0.0000 0.0000
# 2 50.8678 102.3061 46.0469 0.0000 0.0000 0.0000
# 3 47.4481 46.0469 65.9508 0.0000 0.0000 0.0000
# 4 0.0000 0.0000 0.0000 25.4602 0.0000 0.0000
# 5 0.0000 0.0000 0.0000 0.0000 13.6148 0.0000
# 6 0.0000 0.0000 0.0000 0.0000 0.0000 18.1551
#
#
#
# Elastic Compliance Matrix: (Units=1/GPa)
#
#
# Indices 1 2 3 4 5 6 
#
# 1 0.041131 -0.010400 -0.022330 0.000000 0.000000 0.000000
# 2 -0.010400 0.016884 -0.004306 0.000000 0.000000 0.000000
# 3 -0.022330 -0.004306 0.034235 0.000000 0.000000 0.000000
# 4 0.000000 0.000000 0.000000 0.039277 0.000000 0.000000
# 5 0.000000 0.000000 0.000000 0.000000 0.073449 0.000000
# 6 0.000000 0.000000 0.000000 0.000000 0.000000 0.055081
#
#
# Mechanical properties :
#
#
# Convention : Reuss Voigt Hill
#
# Bulk Modulus (GPa) = 55.01503 57.76857 56.39180
# Shear Modulus (GPa) = 14.69777 17.23460 15.96619
#
# Velocity S-wave (km/s) = 3.24640 3.51542 3.38359
# Velocity P-wave (km/s) = 7.31445 7.60927 7.46331
#
# Compressibility (1/GPa) = 0.01817685
#
# Stress axis : x y z
#
# Youngs Moduli (GPa) = 24.31258 59.22873 29.21030
#
# Poissons Ratio (x) = 0.61599 0.65227
# Poissons Ratio (y) = 0.25286 0.12577
# Poissons Ratio (z) = 0.54290 0.25503
#
# Static dielectric constant tensor:
#      x y z
#    x 1.465240 0.000000 0.000000 
#    y 0.000000 1.463250 0.000000 
#    z 0.000000 0.000000 1.437790 
# 
# From -- ./inp_files/22253.got.cif
#   From: 2010.05.17/outbox.cif.g08.bks.cpg/sg38_12_cif.got.tgz:22253.got - 2010.06.03 18:07:57.
