data_PCOD9355809
_publ_section_title
;
Structure prediction by ZEFSAII (Michael W. Deem and Ramdas Pophale) SiO2 
 PCOD9355809
Probable space group: A M M 2
;
_chemical_formula_sum "Si O2"
_cell_formula_units_Z 64
_cell_length_a 16.629477
_cell_length_b 23.525371
_cell_length_c 9.551056
_cell_angle_alpha 90.000000
_cell_angle_beta 90.000000
_cell_angle_gamma 90.000000
_cell_volume 3736.512705
_symmetry_space_group_name_H-M "A M M 2"
_symmetry_group_IT_number 38
_symmetry_cell_setting 'orthorhombic'
loop_
_space_group_symop_operation_xyz
x,y,z
-x,-y,z
-x,y,z
x,-y,z
x,1/2+y,1/2+z
-x,1/2-y,1/2+z
-x,1/2+y,1/2+z
x,1/2-y,1/2+z
loop_
_atom_site_type_symbol
_atom_site_label
_atom_site_fract_x
_atom_site_fract_y
_atom_site_fract_z
Si Si1 0.652635 0.176375 0.953660
Si Si2 0.746207 0.434093 0.769446
Si Si3 0.169078 0.139469 0.039227
Si Si4 0.678826 0.266496 0.173559
Si Si5 0.592751 0.935182 0.088307
Si Si6 0.795161 0.650674 0.010630
Si Si7 0.149601 0.224848 0.271874
Si Si8 0.091437 0.646579 0.258660
O O1 0.635023 0.202812 0.802157
O O2 0.749542 0.166680 0.970883
O O3 0.632572 0.221145 0.077489
O O4 0.612692 0.115442 0.980993
O O5 0.762059 0.500000 0.793830
O O6 0.799988 0.409740 0.641968
O O7 0.654779 0.427019 0.715772
O O8 0.764224 0.396565 0.904438
O O9 0.126335 0.185282 0.140764
O O10 0.114477 0.121978 0.909972
O O11 0.754814 0.234479 0.245185
O O12 0.721916 0.312534 0.073336
O O13 0.500000 0.931165 0.130504
O O14 0.606601 0.000000 0.034732
O O15 0.852827 0.692195 0.918936
O O16 0.846401 0.627292 0.139949
O O17 0.106200 0.285103 0.272004
O O18 0.000000 0.634957 0.221272
#
# Coordination Sequence:
#
# PCOD9355809 Si02
#       8
#     8   8   8   8   8   8   8   8
#     4  10  17  29  53  78 104 143 178 205 251 319
#     4   9  19  36  59  78  92 130 186 224 256 319
#     4   9  17  30  49  71  99 133 176 213 252 305
#     4  10  16  27  48  78 106 140 173 211 253 304
#     4   9  19  36  58  83 108 133 170 226 279 314
#     4  10  18  31  50  76 107 141 173 223 264 308
#     4   9  16  28  44  69 102 139 170 201 258 310
#     4  11  20  29  45  75 109 136 167 215 274 325
#
# _framework density 17.128269
#
# number of rings (size 3 to 8) (size 9 to 14) (size 15 to 20)
#    0.000    2.375    3.750    2.250    0.000    2.000 
#    0.000    3.750    0.000    3.000    0.000    1.750 
#    0.000    0.000    0.000    0.000    0.000    0.000 
#
# Total GULP energy -178326.867814 kJ/mol
# GULP energy per Si atom -5572.714619 kJ/mol
# Density = 1.708928 g / cm^3
# Si number density = 17.128269 Si / 1000 Ang^3
#
#
#
# Elastic Constant Matrix: (Units=GPa)
#
#
# Indices 1 2 3 4 5 6 
#
# 1 36.2897 26.8300 17.7885 0.0000 0.0000 0.0000
# 2 26.8300 80.5257 53.2947 0.0000 0.0000 0.0000
# 3 17.7885 53.2947 111.3602 0.0000 0.0000 0.0000
# 4 0.0000 0.0000 0.0000 13.4179 0.0000 0.0000
# 5 0.0000 0.0000 0.0000 0.0000 8.3528 0.0000
# 6 0.0000 0.0000 0.0000 0.0000 0.0000 8.3770
#
#
#
# Elastic Compliance Matrix: (Units=1/GPa)
#
#
# Indices 1 2 3 4 5 6 
#
# 1 0.036563 -0.012172 -0.000015 0.000000 0.000000 0.000000
# 2 -0.012172 0.022227 -0.008693 0.000000 0.000000 0.000000
# 3 -0.000015 -0.008693 0.013143 0.000000 0.000000 0.000000
# 4 0.000000 0.000000 0.000000 0.074527 0.000000 0.000000
# 5 0.000000 0.000000 0.000000 0.000000 0.119720 0.000000
# 6 0.000000 0.000000 0.000000 0.000000 0.000000 0.119374
#
#
# Mechanical properties :
#
#
# Convention : Reuss Voigt Hill
#
# Bulk Modulus (GPa) = 33.14357 47.11135 40.12746
# Shear Modulus (GPa) = 11.43190 14.71371 13.07281
#
# Velocity S-wave (km/s) = 2.58627 2.93410 2.76566
# Velocity P-wave (km/s) = 5.32077 6.24847 5.80319
#
# Compressibility (1/GPa) = 0.03017176
#
# Stress axis : x y z
#
# Youngs Moduli (GPa) = 27.35035 44.98942 76.08790
#
# Poissons Ratio (x) = 0.54762 0.00115
# Poissons Ratio (y) = 0.33291 0.66145
# Poissons Ratio (z) = 0.00041 0.39110
#
# Static dielectric constant tensor:
#      x y z
#    x 1.578080 0.000000 0.000000 
#    y 0.000000 1.594230 0.000000 
#    z 0.000000 0.000000 1.593620 
# 
# From -- ./inp_files/6550.got.cif
#   From: 2010.05.17/outbox.cif.g08.bks.cpg/sg38_4_cif.got.tgz:6550.got - 2010.06.03 18:07:57.
