data_PCOD9355515
_publ_section_title
;
Structure prediction by ZEFSAII (Michael W. Deem and Ramdas Pophale) SiO2 
 PCOD9355515
Probable space group: C C C 2
;
_chemical_formula_sum "Si O2"
_cell_formula_units_Z 56
_cell_length_a 11.793834
_cell_length_b 13.826907
_cell_length_c 15.276891
_cell_angle_alpha 90.000000
_cell_angle_beta 90.000000
_cell_angle_gamma 90.000000
_cell_volume 2491.236926
_symmetry_space_group_name_H-M "C C C 2"
_symmetry_group_IT_number 37
_symmetry_cell_setting 'orthorhombic'
loop_
_space_group_symop_operation_xyz
x,y,z
-x,-y,z
-x,y,1/2+z
x,-y,1/2+z
1/2+x,1/2+y,z
1/2-x,1/2-y,z
1/2-x,1/2+y,1/2+z
1/2+x,1/2-y,1/2+z
loop_
_atom_site_type_symbol
_atom_site_label
_atom_site_fract_x
_atom_site_fract_y
_atom_site_fract_z
Si Si1 0.048587 0.102167 0.974260
Si Si2 0.339786 0.839775 0.267941
Si Si3 0.187028 0.580409 0.445187
Si Si4 0.666777 0.095879 0.074560
Si Si5 0.061518 0.223233 0.324584
Si Si6 0.932796 0.708832 0.063710
Si Si7 0.750000 0.250000 0.957828
Si Si8 0.750000 0.750000 0.196266
O O1 0.180575 0.091468 0.956656
O O2 0.992561 0.139596 0.883786
O O3 0.036540 0.179647 0.052011
O O4 0.000000 0.000000 0.000244
O O5 0.250000 0.750000 0.280078
O O6 0.337126 0.922810 0.342558
O O7 0.308684 0.894933 0.177658
O O8 0.464297 0.787583 0.277776
O O9 0.151488 0.500179 0.516371
O O10 0.123365 0.678464 0.472342
O O11 0.546036 0.149667 0.073980
O O12 0.760226 0.158387 0.021383
O O13 0.142204 0.275097 0.397265
O O14 0.158872 0.192682 0.255292
O O15 0.834162 0.690174 0.134018
#
# Coordination Sequence:
#
# PCOD9355515 Si02
#       8
#     8   8   8   8   8   8   4   4
#     4  12  24  44  75 109 148 206 259 320 401 476
#     4  12  23  47  80 108 157 220 267 332 411 488
#     4  12  25  46  74 110 155 205 264 326 400 482
#     4  12  26  44  75 116 154 204 271 332 401 488
#     4  11  23  44  74 107 152 211 259 327 407 479
#     4  12  23  48  74 105 157 205 259 327 405 477
#     4  11  22  44  71 104 160 196 259 334 405 470
#     4  11  24  44  77 108 148 210 265 326 405 486
#
# _framework density 22.478793
#
# number of rings (size 3 to 8) (size 9 to 14) (size 15 to 20)
#    0.000    0.286    7.857    1.286    0.000    0.000 
#    7.714    2.143    0.000    0.000    0.000    0.000 
#    0.000    0.000    0.000    0.000    0.000    0.000 
#
# Total GULP energy -156200.411876 kJ/mol
# GULP energy per Si atom -5578.586138 kJ/mol
# Density = 2.242763 g / cm^3
# Si number density = 22.478793 Si / 1000 Ang^3
#
#
#
# Elastic Constant Matrix: (Units=GPa)
#
#
# Indices 1 2 3 4 5 6 
#
# 1 119.1464 22.0084 28.0646 0.0000 0.0000 0.0000
# 2 22.0084 100.4026 42.1899 0.0000 0.0000 0.0000
# 3 28.0646 42.1899 147.5693 0.0000 0.0000 0.0000
# 4 0.0000 0.0000 0.0000 23.5642 0.0000 0.0000
# 5 0.0000 0.0000 0.0000 0.0000 41.0713 0.0000
# 6 0.0000 0.0000 0.0000 0.0000 0.0000 13.6230
#
#
#
# Elastic Compliance Matrix: (Units=1/GPa)
#
#
# Indices 1 2 3 4 5 6 
#
# 1 0.008961 -0.001419 -0.001299 0.000000 0.000000 0.000000
# 2 -0.001419 0.011544 -0.003031 0.000000 0.000000 0.000000
# 3 -0.001299 -0.003031 0.007890 0.000000 0.000000 0.000000
# 4 0.000000 0.000000 0.000000 0.042437 0.000000 0.000000
# 5 0.000000 0.000000 0.000000 0.000000 0.024348 0.000000
# 6 0.000000 0.000000 0.000000 0.000000 0.000000 0.073405
#
#
# Mechanical properties :
#
#
# Convention : Reuss Voigt Hill
#
# Bulk Modulus (GPa) = 59.17362 61.29378 60.23370
# Shear Modulus (GPa) = 26.92304 33.97540 30.44922
#
# Velocity S-wave (km/s) = 3.46455 3.89194 3.68445
# Velocity P-wave (km/s) = 6.51041 6.89368 6.70479
#
# Compressibility (1/GPa) = 0.01689942
#
# Stress axis : x y z
#
# Youngs Moduli (GPa) = 111.59527 86.62208 126.74371
#
# Poissons Ratio (x) = 0.12288 0.16459
# Poissons Ratio (y) = 0.15831 0.38413
# Poissons Ratio (z) = 0.14492 0.26253
#
# Static dielectric constant tensor:
#      x y z
#    x 1.856470 0.000000 0.000000 
#    y 0.000000 1.867860 0.000000 
#    z 0.000000 0.000000 1.940000 
# 
# From -- ./inp_files/11650.got.cif
#   From: 2010.05.17/outbox.cif.g08.bks.cpg/sg37_6_cif.got.tgz:11650.got - 2010.06.03 17:53:42.
