data_PCOD9355094
_publ_section_title
;
Structure prediction by ZEFSAII (Michael W. Deem and Ramdas Pophale) SiO2 
 PCOD9355094
Probable space group: C C C 2
;
_chemical_formula_sum "Si O2"
_cell_formula_units_Z 48
_cell_length_a 7.019877
_cell_length_b 13.782060
_cell_length_c 22.824616
_cell_angle_alpha 90.000000
_cell_angle_beta 90.000000
_cell_angle_gamma 90.000000
_cell_volume 2208.244303
_symmetry_space_group_name_H-M "C C C 2"
_symmetry_group_IT_number 37
_symmetry_cell_setting 'orthorhombic'
loop_
_space_group_symop_operation_xyz
x,y,z
-x,-y,z
-x,y,1/2+z
x,-y,1/2+z
1/2+x,1/2+y,z
1/2-x,1/2-y,z
1/2-x,1/2+y,1/2+z
1/2+x,1/2-y,1/2+z
loop_
_atom_site_type_symbol
_atom_site_label
_atom_site_fract_x
_atom_site_fract_y
_atom_site_fract_z
Si Si1 0.332825 0.578858 0.410740
Si Si2 0.381583 0.907238 0.681811
Si Si3 0.500000 0.000000 0.491376
Si Si4 0.250000 0.750000 0.775472
Si Si5 0.082837 0.670556 0.067742
Si Si6 0.250000 0.750000 0.485812
Si Si7 0.126794 0.156279 0.787943
Si Si8 0.500000 0.500000 0.192485
O O1 0.500000 0.500000 0.414473
O O2 0.150141 0.546988 0.447438
O O3 0.372268 0.680460 0.443138
O O4 0.287562 0.599540 0.342922
O O5 0.339354 0.831897 0.733243
O O6 0.503411 0.855393 0.631702
O O7 0.176053 0.948616 0.659732
O O8 0.500000 0.000000 0.703052
O O9 0.623908 0.930239 0.533976
O O10 0.421010 0.697729 0.808782
O O11 0.250000 0.750000 0.069297
O O12 0.905001 0.706234 0.029532
O O13 0.250000 0.250000 0.771354
O O14 0.088546 0.083365 0.734501
#
# Coordination Sequence:
#
# PCOD9355094 Si02
#       8
#     8   8   4   4   8   4   8   4
#     4  11  22  41  65  94 128 173 213 269 329 397
#     4  11  23  43  67  95 129 179 220 274 346 398
#     4  10  24  44  62  98 132 168 220 272 336 396
#     4  10  25  42  62  96 132 168 223 276 330 402
#     4  11  23  43  68  96 129 173 221 278 335 398
#     4  10  23  42  62  98 130 166 219 268 332 390
#     4  11  22  42  64  94 131 173 217 271 332 394
#     4  10  24  44  64  96 136 168 224 276 332 408
#
# _framework density 21.736725
#
# number of rings (size 3 to 8) (size 9 to 14) (size 15 to 20)
#    0.000    1.333    2.500    2.500    0.000    6.000 
#    9.000    0.000    0.000    0.000    0.000    0.000 
#    0.000    0.000    0.000    0.000    0.000    0.000 
#
# Total GULP energy -134033.788551 kJ/mol
# GULP energy per Si atom -5584.741190 kJ/mol
# Density = 2.168725 g / cm^3
# Si number density = 21.736725 Si / 1000 Ang^3
#
#
#
# Elastic Constant Matrix: (Units=GPa)
#
#
# Indices 1 2 3 4 5 6 
#
# 1 86.4549 41.3216 32.0292 0.0000 0.0000 0.0000
# 2 41.3216 113.7755 37.5931 0.0000 0.0000 0.0000
# 3 32.0292 37.5931 70.2054 0.0000 0.0000 0.0000
# 4 0.0000 0.0000 0.0000 -60.7082 0.0000 0.0000
# 5 0.0000 0.0000 0.0000 0.0000 91.1740 0.0000
# 6 0.0000 0.0000 0.0000 0.0000 0.0000 37.5310
#
#
#
# Elastic Compliance Matrix: (Units=1/GPa)
#
#
# Indices 1 2 3 4 5 6 
#
# 1 0.015243 -0.003934 -0.004847 0.000000 0.000000 0.000000
# 2 -0.003934 0.011694 -0.004467 0.000000 0.000000 0.000000
# 3 -0.004847 -0.004467 0.018847 0.000000 0.000000 0.000000
# 4 0.000000 0.000000 0.000000 -0.016472 0.000000 0.000000
# 5 0.000000 0.000000 0.000000 0.000000 0.010968 0.000000
# 6 0.000000 0.000000 0.000000 0.000000 0.000000 0.026645
#
#
# Mechanical properties :
#
#
# Convention : Reuss Voigt Hill
#
# Bulk Modulus (GPa) = 51.84846 54.70261 53.27553
# Shear Modulus (GPa) = 50.07442 24.23214 37.15328
#
# Velocity S-wave (km/s) = 4.80487 3.34249 4.13878
# Velocity P-wave (km/s) = 7.39507 6.33379 6.88491
#
# Compressibility (1/GPa) = 0.01928698
#
# Stress axis : x y z
#
# Youngs Moduli (GPa) = 65.60376 85.51336 53.05787
#
# Poissons Ratio (x) = 0.33644 0.25720
# Poissons Ratio (y) = 0.25811 0.23700
# Poissons Ratio (z) = 0.31801 0.38198
#
# Static dielectric constant tensor:
#      x y z
#    x 1.566330 0.000000 0.000000 
#    y 0.000000 1.951460 0.000000 
#    z 0.000000 0.000000 1.757220 
# 
# From -- ./inp_files/19438.got.cif
#   From: 2010.05.17/outbox.cif.g08.bks.cpg/sg37_10_cif.got.tgz:19438.got - 2010.06.03 17:53:42.
