data_PCOD9355715
_publ_section_title
;
Structure prediction by ZEFSAII (Michael W. Deem and Ramdas Pophale) SiO2 
 PCOD9355715
Probable space group: C C C 2
;
_chemical_formula_sum "Si O2"
_cell_formula_units_Z 32
_cell_length_a 5.684671
_cell_length_b 13.360030
_cell_length_c 17.908356
_cell_angle_alpha 90.000000
_cell_angle_beta 90.000000
_cell_angle_gamma 90.000000
_cell_volume 1360.092631
_symmetry_space_group_name_H-M "C C C 2"
_symmetry_group_IT_number 37
_symmetry_cell_setting 'orthorhombic'
loop_
_space_group_symop_operation_xyz
x,y,z
-x,-y,z
-x,y,1/2+z
x,-y,1/2+z
1/2+x,1/2+y,z
1/2-x,1/2-y,z
1/2-x,1/2+y,1/2+z
1/2+x,1/2-y,1/2+z
loop_
_atom_site_type_symbol
_atom_site_label
_atom_site_fract_x
_atom_site_fract_y
_atom_site_fract_z
Si Si1 0.750000 0.250000 0.940730
Si Si2 0.874918 0.602394 0.934095
Si Si3 0.974109 0.119192 0.554818
Si Si4 0.500000 0.500000 0.822900
Si Si5 0.002487 0.193975 0.222692
O O1 0.537773 0.191138 0.900293
O O2 0.653318 0.336022 0.994555
O O3 0.683019 0.557787 0.876943
O O4 0.000000 0.500000 0.953809
O O5 0.770679 0.640276 0.012386
O O6 0.009807 0.167731 0.634711
O O7 0.000000 0.000000 0.561239
O O8 0.447356 0.591772 0.767975
O O9 0.250000 0.250000 0.233658
O O10 0.750000 0.250000 0.240862
#
# Coordination Sequence:
#
# PCOD9355715 Si02
#       5
#     4   8   8   4   8
#     4  12  24  46  80 112 154 198 270 336 400 468
#     4  12  26  48  78 116 157 211 265 333 408 478
#     4  12  24  50  81 116 152 203 269 340 394 473
#     4  12  30  54  74 114 170 214 264 336 404 504
#     4  12  30  54  84 117 158 218 273 333 411 486
#
# _framework density 23.527809999999999
#
# number of rings (size 3 to 8) (size 9 to 14) (size 15 to 20)
#    0.000    0.000    6.250    2.250    3.500    4.000 
#    2.250    0.000    0.000    0.000    0.000    0.000 
#    0.000    0.000    0.000    0.000    0.000    0.000 
#
# Total GULP energy -89341.442929 kJ/mol
# GULP energy per Si atom -5583.840183 kJ/mol
# Density = 2.347426 g / cm^3
# Si number density = 23.527810 Si / 1000 Ang^3
#
#
#
# Elastic Constant Matrix: (Units=GPa)
#
#
# Indices 1 2 3 4 5 6 
#
# 1 141.9373 95.0985 56.5857 0.0000 0.0000 0.0000
# 2 95.0985 207.4179 56.0354 0.0000 0.0000 0.0000
# 3 56.5857 56.0354 113.0088 0.0000 0.0000 0.0000
# 4 0.0000 0.0000 0.0000 20.5573 0.0000 0.0000
# 5 0.0000 0.0000 0.0000 0.0000 11.3498 0.0000
# 6 0.0000 0.0000 0.0000 0.0000 0.0000 69.6403
#
#
#
# Elastic Compliance Matrix: (Units=1/GPa)
#
#
# Indices 1 2 3 4 5 6 
#
# 1 0.011289 -0.004213 -0.003563 0.000000 0.000000 0.000000
# 2 -0.004213 0.007139 -0.001430 0.000000 0.000000 0.000000
# 3 -0.003563 -0.001430 0.011342 0.000000 0.000000 0.000000
# 4 0.000000 0.000000 0.000000 0.048645 0.000000 0.000000
# 5 0.000000 0.000000 0.000000 0.000000 0.088107 0.000000
# 6 0.000000 0.000000 0.000000 0.000000 0.000000 0.014360
#
#
# Mechanical properties :
#
#
# Convention : Reuss Voigt Hill
#
# Bulk Modulus (GPa) = 88.05489 97.53369 92.79429
# Shear Modulus (GPa) = 24.62066 37.28576 30.95321
#
# Velocity S-wave (km/s) = 3.23840 3.98521 3.63106
# Velocity P-wave (km/s) = 7.17566 7.91963 7.55681
#
# Compressibility (1/GPa) = 0.01135655
#
# Stress axis : x y z
#
# Youngs Moduli (GPa) = 88.58363 140.07035 88.16443
#
# Poissons Ratio (x) = 0.59013 0.31417
# Poissons Ratio (y) = 0.37321 0.12611
# Poissons Ratio (z) = 0.31566 0.20036
#
# Static dielectric constant tensor:
#      x y z
#    x 2.140450 0.000000 0.000000 
#    y 0.000000 1.955160 0.000000 
#    z 0.000000 0.000000 1.866720 
# 
# From -- ./inp_files/13623.got.cif
#   From: 2010.05.17/outbox.cif.g08.bks.cpg/sg37_7_cif.got.tgz:13623.got - 2010.06.03 17:53:42.
