data_PCOD9355618
_publ_section_title
;
Structure prediction by ZEFSAII (Michael W. Deem and Ramdas Pophale) SiO2 
 PCOD9355618
Probable space group: C C C 2
;
_chemical_formula_sum "Si O2"
_cell_formula_units_Z 56
_cell_length_a 13.082488
_cell_length_b 20.606340
_cell_length_c 9.297283
_cell_angle_alpha 90.000000
_cell_angle_beta 90.000000
_cell_angle_gamma 90.000000
_cell_volume 2506.381966
_symmetry_space_group_name_H-M "C C C 2"
_symmetry_group_IT_number 37
_symmetry_cell_setting 'orthorhombic'
loop_
_space_group_symop_operation_xyz
x,y,z
-x,-y,z
-x,y,1/2+z
x,-y,1/2+z
1/2+x,1/2+y,z
1/2-x,1/2-y,z
1/2-x,1/2+y,1/2+z
1/2+x,1/2-y,1/2+z
loop_
_atom_site_type_symbol
_atom_site_label
_atom_site_fract_x
_atom_site_fract_y
_atom_site_fract_z
Si Si1 0.286908 0.343770 0.853840
Si Si2 0.909862 0.457521 0.570814
Si Si3 0.082162 0.054750 0.393541
Si Si4 0.437524 0.181574 0.951158
Si Si5 0.451262 0.742622 0.186052
Si Si6 0.218508 0.511184 0.311258
Si Si7 0.949780 0.123877 0.601871
O O1 0.187306 0.313138 0.933825
O O2 0.348787 0.296239 0.742685
O O3 0.251685 0.413230 0.783740
O O4 0.364822 0.364273 0.980920
O O5 0.946754 0.385928 0.532807
O O6 0.876356 0.485677 0.418020
O O7 0.813749 0.467772 0.675799
O O8 0.000000 0.500000 0.633541
O O9 0.068051 0.071310 0.224978
O O10 0.052533 0.109578 0.509277
O O11 0.192870 0.024300 0.399931
O O12 0.000000 0.000000 0.429834
O O13 0.464692 0.194728 0.786054
O O14 0.515662 0.231043 0.029688
O O15 0.536422 0.687354 0.199993
#
# Coordination Sequence:
#
# PCOD9355618 Si02
#       7
#     8   8   8   8   8   8   8
#     4  11  24  47  72 105 151 190 246 312 374 457
#     4  11  27  49  74 104 142 190 255 310 369 440
#     4  12  23  37  67 106 152 183 233 292 376 455
#     4  11  27  47  77 101 146 199 251 307 378 451
#     4  12  24  46  74 102 142 205 241 306 380 440
#     4  11  25  44  72 108 146 194 236 308 384 438
#     4  12  23  41  67 105 150 189 236 298 368 455
#
# _framework density 22.342962
#
# number of rings (size 3 to 8) (size 9 to 14) (size 15 to 20)
#    0.000    0.571    4.286    3.000   10.000    0.000 
#    0.000    0.000    6.286    0.000    0.000    0.000 
#    0.000    0.000    0.000    0.000    0.000    0.000 
#
# Total GULP energy -155871.329712 kJ/mol
# GULP energy per Si atom -5566.833204 kJ/mol
# Density = 2.229211 g / cm^3
# Si number density = 22.342962 Si / 1000 Ang^3
#
#
#
# Elastic Constant Matrix: (Units=GPa)
#
#
# Indices 1 2 3 4 5 6 
#
# 1 73.1202 33.0462 34.3807 0.0000 0.0000 0.0000
# 2 33.0462 65.6058 20.6757 0.0000 0.0000 0.0000
# 3 34.3807 20.6757 81.4833 0.0000 0.0000 0.0000
# 4 0.0000 0.0000 0.0000 -0.5795 0.0000 0.0000
# 5 0.0000 0.0000 0.0000 0.0000 10.0062 0.0000
# 6 0.0000 0.0000 0.0000 0.0000 0.0000 39.8100
#
#
#
# Elastic Compliance Matrix: (Units=1/GPa)
#
#
# Indices 1 2 3 4 5 6 
#
# 1 0.020486 -0.008255 -0.006549 0.000000 0.000000 0.000000
# 2 -0.008255 0.019894 -0.001565 0.000000 0.000000 0.000000
# 3 -0.006549 -0.001565 0.015433 0.000000 0.000000 0.000000
# 4 0.000000 0.000000 0.000000 -1.725773 0.000000 0.000000
# 5 0.000000 0.000000 0.000000 0.000000 0.099938 0.000000
# 6 0.000000 0.000000 0.000000 0.000000 0.000000 0.025119
#
#
# Mechanical properties :
#
#
# Convention : Reuss Voigt Hill
#
# Bulk Modulus (GPa) = 43.33736 44.04605 43.69171
# Shear Modulus (GPa) = -3.32342 18.65446 7.66552
#
# Velocity S-wave (km/s) = -1.22094 2.89262 1.85426
# Velocity P-wave (km/s) = 4.17743 5.55993 4.91751
#
# Compressibility (1/GPa) = 0.02307478
#
# Stress axis : x y z
#
# Youngs Moduli (GPa) = 48.81277 50.26670 64.79672
#
# Poissons Ratio (x) = 0.41496 0.42437
# Poissons Ratio (y) = 0.40296 0.10139
# Poissons Ratio (z) = 0.31969 0.07865
#
# Static dielectric constant tensor:
#      x y z
#    x 1.836270 0.000000 0.000000 
#    y 0.000000 2.171550 0.000000 
#    z 0.000000 0.000000 1.821560 
# 
# From -- ./inp_files/3652.got.cif
#   From: 2010.05.17/outbox.cif.g08.bks.cpg/sg37_2_cif.got.tgz:3652.got - 2010.06.03 17:53:42.
