data_PCOD9355829
_publ_section_title
;
Structure prediction by ZEFSAII (Michael W. Deem and Ramdas Pophale) SiO2 
 PCOD9355829
Probable space group: A M M 2
;
_chemical_formula_sum "Si O2"
_cell_formula_units_Z 56
_cell_length_a 18.552564
_cell_length_b 19.205292
_cell_length_c 9.028491
_cell_angle_alpha 90.000000
_cell_angle_beta 90.000000
_cell_angle_gamma 90.000000
_cell_volume 3216.918235
_symmetry_space_group_name_H-M "A M M 2"
_symmetry_group_IT_number 38
_symmetry_cell_setting 'orthorhombic'
loop_
_space_group_symop_operation_xyz
x,y,z
-x,-y,z
-x,y,z
x,-y,z
x,1/2+y,1/2+z
-x,1/2-y,1/2+z
-x,1/2+y,1/2+z
x,1/2-y,1/2+z
loop_
_atom_site_type_symbol
_atom_site_label
_atom_site_fract_x
_atom_site_fract_y
_atom_site_fract_z
Si Si1 0.264926 0.580410 0.287000
Si Si2 0.577817 0.851000 0.791122
Si Si3 0.807133 0.080519 0.460965
Si Si4 0.277509 0.186286 0.293638
Si Si5 0.625683 0.755178 0.044409
Si Si6 0.915403 0.804648 0.560531
Si Si7 0.160872 0.698083 0.360968
O O1 0.259153 0.500000 0.330828
O O2 0.348011 0.605178 0.292082
O O3 0.211463 0.630542 0.379994
O O4 0.236315 0.586942 0.117074
O O5 0.500000 0.887587 0.779969
O O6 0.585313 0.796467 0.655591
O O7 0.579892 0.805143 0.940259
O O8 0.757713 0.112681 0.331685
O O9 0.875784 0.131053 0.478910
O O10 0.825059 0.000000 0.438751
O O11 0.322760 0.196895 0.145718
O O12 0.327217 0.208492 0.432541
O O13 0.215557 0.244594 0.294419
O O14 0.877015 0.734408 0.500171
O O15 0.898087 0.814521 0.733795
O O16 0.000000 0.802518 0.532143
#
# Coordination Sequence:
#
# PCOD9355829 Si02
#       7
#     8   8   8   8   8   8   8
#     4  10  19  33  53  76 102 137 182 217 254 311
#     4  11  21  33  51  79 109 138 168 218 272 313
#     4   9  18  32  52  78 103 134 173 215 255 306
#     4  10  16  31  55  75  98 132 174 218 255 297
#     4  10  18  31  52  76 104 131 172 218 259 306
#     4  10  20  32  52  80 105 135 167 209 266 316
#     4  10  18  32  55  75 101 132 172 220 252 305
#
# _framework density 17.407965000000001
#
# number of rings (size 3 to 8) (size 9 to 14) (size 15 to 20)
#    0.000    2.000    4.286    2.571    0.000    0.571 
#    0.000    0.714    0.000    1.286    0.000    0.000 
#    0.000    0.000    0.000    0.000    0.000    0.000 
#
# Total GULP energy -156072.809276 kJ/mol
# GULP energy per Si atom -5574.028903 kJ/mol
# Density = 1.736834 g / cm^3
# Si number density = 17.407965 Si / 1000 Ang^3
#
#
#
# Elastic Constant Matrix: (Units=GPa)
#
#
# Indices 1 2 3 4 5 6 
#
# 1 132.0502 48.2338 23.9160 0.0000 0.0000 0.0000
# 2 48.2338 104.9478 9.2765 0.0000 0.0000 0.0000
# 3 23.9160 9.2765 55.4656 0.0000 0.0000 0.0000
# 4 0.0000 0.0000 0.0000 20.4803 0.0000 0.0000
# 5 0.0000 0.0000 0.0000 0.0000 -5.4050 0.0000
# 6 0.0000 0.0000 0.0000 0.0000 0.0000 4.0240
#
#
#
# Elastic Compliance Matrix: (Units=1/GPa)
#
#
# Indices 1 2 3 4 5 6 
#
# 1 0.009726 -0.004161 -0.003498 0.000000 0.000000 0.000000
# 2 -0.004161 0.011452 -0.000121 0.000000 0.000000 0.000000
# 3 -0.003498 -0.000121 0.019558 0.000000 0.000000 0.000000
# 4 0.000000 0.000000 0.000000 0.048827 0.000000 0.000000
# 5 0.000000 0.000000 0.000000 0.000000 -0.185014 0.000000
# 6 0.000000 0.000000 0.000000 0.000000 0.000000 0.248510
#
#
# Mechanical properties :
#
#
# Convention : Reuss Voigt Hill
#
# Bulk Modulus (GPa) = 39.72099 50.59067 45.15583
# Shear Modulus (GPa) = 28.24682 17.88901 23.06792
#
# Velocity S-wave (km/s) = 4.03257 3.20915 3.64419
# Velocity P-wave (km/s) = 6.67453 6.54648 6.61082
#
# Compressibility (1/GPa) = 0.02517560
#
# Stress axis : x y z
#
# Youngs Moduli (GPa) = 102.81427 87.32384 51.13073
#
# Poissons Ratio (x) = 0.36335 0.17885
# Poissons Ratio (y) = 0.42781 0.00619
# Poissons Ratio (z) = 0.35964 0.01057
#
# Static dielectric constant tensor:
#      x y z
#    x 1.606220 0.000000 0.000000 
#    y 0.000000 1.578770 0.000000 
#    z 0.000000 0.000000 1.611940 
# 
# From -- ./inp_files/6438.got.cif
#   From: 2010.05.17/outbox.cif.g08.bks.cpg/sg38_4_cif.got.tgz:6438.got - 2010.06.03 18:07:57.
