data_PCOD9355349
_publ_section_title
;
Structure prediction by ZEFSAII (Michael W. Deem and Ramdas Pophale) SiO2 
 PCOD9355349
Probable space group: C C C 2
;
_chemical_formula_sum "Si O2"
_cell_formula_units_Z 28
_cell_length_a 4.797681
_cell_length_b 14.245928
_cell_length_c 13.640552
_cell_angle_alpha 90.000000
_cell_angle_beta 90.000000
_cell_angle_gamma 90.000000
_cell_volume 932.296511
_symmetry_space_group_name_H-M "C C C 2"
_symmetry_group_IT_number 37
_symmetry_cell_setting 'orthorhombic'
loop_
_space_group_symop_operation_xyz
x,y,z
-x,-y,z
-x,y,1/2+z
x,-y,1/2+z
1/2+x,1/2+y,z
1/2-x,1/2-y,z
1/2-x,1/2+y,1/2+z
1/2+x,1/2-y,1/2+z
loop_
_atom_site_type_symbol
_atom_site_label
_atom_site_fract_x
_atom_site_fract_y
_atom_site_fract_z
Si Si1 0.500000 0.500000 0.200541
Si Si2 0.341892 0.898130 0.058780
Si Si3 0.090398 0.838154 0.400579
Si Si4 0.250000 0.250000 0.702905
Si Si5 0.500000 0.000000 0.843764
O O1 0.813814 0.423068 0.401684
O O2 0.756314 0.529485 0.269136
O O3 0.189734 0.866010 0.957210
O O4 0.500000 0.000000 0.063772
O O5 0.439399 0.813291 0.129740
O O6 0.070140 0.919144 0.124782
O O7 0.250000 0.750000 0.448300
O O8 0.428370 0.693577 0.287108
#
# Coordination Sequence:
#
# PCOD9355349 Si02
#       5
#     4   8   8   4   4
#     4  12  24  54  94 124 188 254 316 416 508 610
#     4  12  27  57  95 142 199 267 341 432 531 625
#     4  10  26  55  94 142 195 266 347 425 521 632
#     4  10  24  58  90 138 198 264 346 424 530 620
#     4  12  26  58  88 134 190 262 334 420 520 610
#
# _framework density 30.033366000000001
#
# number of rings (size 3 to 8) (size 9 to 14) (size 15 to 20)
#    0.857    0.000    4.286    0.000    0.000    6.857 
#   18.000    5.714    3.143    0.000    0.000    0.000 
#    0.000    0.000    0.000    0.000    0.000    0.000 
#
# Total GULP energy -78094.221448 kJ/mol
# GULP energy per Si atom -5578.158675 kJ/mol
# Density = 2.996501 g / cm^3
# Si number density = 30.033366 Si / 1000 Ang^3
#
#
#
# Elastic Constant Matrix: (Units=GPa)
#
#
# Indices 1 2 3 4 5 6 
#
# 1 187.8192 75.7901 76.0341 0.0000 0.0000 0.0000
# 2 75.7901 180.9676 84.5000 0.0000 0.0000 0.0000
# 3 76.0341 84.5000 250.8229 0.0000 0.0000 0.0000
# 4 0.0000 0.0000 0.0000 83.7372 0.0000 0.0000
# 5 0.0000 0.0000 0.0000 0.0000 49.6771 0.0000
# 6 0.0000 0.0000 0.0000 0.0000 0.0000 76.3102
#
#
#
# Elastic Compliance Matrix: (Units=1/GPa)
#
#
# Indices 1 2 3 4 5 6 
#
# 1 0.006745 -0.002219 -0.001297 0.000000 0.000000 0.000000
# 2 -0.002219 0.007287 -0.001782 0.000000 0.000000 0.000000
# 3 -0.001297 -0.001782 0.004981 0.000000 0.000000 0.000000
# 4 0.000000 0.000000 0.000000 0.011942 0.000000 0.000000
# 5 0.000000 0.000000 0.000000 0.000000 0.020130 0.000000
# 6 0.000000 0.000000 0.000000 0.000000 0.000000 0.013104
#
#
# Mechanical properties :
#
#
# Convention : Reuss Voigt Hill
#
# Bulk Modulus (GPa) = 118.82463 121.36200 120.09332
# Shear Modulus (GPa) = 64.43990 67.49727 65.96859
#
# Velocity S-wave (km/s) = 4.63710 4.74583 4.69178
# Velocity P-wave (km/s) = 8.26561 8.39805 8.33210
#
# Compressibility (1/GPa) = 0.00841576
#
# Stress axis : x y z
#
# Youngs Moduli (GPa) = 148.26205 137.22136 200.78231
#
# Poissons Ratio (x) = 0.30451 0.26042
# Poissons Ratio (y) = 0.32901 0.35787
# Poissons Ratio (z) = 0.19230 0.24458
#
# Static dielectric constant tensor:
#      x y z
#    x 2.176090 0.000000 0.000000 
#    y 0.000000 3.110070 0.000000 
#    z 0.000000 0.000000 2.509220 
# 
# From -- ./inp_files/9412.got.cif
#   From: 2010.05.17/outbox.cif.g08.bks.cpg/sg37_5_cif.got.tgz:9412.got - 2010.06.03 17:53:42.
