data_PCOD9355258
_publ_section_title
;
Structure prediction by ZEFSAII (Michael W. Deem and Ramdas Pophale) SiO2 
 PCOD9355258
Probable space group: C C C 2
;
_chemical_formula_sum "Si O2"
_cell_formula_units_Z 64
_cell_length_a 10.753748
_cell_length_b 23.323152
_cell_length_c 12.367986
_cell_angle_alpha 90.000000
_cell_angle_beta 90.000000
_cell_angle_gamma 90.000000
_cell_volume 3102.030637
_symmetry_space_group_name_H-M "C C C 2"
_symmetry_group_IT_number 37
_symmetry_cell_setting 'orthorhombic'
loop_
_space_group_symop_operation_xyz
x,y,z
-x,-y,z
-x,y,1/2+z
x,-y,1/2+z
1/2+x,1/2+y,z
1/2-x,1/2-y,z
1/2-x,1/2+y,1/2+z
1/2+x,1/2-y,1/2+z
loop_
_atom_site_type_symbol
_atom_site_label
_atom_site_fract_x
_atom_site_fract_y
_atom_site_fract_z
Si Si1 0.832313 0.421664 0.875000
Si Si2 0.753979 0.442891 0.096984
Si Si3 0.384897 0.268572 0.067887
Si Si4 0.540707 0.150149 0.474380
Si Si5 0.557121 0.636129 0.659353
Si Si6 0.388995 0.537799 0.739917
Si Si7 0.511522 0.935120 0.160384
Si Si8 0.275829 0.685009 0.346127
O O1 0.698770 0.425761 0.818375
O O2 0.907244 0.367578 0.925024
O O3 0.922197 0.437610 0.775512
O O4 0.809210 0.460726 0.980746
O O5 0.657551 0.390902 0.077068
O O6 0.690826 0.493810 0.165616
O O7 0.867909 0.416849 0.165373
O O8 0.250000 0.250000 0.117440
O O9 0.477759 0.307964 0.133738
O O10 0.455920 0.211360 0.032247
O O11 0.346378 0.302770 0.959348
O O12 0.573427 0.104212 0.568597
O O13 0.646850 0.155359 0.382733
O O14 0.459561 0.584774 0.670145
O O15 0.637751 0.648977 0.766675
O O16 0.500000 0.500000 0.293286
O O17 0.500000 0.000000 0.122036
O O18 0.250000 0.750000 0.302050
#
# Coordination Sequence:
#
# PCOD9355258 Si02
#       8
#     8   8   8   8   8   8   8   8
#     4  11  23  40  68  96 128 173 223 269 333 394
#     4  10  24  44  61  98 136 165 223 282 331 394
#     4   9  22  42  64  98 130 179 221 269 338 392
#     4   9  22  43  67  97 137 164 220 286 323 395
#     4  11  23  42  70  94 131 180 220 270 338 402
#     4  10  24  44  60  96 133 173 221 272 336 403
#     4  11  22  41  66  99 128 172 222 269 340 392
#     4   9  21  43  67  93 131 180 219 274 344 390
#
# _framework density 20.631647999999998
#
# number of rings (size 3 to 8) (size 9 to 14) (size 15 to 20)
#    0.000    2.250    1.250    0.750    5.250    7.500 
#   11.250    0.000    0.000    0.000    0.000    0.000 
#    0.000    0.000    0.000    0.000    0.000    0.000 
#
# Total GULP energy -178151.500422 kJ/mol
# GULP energy per Si atom -5567.234388 kJ/mol
# Density = 2.058469 g / cm^3
# Si number density = 20.631648 Si / 1000 Ang^3
#
#
#
# Elastic Constant Matrix: (Units=GPa)
#
#
# Indices 1 2 3 4 5 6 
#
# 1 125.5680 48.4001 46.2713 0.0000 0.0000 0.0000
# 2 48.4001 80.0646 27.2275 0.0000 0.0000 0.0000
# 3 46.2713 27.2275 67.7636 0.0000 0.0000 0.0000
# 4 0.0000 0.0000 0.0000 8.6366 0.0000 0.0000
# 5 0.0000 0.0000 0.0000 0.0000 24.2335 0.0000
# 6 0.0000 0.0000 0.0000 0.0000 0.0000 42.7174
#
#
#
# Elastic Compliance Matrix: (Units=1/GPa)
#
#
# Indices 1 2 3 4 5 6 
#
# 1 0.012328 -0.005316 -0.006282 0.000000 0.000000 0.000000
# 2 -0.005316 0.016759 -0.003104 0.000000 0.000000 0.000000
# 3 -0.006282 -0.003104 0.020294 0.000000 0.000000 0.000000
# 4 0.000000 0.000000 0.000000 0.115786 0.000000 0.000000
# 5 0.000000 0.000000 0.000000 0.000000 0.041265 0.000000
# 6 0.000000 0.000000 0.000000 0.000000 0.000000 0.023410
#
#
# Mechanical properties :
#
#
# Convention : Reuss Voigt Hill
#
# Bulk Modulus (GPa) = 50.05715 57.46599 53.76157
# Shear Modulus (GPa) = 18.80380 25.21732 22.01056
#
# Velocity S-wave (km/s) = 3.02222 3.49988 3.26979
# Velocity P-wave (km/s) = 6.04098 6.65177 6.35372
#
# Compressibility (1/GPa) = 0.01997717
#
# Stress axis : x y z
#
# Youngs Moduli (GPa) = 81.11837 59.66931 49.27633
#
# Poissons Ratio (x) = 0.31720 0.30954
# Poissons Ratio (y) = 0.43122 0.15295
# Poissons Ratio (z) = 0.50957 0.18521
#
# Static dielectric constant tensor:
#      x y z
#    x 1.828820 0.000000 0.000000 
#    y 0.000000 1.748520 0.000000 
#    z 0.000000 0.000000 1.758850 
# 
# From -- ./inp_files/7413.got.cif
#   From: 2010.05.17/outbox.cif.g08.bks.cpg/sg37_4_cif.got.tgz:7413.got - 2010.06.03 17:53:42.
