data_PCOD9355436
_publ_section_title
;
Structure prediction by ZEFSAII (Michael W. Deem and Ramdas Pophale) SiO2 
 PCOD9355436
Probable space group: C C C 2
;
_chemical_formula_sum "Si O2"
_cell_formula_units_Z 48
_cell_length_a 13.438293
_cell_length_b 12.408903
_cell_length_c 13.473788
_cell_angle_alpha 90.000000
_cell_angle_beta 90.000000
_cell_angle_gamma 90.000000
_cell_volume 2246.814435
_symmetry_space_group_name_H-M "C C C 2"
_symmetry_group_IT_number 37
_symmetry_cell_setting 'orthorhombic'
loop_
_space_group_symop_operation_xyz
x,y,z
-x,-y,z
-x,y,1/2+z
x,-y,1/2+z
1/2+x,1/2+y,z
1/2-x,1/2-y,z
1/2-x,1/2+y,1/2+z
1/2+x,1/2-y,1/2+z
loop_
_atom_site_type_symbol
_atom_site_label
_atom_site_fract_x
_atom_site_fract_y
_atom_site_fract_z
Si Si1 0.808423 0.405064 0.184610
Si Si2 0.883616 0.200016 0.270211
Si Si3 0.108945 0.055262 0.966808
Si Si4 0.228612 0.628208 0.758652
Si Si5 0.432150 0.605217 0.686752
Si Si6 0.783195 0.373306 0.974380
O O1 0.854865 0.325824 0.266565
O O2 0.692926 0.363059 0.195328
O O3 0.818028 0.532246 0.197137
O O4 0.846267 0.384952 0.073770
O O5 0.876365 0.138783 0.375652
O O6 0.993810 0.195518 0.225359
O O7 0.195289 0.963846 0.976018
O O8 0.106836 0.114785 0.074367
O O9 0.000000 0.000000 0.954151
O O10 0.250000 0.750000 0.722810
O O11 0.343909 0.591019 0.765026
O O12 0.174157 0.623197 0.863793
O O13 0.500000 0.500000 0.688218
O O14 0.750000 0.250000 0.980243
#
# Coordination Sequence:
#
# PCOD9355436 Si02
#       6
#     8   8   8   8   8   8
#     4  11  21  39  58  91 121 162 200 250 307 365
#     4  11  21  36  62  88 124 153 203 254 302 360
#     4  11  21  34  60  93 123 154 210 259 309 356
#     4  11  23  40  60  92 126 159 200 255 306 368
#     4  11  20  38  61  91 123 153 207 257 304 356
#     4  11  20  33  56  87 123 159 195 244 307 359
#
# _framework density 21.363579999999999
#
# number of rings (size 3 to 8) (size 9 to 14) (size 15 to 20)
#    0.000    1.000    6.667    2.500    0.000    0.000 
#    6.000    0.833    0.000    0.000    0.000    0.000 
#    0.000    0.000    0.000    0.000    0.000    0.000 
#
# Total GULP energy -133635.638115 kJ/mol
# GULP energy per Si atom -5568.151588 kJ/mol
# Density = 2.131496 g / cm^3
# Si number density = 21.363580 Si / 1000 Ang^3
#
#
#
# Elastic Constant Matrix: (Units=GPa)
#
#
# Indices 1 2 3 4 5 6 
#
# 1 17.1642 -7.7979 -6.2240 0.0000 0.0000 0.0000
# 2 -7.7979 81.3965 13.4980 0.0000 0.0000 0.0000
# 3 -6.2240 13.4980 101.0962 0.0000 0.0000 0.0000
# 4 0.0000 0.0000 0.0000 20.0655 0.0000 0.0000
# 5 0.0000 0.0000 0.0000 0.0000 11.9451 0.0000
# 6 0.0000 0.0000 0.0000 0.0000 0.0000 20.5031
#
#
#
# Elastic Compliance Matrix: (Units=1/GPa)
#
#
# Indices 1 2 3 4 5 6 
#
# 1 0.061838 0.005413 0.003084 0.000000 0.000000 0.000000
# 2 0.005413 0.013037 -0.001407 0.000000 0.000000 0.000000
# 3 0.003084 -0.001407 0.010269 0.000000 0.000000 0.000000
# 4 0.000000 0.000000 0.000000 0.049837 0.000000 0.000000
# 5 0.000000 0.000000 0.000000 0.000000 0.083716 0.000000
# 6 0.000000 0.000000 0.000000 0.000000 0.000000 0.048773
#
#
# Mechanical properties :
#
#
# Convention : Reuss Voigt Hill
#
# Bulk Modulus (GPa) = 10.06802 22.06767 16.06784
# Shear Modulus (GPa) = 17.45809 23.84813 20.65311
#
# Velocity S-wave (km/s) = 2.86175 3.34473 3.11262
# Velocity P-wave (km/s) = 3.95505 5.02676 4.52276
#
# Compressibility (1/GPa) = 0.09932442
#
# Stress axis : x y z
#
# Youngs Moduli (GPa) = 16.17122 76.70187 97.37684
#
# Poissons Ratio (x) = -0.41517 -0.30035
# Poissons Ratio (y) = -0.08753 0.13706
# Poissons Ratio (z) = -0.04988 0.10796
#
# Static dielectric constant tensor:
#      x y z
#    x 1.853350 0.000000 0.000000 
#    y 0.000000 1.857260 0.000000 
#    z 0.000000 0.000000 1.862530 
# 
# From -- ./inp_files/12094.got.cif
#   From: 2010.05.17/outbox.cif.g08.bks.cpg/sg37_7_cif.got.tgz:12094.got - 2010.06.03 17:53:42.
