data_PCOD9355367
_publ_section_title
;
Structure prediction by ZEFSAII (Michael W. Deem and Ramdas Pophale) SiO2 
 PCOD9355367
Probable space group: C C C 2
;
_chemical_formula_sum "Si O2"
_cell_formula_units_Z 40
_cell_length_a 10.467626
_cell_length_b 18.100892
_cell_length_c 9.534889
_cell_angle_alpha 90.000000
_cell_angle_beta 90.000000
_cell_angle_gamma 90.000000
_cell_volume 1806.607530
_symmetry_space_group_name_H-M "C C C 2"
_symmetry_group_IT_number 37
_symmetry_cell_setting 'orthorhombic'
loop_
_space_group_symop_operation_xyz
x,y,z
-x,-y,z
-x,y,1/2+z
x,-y,1/2+z
1/2+x,1/2+y,z
1/2-x,1/2-y,z
1/2-x,1/2+y,1/2+z
1/2+x,1/2-y,1/2+z
loop_
_atom_site_type_symbol
_atom_site_label
_atom_site_fract_x
_atom_site_fract_y
_atom_site_fract_z
Si Si1 0.250000 0.750000 0.567590
Si Si2 0.550789 0.149879 0.409601
Si Si3 0.271944 0.947811 0.267637
Si Si4 0.761428 0.328551 0.837291
Si Si5 0.500000 0.000000 0.091058
Si Si6 0.636544 0.464436 0.992121
O O1 0.374599 0.783146 0.488346
O O2 0.286556 0.685068 0.678278
O O3 0.655468 0.128100 0.292818
O O4 0.414161 0.162328 0.338124
O O5 0.516429 0.075949 0.502459
O O6 0.378718 0.997396 0.193415
O O7 0.231352 0.977179 0.418500
O O8 0.159025 0.949336 0.155927
O O9 0.750000 0.250000 0.914688
O O10 0.678049 0.390527 0.910918
O O11 0.500000 0.500000 0.968887
#
# Coordination Sequence:
#
# PCOD9355367 Si02
#       6
#     4   8   8   8   4   8
#     4  10  26  46  74 104 152 188 250 302 380 436
#     4  12  22  47  75 108 140 193 247 309 364 448
#     4  12  24  43  74 106 139 181 246 302 367 425
#     4  10  25  47  70 100 149 195 240 297 372 445
#     4  12  22  44  82 106 140 180 260 308 362 434
#     4  12  26  46  69 107 147 189 237 304 365 439
#
# _framework density 22.140947000000001
#
# number of rings (size 3 to 8) (size 9 to 14) (size 15 to 20)
#    0.600    0.000    4.000    4.800    0.000    1.600 
#    5.400    0.000    0.000    0.000    0.000    0.000 
#    0.000    0.000    0.000    0.000    0.000    0.000 
#
# Total GULP energy -111472.034841 kJ/mol
# GULP energy per Si atom -5573.601742 kJ/mol
# Density = 2.209055 g / cm^3
# Si number density = 22.140947 Si / 1000 Ang^3
#
#
#
# Elastic Constant Matrix: (Units=GPa)
#
#
# Indices 1 2 3 4 5 6 
#
# 1 127.1057 70.7485 41.0588 0.0000 0.0000 0.0000
# 2 70.7485 86.5636 27.7855 0.0000 0.0000 0.0000
# 3 41.0588 27.7855 91.1251 0.0000 0.0000 0.0000
# 4 0.0000 0.0000 0.0000 52.5006 0.0000 0.0000
# 5 0.0000 0.0000 0.0000 0.0000 5.3014 0.0000
# 6 0.0000 0.0000 0.0000 0.0000 0.0000 34.7547
#
#
#
# Elastic Compliance Matrix: (Units=1/GPa)
#
#
# Indices 1 2 3 4 5 6 
#
# 1 0.015340 -0.011439 -0.003424 0.000000 0.000000 0.000000
# 2 -0.011439 0.021335 -0.001351 0.000000 0.000000 0.000000
# 3 -0.003424 -0.001351 0.012929 0.000000 0.000000 0.000000
# 4 0.000000 0.000000 0.000000 0.019047 0.000000 0.000000
# 5 0.000000 0.000000 0.000000 0.000000 0.188631 0.000000
# 6 0.000000 0.000000 0.000000 0.000000 0.000000 0.028773
#
#
# Mechanical properties :
#
#
# Convention : Reuss Voigt Hill
#
# Bulk Modulus (GPa) = 58.22188 64.88668 61.55428
# Shear Modulus (GPa) = 15.42215 29.52477 22.47346
#
# Velocity S-wave (km/s) = 2.64208 3.65566 3.18939
# Velocity P-wave (km/s) = 5.97164 6.86937 6.43618
#
# Compressibility (1/GPa) = 0.01717567
#
# Stress axis : x y z
#
# Youngs Moduli (GPa) = 65.18697 46.87181 77.34645
#
# Poissons Ratio (x) = 0.53615 0.26485
# Poissons Ratio (y) = 0.74565 0.10452
# Poissons Ratio (z) = 0.22322 0.06334
#
# Static dielectric constant tensor:
#      x y z
#    x 1.865370 0.000000 0.000000 
#    y 0.000000 1.883550 0.000000 
#    z 0.000000 0.000000 1.850660 
# 
# From -- ./inp_files/2753.got.cif
#   From: 2010.05.17/outbox.cif.g08.bks.cpg/sg37_2_cif.got.tgz:2753.got - 2010.06.03 17:53:42.
