data_PCOD9355453
_publ_section_title
;
Structure prediction by ZEFSAII (Michael W. Deem and Ramdas Pophale) SiO2 
 PCOD9355453
Probable space group: C C C 2
;
_chemical_formula_sum "Si O2"
_cell_formula_units_Z 56
_cell_length_a 9.020839
_cell_length_b 20.953285
_cell_length_c 13.621043
_cell_angle_alpha 90.000000
_cell_angle_beta 90.000000
_cell_angle_gamma 90.000000
_cell_volume 2574.597931
_symmetry_space_group_name_H-M "C C C 2"
_symmetry_group_IT_number 37
_symmetry_cell_setting 'orthorhombic'
loop_
_space_group_symop_operation_xyz
x,y,z
-x,-y,z
-x,y,1/2+z
x,-y,1/2+z
1/2+x,1/2+y,z
1/2-x,1/2-y,z
1/2-x,1/2+y,1/2+z
1/2+x,1/2-y,1/2+z
loop_
_atom_site_type_symbol
_atom_site_label
_atom_site_fract_x
_atom_site_fract_y
_atom_site_fract_z
Si Si1 0.077167 0.230408 0.939580
Si Si2 0.893716 0.701016 0.588868
Si Si3 0.164931 0.028253 0.959765
Si Si4 0.138245 0.452206 0.584045
Si Si5 0.918067 0.870568 0.104206
Si Si6 0.097280 0.232027 0.250418
Si Si7 0.129626 0.052302 0.742523
O O1 0.250000 0.250000 0.942833
O O2 0.022031 0.213474 0.831820
O O3 0.037225 0.172212 0.011692
O O4 0.979401 0.286486 0.986628
O O5 0.750000 0.750000 0.594817
O O6 0.873920 0.624603 0.593280
O O7 0.005958 0.722158 0.676598
O O8 0.178556 0.063358 0.855083
O O9 0.178213 0.075776 0.051948
O O10 0.000000 0.000000 0.966770
O O11 0.273142 0.970051 0.984023
O O12 0.231953 0.470992 0.680528
O O13 0.000000 0.500000 0.581774
O O14 0.840229 0.823456 0.179379
O O15 0.053509 0.895986 0.170295
O O16 0.250000 0.250000 0.303818
O O17 0.000000 0.000000 0.750193
#
# Coordination Sequence:
#
# PCOD9355453 Si02
#       7
#     8   8   8   8   8   8   8
#     4  11  25  44  72 105 142 194 243 306 363 446
#     4  11  25  47  72 100 147 197 246 299 372 450
#     4  11  24  44  72 101 136 191 244 295 363 448
#     4  12  26  45  70 108 154 190 234 319 382 438
#     4  11  20  43  75  98 135 188 245 296 351 439
#     4  11  25  43  69 105 139 191 247 303 363 440
#     4  11  23  44  71 102 137 192 247 291 357 455
#
# _framework density 21.750968
#
# number of rings (size 3 to 8) (size 9 to 14) (size 15 to 20)
#    0.000    0.857    2.857    5.143    4.000    1.714 
#    7.714    0.000    0.000    0.000    0.000    0.000 
#    0.000    0.000    0.000    0.000    0.000    0.000 
#
# Total GULP energy -156043.505909 kJ/mol
# GULP energy per Si atom -5572.982354 kJ/mol
# Density = 2.170146 g / cm^3
# Si number density = 21.750968 Si / 1000 Ang^3
#
#
#
# Elastic Constant Matrix: (Units=GPa)
#
#
# Indices 1 2 3 4 5 6 
#
# 1 131.7968 44.0975 35.4925 0.0000 0.0000 0.0000
# 2 44.0975 113.2454 53.6924 0.0000 0.0000 0.0000
# 3 35.4925 53.6924 151.4168 0.0000 0.0000 0.0000
# 4 0.0000 0.0000 0.0000 6.9480 0.0000 0.0000
# 5 0.0000 0.0000 0.0000 0.0000 6.5148 0.0000
# 6 0.0000 0.0000 0.0000 0.0000 0.0000 14.7301
#
#
#
# Elastic Compliance Matrix: (Units=1/GPa)
#
#
# Indices 1 2 3 4 5 6 
#
# 1 0.008855 -0.002962 -0.001025 0.000000 0.000000 0.000000
# 2 -0.002962 0.011606 -0.003421 0.000000 0.000000 0.000000
# 3 -0.001025 -0.003421 0.008058 0.000000 0.000000 0.000000
# 4 0.000000 0.000000 0.000000 0.143925 0.000000 0.000000
# 5 0.000000 0.000000 0.000000 0.000000 0.153496 0.000000
# 6 0.000000 0.000000 0.000000 0.000000 0.000000 0.067888
#
#
# Mechanical properties :
#
#
# Convention : Reuss Voigt Hill
#
# Bulk Modulus (GPa) = 72.98436 73.66932 73.32684
# Shear Modulus (GPa) = 12.10036 23.18370 17.64203
#
# Velocity S-wave (km/s) = 2.36119 3.26831 2.85106
# Velocity P-wave (km/s) = 6.40789 6.94157 6.68006
#
# Compressibility (1/GPa) = 0.01370157
#
# Stress axis : x y z
#
# Youngs Moduli (GPa) = 112.93655 86.16409 124.10415
#
# Poissons Ratio (x) = 0.25520 0.12724
# Poissons Ratio (y) = 0.33450 0.42458
# Poissons Ratio (z) = 0.11579 0.29478
#
# Static dielectric constant tensor:
#      x y z
#    x 1.819620 0.000000 0.000000 
#    y 0.000000 1.953010 0.000000 
#    z 0.000000 0.000000 1.791180 
# 
# From -- ./inp_files/10829.got.cif
#   From: 2010.05.17/outbox.cif.g08.bks.cpg/sg37_6_cif.got.tgz:10829.got - 2010.06.03 17:53:42.
