data_PCOD9355776
_publ_section_title
;
Structure prediction by ZEFSAII (Michael W. Deem and Ramdas Pophale) SiO2 
 PCOD9355776
Probable space group: C C C 2
;
_chemical_formula_sum "Si O2"
_cell_formula_units_Z 30
_cell_length_a 18.000000
_cell_length_b 18.000000
_cell_length_c 9.000000
_cell_angle_alpha 90.000000
_cell_angle_beta 90.000000
_cell_angle_gamma 90.000000
_cell_volume 2916.000000
_symmetry_space_group_name_H-M "C C C 2"
_symmetry_group_IT_number 37
_symmetry_cell_setting 'orthorhombic'
loop_
_space_group_symop_operation_xyz
x,y,z
-x,-y,z
-x,y,1/2+z
x,-y,1/2+z
1/2+x,1/2+y,z
1/2-x,1/2-y,z
1/2-x,1/2+y,1/2+z
1/2+x,1/2-y,1/2+z
loop_
_atom_site_type_symbol
_atom_site_label
_atom_site_fract_x
_atom_site_fract_y
_atom_site_fract_z
Si Si1 0.475084 0.319345 0.184600
Si Si2 0.133437 0.690339 0.794336
Si Si3 0.250000 0.250000 0.062447
Si Si4 0.380022 0.242581 0.616168
Si Si5 0.050311 0.925540 0.424743
Si Si6 0.306320 0.633963 0.312811
Si Si7 0.852875 0.409862 0.228719
Si Si8 0.917706 0.465377 0.917810
O O1 0.421894 0.255416 0.243248
O O2 0.537892 0.274452 0.093721
O O3 0.510930 0.365422 0.318489
O O4 0.441936 0.383722 0.081353
O O5 0.198204 0.700676 0.672826
O O6 0.096219 0.608258 0.814329
O O7 0.154900 0.712305 0.963853
O O8 0.287814 0.311136 0.952481
O O9 0.336846 0.309889 0.688999
O O10 0.382845 0.174592 0.733195
O O11 0.133344 0.928307 0.358034
O O12 0.000000 0.000000 0.432895
O O13 0.234906 0.598163 0.237831
O O14 0.871496 0.465234 0.359820
O O15 0.889845 0.442786 0.080623
O O16 0.000000 0.500000 0.919377
#
# Coordination Sequence:
#
# PCOD9355776 Si02
#       8
#     8   8   4   8   8   8   8   8
#     4  11  21  43  69 101 131 184 234 289 352 424
#     4  11  25  42  71 107 139 182 242 301 348 435
#     4  12  24  42  74 104 140 180 248 290 350 436
#     4  10  22  42  72  96 140 184 238 292 358 425
#     4  11  24  45  67 103 139 181 235 291 361 427
#     4  11  24  46  72  99 141 191 232 302 357 433
#     4  11  24  45  67 101 142 187 235 293 374 422
#     4  11  26  46  69 104 144 188 240 301 360 434
#
# _framework density 10.288066000000001
#
# number of rings (size 3 to 8) (size 9 to 14) (size 15 to 20)
#    0.000    1.067    4.000    1.600    5.600    1.067 
#    9.600    0.000    0.000    0.000    0.000    0.000 
#    0.000    0.000    0.000    0.000    0.000    0.000 
#
# Total GULP energy -167325.454105 kJ/mol
# GULP energy per Si atom -5577.515137 kJ/mol
# Density = 1.026465 g / cm^3
# Si number density = 10.288066 Si / 1000 Ang^3
#
#
#
# Elastic Constant Matrix: (Units=GPa)
#
#
# Indices 1 2 3 4 5 6 
#
# 1 88.9580 62.5823 15.7757 0.0000 0.0000 0.0000
# 2 62.5823 48.8500 -30.4980 0.0000 0.0000 0.0000
# 3 15.7757 -30.4980 17.6083 0.0000 0.0000 0.0000
# 4 0.0000 0.0000 0.0000 -59.4451 0.0000 0.0000
# 5 0.0000 0.0000 0.0000 0.0000 -162.8062 0.0000
# 6 0.0000 0.0000 0.0000 0.0000 0.0000 37.6892
#
#
#
# Elastic Compliance Matrix: (Units=1/GPa)
#
#
# Indices 1 2 3 4 5 6 
#
# 1 0.000474 0.010728 0.018157 0.000000 0.000000 0.000000
# 2 0.010728 -0.008928 -0.025076 0.000000 0.000000 0.000000
# 3 0.018157 -0.025076 -0.002908 0.000000 0.000000 0.000000
# 4 0.000000 0.000000 0.000000 -0.016822 0.000000 0.000000
# 5 0.000000 0.000000 0.000000 0.000000 -0.006142 0.000000
# 6 0.000000 0.000000 0.000000 0.000000 0.000000 0.026533
#
#
# Mechanical properties :
#
#
# Convention : Reuss Voigt Hill
#
# Bulk Modulus (GPa) = -267.07898 27.90406 -119.58746
# Shear Modulus (GPa) = -300.12872 -29.74199 -164.93535
#
# Velocity S-wave (km/s) = -12.09046 -3.80605 -8.96285
# Velocity P-wave (km/s) = 18.02742 2.39245 12.85908
#
# Compressibility (1/GPa) = -0.00374421
#
# Stress axis : x y z
#
# Youngs Moduli (GPa) = 2109.30424 -112.00130 -343.92877
#
# Poissons Ratio (x) = 1.20157 6.24458
# Poissons Ratio (y) = -22.62892 -8.62432
# Poissons Ratio (z) = -38.29783 -2.80853
#
# Static dielectric constant tensor:
#      x y z
#    x 3.265300 0.000000 0.000000 
#    y 0.000000 1.686320 0.000000 
#    z 0.000000 0.000000 1.765060 
# 
# From -- ./inp_files/4090.got.cif
#   From: 2010.05.17/outbox.ucp.g08.bks.cvg/sg37_3_cif.got.tgz:4090.got - 2010.06.11 10:38:43.
