data_PCOD9355428
_publ_section_title
;
Structure prediction by ZEFSAII (Michael W. Deem and Ramdas Pophale) SiO2 
 PCOD9355428
Probable space group: C C C 2
;
_chemical_formula_sum "Si O2"
_cell_formula_units_Z 48
_cell_length_a 14.425843
_cell_length_b 12.484576
_cell_length_c 13.996124
_cell_angle_alpha 90.000000
_cell_angle_beta 90.000000
_cell_angle_gamma 90.000000
_cell_volume 2520.709396
_symmetry_space_group_name_H-M "C C C 2"
_symmetry_group_IT_number 37
_symmetry_cell_setting 'orthorhombic'
loop_
_space_group_symop_operation_xyz
x,y,z
-x,-y,z
-x,y,1/2+z
x,-y,1/2+z
1/2+x,1/2+y,z
1/2-x,1/2-y,z
1/2-x,1/2+y,1/2+z
1/2+x,1/2-y,1/2+z
loop_
_atom_site_type_symbol
_atom_site_label
_atom_site_fract_x
_atom_site_fract_y
_atom_site_fract_z
Si Si1 0.728214 0.082489 0.253870
Si Si2 0.553732 0.388013 0.804893
Si Si3 0.012675 0.876524 0.009317
Si Si4 0.099357 0.777836 0.193843
Si Si5 0.700126 0.635928 0.958780
Si Si6 0.231443 0.876853 0.671641
O O1 0.820363 0.131634 0.203066
O O2 0.649505 0.167562 0.223596
O O3 0.761305 0.078637 0.364497
O O4 0.702338 0.963258 0.221201
O O5 0.500000 0.500000 0.799633
O O6 0.578782 0.375225 0.916274
O O7 0.481568 0.299566 0.769571
O O8 0.637114 0.389590 0.731029
O O9 0.910640 0.848839 0.967775
O O10 0.050867 0.798984 0.091331
O O11 0.000000 0.000000 0.044611
O O12 0.750000 0.750000 0.952560
O O13 0.725514 0.587743 0.061449
O O14 0.250000 0.750000 0.673595
#
# Coordination Sequence:
#
# PCOD9355428 Si02
#       6
#     8   8   8   8   8   8
#     4  11  21  40  59  91 123 163 207 261 317 378
#     4  11  19  37  61  89 126 162 209 258 311 375
#     4  11  20  33  61  95 124 160 205 268 319 367
#     4  11  20  35  63  90 119 155 212 261 304 371
#     4  11  20  38  65  86 121 173 208 238 321 397
#     4  11  24  39  60  89 125 162 207 260 313 382
#
# _framework density 19.042258
#
# number of rings (size 3 to 8) (size 9 to 14) (size 15 to 20)
#    0.000    1.000    6.667    2.500    0.000    0.000 
#    6.000    0.833    0.000    0.000    0.000    0.000 
#    0.000    0.000    0.000    0.000    0.000    0.000 
#
# Total GULP energy -133779.549696 kJ/mol
# GULP energy per Si atom -5574.147904 kJ/mol
# Density = 1.899892 g / cm^3
# Si number density = 19.042258 Si / 1000 Ang^3
#
#
#
# Elastic Constant Matrix: (Units=GPa)
#
#
# Indices 1 2 3 4 5 6 
#
# 1 50.0158 32.7971 31.5943 0.0000 0.0000 0.0000
# 2 32.7971 97.0292 52.2220 0.0000 0.0000 0.0000
# 3 31.5943 52.2220 179.6800 0.0000 0.0000 0.0000
# 4 0.0000 0.0000 0.0000 23.7184 0.0000 0.0000
# 5 0.0000 0.0000 0.0000 0.0000 26.8456 0.0000
# 6 0.0000 0.0000 0.0000 0.0000 0.0000 23.8997
#
#
#
# Elastic Compliance Matrix: (Units=1/GPa)
#
#
# Indices 1 2 3 4 5 6 
#
# 1 0.026562 -0.007663 -0.002443 0.000000 0.000000 0.000000
# 2 -0.007663 0.014428 -0.002846 0.000000 0.000000 0.000000
# 3 -0.002443 -0.002846 0.006822 0.000000 0.000000 0.000000
# 4 0.000000 0.000000 0.000000 0.042161 0.000000 0.000000
# 5 0.000000 0.000000 0.000000 0.000000 0.037250 0.000000
# 6 0.000000 0.000000 0.000000 0.000000 0.000000 0.041842
#
#
# Mechanical properties :
#
#
# Convention : Reuss Voigt Hill
#
# Bulk Modulus (GPa) = 45.64655 62.21685 53.93170
# Shear Modulus (GPa) = 24.71904 28.90018 26.80961
#
# Velocity S-wave (km/s) = 3.60684 3.89998 3.75627
# Velocity P-wave (km/s) = 6.43187 7.28174 6.86996
#
# Compressibility (1/GPa) = 0.02190746
#
# Stress axis : x y z
#
# Youngs Moduli (GPa) = 37.64741 69.30880 146.58019
#
# Poissons Ratio (x) = 0.53114 0.35814
# Poissons Ratio (y) = 0.28851 0.41715
# Poissons Ratio (z) = 0.09199 0.19725
#
# Static dielectric constant tensor:
#      x y z
#    x 1.700870 0.000000 0.000000 
#    y 0.000000 1.687960 0.000000 
#    z 0.000000 0.000000 1.727770 
# 
# From -- ./inp_files/11492.got.cif
#   From: 2010.05.17/outbox.cif.g08.bks.cpg/sg37_6_cif.got.tgz:11492.got - 2010.06.03 17:53:42.
