data_PCOD9355710
_publ_section_title
;
Structure prediction by ZEFSAII (Michael W. Deem and Ramdas Pophale) SiO2 
 PCOD9355710
Probable space group: C C C 2
;
_chemical_formula_sum "Si O2"
_cell_formula_units_Z 56
_cell_length_a 20.446767
_cell_length_b 13.284884
_cell_length_c 9.205824
_cell_angle_alpha 90.000000
_cell_angle_beta 90.000000
_cell_angle_gamma 90.000000
_cell_volume 2500.604926
_symmetry_space_group_name_H-M "C C C 2"
_symmetry_group_IT_number 37
_symmetry_cell_setting 'orthorhombic'
loop_
_space_group_symop_operation_xyz
x,y,z
-x,-y,z
-x,y,1/2+z
x,-y,1/2+z
1/2+x,1/2+y,z
1/2-x,1/2-y,z
1/2-x,1/2+y,1/2+z
1/2+x,1/2-y,1/2+z
loop_
_atom_site_type_symbol
_atom_site_label
_atom_site_fract_x
_atom_site_fract_y
_atom_site_fract_z
Si Si1 0.233919 0.935555 0.334660
Si Si2 0.544297 0.303375 0.771157
Si Si3 0.351187 0.566342 0.608759
Si Si4 0.812834 0.290418 0.124599
Si Si5 0.443034 0.075614 0.189057
Si Si6 0.138067 0.479867 0.465704
Si Si7 0.924052 0.134579 0.094458
O O1 0.186236 0.899519 0.463563
O O2 0.275110 0.848429 0.253957
O O3 0.197138 0.007977 0.220130
O O4 0.289282 0.001534 0.411837
O O5 0.608710 0.348163 0.692834
O O6 0.534964 0.187783 0.724011
O O7 0.481239 0.361798 0.711837
O O8 0.552497 0.316441 0.943241
O O9 0.401631 0.478586 0.562582
O O10 0.750000 0.250000 0.032943
O O11 0.861481 0.197937 0.152298
O O12 0.857505 0.375107 0.051288
O O13 0.411128 0.030413 0.333393
O O14 0.500000 0.000000 0.140604
O O15 0.387030 0.068985 0.067847
#
# Coordination Sequence:
#
# PCOD9355710 Si02
#       7
#     8   8   8   8   8   8   8
#     4  12  24  45  77 107 149 197 251 316 388 458
#     4  12  30  47  79 109 150 206 254 316 390 465
#     4  12  26  50  73 110 154 195 253 320 385 465
#     4  12  24  44  75 104 146 196 245 305 385 446
#     4  12  27  47  72 104 149 191 255 313 376 459
#     4  12  24  45  70 104 144 189 240 314 373 442
#     4  12  27  49  74 111 154 203 256 319 387 460
#
# _framework density 22.394582
#
# number of rings (size 3 to 8) (size 9 to 14) (size 15 to 20)
#    0.000    0.000    7.143    1.714    4.000    2.286 
#    0.000    1.429    0.000    0.000    0.000    0.000 
#    0.000    0.000    0.000    0.000    0.000    0.000 
#
# Total GULP energy -156707.600734 kJ/mol
# GULP energy per Si atom -5596.700026 kJ/mol
# Density = 2.234361 g / cm^3
# Si number density = 22.394582 Si / 1000 Ang^3
#
#
#
# Elastic Constant Matrix: (Units=GPa)
#
#
# Indices 1 2 3 4 5 6 
#
# 1 92.8969 5.5388 43.1749 0.0000 0.0000 0.0000
# 2 5.5388 65.2319 0.8775 0.0000 0.0000 0.0000
# 3 43.1749 0.8775 96.3332 0.0000 0.0000 0.0000
# 4 0.0000 0.0000 0.0000 2.2649 0.0000 0.0000
# 5 0.0000 0.0000 0.0000 0.0000 49.9910 0.0000
# 6 0.0000 0.0000 0.0000 0.0000 0.0000 38.4115
#
#
#
# Elastic Compliance Matrix: (Units=1/GPa)
#
#
# Indices 1 2 3 4 5 6 
#
# 1 0.013672 -0.001079 -0.006118 0.000000 0.000000 0.000000
# 2 -0.001079 0.015417 0.000343 0.000000 0.000000 0.000000
# 3 -0.006118 0.000343 0.013119 0.000000 0.000000 0.000000
# 4 0.000000 0.000000 0.000000 0.441529 0.000000 0.000000
# 5 0.000000 0.000000 0.000000 0.000000 0.020004 0.000000
# 6 0.000000 0.000000 0.000000 0.000000 0.000000 0.026034
#
#
# Mechanical properties :
#
#
# Convention : Reuss Voigt Hill
#
# Bulk Modulus (GPa) = 35.08570 39.29382 37.18976
# Shear Modulus (GPa) = 9.04188 31.79152 20.41670
#
# Velocity S-wave (km/s) = 2.01154 3.77186 3.02268
# Velocity P-wave (km/s) = 4.59305 6.04594 5.36887
#
# Compressibility (1/GPa) = 0.02850164
#
# Stress axis : x y z
#
# Youngs Moduli (GPa) = 73.14071 64.86390 76.22280
#
# Poissons Ratio (x) = 0.06996 0.46632
# Poissons Ratio (y) = 0.07889 -0.02614
# Poissons Ratio (z) = 0.44746 -0.02225
#
# Static dielectric constant tensor:
#      x y z
#    x 1.831530 0.000000 0.000000 
#    y 0.000000 1.873990 0.000000 
#    z 0.000000 0.000000 1.820000 
# 
# From -- ./inp_files/4380.got.cif
#   From: 2010.05.17/outbox.cif.g08.bks.cpg/sg37_3_cif.got.tgz:4380.got - 2010.06.03 17:53:42.
