data_PCOD9355204
_publ_section_title
;
Structure prediction by ZEFSAII (Michael W. Deem and Ramdas Pophale) SiO2 
 PCOD9355204
Probable space group: C C C 2
;
_chemical_formula_sum "Si O2"
_cell_formula_units_Z 48
_cell_length_a 8.959512
_cell_length_b 28.276576
_cell_length_c 8.862204
_cell_angle_alpha 90.000000
_cell_angle_beta 90.000000
_cell_angle_gamma 90.000000
_cell_volume 2245.189064
_symmetry_space_group_name_H-M "C C C 2"
_symmetry_group_IT_number 37
_symmetry_cell_setting 'orthorhombic'
loop_
_space_group_symop_operation_xyz
x,y,z
-x,-y,z
-x,y,1/2+z
x,-y,1/2+z
1/2+x,1/2+y,z
1/2-x,1/2-y,z
1/2-x,1/2+y,1/2+z
1/2+x,1/2-y,1/2+z
loop_
_atom_site_type_symbol
_atom_site_label
_atom_site_fract_x
_atom_site_fract_y
_atom_site_fract_z
Si Si1 0.707918 0.483458 0.074590
Si Si2 0.440446 0.330348 0.240639
Si Si3 0.500000 0.500000 0.820538
Si Si4 0.750000 0.750000 0.347853
Si Si5 0.716251 0.091090 0.627701
Si Si6 0.073737 0.585277 0.960400
Si Si7 0.790591 0.835537 0.541549
O O1 0.611843 0.468416 0.219877
O O2 0.711865 0.539918 0.097017
O O3 0.607301 0.470865 0.930443
O O4 0.869566 0.463424 0.036968
O O5 0.369875 0.277291 0.245211
O O6 0.334834 0.366840 0.148900
O O7 0.415218 0.346424 0.412973
O O8 0.609820 0.327761 0.187476
O O9 0.703296 0.791555 0.464187
O O10 0.621941 0.087609 0.785328
O O11 0.596536 0.096924 0.494119
O O12 0.175899 0.622485 0.049803
#
# Coordination Sequence:
#
# PCOD9355204 Si02
#       7
#     8   8   4   4   8   8   8
#     4  11  23  40  62  88 126 168 212 254 310 366
#     4   9  21  41  65  92 122 159 206 256 306 369
#     4  10  24  36  60  92 112 170 204 270 294 360
#     4   8  20  42  64  92 128 148 202 264 310 362
#     4  11  25  41  60  91 131 167 207 258 309 372
#     4  11  25  41  60  91 131 167 207 258 309 372
#     4   9  21  41  65  92 122 159 206 256 306 369
#
# _framework density 21.379045000000001
#
# number of rings (size 3 to 8) (size 9 to 14) (size 15 to 20)
#    1.000    1.000    1.667    0.500    7.000    4.000 
#    0.000    0.833    0.000    0.000    0.000    0.000 
#    0.000    0.000    0.000    0.000    0.000    0.000 
#
# Total GULP energy -133631.214126 kJ/mol
# GULP energy per Si atom -5567.967255 kJ/mol
# Density = 2.133039 g / cm^3
# Si number density = 21.379045 Si / 1000 Ang^3
#
#
#
# Elastic Constant Matrix: (Units=GPa)
#
#
# Indices 1 2 3 4 5 6 
#
# 1 43.6318 29.4538 9.1713 0.0000 0.0000 0.0000
# 2 29.4538 88.0196 10.4921 0.0000 0.0000 0.0000
# 3 9.1713 10.4921 47.2794 0.0000 0.0000 0.0000
# 4 0.0000 0.0000 0.0000 18.9891 0.0000 0.0000
# 5 0.0000 0.0000 0.0000 0.0000 34.2214 0.0000
# 6 0.0000 0.0000 0.0000 0.0000 0.0000 20.7851
#
#
#
# Elastic Compliance Matrix: (Units=1/GPa)
#
#
# Indices 1 2 3 4 5 6 
#
# 1 0.030230 -0.009673 -0.003718 0.000000 0.000000 0.000000
# 2 -0.009673 0.014765 -0.001400 0.000000 0.000000 0.000000
# 3 -0.003718 -0.001400 0.022183 0.000000 0.000000 0.000000
# 4 0.000000 0.000000 0.000000 0.052662 0.000000 0.000000
# 5 0.000000 0.000000 0.000000 0.000000 0.029221 0.000000
# 6 0.000000 0.000000 0.000000 0.000000 0.000000 0.048111
#
#
# Mechanical properties :
#
#
# Convention : Reuss Voigt Hill
#
# Bulk Modulus (GPa) = 26.59809 30.79612 28.69710
# Shear Modulus (GPa) = 20.89556 23.45336 22.17446
#
# Velocity S-wave (km/s) = 3.12971 3.31573 3.22406
# Velocity P-wave (km/s) = 5.05255 5.39396 5.22605
#
# Compressibility (1/GPa) = 0.03759668
#
# Stress axis : x y z
#
# Youngs Moduli (GPa) = 33.07973 67.72888 45.08014
#
# Poissons Ratio (x) = 0.65512 0.16759
# Poissons Ratio (y) = 0.31997 0.06312
# Poissons Ratio (z) = 0.12297 0.09484
#
# Static dielectric constant tensor:
#      x y z
#    x 1.811810 0.000000 0.000000 
#    y 0.000000 1.884340 0.000000 
#    z 0.000000 0.000000 1.811000 
# 
# From -- ./inp_files/2431.got.cif
#   From: 2010.05.17/outbox.cif.g08.bks.cpg/sg37_2_cif.got.tgz:2431.got - 2010.06.03 17:53:42.
