data_PCOD9355937
_publ_section_title
;
Structure prediction by ZEFSAII (Michael W. Deem and Ramdas Pophale) SiO2 
 PCOD9355937
Probable space group: A M M 2
;
_chemical_formula_sum "Si O2"
_cell_formula_units_Z 64
_cell_length_a 7.604323
_cell_length_b 31.522451
_cell_length_c 12.381713
_cell_angle_alpha 90.000000
_cell_angle_beta 90.000000
_cell_angle_gamma 90.000000
_cell_volume 2967.982029
_symmetry_space_group_name_H-M "A M M 2"
_symmetry_group_IT_number 38
_symmetry_cell_setting 'orthorhombic'
loop_
_space_group_symop_operation_xyz
x,y,z
-x,-y,z
-x,y,z
x,-y,z
x,1/2+y,1/2+z
-x,1/2-y,1/2+z
-x,1/2+y,1/2+z
x,1/2-y,1/2+z
loop_
_atom_site_type_symbol
_atom_site_label
_atom_site_fract_x
_atom_site_fract_y
_atom_site_fract_z
Si Si1 0.714905 0.372173 0.275260
Si Si2 0.713138 0.371604 0.522882
Si Si3 0.793326 0.291912 0.671944
Si Si4 0.201791 0.337345 0.884359
Si Si5 0.298617 0.433011 0.898681
Si Si6 0.284828 0.046925 0.160440
Si Si7 0.297514 0.801597 0.608312
Si Si8 0.285053 0.453127 0.136492
O O1 0.500000 0.372242 0.278172
O O2 0.773914 0.371457 0.399016
O O3 0.770017 0.331315 0.205341
O O4 0.771960 0.414403 0.211664
O O5 0.500000 0.372360 0.522816
O O6 0.768069 0.329180 0.585258
O O7 0.773331 0.413440 0.587990
O O8 0.724081 0.309867 0.785848
O O9 0.711101 0.247597 0.637409
O O10 0.000000 0.283270 0.684771
O O11 0.296782 0.382049 0.897765
O O12 0.000000 0.347946 0.856480
O O13 0.205278 0.312032 0.995904
O O14 0.500000 0.448385 0.899129
O O15 0.222581 0.447730 0.784302
O O16 0.221207 0.447196 0.013132
O O17 0.500000 0.048747 0.162296
O O18 0.235728 0.000000 0.120539
O O19 0.500000 0.814046 0.590635
O O20 0.500000 0.451120 0.133789
O O21 0.236097 0.500000 0.175578
#
# Coordination Sequence:
#
# PCOD9355937 Si02
#       8
#     8   8   8   8   8   8   8   8
#     4   9  19  34  53  84 116 144 186 236 280 334
#     4  10  20  36  58  84 115 152 194 237 286 341
#     4  11  25  42  59  84 117 150 191 237 288 345
#     4  11  23  39  60  86 117 150 188 236 290 342
#     4  10  17  31  55  83 114 149 193 237 285 339
#     4   9  17  29  51  85 118 147 188 243 294 340
#     4  11  23  40  62  86 115 149 191 238 287 342
#     4   9  16  28  51  83 116 147 182 232 289 337
#
# _framework density 21.563473999999999
#
# number of rings (size 3 to 8) (size 9 to 14) (size 15 to 20)
#    0.000    2.000    2.500    1.500    1.750    3.500 
#    0.000    3.125    0.000    2.625    0.000    0.000 
#    0.000    0.000    0.000    0.000    0.000    0.000 
#
# Total GULP energy -178803.634869 kJ/mol
# GULP energy per Si atom -5587.613590 kJ/mol
# Density = 2.151439 g / cm^3
# Si number density = 21.563474 Si / 1000 Ang^3
#
#
#
# Elastic Constant Matrix: (Units=GPa)
#
#
# Indices 1 2 3 4 5 6 
#
# 1 48.3185 -8.7417 -3.8418 0.0000 0.0000 0.0000
# 2 -8.7417 179.8457 81.7495 0.0000 0.0000 0.0000
# 3 -3.8418 81.7495 162.9243 0.0000 0.0000 0.0000
# 4 0.0000 0.0000 0.0000 46.7278 0.0000 0.0000
# 5 0.0000 0.0000 0.0000 0.0000 -2.0262 0.0000
# 6 0.0000 0.0000 0.0000 0.0000 0.0000 -35.1766
#
#
#
# Elastic Compliance Matrix: (Units=1/GPa)
#
#
# Indices 1 2 3 4 5 6 
#
# 1 0.020880 0.001025 -0.000022 0.000000 0.000000 0.000000
# 2 0.001025 0.007254 -0.003615 0.000000 0.000000 0.000000
# 3 -0.000022 -0.003615 0.007951 0.000000 0.000000 0.000000
# 4 0.000000 0.000000 0.000000 0.021401 0.000000 0.000000
# 5 0.000000 0.000000 0.000000 0.000000 -0.493543 0.000000
# 6 0.000000 0.000000 0.000000 0.000000 0.000000 -0.028428
#
#
# Mechanical properties :
#
#
# Convention : Reuss Voigt Hill
#
# Bulk Modulus (GPa) = 32.40472 58.82450 45.61461
# Shear Modulus (GPa) = -11.13649 23.36650 6.11501
#
# Velocity S-wave (km/s) = -2.27502 3.29540 1.68582
# Velocity P-wave (km/s) = 2.85644 6.46672 4.99889
#
# Compressibility (1/GPa) = 0.03085970
#
# Stress axis : x y z
#
# Youngs Moduli (GPa) = 47.89349 137.86399 125.76441
#
# Poissons Ratio (x) = -0.14129 0.00275
# Poissons Ratio (y) = -0.04908 0.45469
# Poissons Ratio (z) = 0.00105 0.49843
#
# Static dielectric constant tensor:
#      x y z
#    x 1.806070 0.000000 0.000000 
#    y 0.000000 1.739680 0.000000 
#    z 0.000000 0.000000 1.759600 
# 
# From -- ./inp_files/8593.got.cif
#   From: 2010.05.17/outbox.cif.g08.bks.cpg/sg38_5_cif.got.tgz:8593.got - 2010.06.03 18:07:57.
