data_PCOD9355333
_publ_section_title
;
Structure prediction by ZEFSAII (Michael W. Deem and Ramdas Pophale) SiO2 
 PCOD9355333
Probable space group: C C C 2
;
_chemical_formula_sum "Si O2"
_cell_formula_units_Z 60
_cell_length_a 7.574627
_cell_length_b 28.835737
_cell_length_c 10.634505
_cell_angle_alpha 90.000000
_cell_angle_beta 90.000000
_cell_angle_gamma 90.000000
_cell_volume 2322.788072
_symmetry_space_group_name_H-M "C C C 2"
_symmetry_group_IT_number 37
_symmetry_cell_setting 'orthorhombic'
loop_
_space_group_symop_operation_xyz
x,y,z
-x,-y,z
-x,y,1/2+z
x,-y,1/2+z
1/2+x,1/2+y,z
1/2-x,1/2-y,z
1/2-x,1/2+y,1/2+z
1/2+x,1/2-y,1/2+z
loop_
_atom_site_type_symbol
_atom_site_label
_atom_site_fract_x
_atom_site_fract_y
_atom_site_fract_z
Si Si1 0.532774 0.242846 0.743560
Si Si2 0.757632 0.121531 0.631301
Si Si3 0.878242 0.538777 0.188685
Si Si4 0.500000 0.500000 0.745370
Si Si5 0.095926 0.843928 0.267202
Si Si6 0.981674 0.313658 0.999817
Si Si7 0.534311 0.579576 0.946109
Si Si8 0.307191 0.098054 0.584772
O O1 0.750000 0.250000 0.735377
O O2 0.421481 0.289100 0.775862
O O3 0.457281 0.224638 0.609782
O O4 0.505522 0.208211 0.862005
O O5 0.648155 0.160025 0.561211
O O6 0.939351 0.142971 0.672324
O O7 0.793451 0.080207 0.532247
O O8 0.676186 0.090171 0.743206
O O9 0.687336 0.512361 0.181797
O O10 0.964412 0.439154 0.097804
O O11 0.000000 0.500000 0.258581
O O12 0.539226 0.543701 0.834812
O O13 0.261520 0.873699 0.214805
O O14 0.039051 0.868341 0.394409
O O15 0.846965 0.356586 0.999840
O O16 0.364242 0.572659 0.031738
#
# Coordination Sequence:
#
# PCOD9355333 Si02
#       8
#     8   8   8   4   8   8   8   8
#     4  12  27  45  79 113 164 210 291 354 431 518
#     4  10  24  48  74 103 158 202 259 331 418 491
#     4  11  25  48  76 111 155 204 264 333 415 506
#     4  12  26  48  84 112 156 206 272 338 420 512
#     4  11  23  47  74 107 157 211 259 349 417 506
#     4  11  27  49  75 115 157 218 279 354 423 513
#     4  11  25  46  78 110 154 205 267 325 427 498
#     4  10  26  47  75 113 161 211 271 343 431 513
#
# _framework density 25.831026999999999
#
# number of rings (size 3 to 8) (size 9 to 14) (size 15 to 20)
#    0.000    1.067    2.667    1.600   11.200    0.000 
#    7.200    0.000    0.000    0.000    0.000    0.000 
#    0.000    0.000    0.000    0.000    0.000    0.000 
#
# Total GULP energy -167174.768454 kJ/mol
# GULP energy per Si atom -5572.492282 kJ/mol
# Density = 2.577223 g / cm^3
# Si number density = 25.831027 Si / 1000 Ang^3
#
#
#
# Elastic Constant Matrix: (Units=GPa)
#
#
# Indices 1 2 3 4 5 6 
#
# 1 157.4323 53.5348 10.9676 0.0000 0.0000 0.0000
# 2 53.5348 117.4800 43.3297 0.0000 0.0000 0.0000
# 3 10.9676 43.3297 69.0749 0.0000 0.0000 0.0000
# 4 0.0000 0.0000 0.0000 -166.5969 0.0000 0.0000
# 5 0.0000 0.0000 0.0000 0.0000 18.9546 0.0000
# 6 0.0000 0.0000 0.0000 0.0000 0.0000 27.1970
#
#
#
# Elastic Compliance Matrix: (Units=1/GPa)
#
#
# Indices 1 2 3 4 5 6 
#
# 1 0.007600 -0.003926 0.001256 0.000000 0.000000 0.000000
# 2 -0.003926 0.013103 -0.007596 0.000000 0.000000 0.000000
# 3 0.001256 -0.007596 0.019042 0.000000 0.000000 0.000000
# 4 0.000000 0.000000 0.000000 -0.006003 0.000000 0.000000
# 5 0.000000 0.000000 0.000000 0.000000 0.052758 0.000000
# 6 0.000000 0.000000 0.000000 0.000000 0.000000 0.036769
#
#
# Mechanical properties :
#
#
# Convention : Reuss Voigt Hill
#
# Bulk Modulus (GPa) = 52.04823 62.18349 57.11586
# Shear Modulus (GPa) = 33.28789 -8.34539 12.47125
#
# Velocity S-wave (km/s) = 3.59371 -1.79938 2.19966
# Velocity P-wave (km/s) = 6.11661 4.45066 5.34889
#
# Compressibility (1/GPa) = 0.01921295
#
# Stress axis : x y z
#
# Youngs Moduli (GPa) = 131.58578 76.31901 52.51466
#
# Poissons Ratio (x) = 0.29966 -0.06598
# Poissons Ratio (y) = 0.51667 0.39889
# Poissons Ratio (z) = -0.16532 0.57971
#
# Static dielectric constant tensor:
#      x y z
#    x 2.282390 0.000000 0.000000 
#    y 0.000000 2.789420 0.000000 
#    z 0.000000 0.000000 2.312420 
# 
# From -- ./inp_files/6543.got.cif
#   From: 2010.05.17/outbox.cif.g08.bks.cpg/sg37_4_cif.got.tgz:6543.got - 2010.06.03 17:53:42.
