data_PCOD9355219
_publ_section_title
;
Structure prediction by ZEFSAII (Michael W. Deem and Ramdas Pophale) SiO2 
 PCOD9355219
Probable space group: C C C 2
;
_chemical_formula_sum "Si O2"
_cell_formula_units_Z 64
_cell_length_a 9.018267
_cell_length_b 28.817530
_cell_length_c 11.023143
_cell_angle_alpha 90.000000
_cell_angle_beta 90.000000
_cell_angle_gamma 90.000000
_cell_volume 2864.740478
_symmetry_space_group_name_H-M "C C C 2"
_symmetry_group_IT_number 37
_symmetry_cell_setting 'orthorhombic'
loop_
_space_group_symop_operation_xyz
x,y,z
-x,-y,z
-x,y,1/2+z
x,-y,1/2+z
1/2+x,1/2+y,z
1/2-x,1/2-y,z
1/2-x,1/2+y,1/2+z
1/2+x,1/2-y,1/2+z
loop_
_atom_site_type_symbol
_atom_site_label
_atom_site_fract_x
_atom_site_fract_y
_atom_site_fract_z
Si Si1 0.291566 0.074819 0.733500
Si Si2 0.036027 0.876822 0.082813
Si Si3 0.965221 0.953217 0.893475
Si Si4 0.963973 0.376822 0.868287
Si Si5 0.291566 0.425181 0.217599
Si Si6 0.918890 0.232005 0.103531
Si Si7 0.534779 0.953217 0.057625
Si Si8 0.081110 0.732005 0.847572
O O1 0.170022 0.094619 0.642473
O O2 0.387450 0.116362 0.789873
O O3 0.412911 0.044233 0.665065
O O4 0.199162 0.050085 0.839395
O O5 0.078188 0.823412 0.086377
O O6 0.887450 0.883638 0.161226
O O7 0.000018 0.904618 0.959715
O O8 0.087088 0.955767 0.786034
O O9 0.000000 0.000000 0.968767
O O10 0.829978 0.405381 0.808626
O O11 0.921813 0.323412 0.864723
O O12 0.999983 0.404618 0.991384
O O13 0.199162 0.449915 0.111705
O O14 0.750000 0.250000 0.110631
O O15 0.000000 0.249999 0.225552
O O16 0.985578 0.250000 0.975552
O O17 0.500000 0.000000 0.982332
O O18 0.250000 0.750000 0.840473
#
# Coordination Sequence:
#
# PCOD9355219 Si02
#       8
#     8   8   8   8   8   8   8   8
#     4  10  24  41  68  93 141 178 233 280 361 415
#     4  11  24  43  69  97 136 180 230 296 350 430
#     4  11  24  42  67 101 139 186 235 288 355 430
#     4  11  24  43  69  97 136 180 230 296 350 430
#     4  10  24  41  68  93 141 178 233 280 361 415
#     4  11  27  47  75 105 144 185 244 298 374 436
#     4  11  24  42  67 101 139 186 235 288 355 430
#     4  11  27  47  75 105 144 185 244 298 374 436
#
# _framework density 22.340592999999998
#
# number of rings (size 3 to 8) (size 9 to 14) (size 15 to 20)
#    0.000    1.250    0.000    3.750   14.000    8.500 
#    4.500    0.000    0.000    0.000    0.000    0.000 
#    0.000    0.000    0.000    0.000    0.000    0.000 
#
# Total GULP energy -178820.692606 kJ/mol
# GULP energy per Si atom -5588.146644 kJ/mol
# Density = 2.228975 g / cm^3
# Si number density = 22.340593 Si / 1000 Ang^3
#
#
#
# Elastic Constant Matrix: (Units=GPa)
#
#
# Indices 1 2 3 4 5 6 
#
# 1 109.0102 17.1997 32.3768 0.0000 0.0000 0.0000
# 2 17.1997 145.4317 22.2548 0.0000 0.0000 0.0000
# 3 32.3768 22.2548 111.0709 0.0000 0.0000 0.0000
# 4 0.0000 0.0000 0.0000 22.9506 0.0000 0.0000
# 5 0.0000 0.0000 0.0000 0.0000 27.7476 0.0000
# 6 0.0000 0.0000 0.0000 0.0000 0.0000 33.1389
#
#
#
# Elastic Compliance Matrix: (Units=1/GPa)
#
#
# Indices 1 2 3 4 5 6 
#
# 1 0.010126 -0.000769 -0.002797 0.000000 0.000000 0.000000
# 2 -0.000769 0.007152 -0.001209 0.000000 0.000000 0.000000
# 3 -0.002797 -0.001209 0.010061 0.000000 0.000000 0.000000
# 4 0.000000 0.000000 0.000000 0.043572 0.000000 0.000000
# 5 0.000000 0.000000 0.000000 0.000000 0.036039 0.000000
# 6 0.000000 0.000000 0.000000 0.000000 0.000000 0.030176
#
#
# Mechanical properties :
#
#
# Convention : Reuss Voigt Hill
#
# Bulk Modulus (GPa) = 56.21957 56.57506 56.39732
# Shear Modulus (GPa) = 32.76411 36.34619 34.55515
#
# Velocity S-wave (km/s) = 3.83374 4.03788 3.93713
# Velocity P-wave (km/s) = 6.69449 6.86426 6.77991
#
# Compressibility (1/GPa) = 0.01778740
#
# Stress axis : x y z
#
# Youngs Moduli (GPa) = 98.75842 139.82011 99.39479
#
# Poissons Ratio (x) = 0.10759 0.27805
# Poissons Ratio (y) = 0.07599 0.12014
# Poissons Ratio (z) = 0.27627 0.16901
#
# Static dielectric constant tensor:
#      x y z
#    x 1.778000 0.000000 0.000000 
#    y 0.000000 2.173900 0.000000 
#    z 0.000000 0.000000 1.931030 
# 
# From -- ./inp_files/6630.got.cif
#   From: 2010.05.17/outbox.cif.g08.bks.cpg/sg37_4_cif.got.tgz:6630.got - 2010.06.03 17:53:42.
