data_PCOD9355502
_publ_section_title
;
Structure prediction by ZEFSAII (Michael W. Deem and Ramdas Pophale) SiO2 
 PCOD9355502
Probable space group: C C C 2
;
_chemical_formula_sum "Si O2"
_cell_formula_units_Z 48
_cell_length_a 14.102687
_cell_length_b 13.901314
_cell_length_c 12.685953
_cell_angle_alpha 90.000000
_cell_angle_beta 90.000000
_cell_angle_gamma 90.000000
_cell_volume 2487.028822
_symmetry_space_group_name_H-M "C C C 2"
_symmetry_group_IT_number 37
_symmetry_cell_setting 'orthorhombic'
loop_
_space_group_symop_operation_xyz
x,y,z
-x,-y,z
-x,y,1/2+z
x,-y,1/2+z
1/2+x,1/2+y,z
1/2-x,1/2-y,z
1/2-x,1/2+y,1/2+z
1/2+x,1/2-y,1/2+z
loop_
_atom_site_type_symbol
_atom_site_label
_atom_site_fract_x
_atom_site_fract_y
_atom_site_fract_z
Si Si1 0.422167 0.413352 0.522060
Si Si2 0.578813 0.584658 0.276510
Si Si3 0.519467 0.242206 0.635873
Si Si4 0.743169 0.509817 0.133264
Si Si5 0.677107 0.835914 0.976030
Si Si6 0.917100 0.423298 0.264960
O O1 0.500000 0.500000 0.538893
O O2 0.400922 0.413592 0.399299
O O3 0.465176 0.312367 0.556098
O O4 0.326830 0.428857 0.587937
O O5 0.500000 0.500000 0.260909
O O6 0.543032 0.686000 0.232192
O O7 0.674188 0.565155 0.212804
O O8 0.607092 0.203230 0.567350
O O9 0.461444 0.155525 0.686348
O O10 0.832971 0.473675 0.198766
O O11 0.769608 0.576413 0.034007
O O12 0.750000 0.750000 0.948259
O O13 0.623705 0.874334 0.871641
O O14 0.000000 0.500000 0.291092
#
# Coordination Sequence:
#
# PCOD9355502 Si02
#       6
#     8   8   8   8   8   8
#     4  11  22  41  72 105 135 175 223 293 352 407
#     4  11  22  43  72 103 137 175 231 291 358 405
#     4  12  23  46  68 101 140 177 228 286 344 410
#     4  12  23  46  68 101 140 177 228 286 344 410
#     4  12  26  46  75 101 134 184 237 285 347 408
#     4  12  30  46  69  99 142 192 225 275 343 420
#
# _framework density 19.300139000000001
#
# number of rings (size 3 to 8) (size 9 to 14) (size 15 to 20)
#    0.000    0.333    6.667    2.000    4.667    2.667 
#    0.000    1.667    0.000    0.000    0.000    0.000 
#    0.000    0.000    0.000    0.000    0.000    0.000 
#
# Total GULP energy -134083.124033 kJ/mol
# GULP energy per Si atom -5586.796835 kJ/mol
# Density = 1.925621 g / cm^3
# Si number density = 19.300139 Si / 1000 Ang^3
#
#
#
# Elastic Constant Matrix: (Units=GPa)
#
#
# Indices 1 2 3 4 5 6 
#
# 1 96.3675 29.1213 12.3043 0.0000 0.0000 0.0000
# 2 29.1213 68.6185 -7.0677 0.0000 0.0000 0.0000
# 3 12.3043 -7.0677 84.3652 0.0000 0.0000 0.0000
# 4 0.0000 0.0000 0.0000 60.4295 0.0000 0.0000
# 5 0.0000 0.0000 0.0000 0.0000 33.5462 0.0000
# 6 0.0000 0.0000 0.0000 0.0000 0.0000 37.1756
#
#
#
# Elastic Compliance Matrix: (Units=1/GPa)
#
#
# Indices 1 2 3 4 5 6 
#
# 1 0.012314 -0.005458 -0.002253 0.000000 0.000000 0.000000
# 2 -0.005458 0.017119 0.002230 0.000000 0.000000 0.000000
# 3 -0.002253 0.002230 0.012369 0.000000 0.000000 0.000000
# 4 0.000000 0.000000 0.000000 0.016548 0.000000 0.000000
# 5 0.000000 0.000000 0.000000 0.000000 0.029810 0.000000
# 6 0.000000 0.000000 0.000000 0.000000 0.000000 0.026899
#
#
# Mechanical properties :
#
#
# Convention : Reuss Voigt Hill
#
# Bulk Modulus (GPa) = 32.42540 35.34076 33.88308
# Shear Modulus (GPa) = 36.68343 40.56317 38.62330
#
# Velocity S-wave (km/s) = 4.36441 4.58941 4.47832
# Velocity P-wave (km/s) = 6.49881 6.81428 6.65841
#
# Compressibility (1/GPa) = 0.03084003
#
# Stress axis : x y z
#
# Youngs Moduli (GPa) = 81.20839 58.41324 80.84933
#
# Poissons Ratio (x) = 0.31882 0.18217
# Poissons Ratio (y) = 0.44324 -0.18031
# Poissons Ratio (z) = 0.18298 -0.13027
#
# Static dielectric constant tensor:
#      x y z
#    x 1.674360 0.000000 0.000000 
#    y 0.000000 1.643180 0.000000 
#    z 0.000000 0.000000 1.643730 
# 
# From -- ./inp_files/7804.got.cif
#   From: 2010.05.17/outbox.cif.g08.bks.cpg/sg37_4_cif.got.tgz:7804.got - 2010.06.03 17:53:42.
