data_PCOD9355906
_publ_section_title
;
Structure prediction by ZEFSAII (Michael W. Deem and Ramdas Pophale) SiO2 
 PCOD9355906
Probable space group: A M M 2
;
_chemical_formula_sum "Si O2"
_cell_formula_units_Z 52
_cell_length_a 14.037987
_cell_length_b 7.642432
_cell_length_c 27.490435
_cell_angle_alpha 90.000000
_cell_angle_beta 90.000000
_cell_angle_gamma 90.000000
_cell_volume 2949.293754
_symmetry_space_group_name_H-M "A M M 2"
_symmetry_group_IT_number 38
_symmetry_cell_setting 'orthorhombic'
loop_
_space_group_symop_operation_xyz
x,y,z
-x,-y,z
-x,y,z
x,-y,z
x,1/2+y,1/2+z
-x,1/2-y,1/2+z
-x,1/2+y,1/2+z
x,1/2-y,1/2+z
loop_
_atom_site_type_symbol
_atom_site_label
_atom_site_fract_x
_atom_site_fract_y
_atom_site_fract_z
Si Si1 0.267990 0.500000 0.831921
Si Si2 0.254687 0.789466 0.075171
Si Si3 0.886277 0.202218 0.995984
Si Si4 0.393329 0.698952 0.160768
Si Si5 0.115556 0.000000 0.417140
Si Si6 0.612383 0.294386 0.380771
Si Si7 0.394728 0.287275 0.491265
Si Si8 0.610173 0.000000 0.240258
O O1 0.171345 0.500000 0.865225
O O2 0.323174 0.326407 0.848540
O O3 0.296462 0.500000 0.774747
O O4 0.154092 0.745995 0.049444
O O5 0.305492 0.720454 0.123508
O O6 0.257223 0.000000 0.080508
O O7 0.322943 0.728859 0.031576
O O8 0.000000 0.202887 0.998013
O O9 0.853641 0.000000 0.986500
O O10 0.859883 0.332424 0.951743
O O11 0.500000 0.732759 0.138008
O O12 0.393450 0.500000 0.178159
O O13 0.384930 0.832628 0.204979
O O14 0.000000 0.000000 0.409724
O O15 0.500000 0.270763 0.370695
O O16 0.633249 0.500000 0.376065
O O17 0.628426 0.237788 0.436482
O O18 0.500000 0.225137 0.502868
O O19 0.395859 0.500000 0.491705
O O20 0.500000 0.000000 0.262096
#
# Coordination Sequence:
#
# PCOD9355906 Si02
#       8
#     4   8   8   8   4   8   8   4
#     4  12  22  34  58  80  98 138 196 230 276 332
#     4  10  17  28  51  76 102 140 180 215 256 309
#     4   9  19  35  54  80 115 149 180 215 265 330
#     4  10  21  36  53  75 106 142 181 223 270 322
#     4  10  22  38  56  82 116 148 180 231 285 328
#     4   9  18  32  48  74 112 142 170 216 269 327
#     4   8  14  24  40  65 100 136 162 193 246 307
#     4  10  22  40  56  74 104 140 182 237 283 320
#
# _framework density 17.631340999999999
#
# number of rings (size 3 to 8) (size 9 to 14) (size 15 to 20)
#    0.000    2.462    0.769    3.000    1.077    3.077 
#    1.385    1.538    0.000    0.923    0.000    0.000 
#    0.000    0.000    0.000    0.000    0.000    0.000 
#
# Total GULP energy -144740.858135 kJ/mol
# GULP energy per Si atom -5566.956082 kJ/mol
# Density = 1.759121 g / cm^3
# Si number density = 17.631341 Si / 1000 Ang^3
#
#
#
# Elastic Constant Matrix: (Units=GPa)
#
#
# Indices 1 2 3 4 5 6 
#
# 1 63.4427 34.0782 37.1882 0.0000 0.0000 0.0000
# 2 34.0782 77.1493 31.7951 0.0000 0.0000 0.0000
# 3 37.1882 31.7951 60.0588 0.0000 0.0000 0.0000
# 4 0.0000 0.0000 0.0000 596.7973 0.0000 0.0000
# 5 0.0000 0.0000 0.0000 0.0000 12.2112 0.0000
# 6 0.0000 0.0000 0.0000 0.0000 0.0000 13.7831
#
#
#
# Elastic Compliance Matrix: (Units=1/GPa)
#
#
# Indices 1 2 3 4 5 6 
#
# 1 0.027040 -0.006451 -0.013328 0.000000 0.000000 0.000000
# 2 -0.006451 0.018118 -0.005597 0.000000 0.000000 0.000000
# 3 -0.013328 -0.005597 0.027866 0.000000 0.000000 0.000000
# 4 0.000000 0.000000 0.000000 0.001676 0.000000 0.000000
# 5 0.000000 0.000000 0.000000 0.000000 0.081892 0.000000
# 6 0.000000 0.000000 0.000000 0.000000 0.000000 0.072553
#
#
# Mechanical properties :
#
#
# Convention : Reuss Voigt Hill
#
# Bulk Modulus (GPa) = 44.89990 45.19707 45.04849
# Shear Modulus (GPa) = 17.40218 131.06428 74.23323
#
# Velocity S-wave (km/s) = 3.14507 8.63118 6.49572
# Velocity P-wave (km/s) = 6.22172 11.18123 9.04792
#
# Compressibility (1/GPa) = 0.02227176
#
# Stress axis : x y z
#
# Youngs Moduli (GPa) = 36.98246 55.19288 35.88610
#
# Poissons Ratio (x) = 0.35607 0.47828
# Poissons Ratio (y) = 0.23859 0.20086
# Poissons Ratio (z) = 0.49289 0.30892
#
# Static dielectric constant tensor:
#      x y z
#    x 1.705280 0.000000 0.000000 
#    y 0.000000 1.355760 0.000000 
#    z 0.000000 0.000000 1.610720 
# 
# From -- ./inp_files/22741.got.cif
#   From: 2010.05.17/outbox.cif.g08.bks.cpg/sg38_12_cif.got.tgz:22741.got - 2010.06.03 18:07:57.
