data_PCOD9355637
_publ_section_title
;
Structure prediction by ZEFSAII (Michael W. Deem and Ramdas Pophale) SiO2 
 PCOD9355637
Probable space group: C C C 2
;
_chemical_formula_sum "Si O2"
_cell_formula_units_Z 32
_cell_length_a 9.824167
_cell_length_b 16.212372
_cell_length_c 8.218681
_cell_angle_alpha 90.000000
_cell_angle_beta 90.000000
_cell_angle_gamma 90.000000
_cell_volume 1309.014390
_symmetry_space_group_name_H-M "C C C 2"
_symmetry_group_IT_number 37
_symmetry_cell_setting 'orthorhombic'
loop_
_space_group_symop_operation_xyz
x,y,z
-x,-y,z
-x,y,1/2+z
x,-y,1/2+z
1/2+x,1/2+y,z
1/2-x,1/2-y,z
1/2-x,1/2+y,1/2+z
1/2+x,1/2-y,1/2+z
loop_
_atom_site_type_symbol
_atom_site_label
_atom_site_fract_x
_atom_site_fract_y
_atom_site_fract_z
Si Si1 0.118134 0.338609 0.241800
Si Si2 0.391326 0.928497 0.414368
Si Si3 0.118134 0.161391 0.422459
Si Si4 0.108675 0.071503 0.749891
O O1 0.105631 0.250000 0.332130
O O2 0.250001 0.373991 0.332129
O O3 0.978145 0.383158 0.277949
O O4 0.140153 0.359805 0.052860
O O5 0.250000 0.955708 0.332130
O O6 0.500000 0.000000 0.470731
O O7 0.140153 0.140195 0.611400
O O8 0.978145 0.116843 0.386311
O O9 0.000000 0.000000 0.693529
#
# Coordination Sequence:
#
# PCOD9355637 Si02
#       4
#     8   8   8   8
#     4  11  25  46  71 106 149 193 243 297 363 438
#     4  12  26  46  75 110 149 193 242 301 367 435
#     4  11  25  46  71 106 149 193 243 297 363 438
#     4  12  26  46  75 110 149 193 242 301 367 435
#
# _framework density 24.445872000000001
#
# number of rings (size 3 to 8) (size 9 to 14) (size 15 to 20)
#    0.000    0.500    0.000    7.500    0.000   11.000 
#    0.000    2.500    0.000    0.000    0.000    0.000 
#    0.000    0.000    0.000    0.000    0.000    0.000 
#
# Total GULP energy -89164.827685 kJ/mol
# GULP energy per Si atom -5572.801730 kJ/mol
# Density = 2.439023 g / cm^3
# Si number density = 24.445872 Si / 1000 Ang^3
#
#
#
# Elastic Constant Matrix: (Units=GPa)
#
#
# Indices 1 2 3 4 5 6 
#
# 1 207.5415 55.0473 33.1589 0.0000 0.0000 0.0000
# 2 55.0473 158.7424 44.5842 0.0000 0.0000 0.0000
# 3 33.1589 44.5842 119.9970 0.0000 0.0000 0.0000
# 4 0.0000 0.0000 0.0000 18.4841 0.0000 0.0000
# 5 0.0000 0.0000 0.0000 0.0000 56.9256 0.0000
# 6 0.0000 0.0000 0.0000 0.0000 0.0000 11.1755
#
#
#
# Elastic Compliance Matrix: (Units=1/GPa)
#
#
# Indices 1 2 3 4 5 6 
#
# 1 0.005390 -0.001620 -0.000888 0.000000 0.000000 0.000000
# 2 -0.001620 0.007520 -0.002347 0.000000 0.000000 0.000000
# 3 -0.000888 -0.002347 0.009451 0.000000 0.000000 0.000000
# 4 0.000000 0.000000 0.000000 0.054100 0.000000 0.000000
# 5 0.000000 0.000000 0.000000 0.000000 0.017567 0.000000
# 6 0.000000 0.000000 0.000000 0.000000 0.000000 0.089481
#
#
# Mechanical properties :
#
#
# Convention : Reuss Voigt Hill
#
# Bulk Modulus (GPa) = 79.03260 83.54019 81.28640
# Shear Modulus (GPa) = 25.32489 40.88308 33.10398
#
# Velocity S-wave (km/s) = 3.22212 4.09393 3.68390
# Velocity P-wave (km/s) = 6.80019 7.52294 7.17068
#
# Compressibility (1/GPa) = 0.01265301
#
# Stress axis : x y z
#
# Youngs Moduli (GPa) = 185.53822 132.97463 105.81299
#
# Poissons Ratio (x) = 0.21538 0.09391
# Poissons Ratio (y) = 0.30052 0.24829
# Poissons Ratio (z) = 0.16467 0.31203
#
# Static dielectric constant tensor:
#      x y z
#    x 1.920460 0.000000 0.000000 
#    y 0.000000 2.092940 0.000000 
#    z 0.000000 0.000000 2.006410 
# 
# From -- ./inp_files/2677.got.cif
#   From: 2010.05.17/outbox.cif.g08.bks.cpg/sg37_2_cif.got.tgz:2677.got - 2010.06.03 17:53:42.
