data_PCOD9355000
_publ_section_title
;
Structure prediction by ZEFSAII (Michael W. Deem and Ramdas Pophale) SiO2 
 PCOD9355000
Probable space group: C C C 2
;
_chemical_formula_sum "Si O2"
_cell_formula_units_Z 64
_cell_length_a 11.941871
_cell_length_b 30.127843
_cell_length_c 8.869625
_cell_angle_alpha 90.000000
_cell_angle_beta 90.000000
_cell_angle_gamma 90.000000
_cell_volume 3191.138647
_symmetry_space_group_name_H-M "C C C 2"
_symmetry_group_IT_number 37
_symmetry_cell_setting 'orthorhombic'
loop_
_space_group_symop_operation_xyz
x,y,z
-x,-y,z
-x,y,1/2+z
x,-y,1/2+z
1/2+x,1/2+y,z
1/2-x,1/2-y,z
1/2-x,1/2+y,1/2+z
1/2+x,1/2-y,1/2+z
loop_
_atom_site_type_symbol
_atom_site_label
_atom_site_fract_x
_atom_site_fract_y
_atom_site_fract_z
Si Si1 0.839095 0.129060 0.619860
Si Si2 0.065632 0.385906 0.616180
Si Si3 0.154163 0.441029 0.086282
Si Si4 0.672763 0.026797 0.246452
Si Si5 0.416573 0.460581 0.644219
Si Si6 0.014650 0.677714 0.866292
Si Si7 0.665872 0.208756 0.601185
Si Si8 0.529612 0.602899 0.390939
O O1 0.772570 0.082271 0.618181
O O2 0.747757 0.166408 0.589398
O O3 0.896755 0.133899 0.783205
O O4 0.935321 0.126744 0.492407
O O5 0.134679 0.430170 0.650739
O O6 0.062024 0.353303 0.758959
O O7 0.939435 0.403408 0.594430
O O8 0.088128 0.355885 0.470018
O O9 0.120132 0.479948 0.200627
O O10 0.155969 0.461947 0.920321
O O11 0.802269 0.020142 0.206351
O O12 0.500000 0.500000 0.599838
O O13 0.399002 0.427420 0.504599
O O14 0.469877 0.430952 0.776102
O O15 0.096574 0.705358 0.757960
O O16 0.930641 0.705269 0.973045
O O17 0.750000 0.250000 0.591150
#
# Coordination Sequence:
#
# PCOD9355000 Si02
#       8
#     8   8   8   8   8   8   8   8
#     4  11  22  45  61  91 131 175 221 281 346 398
#     4  11  22  42  65  92 134 178 226 271 340 405
#     4  12  25  39  59  92 136 180 231 291 335 383
#     4  12  26  36  60  92 131 182 243 283 323 387
#     4  11  23  37  56  82 127 173 229 278 328 373
#     4  10  22  45  73  99 135 175 211 270 350 409
#     4  11  25  46  77 103 136 167 213 276 342 418
#     4  10  23  38  59  84 121 175 225 270 326 395
#
# _framework density 20.055534999999999
#
# number of rings (size 3 to 8) (size 9 to 14) (size 15 to 20)
#    0.000    1.000    5.000    2.250    7.000    2.000 
#    0.000    2.500    0.000    0.000    0.000    0.000 
#    0.000    0.000    0.000    0.000    0.000    0.000 
#
# Total GULP energy -178827.336506 kJ/mol
# GULP energy per Si atom -5588.354266 kJ/mol
# Density = 2.000989 g / cm^3
# Si number density = 20.055535 Si / 1000 Ang^3
#
#
#
# Elastic Constant Matrix: (Units=GPa)
#
#
# Indices 1 2 3 4 5 6 
#
# 1 77.7023 28.5883 29.4249 0.0000 0.0000 0.0000
# 2 28.5883 87.0137 31.0061 0.0000 0.0000 0.0000
# 3 29.4249 31.0061 115.0894 0.0000 0.0000 0.0000
# 4 0.0000 0.0000 0.0000 13.3692 0.0000 0.0000
# 5 0.0000 0.0000 0.0000 0.0000 24.9630 0.0000
# 6 0.0000 0.0000 0.0000 0.0000 0.0000 -3.8875
#
#
#
# Elastic Compliance Matrix: (Units=1/GPa)
#
#
# Indices 1 2 3 4 5 6 
#
# 1 0.015443 -0.004056 -0.002856 0.000000 0.000000 0.000000
# 2 -0.004056 0.013778 -0.002675 0.000000 0.000000 0.000000
# 3 -0.002856 -0.002675 0.010140 0.000000 0.000000 0.000000
# 4 0.000000 0.000000 0.000000 0.074799 0.000000 0.000000
# 5 0.000000 0.000000 0.000000 0.000000 0.040059 0.000000
# 6 0.000000 0.000000 0.000000 0.000000 0.000000 -0.257236
#
#
# Mechanical properties :
#
#
# Convention : Reuss Voigt Hill
#
# Bulk Modulus (GPa) = 49.53528 50.87154 50.20341
# Shear Modulus (GPa) = -64.83982 19.60799 -22.61591
#
# Velocity S-wave (km/s) = -5.69213 3.13019 -3.36171
# Velocity P-wave (km/s) = 4.29508 6.20359 3.16518
#
# Compressibility (1/GPa) = 0.02018763
#
# Stress axis : x y z
#
# Youngs Moduli (GPa) = 64.75239 72.57768 98.62287
#
# Poissons Ratio (x) = 0.29440 0.28163
# Poissons Ratio (y) = 0.26266 0.26381
# Poissons Ratio (z) = 0.18491 0.19414
#
# Static dielectric constant tensor:
#      x y z
#    x 1.754370 0.000000 0.000000 
#    y 0.000000 1.721420 0.000000 
#    z 0.000000 0.000000 1.725750 
# 
# From -- ./inp_files/3117.got.cif
#   From: 2010.05.17/outbox.cif.g08.bks.cpg/sg37_2_cif.got.tgz:3117.got - 2010.06.03 17:53:42.
