data_PCOD9355086
_publ_section_title
;
Structure prediction by ZEFSAII (Michael W. Deem and Ramdas Pophale) SiO2 
 PCOD9355086
Probable space group: C C C 2
;
_chemical_formula_sum "Si O2"
_cell_formula_units_Z 40
_cell_length_a 19.862192
_cell_length_b 5.190607
_cell_length_c 18.691801
_cell_angle_alpha 90.000000
_cell_angle_beta 90.000000
_cell_angle_gamma 90.000000
_cell_volume 1927.065483
_symmetry_space_group_name_H-M "C C C 2"
_symmetry_group_IT_number 37
_symmetry_cell_setting 'orthorhombic'
loop_
_space_group_symop_operation_xyz
x,y,z
-x,-y,z
-x,y,1/2+z
x,-y,1/2+z
1/2+x,1/2+y,z
1/2-x,1/2-y,z
1/2-x,1/2+y,1/2+z
1/2+x,1/2-y,1/2+z
loop_
_atom_site_type_symbol
_atom_site_label
_atom_site_fract_x
_atom_site_fract_y
_atom_site_fract_z
Si Si1 0.928981 0.848569 0.527790
Si Si2 0.951902 0.248859 0.188349
Si Si3 0.567897 0.870920 0.381520
Si Si4 0.792229 0.005687 0.456328
Si Si5 0.129400 0.140461 0.826521
O O1 0.923059 0.744213 0.607780
O O2 0.933365 0.634179 0.466752
O O3 0.863100 0.000909 0.499554
O O4 0.000000 0.000000 0.523724
O O5 0.891252 0.198146 0.244667
O O6 0.000000 0.500000 0.199046
O O7 0.000000 0.000000 0.193076
O O8 0.376048 0.926108 0.359358
O O9 0.576738 0.583280 0.351762
O O10 0.500000 0.000000 0.354338
O O11 0.750000 0.250000 0.479070
O O12 0.807247 0.026104 0.370413
O O13 0.750000 0.750000 0.470819
#
# Coordination Sequence:
#
# PCOD9355086 Si02
#       5
#     8   8   8   8   8
#     4  10  23  41  65  96 129 164 211 263 317 379
#     4  11  23  38  60  95 134 164 202 261 323 377
#     4  11  19  33  58  88 119 157 205 252 302 361
#     4  11  24  43  65  92 126 168 217 266 314 374
#     4  11  22  37  59  87 122 165 208 254 309 371
#
# _framework density 20.75695
#
# number of rings (size 3 to 8) (size 9 to 14) (size 15 to 20)
#    0.000    1.200    0.000    9.000    0.000    7.200 
#    0.000    2.000    0.000    0.000    0.000    0.000 
#    0.000    0.000    0.000    0.000    0.000    0.000 
#
# Total GULP energy -111426.256910 kJ/mol
# GULP energy per Si atom -5571.312845 kJ/mol
# Density = 2.070971 g / cm^3
# Si number density = 20.756950 Si / 1000 Ang^3
#
#
#
# Elastic Constant Matrix: (Units=GPa)
#
#
# Indices 1 2 3 4 5 6 
#
# 1 108.7041 42.0436 29.6633 0.0000 0.0000 0.0000
# 2 42.0436 123.2285 41.5316 0.0000 0.0000 0.0000
# 3 29.6633 41.5316 186.5959 0.0000 0.0000 0.0000
# 4 0.0000 0.0000 0.0000 10.5194 0.0000 0.0000
# 5 0.0000 0.0000 0.0000 0.0000 3.2130 0.0000
# 6 0.0000 0.0000 0.0000 0.0000 0.0000 33.9734
#
#
#
# Elastic Compliance Matrix: (Units=1/GPa)
#
#
# Indices 1 2 3 4 5 6 
#
# 1 0.010756 -0.003344 -0.000966 0.000000 0.000000 0.000000
# 2 -0.003344 0.009813 -0.001652 0.000000 0.000000 0.000000
# 3 -0.000966 -0.001652 0.005880 0.000000 0.000000 0.000000
# 4 0.000000 0.000000 0.000000 0.095062 0.000000 0.000000
# 5 0.000000 0.000000 0.000000 0.000000 0.311233 0.000000
# 6 0.000000 0.000000 0.000000 0.000000 0.000000 0.029435
#
#
# Mechanical properties :
#
#
# Convention : Reuss Voigt Hill
#
# Bulk Modulus (GPa) = 68.84754 71.66726 70.25740
# Shear Modulus (GPa) = 10.43958 29.89384 20.16671
#
# Velocity S-wave (km/s) = 2.24507 3.79909 3.12037
# Velocity P-wave (km/s) = 6.32146 7.33798 6.84861
#
# Compressibility (1/GPa) = 0.01452485
#
# Stress axis : x y z
#
# Youngs Moduli (GPa) = 92.96877 101.90560 170.05458
#
# Poissons Ratio (x) = 0.34082 0.16420
# Poissons Ratio (y) = 0.31093 0.28101
# Poissons Ratio (z) = 0.08977 0.16839
#
# Static dielectric constant tensor:
#      x y z
#    x 1.895630 0.000000 0.000000 
#    y 0.000000 1.832200 0.000000 
#    z 0.000000 0.000000 1.775610 
# 
# From -- ./inp_files/15326.got.cif
#   From: 2010.05.17/outbox.cif.g08.bks.cpg/sg37_8_cif.got.tgz:15326.got - 2010.06.03 17:53:42.
