data_PCOD9355881
_publ_section_title
;
Structure prediction by ZEFSAII (Michael W. Deem and Ramdas Pophale) SiO2 
 PCOD9355881
Probable space group: A M M 2
;
_chemical_formula_sum "Si O2"
_cell_formula_units_Z 56
_cell_length_a 16.100473
_cell_length_b 7.453418
_cell_length_c 21.014579
_cell_angle_alpha 90.000000
_cell_angle_beta 90.000000
_cell_angle_gamma 90.000000
_cell_volume 2521.824192
_symmetry_space_group_name_H-M "A M M 2"
_symmetry_group_IT_number 38
_symmetry_cell_setting 'orthorhombic'
loop_
_space_group_symop_operation_xyz
x,y,z
-x,-y,z
-x,y,z
x,-y,z
x,1/2+y,1/2+z
-x,1/2-y,1/2+z
-x,1/2+y,1/2+z
x,1/2-y,1/2+z
loop_
_atom_site_type_symbol
_atom_site_label
_atom_site_fract_x
_atom_site_fract_y
_atom_site_fract_z
Si Si1 0.267771 0.786229 0.577990
Si Si2 0.727501 0.780202 0.439530
Si Si3 0.911711 0.205108 0.412157
Si Si4 0.871731 0.790084 0.771764
Si Si5 0.591039 0.715393 0.681175
Si Si6 0.318200 0.216744 0.303032
Si Si7 0.090953 0.780712 0.629034
O O1 0.300199 0.722464 0.509338
O O2 0.334383 0.754976 0.633007
O O3 0.175078 0.718008 0.594556
O O4 0.258401 0.000000 0.572642
O O5 0.823460 0.718243 0.432891
O O6 0.679178 0.720760 0.376238
O O7 0.727535 0.000000 0.436822
O O8 0.907022 0.202014 0.335324
O O9 0.000000 0.287679 0.430846
O O10 0.912072 0.000000 0.435933
O O11 0.772475 0.767691 0.776217
O O12 0.901711 0.725592 0.703199
O O13 0.892674 0.000000 0.776282
O O14 0.500000 0.781681 0.661339
O O15 0.587056 0.500000 0.684374
O O16 0.615294 0.780872 0.751787
O O17 0.321770 0.000000 0.304270
O O18 0.000000 0.726518 0.604026
O O19 0.092686 0.000000 0.628275
#
# Coordination Sequence:
#
# PCOD9355881 Si02
#       7
#     8   8   8   8   8   8   8
#     4  10  19  34  54  78 109 140 173 214 258 309
#     4   8  16  30  50  74 100 132 168 210 255 299
#     4   9  17  29  45  68  99 136 179 220 257 302
#     4  10  17  27  45  70 101 134 171 217 263 301
#     4  10  21  37  58  80 103 134 170 213 266 320
#     4   9  17  33  54  75 100 130 170 213 257 311
#     4   9  17  27  42  69 104 138 171 208 251 297
#
# _framework density 22.206149
#
# number of rings (size 3 to 8) (size 9 to 14) (size 15 to 20)
#    0.000    2.714    1.429    1.714    0.000    1.714 
#    0.000    6.429    0.000    3.857    0.000    0.000 
#    0.000    0.000    0.000    0.000    0.000    0.000 
#
# Total GULP energy -156215.366143 kJ/mol
# GULP energy per Si atom -5579.120219 kJ/mol
# Density = 2.215561 g / cm^3
# Si number density = 22.206149 Si / 1000 Ang^3
#
#
#
# Elastic Constant Matrix: (Units=GPa)
#
#
# Indices 1 2 3 4 5 6 
#
# 1 104.2810 -4.7985 59.8919 0.0000 0.0000 0.0000
# 2 -4.7985 66.4686 2.7666 0.0000 0.0000 0.0000
# 3 59.8919 2.7666 148.4030 0.0000 0.0000 0.0000
# 4 0.0000 0.0000 0.0000 9.3853 0.0000 0.0000
# 5 0.0000 0.0000 0.0000 0.0000 -16.1289 0.0000
# 6 0.0000 0.0000 0.0000 0.0000 0.0000 28.9419
#
#
#
# Elastic Compliance Matrix: (Units=1/GPa)
#
#
# Indices 1 2 3 4 5 6 
#
# 1 0.012565 0.001119 -0.005092 0.000000 0.000000 0.000000
# 2 0.001119 0.015156 -0.000734 0.000000 0.000000 0.000000
# 3 -0.005092 -0.000734 0.008807 0.000000 0.000000 0.000000
# 4 0.000000 0.000000 0.000000 0.106550 0.000000 0.000000
# 5 0.000000 0.000000 0.000000 0.000000 -0.062001 0.000000
# 6 0.000000 0.000000 0.000000 0.000000 0.000000 0.034552
#
#
# Mechanical properties :
#
#
# Convention : Reuss Voigt Hill
#
# Bulk Modulus (GPa) = 36.88078 48.31921 42.60000
# Shear Modulus (GPa) = 37.29052 21.85916 29.57484
#
# Velocity S-wave (km/s) = 4.10236 3.14088 3.65339
# Velocity P-wave (km/s) = 6.25168 5.91271 6.08456
#
# Compressibility (1/GPa) = 0.02711439
#
# Stress axis : x y z
#
# Youngs Moduli (GPa) = 79.58325 65.98032 113.54475
#
# Poissons Ratio (x) = -0.07384 0.57817
# Poissons Ratio (y) = -0.08906 0.08336
# Poissons Ratio (z) = 0.40524 0.04844
#
# Static dielectric constant tensor:
#      x y z
#    x 1.805660 0.000000 0.000000 
#    y 0.000000 1.919960 0.000000 
#    z 0.000000 0.000000 1.822820 
# 
# From -- ./inp_files/21035.got.cif
#   From: 2010.05.17/outbox.cif.g08.bks.cpg/sg38_11_cif.got.tgz:21035.got - 2010.06.03 18:07:57.
