data_PCOD9355810
_publ_section_title
;
Structure prediction by ZEFSAII (Michael W. Deem and Ramdas Pophale) SiO2 
 PCOD9355810
Probable space group: A M M 2
;
_chemical_formula_sum "Si O2"
_cell_formula_units_Z 42
_cell_length_a 12.784581
_cell_length_b 19.638789
_cell_length_c 7.342475
_cell_angle_alpha 90.000000
_cell_angle_beta 90.000000
_cell_angle_gamma 90.000000
_cell_volume 1843.502283
_symmetry_space_group_name_H-M "A M M 2"
_symmetry_group_IT_number 38
_symmetry_cell_setting 'orthorhombic'
loop_
_space_group_symop_operation_xyz
x,y,z
-x,-y,z
-x,y,z
x,-y,z
x,1/2+y,1/2+z
-x,1/2-y,1/2+z
-x,1/2+y,1/2+z
x,1/2-y,1/2+z
loop_
_atom_site_type_symbol
_atom_site_label
_atom_site_fract_x
_atom_site_fract_y
_atom_site_fract_z
Si Si1 0.616197 0.818000 0.462220
Si Si2 0.788389 0.922740 0.408599
Si Si3 0.382976 0.159798 0.894829
Si Si4 0.831752 0.610136 0.333471
Si Si5 0.000000 0.210772 0.716877
Si Si6 0.000000 0.000000 0.947638
Si Si7 0.000000 0.858627 0.319414
O O1 0.500000 0.828387 0.384343
O O2 0.702088 0.865296 0.369461
O O3 0.614041 0.837843 0.674427
O O4 0.636641 0.737588 0.454784
O O5 0.812031 0.916509 0.626420
O O6 0.897001 0.904158 0.311732
O O7 0.755844 0.000000 0.369320
O O8 0.500000 0.138652 0.955261
O O9 0.279092 0.117170 0.933875
O O10 0.894200 0.681890 0.310814
O O11 0.909859 0.558825 0.426605
O O12 0.000000 0.175550 0.520006
O O13 0.000000 0.291656 0.696933
#
# Coordination Sequence:
#
# PCOD9355810 Si02
#       7
#     8   8   8   8   4   2   4
#     4   9  18  31  49  73  98 126 157 199 245 284
#     4  10  18  28  46  70  97 125 159 197 235 287
#     4   9  17  31  48  73 101 124 159 200 244 285
#     4   9  17  28  46  69  96 125 158 194 243 282
#     4   9  18  29  46  71  94 116 163 203 236 289
#     4  10  16  28  46  66  96 130 158 190 242 290
#     4  10  19  30  47  73  92 122 157 201 243 282
#
# _framework density 22.782720999999999
#
# number of rings (size 3 to 8) (size 9 to 14) (size 15 to 20)
#    0.000    2.667    0.952    2.000    0.000    0.381 
#    0.000    0.476    0.000    0.000   22.286    0.000 
#    0.000    0.000    0.000    0.000    0.000    0.000 
#
# Total GULP energy -117119.368756 kJ/mol
# GULP energy per Si atom -5577.112798 kJ/mol
# Density = 2.273087 g / cm^3
# Si number density = 22.782721 Si / 1000 Ang^3
#
#
#
# Elastic Constant Matrix: (Units=GPa)
#
#
# Indices 1 2 3 4 5 6 
#
# 1 193.0752 68.0800 8.6913 0.0000 0.0000 0.0000
# 2 68.0800 79.9527 -4.1629 0.0000 0.0000 0.0000
# 3 8.6913 -4.1629 60.4244 0.0000 0.0000 0.0000
# 4 0.0000 0.0000 0.0000 5.4888 0.0000 0.0000
# 5 0.0000 0.0000 0.0000 0.0000 -6.8365 0.0000
# 6 0.0000 0.0000 0.0000 0.0000 0.0000 195.9272
#
#
#
# Elastic Compliance Matrix: (Units=1/GPa)
#
#
# Indices 1 2 3 4 5 6 
#
# 1 0.007540 -0.006501 -0.001532 0.000000 0.000000 0.000000
# 2 -0.006501 0.018156 0.002186 0.000000 0.000000 0.000000
# 3 -0.001532 0.002186 0.016921 0.000000 0.000000 0.000000
# 4 0.000000 0.000000 0.000000 0.182188 0.000000 0.000000
# 5 0.000000 0.000000 0.000000 0.000000 -0.146273 0.000000
# 6 0.000000 0.000000 0.000000 0.000000 0.000000 0.005104
#
#
# Mechanical properties :
#
#
# Convention : Reuss Voigt Hill
#
# Bulk Modulus (GPa) = 32.33798 53.18543 42.76171
# Shear Modulus (GPa) = 47.33149 56.30551 51.81850
#
# Velocity S-wave (km/s) = 4.56292 4.97672 4.77431
# Velocity P-wave (km/s) = 6.47960 7.51126 7.01442
#
# Compressibility (1/GPa) = 0.03092339
#
# Stress axis : x y z
#
# Youngs Moduli (GPa) = 132.61819 55.07694 59.09945
#
# Poissons Ratio (x) = 0.35803 0.09057
# Poissons Ratio (y) = 0.86209 -0.12919
# Poissons Ratio (z) = 0.20323 -0.12039
#
# Static dielectric constant tensor:
#      x y z
#    x 1.854960 0.000000 0.000000 
#    y 0.000000 1.785060 0.000000 
#    z 0.000000 0.000000 1.931920 
# 
# From -- ./inp_files/9196.got.cif
#   From: 2010.05.17/outbox.cif.g08.bks.cpg/sg38_5_cif.got.tgz:9196.got - 2010.06.03 18:07:57.
