data_PCOD9355156
_publ_section_title
;
Structure prediction by ZEFSAII (Michael W. Deem and Ramdas Pophale) SiO2 
 PCOD9355156
Probable space group: C C C 2
;
_chemical_formula_sum "Si O2"
_cell_formula_units_Z 36
_cell_length_a 9.831645
_cell_length_b 10.674679
_cell_length_c 14.672721
_cell_angle_alpha 90.000000
_cell_angle_beta 90.000000
_cell_angle_gamma 90.000000
_cell_volume 1539.896998
_symmetry_space_group_name_H-M "C C C 2"
_symmetry_group_IT_number 37
_symmetry_cell_setting 'orthorhombic'
loop_
_space_group_symop_operation_xyz
x,y,z
-x,-y,z
-x,y,1/2+z
x,-y,1/2+z
1/2+x,1/2+y,z
1/2-x,1/2-y,z
1/2-x,1/2+y,1/2+z
1/2+x,1/2-y,1/2+z
loop_
_atom_site_type_symbol
_atom_site_label
_atom_site_fract_x
_atom_site_fract_y
_atom_site_fract_z
Si Si1 0.116339 0.167572 0.652160
Si Si2 0.250000 0.250000 0.029262
Si Si3 0.604461 0.881965 0.183866
Si Si4 0.036783 0.181031 0.456482
Si Si5 0.250000 0.750000 0.847011
Si Si6 0.500000 0.500000 0.295532
O O1 0.250000 0.250000 0.656333
O O2 0.089500 0.121550 0.549765
O O3 0.992463 0.260476 0.674358
O O4 0.108446 0.062846 0.728792
O O5 0.379927 0.287523 0.969357
O O6 0.299324 0.135289 0.094653
O O7 0.696094 0.853089 0.271506
O O8 0.500000 0.000000 0.185284
O O9 0.136042 0.290865 0.426073
O O10 0.061859 0.100044 0.365560
#
# Coordination Sequence:
#
# PCOD9355156 Si02
#       6
#     8   4   8   8   4   4
#     4  11  25  44  71 108 143 192 250 303 381 448
#     4   9  24  48  69 108 150 196 255 314 379 454
#     4  10  23  44  74 105 148 194 251 315 374 454
#     4  11  24  47  70 103 151 186 251 311 376 452
#     4  11  22  46  67 108 144 194 247 308 371 452
#     4  12  26  42  74 104 142 198 236 314 366 454
#
# _framework density 23.378188000000002
#
# number of rings (size 3 to 8) (size 9 to 14) (size 15 to 20)
#    0.000    1.333    3.333    0.667    4.667    1.778 
#    0.000    1.111    0.000    0.000    0.000    0.000 
#    0.000    0.000    0.000    0.000    0.000    0.000 
#
# Total GULP energy -100248.677338 kJ/mol
# GULP energy per Si atom -5569.370963 kJ/mol
# Density = 2.332498 g / cm^3
# Si number density = 23.378188 Si / 1000 Ang^3
#
#
#
# Elastic Constant Matrix: (Units=GPa)
#
#
# Indices 1 2 3 4 5 6 
#
# 1 181.7010 30.6898 87.8611 0.0000 0.0000 0.0000
# 2 30.6898 53.2299 52.9608 0.0000 0.0000 0.0000
# 3 87.8611 52.9608 204.0493 0.0000 0.0000 0.0000
# 4 0.0000 0.0000 0.0000 37.8776 0.0000 0.0000
# 5 0.0000 0.0000 0.0000 0.0000 61.8937 0.0000
# 6 0.0000 0.0000 0.0000 0.0000 0.0000 39.9476
#
#
#
# Elastic Compliance Matrix: (Units=1/GPa)
#
#
# Indices 1 2 3 4 5 6 
#
# 1 0.007028 -0.001404 -0.002662 0.000000 0.000000 0.000000
# 2 -0.001404 0.025607 -0.006042 0.000000 0.000000 0.000000
# 3 -0.002662 -0.006042 0.007615 0.000000 0.000000 0.000000
# 4 0.000000 0.000000 0.000000 0.026401 0.000000 0.000000
# 5 0.000000 0.000000 0.000000 0.000000 0.016157 0.000000
# 6 0.000000 0.000000 0.000000 0.000000 0.000000 0.025033
#
#
# Mechanical properties :
#
#
# Convention : Reuss Voigt Hill
#
# Bulk Modulus (GPa) = 49.91181 86.88932 68.40057
# Shear Modulus (GPa) = 37.11043 45.77501 41.44272
#
# Velocity S-wave (km/s) = 3.98854 4.42976 4.21492
# Velocity P-wave (km/s) = 6.52743 7.96311 7.28074
#
# Compressibility (1/GPa) = 0.02003534
#
# Stress axis : x y z
#
# Youngs Moduli (GPa) = 142.29421 39.05179 131.31855
#
# Poissons Ratio (x) = 0.05481 0.34954
# Poissons Ratio (y) = 0.19972 0.79342
# Poissons Ratio (z) = 0.37875 0.23595
#
# Static dielectric constant tensor:
#      x y z
#    x 1.595100 0.000000 0.000000 
#    y 0.000000 1.652070 0.000000 
#    z 0.000000 0.000000 1.857860 
# 
# From -- ./inp_files/6911.got.cif
#   From: 2010.05.17/outbox.cif.g08.bks.cpg/sg37_4_cif.got.tgz:6911.got - 2010.06.03 17:53:42.
