data_PCOD9355108
_publ_section_title
;
Structure prediction by ZEFSAII (Michael W. Deem and Ramdas Pophale) SiO2 
 PCOD9355108
Probable space group: C C C 2
;
_chemical_formula_sum "Si O2"
_cell_formula_units_Z 56
_cell_length_a 13.974708
_cell_length_b 5.362027
_cell_length_c 31.978013
_cell_angle_alpha 90.000000
_cell_angle_beta 90.000000
_cell_angle_gamma 90.000000
_cell_volume 2396.200825
_symmetry_space_group_name_H-M "C C C 2"
_symmetry_group_IT_number 37
_symmetry_cell_setting 'orthorhombic'
loop_
_space_group_symop_operation_xyz
x,y,z
-x,-y,z
-x,y,1/2+z
x,-y,1/2+z
1/2+x,1/2+y,z
1/2-x,1/2-y,z
1/2-x,1/2+y,1/2+z
1/2+x,1/2-y,1/2+z
loop_
_atom_site_type_symbol
_atom_site_label
_atom_site_fract_x
_atom_site_fract_y
_atom_site_fract_z
Si Si1 0.750000 0.750000 0.656831
Si Si2 0.114301 0.482011 0.933049
Si Si3 0.882684 0.514763 0.838292
Si Si4 0.750000 0.250000 0.548774
Si Si5 0.615882 0.484177 0.985764
Si Si6 0.386806 0.523330 0.793474
Si Si7 0.605837 0.963001 0.115548
Si Si8 0.108226 0.113408 0.196484
O O1 0.839710 0.713984 0.626468
O O2 0.704267 0.539164 0.685232
O O3 0.152549 0.464080 0.885952
O O4 0.132955 0.222704 0.956102
O O5 0.000000 0.500000 0.928412
O O6 0.136398 0.726349 0.961168
O O7 0.854224 0.747001 0.808180
O O8 0.000000 0.500000 0.838178
O O9 0.851199 0.246074 0.822039
O O10 0.693616 0.459596 0.521919
O O11 0.667965 0.158831 0.580005
O O12 0.500000 0.500000 0.997411
O O13 0.500000 0.500000 0.799994
O O14 0.378576 0.630643 0.746284
O O15 0.605781 0.828301 0.161113
O O16 0.500000 0.000000 0.100671
O O17 0.000000 0.000000 0.192114
#
# Coordination Sequence:
#
# PCOD9355108 Si02
#       8
#     4   8   8   4   8   8   8   8
#     4  12  24  44  74  95 136 186 241 286 364 426
#     4   9  18  37  66  99 140 185 232 286 354 432
#     4   9  16  31  57  97 137 181 234 284 345 418
#     4  12  28  48  70 109 138 186 241 306 378 430
#     4  10  23  42  69 102 139 184 234 295 362 436
#     4   9  19  30  57  98 140 182 234 293 342 409
#     4  12  27  47  73 103 138 189 242 301 360 439
#     4  11  23  42  68 101 141 193 242 295 357 427
#
# _framework density 23.370329000000002
#
# number of rings (size 3 to 8) (size 9 to 14) (size 15 to 20)
#    0.000    1.714    2.857    0.857    2.000    9.143 
#    0.000    0.000    0.000    5.143    0.000    0.000 
#    0.000    0.000    0.000    0.000    0.000    0.000 
#
# Total GULP energy -156108.832287 kJ/mol
# GULP energy per Si atom -5575.315439 kJ/mol
# Density = 2.331714 g / cm^3
# Si number density = 23.370329 Si / 1000 Ang^3
#
#
#
# Elastic Constant Matrix: (Units=GPa)
#
#
# Indices 1 2 3 4 5 6 
#
# 1 160.7795 11.3222 44.2615 0.0000 0.0000 0.0000
# 2 11.3222 105.7643 55.9637 0.0000 0.0000 0.0000
# 3 44.2615 55.9637 136.7426 0.0000 0.0000 0.0000
# 4 0.0000 0.0000 0.0000 39.6941 0.0000 0.0000
# 5 0.0000 0.0000 0.0000 0.0000 15.8846 0.0000
# 6 0.0000 0.0000 0.0000 0.0000 0.0000 6.2975
#
#
#
# Elastic Compliance Matrix: (Units=1/GPa)
#
#
# Indices 1 2 3 4 5 6 
#
# 1 0.006854 0.000562 -0.002449 0.000000 0.000000 0.000000
# 2 0.000562 0.012115 -0.005140 0.000000 0.000000 0.000000
# 3 -0.002449 -0.005140 0.010209 0.000000 0.000000 0.000000
# 4 0.000000 0.000000 0.000000 0.025193 0.000000 0.000000
# 5 0.000000 0.000000 0.000000 0.000000 0.062954 0.000000
# 6 0.000000 0.000000 0.000000 0.000000 0.000000 0.158793
#
#
# Mechanical properties :
#
#
# Convention : Reuss Voigt Hill
#
# Bulk Modulus (GPa) = 66.11695 69.59790 67.85742
# Shear Modulus (GPa) = 16.93697 31.82452 24.38074
#
# Velocity S-wave (km/s) = 2.69499 3.69419 3.23342
# Velocity P-wave (km/s) = 6.16736 6.93117 6.56039
#
# Compressibility (1/GPa) = 0.01512471
#
# Stress axis : x y z
#
# Youngs Moduli (GPa) = 145.89598 82.54538 97.95145
#
# Poissons Ratio (x) = -0.04638 0.23984
# Poissons Ratio (y) = -0.08197 0.50346
# Poissons Ratio (z) = 0.35723 0.42428
#
# Static dielectric constant tensor:
#      x y z
#    x 1.934640 0.000000 0.000000 
#    y 0.000000 1.900820 0.000000 
#    z 0.000000 0.000000 2.005380 
# 
# From -- ./inp_files/20602.got.cif
#   From: 2010.05.17/outbox.cif.g08.bks.cpg/sg37_11_cif.got.tgz:20602.got - 2010.06.03 17:53:42.
