data_PCOD9355946
_publ_section_title
;
Structure prediction by ZEFSAII (Michael W. Deem and Ramdas Pophale) SiO2 
 PCOD9355946
Probable space group: A M M 2
;
_chemical_formula_sum "Si O2"
_cell_formula_units_Z 44
_cell_length_a 11.637294
_cell_length_b 14.762617
_cell_length_c 14.949700
_cell_angle_alpha 90.000000
_cell_angle_beta 90.000000
_cell_angle_gamma 90.000000
_cell_volume 2568.312329
_symmetry_space_group_name_H-M "A M M 2"
_symmetry_group_IT_number 38
_symmetry_cell_setting 'orthorhombic'
loop_
_space_group_symop_operation_xyz
x,y,z
-x,-y,z
-x,y,z
x,-y,z
x,1/2+y,1/2+z
-x,1/2-y,1/2+z
-x,1/2+y,1/2+z
x,1/2-y,1/2+z
loop_
_atom_site_type_symbol
_atom_site_label
_atom_site_fract_x
_atom_site_fract_y
_atom_site_fract_z
Si Si1 0.129223 0.301246 0.328410
Si Si2 0.311515 0.755963 0.192158
Si Si3 0.500000 0.672856 0.953217
Si Si4 0.500000 0.395479 0.755422
Si Si5 0.631832 0.500000 0.449487
Si Si6 0.871060 0.500000 0.338968
Si Si7 0.500000 0.392807 0.156940
Si Si8 0.706215 0.805633 0.993977
O O1 0.211314 0.247074 0.263676
O O2 0.127168 0.404116 0.290404
O O3 0.187033 0.307856 0.426248
O O4 0.000000 0.266872 0.333629
O O5 0.392988 0.839766 0.216579
O O6 0.390349 0.664477 0.193567
O O7 0.265988 0.769529 0.092064
O O8 0.500000 0.614489 0.863406
O O9 0.610469 0.738580 0.953407
O O10 0.500000 0.620991 0.048613
O O11 0.500000 0.500000 0.729693
O O12 0.500000 0.500000 0.412567
O O13 0.745190 0.500000 0.385932
O O14 0.649771 0.405475 0.500928
O O15 0.000000 0.500000 0.387995
O O16 0.500000 0.500000 0.178141
#
# Coordination Sequence:
#
# PCOD9355946 Si02
#       8
#     8   8   4   4   4   4   4   8
#     4  10  20  37  57  77 108 144 187 229 273 331
#     4  10  22  35  54  85 111 141 184 228 268 340
#     4  10  17  35  54  78 112 142 183 220 265 338
#     4  11  22  35  57  83 115 150 181 219 274 335
#     4  10  18  28  54  82 111 150 176 229 286 327
#     4   8  18  34  52  80 111 144 178 221 284 345
#     4   9  20  35  53  81 113 142 173 221 284 333
#     4  10  20  34  52  81 114 140 184 226 278 333
#
# _framework density 17.131872000000001
#
# number of rings (size 3 to 8) (size 9 to 14) (size 15 to 20)
#    0.000    2.182    2.727    0.818    2.545    0.727 
#    1.636    0.000    0.000    0.545    0.000    0.000 
#    0.000    0.000    0.000    0.000    0.000    0.000 
#
# Total GULP energy -122486.686795 kJ/mol
# GULP energy per Si atom -5567.576672 kJ/mol
# Density = 1.709288 g / cm^3
# Si number density = 17.131872 Si / 1000 Ang^3
#
#
#
# Elastic Constant Matrix: (Units=GPa)
#
#
# Indices 1 2 3 4 5 6 
#
# 1 129.7642 39.0100 49.9900 0.0000 0.0000 0.0000
# 2 39.0100 109.7076 20.5710 0.0000 0.0000 0.0000
# 3 49.9900 20.5710 67.6931 0.0000 0.0000 0.0000
# 4 0.0000 0.0000 0.0000 13.1198 0.0000 0.0000
# 5 0.0000 0.0000 0.0000 0.0000 9.2075 0.0000
# 6 0.0000 0.0000 0.0000 0.0000 0.0000 8.5169
#
#
#
# Elastic Compliance Matrix: (Units=1/GPa)
#
#
# Indices 1 2 3 4 5 6 
#
# 1 0.011446 -0.002635 -0.007652 0.000000 0.000000 0.000000
# 2 -0.002635 0.010273 -0.001176 0.000000 0.000000 0.000000
# 3 -0.007652 -0.001176 0.020781 0.000000 0.000000 0.000000
# 4 0.000000 0.000000 0.000000 0.076221 0.000000 0.000000
# 5 0.000000 0.000000 0.000000 0.000000 0.108608 0.000000
# 6 0.000000 0.000000 0.000000 0.000000 0.000000 0.117414
#
#
# Mechanical properties :
#
#
# Convention : Reuss Voigt Hill
#
# Bulk Modulus (GPa) = 51.08881 58.47853 54.78367
# Shear Modulus (GPa) = 13.36211 19.34176 16.35193
#
# Velocity S-wave (km/s) = 2.79580 3.36369 3.09281
# Velocity P-wave (km/s) = 6.34883 7.02099 6.69336
#
# Compressibility (1/GPa) = 0.01957376
#
# Stress axis : x y z
#
# Youngs Moduli (GPa) = 87.36390 97.34604 48.12159
#
# Poissons Ratio (x) = 0.25654 0.36823
# Poissons Ratio (y) = 0.23023 0.05657
# Poissons Ratio (z) = 0.66852 0.11444
#
# Static dielectric constant tensor:
#      x y z
#    x 1.588940 0.000000 0.000000 
#    y 0.000000 1.589020 0.000000 
#    z 0.000000 0.000000 1.581020 
# 
# From -- ./inp_files/13682.got.cif
#   From: 2010.05.17/outbox.cif.g08.bks.cpg/sg38_7_cif.got.tgz:13682.got - 2010.06.03 18:07:57.
