data_PCOD9355630
_publ_section_title
;
Structure prediction by ZEFSAII (Michael W. Deem and Ramdas Pophale) SiO2 
 PCOD9355630
Probable space group: C C C 2
;
_chemical_formula_sum "Si O2"
_cell_formula_units_Z 48
_cell_length_a 7.705977
_cell_length_b 33.677089
_cell_length_c 9.004865
_cell_angle_alpha 90.000000
_cell_angle_beta 90.000000
_cell_angle_gamma 90.000000
_cell_volume 2336.896399
_symmetry_space_group_name_H-M "C C C 2"
_symmetry_group_IT_number 37
_symmetry_cell_setting 'orthorhombic'
loop_
_space_group_symop_operation_xyz
x,y,z
-x,-y,z
-x,y,1/2+z
x,-y,1/2+z
1/2+x,1/2+y,z
1/2-x,1/2-y,z
1/2-x,1/2+y,1/2+z
1/2+x,1/2-y,1/2+z
loop_
_atom_site_type_symbol
_atom_site_label
_atom_site_fract_x
_atom_site_fract_y
_atom_site_fract_z
Si Si1 0.305162 0.539411 0.951250
Si Si2 0.320745 0.705595 0.347020
Si Si3 0.518867 0.095421 0.475025
Si Si4 0.693943 0.704617 0.202054
Si Si5 0.522621 0.849770 0.722191
Si Si6 0.836634 0.953121 0.095238
O O1 0.334241 0.540594 0.773033
O O2 0.132810 0.563518 0.988929
O O3 0.291560 0.494545 0.012282
O O4 0.471913 0.557437 0.035862
O O5 0.250000 0.750000 0.315675
O O6 0.510716 0.698304 0.281003
O O7 0.325775 0.700624 0.524450
O O8 0.183967 0.676101 0.272985
O O9 0.472474 0.137287 0.551467
O O10 0.533893 0.107867 0.304347
O O11 0.696125 0.078867 0.543175
O O12 0.750000 0.750000 0.234002
O O13 0.845476 0.674411 0.249190
#
# Coordination Sequence:
#
# PCOD9355630 Si02
#       6
#     8   8   8   8   8   8
#     4  11  25  44  71 101 136 182 227 277 329 404
#     4  11  25  44  70  97 131 174 223 282 336 408
#     4  12  27  44  68  97 145 176 228 277 341 399
#     4  11  25  44  70  98 130 174 226 277 341 403
#     4  12  26  46  63 105 135 179 224 284 342 403
#     4  11  25  44  71 102 135 183 228 273 334 399
#
# _framework density 20.540063
#
# number of rings (size 3 to 8) (size 9 to 14) (size 15 to 20)
#    0.000    0.667    5.000    2.500    7.000    4.667 
#    0.000    0.000    0.000    0.000    0.000    0.000 
#    0.000    0.000    0.000    0.000    0.000    0.000 
#
# Total GULP energy -134219.239275 kJ/mol
# GULP energy per Si atom -5592.468303 kJ/mol
# Density = 2.049331 g / cm^3
# Si number density = 20.540063 Si / 1000 Ang^3
#
#
#
# Elastic Constant Matrix: (Units=GPa)
#
#
# Indices 1 2 3 4 5 6 
#
# 1 117.9501 23.6209 28.8192 0.0000 0.0000 0.0000
# 2 23.6209 33.8764 13.0539 0.0000 0.0000 0.0000
# 3 28.8192 13.0539 75.2334 0.0000 0.0000 0.0000
# 4 0.0000 0.0000 0.0000 48.7882 0.0000 0.0000
# 5 0.0000 0.0000 0.0000 0.0000 24.3198 0.0000
# 6 0.0000 0.0000 0.0000 0.0000 0.0000 33.6143
#
#
#
# Elastic Compliance Matrix: (Units=1/GPa)
#
#
# Indices 1 2 3 4 5 6 
#
# 1 0.010423 -0.006140 -0.002927 0.000000 0.000000 0.000000
# 2 -0.006140 0.035251 -0.003765 0.000000 0.000000 0.000000
# 3 -0.002927 -0.003765 0.015067 0.000000 0.000000 0.000000
# 4 0.000000 0.000000 0.000000 0.020497 0.000000 0.000000
# 5 0.000000 0.000000 0.000000 0.000000 0.041119 0.000000
# 6 0.000000 0.000000 0.000000 0.000000 0.000000 0.029749
#
#
# Mechanical properties :
#
#
# Convention : Reuss Voigt Hill
#
# Bulk Modulus (GPa) = 28.50859 39.78309 34.14584
# Shear Modulus (GPa) = 26.39077 32.11552 29.25314
#
# Velocity S-wave (km/s) = 3.58836 3.95847 3.77795
# Velocity P-wave (km/s) = 5.57477 6.34848 5.97417
#
# Compressibility (1/GPa) = 0.03507715
#
# Stress axis : x y z
#
# Youngs Moduli (GPa) = 95.94229 28.36826 66.37224
#
# Poissons Ratio (x) = 0.17417 0.19430
# Poissons Ratio (y) = 0.58904 0.24986
# Poissons Ratio (z) = 0.28086 0.10679
#
# Static dielectric constant tensor:
#      x y z
#    x 1.695420 0.000000 0.000000 
#    y 0.000000 1.597510 0.000000 
#    z 0.000000 0.000000 1.695810 
# 
# From -- ./inp_files/2396.got.cif
#   From: 2010.05.17/outbox.cif.g08.bks.cpg/sg37_2_cif.got.tgz:2396.got - 2010.06.03 17:53:42.
