data_PCOD9355803
_publ_section_title
;
Structure prediction by ZEFSAII (Michael W. Deem and Ramdas Pophale) SiO2 
 PCOD9355803
Probable space group: A M M 2
;
_chemical_formula_sum "Si O2"
_cell_formula_units_Z 64
_cell_length_a 22.033736
_cell_length_b 20.450998
_cell_length_c 8.142413
_cell_angle_alpha 90.000000
_cell_angle_beta 90.000000
_cell_angle_gamma 90.000000
_cell_volume 3669.068118
_symmetry_space_group_name_H-M "A M M 2"
_symmetry_group_IT_number 38
_symmetry_cell_setting 'orthorhombic'
loop_
_space_group_symop_operation_xyz
x,y,z
-x,-y,z
-x,y,z
x,-y,z
x,1/2+y,1/2+z
-x,1/2-y,1/2+z
-x,1/2+y,1/2+z
x,1/2-y,1/2+z
loop_
_atom_site_type_symbol
_atom_site_label
_atom_site_fract_x
_atom_site_fract_y
_atom_site_fract_z
Si Si1 0.687291 0.675158 0.739300
Si Si2 0.683708 0.922736 0.528797
Si Si3 0.199660 0.652400 0.158814
Si Si4 0.196714 0.702807 0.534017
Si Si5 0.614569 0.772126 0.945260
Si Si6 0.064822 0.293352 0.507932
Si Si7 0.933970 0.848309 0.636092
Si Si8 0.567502 0.650659 0.144175
O O1 0.752529 0.675757 0.654887
O O2 0.672279 0.738950 0.851969
O O3 0.638897 0.684062 0.593503
O O4 0.680070 0.612125 0.851565
O O5 0.743004 0.892035 0.615989
O O6 0.622324 0.899684 0.619602
O O7 0.687979 0.000000 0.519509
O O8 0.203099 0.676428 0.348443
O O9 0.202522 0.718546 0.049408
O O10 0.133101 0.620470 0.125409
O O11 0.127929 0.685246 0.588532
O O12 0.576693 0.814430 0.818872
O O13 0.578377 0.709972 0.015306
O O14 0.065922 0.214700 0.517048
O O15 0.065669 0.317645 0.320427
O O16 0.000000 0.314394 0.582064
O O17 0.000000 0.882446 0.615477
O O18 0.500000 0.623619 0.125797
#
# Coordination Sequence:
#
# PCOD9355803 Si02
#       8
#     8   8   8   8   8   8   8   8
#     4  10  18  31  50  73 102 130 159 200 243 286
#     4  11  24  38  50  66  95 136 174 206 239 280
#     4  10  18  29  49  74 100 127 159 202 246 293
#     4  10  16  26  49  76  98 123 157 200 252 297
#     4   9  18  32  54  85 108 121 149 194 245 289
#     4   8  14  22  34  61 100 129 147 177 233 305
#     4   8  14  24  39  63  95 127 154 185 234 293
#     4  10  19  34  58  83 107 130 154 191 237 287
#
# _framework density 17.443121000000001
#
# number of rings (size 3 to 8) (size 9 to 14) (size 15 to 20)
#    0.000    2.500    0.000    4.875    0.000    1.250 
#    0.000    3.125    0.000    0.375    0.000    0.000 
#    0.000    1.000    0.000    0.000    0.000    0.000 
#
# Total GULP energy -178224.040829 kJ/mol
# GULP energy per Si atom -5569.501276 kJ/mol
# Density = 1.740342 g / cm^3
# Si number density = 17.443121 Si / 1000 Ang^3
#
#
#
# Elastic Constant Matrix: (Units=GPa)
#
#
# Indices 1 2 3 4 5 6 
#
# 1 166.1246 42.3224 29.7470 0.0000 0.0000 0.0000
# 2 42.3224 63.2173 20.6983 0.0000 0.0000 0.0000
# 3 29.7470 20.6983 57.8773 0.0000 0.0000 0.0000
# 4 0.0000 0.0000 0.0000 8.0398 0.0000 0.0000
# 5 0.0000 0.0000 0.0000 0.0000 10.3061 0.0000
# 6 0.0000 0.0000 0.0000 0.0000 0.0000 3.5661
#
#
#
# Elastic Compliance Matrix: (Units=1/GPa)
#
#
# Indices 1 2 3 4 5 6 
#
# 1 0.007527 -0.004273 -0.002341 0.000000 0.000000 0.000000
# 2 -0.004273 0.020342 -0.005079 0.000000 0.000000 0.000000
# 3 -0.002341 -0.005079 0.020297 0.000000 0.000000 0.000000
# 4 0.000000 0.000000 0.000000 0.124382 0.000000 0.000000
# 5 0.000000 0.000000 0.000000 0.000000 0.097030 0.000000
# 6 0.000000 0.000000 0.000000 0.000000 0.000000 0.280416
#
#
# Mechanical properties :
#
#
# Convention : Reuss Voigt Hill
#
# Bulk Modulus (GPa) = 40.35195 52.52829 46.44012
# Shear Modulus (GPa) = 8.59640 17.34583 12.97111
#
# Velocity S-wave (km/s) = 2.22237 3.15687 2.72990
# Velocity P-wave (km/s) = 5.45609 6.59296 6.05128
#
# Compressibility (1/GPa) = 0.02478195
#
# Stress axis : x y z
#
# Youngs Moduli (GPa) = 132.84969 49.15958 49.26791
#
# Poissons Ratio (x) = 0.21006 0.11532
# Poissons Ratio (y) = 0.56766 0.25021
# Poissons Ratio (z) = 0.31096 0.24966
#
# Static dielectric constant tensor:
#      x y z
#    x 1.682800 0.000000 0.000000 
#    y 0.000000 1.532960 0.000000 
#    z 0.000000 0.000000 1.621730 
# 
# From -- ./inp_files/6848.got.cif
#   From: 2010.05.17/outbox.cif.g08.bks.cpg/sg38_4_cif.got.tgz:6848.got - 2010.06.03 18:07:57.
