data_PCOD9355368
_publ_section_title
;
Structure prediction by ZEFSAII (Michael W. Deem and Ramdas Pophale) SiO2 
 PCOD9355368
Probable space group: C C C 2
;
_chemical_formula_sum "Si O2"
_cell_formula_units_Z 40
_cell_length_a 16.800108
_cell_length_b 8.267488
_cell_length_c 12.041954
_cell_angle_alpha 90.000000
_cell_angle_beta 90.000000
_cell_angle_gamma 90.000000
_cell_volume 1672.563483
_symmetry_space_group_name_H-M "C C C 2"
_symmetry_group_IT_number 37
_symmetry_cell_setting 'orthorhombic'
loop_
_space_group_symop_operation_xyz
x,y,z
-x,-y,z
-x,y,1/2+z
x,-y,1/2+z
1/2+x,1/2+y,z
1/2-x,1/2-y,z
1/2-x,1/2+y,1/2+z
1/2+x,1/2-y,1/2+z
loop_
_atom_site_type_symbol
_atom_site_label
_atom_site_fract_x
_atom_site_fract_y
_atom_site_fract_z
Si Si1 0.587904 0.422598 0.772420
Si Si2 0.626548 0.257257 0.175510
Si Si3 0.830980 0.291737 0.941022
Si Si4 0.965416 0.181817 0.554287
Si Si5 0.335613 0.839727 0.400057
O O1 0.500000 0.500000 0.777262
O O2 0.638364 0.584299 0.753775
O O3 0.601991 0.301900 0.872500
O O4 0.596302 0.332297 0.655817
O O5 0.539433 0.230036 0.117840
O O6 0.650460 0.128119 0.267587
O O7 0.673151 0.285133 0.062738
O O8 0.750000 0.250000 0.877844
O O9 0.837310 0.482194 0.953302
O O10 0.913906 0.251724 0.453368
O O11 0.000000 0.000000 0.532385
O O12 0.250000 0.750000 0.418587
#
# Coordination Sequence:
#
# PCOD9355368 Si02
#       5
#     8   8   8   8   8
#     4   9  23  46  76 103 148 200 263 312 385 456
#     4  10  25  47  75 107 152 201 267 319 386 470
#     4  12  28  46  76 116 155 207 260 323 396 471
#     4   9  24  46  81 108 148 209 261 316 391 466
#     4  12  28  49  79 114 169 205 262 328 402 468
#
# _framework density 23.915386000000002
#
# number of rings (size 3 to 8) (size 9 to 14) (size 15 to 20)
#    0.000    2.000    0.000    1.800   19.600    3.200 
#    3.600    0.000    0.000    0.000    0.000    0.000 
#    0.000    0.000    0.000    0.000    0.000    0.000 
#
# Total GULP energy -111423.311208 kJ/mol
# GULP energy per Si atom -5571.165560 kJ/mol
# Density = 2.386095 g / cm^3
# Si number density = 23.915386 Si / 1000 Ang^3
#
#
#
# Elastic Constant Matrix: (Units=GPa)
#
#
# Indices 1 2 3 4 5 6 
#
# 1 106.0043 33.5366 15.6687 0.0000 0.0000 0.0000
# 2 33.5366 85.2109 28.3762 0.0000 0.0000 0.0000
# 3 15.6687 28.3762 116.4814 0.0000 0.0000 0.0000
# 4 0.0000 0.0000 0.0000 17.0613 0.0000 0.0000
# 5 0.0000 0.0000 0.0000 0.0000 -2.0360 0.0000
# 6 0.0000 0.0000 0.0000 0.0000 0.0000 35.2618
#
#
#
# Elastic Compliance Matrix: (Units=1/GPa)
#
#
# Indices 1 2 3 4 5 6 
#
# 1 0.010797 -0.004098 -0.000454 0.000000 0.000000 0.000000
# 2 -0.004098 0.014327 -0.002939 0.000000 0.000000 0.000000
# 3 -0.000454 -0.002939 0.009362 0.000000 0.000000 0.000000
# 4 0.000000 0.000000 0.000000 0.058612 0.000000 0.000000
# 5 0.000000 0.000000 0.000000 0.000000 -0.491154 0.000000
# 6 0.000000 0.000000 0.000000 0.000000 0.000000 0.028359
#
#
# Mechanical properties :
#
#
# Convention : Reuss Voigt Hill
#
# Bulk Modulus (GPa) = 51.27148 51.42883 51.35015
# Shear Modulus (GPa) = -14.35909 25.39842 5.51967
#
# Velocity S-wave (km/s) = -2.45299 3.26239 1.52086
# Velocity P-wave (km/s) = 3.66911 5.97847 4.96006
#
# Compressibility (1/GPa) = 0.01950402
#
# Stress axis : x y z
#
# Youngs Moduli (GPa) = 92.61599 69.79690 106.81353
#
# Poissons Ratio (x) = 0.28605 0.04850
# Poissons Ratio (y) = 0.37957 0.31392
# Poissons Ratio (z) = 0.04205 0.20513
#
# Static dielectric constant tensor:
#      x y z
#    x 2.164750 0.000000 0.000000 
#    y 0.000000 2.052400 0.000000 
#    z 0.000000 0.000000 1.927540 
# 
# From -- ./inp_files/8135.got.cif
#   From: 2010.05.17/outbox.cif.g08.bks.cpg/sg37_5_cif.got.tgz:8135.got - 2010.06.03 17:53:42.
