data_PCOD9355048
_publ_section_title
;
Structure prediction by ZEFSAII (Michael W. Deem and Ramdas Pophale) SiO2 
 PCOD9355048
Probable space group: C C C 2
;
_chemical_formula_sum "Si O2"
_cell_formula_units_Z 40
_cell_length_a 26.969981
_cell_length_b 12.393813
_cell_length_c 5.292692
_cell_angle_alpha 90.000000
_cell_angle_beta 90.000000
_cell_angle_gamma 90.000000
_cell_volume 1769.139997
_symmetry_space_group_name_H-M "C C C 2"
_symmetry_group_IT_number 37
_symmetry_cell_setting 'orthorhombic'
loop_
_space_group_symop_operation_xyz
x,y,z
-x,-y,z
-x,y,1/2+z
x,-y,1/2+z
1/2+x,1/2+y,z
1/2-x,1/2-y,z
1/2-x,1/2+y,1/2+z
1/2+x,1/2-y,1/2+z
loop_
_atom_site_type_symbol
_atom_site_label
_atom_site_fract_x
_atom_site_fract_y
_atom_site_fract_z
Si Si1 0.943478 0.456432 0.914990
Si Si2 0.250390 0.429987 0.973309
Si Si3 0.019156 0.878659 0.884412
Si Si4 0.604769 0.260609 0.047857
Si Si5 0.332373 0.753779 0.547290
O O1 0.920023 0.473948 0.640762
O O2 0.000000 0.500000 0.886129
O O3 0.935437 0.334612 0.001917
O O4 0.252210 0.517819 0.196292
O O5 0.296008 0.348178 0.012402
O O6 0.200687 0.359740 0.004417
O O7 0.074265 0.869356 0.991736
O O8 0.985224 0.828424 0.105962
O O9 0.000000 0.000000 0.844179
O O10 0.627014 0.253879 0.325428
O O11 0.645299 0.247134 0.828612
#
# Coordination Sequence:
#
# PCOD9355048 Si02
#       5
#     8   8   8   8   8
#     4  10  23  38  59  89 127 175 223 277 329 379
#     4  11  24  48  75 100 146 173 210 281 358 410
#     4  10  23  43  63  90 129 185 222 281 335 382
#     4  12  24  42  70  97 140 175 236 284 316 406
#     4  11  26  45  69 110 132 177 228 276 341 412
#
# _framework density 22.609856000000001
#
# number of rings (size 3 to 8) (size 9 to 14) (size 15 to 20)
#    0.000    1.200    0.000    4.800    5.600    8.000 
#   21.600    0.000    0.000    0.000    0.000    0.000 
#    0.000    0.000    0.000    0.000    0.000    0.000 
#
# Total GULP energy -111782.151477 kJ/mol
# GULP energy per Si atom -5589.107574 kJ/mol
# Density = 2.255839 g / cm^3
# Si number density = 22.609856 Si / 1000 Ang^3
#
#
#
# Elastic Constant Matrix: (Units=GPa)
#
#
# Indices 1 2 3 4 5 6 
#
# 1 64.5441 23.1362 -0.1090 0.0000 0.0000 0.0000
# 2 23.1362 56.9779 -16.5398 0.0000 0.0000 0.0000
# 3 -0.1090 -16.5398 116.2217 0.0000 0.0000 0.0000
# 4 0.0000 0.0000 0.0000 28.9660 0.0000 0.0000
# 5 0.0000 0.0000 0.0000 0.0000 37.3539 0.0000
# 6 0.0000 0.0000 0.0000 0.0000 0.0000 21.7804
#
#
#
# Elastic Compliance Matrix: (Units=1/GPa)
#
#
# Indices 1 2 3 4 5 6 
#
# 1 0.018262 -0.007730 -0.001083 0.000000 0.000000 0.000000
# 2 -0.007730 0.021579 0.003064 0.000000 0.000000 0.000000
# 3 -0.001083 0.003064 0.009039 0.000000 0.000000 0.000000
# 4 0.000000 0.000000 0.000000 0.034523 0.000000 0.000000
# 5 0.000000 0.000000 0.000000 0.000000 0.026771 0.000000
# 6 0.000000 0.000000 0.000000 0.000000 0.000000 0.045913
#
#
# Mechanical properties :
#
#
# Convention : Reuss Voigt Hill
#
# Bulk Modulus (GPa) = 26.75081 27.85760 27.30421
# Shear Modulus (GPa) = 27.77065 33.03715 30.40390
#
# Velocity S-wave (km/s) = 3.50845 3.82669 3.67102
# Velocity P-wave (km/s) = 5.31690 5.64557 5.48370
#
# Compressibility (1/GPa) = 0.03738205
#
# Stress axis : x y z
#
# Youngs Moduli (GPa) = 54.75775 46.34190 110.62893
#
# Poissons Ratio (x) = 0.35822 0.11980
# Poissons Ratio (y) = 0.42327 -0.33893
# Poissons Ratio (z) = 0.05930 -0.14198
#
# Static dielectric constant tensor:
#      x y z
#    x 1.618650 0.000000 0.000000 
#    y 0.000000 1.997970 0.000000 
#    z 0.000000 0.000000 1.881650 
# 
# From -- ./inp_files/322.got.cif
#   From: 2010.05.17/outbox.cif.g08.bks.cpg/sg37_1_cif.got.tgz:322.got - 2010.06.03 17:53:42.
