data_PCOD9355241
_publ_section_title
;
Structure prediction by ZEFSAII (Michael W. Deem and Ramdas Pophale) SiO2 
 PCOD9355241
Probable space group: C C C 2
;
_chemical_formula_sum "Si O2"
_cell_formula_units_Z 36
_cell_length_a 4.821452
_cell_length_b 26.620449
_cell_length_c 10.778066
_cell_angle_alpha 90.000000
_cell_angle_beta 90.000000
_cell_angle_gamma 90.000000
_cell_volume 1383.356333
_symmetry_space_group_name_H-M "C C C 2"
_symmetry_group_IT_number 37
_symmetry_cell_setting 'orthorhombic'
loop_
_space_group_symop_operation_xyz
x,y,z
-x,-y,z
-x,y,1/2+z
x,-y,1/2+z
1/2+x,1/2+y,z
1/2-x,1/2-y,z
1/2-x,1/2+y,1/2+z
1/2+x,1/2-y,1/2+z
loop_
_atom_site_type_symbol
_atom_site_label
_atom_site_fract_x
_atom_site_fract_y
_atom_site_fract_z
Si Si1 0.750000 0.750000 0.510370
Si Si2 0.026026 0.666971 0.342535
Si Si3 0.500000 0.500000 0.338202
Si Si4 0.468093 0.667298 0.676986
Si Si5 0.500000 0.000000 0.155815
Si Si6 0.705575 0.584298 0.498904
O O1 0.941341 0.715020 0.423581
O O2 0.564938 0.714768 0.597793
O O3 0.851087 0.669746 0.214733
O O4 0.900551 0.619059 0.413433
O O5 0.346059 0.665270 0.302935
O O6 0.248178 0.488395 0.248238
O O7 0.491254 0.549274 0.423557
O O8 0.543122 0.619119 0.595522
O O9 0.399880 0.954230 0.072466
#
# Coordination Sequence:
#
# PCOD9355241 Si02
#       6
#     4   8   4   8   4   8
#     4  10  24  42  72 100 136 178 224 280 344 414
#     4  11  25  44  68 101 137 178 227 282 344 413
#     4  12  26  44  68  98 134 180 232 286 344 408
#     4  11  25  44  68 101 137 178 227 282 344 413
#     4  12  26  44  68  98 134 180 232 286 344 408
#     4  11  26  45  70 100 138 183 232 289 348 414
#
# _framework density 26.023665000000001
#
# number of rings (size 3 to 8) (size 9 to 14) (size 15 to 20)
#    0.000    0.889    0.000    5.333    0.000   16.000 
#    0.000    0.000    0.000    0.000    0.000    0.000 
#    0.000    0.000    0.000    0.000    0.000    0.000 
#
# Total GULP energy -101256.537902 kJ/mol
# GULP energy per Si atom -5625.363217 kJ/mol
# Density = 2.596443 g / cm^3
# Si number density = 26.023665 Si / 1000 Ang^3
#
#
#
# Elastic Constant Matrix: (Units=GPa)
#
#
# Indices 1 2 3 4 5 6 
#
# 1 79.8444 4.6448 11.6285 0.0000 0.0000 0.0000
# 2 4.6448 173.4004 59.2352 0.0000 0.0000 0.0000
# 3 11.6285 59.2352 104.7523 0.0000 0.0000 0.0000
# 4 0.0000 0.0000 0.0000 -396.5778 0.0000 0.0000
# 5 0.0000 0.0000 0.0000 0.0000 37.4434 0.0000
# 6 0.0000 0.0000 0.0000 0.0000 0.0000 27.8134
#
#
#
# Elastic Compliance Matrix: (Units=1/GPa)
#
#
# Indices 1 2 3 4 5 6 
#
# 1 0.012734 0.000176 -0.001513 0.000000 0.000000 0.000000
# 2 0.000176 0.007150 -0.004063 0.000000 0.000000 0.000000
# 3 -0.001513 -0.004063 0.012012 0.000000 0.000000 0.000000
# 4 0.000000 0.000000 0.000000 -0.002522 0.000000 0.000000
# 5 0.000000 0.000000 0.000000 0.000000 0.026707 0.000000
# 6 0.000000 0.000000 0.000000 0.000000 0.000000 0.035954
#
#
# Mechanical properties :
#
#
# Convention : Reuss Voigt Hill
#
# Bulk Modulus (GPa) = 47.40178 56.55711 51.97944
# Shear Modulus (GPa) = 45.50917 -47.43165 -0.96124
#
# Velocity S-wave (km/s) = 4.18636 -4.27386 -0.60842
# Velocity P-wave (km/s) = 6.45150 1.60450 4.41856
#
# Compressibility (1/GPa) = 0.02109626
#
# Stress axis : x y z
#
# Youngs Moduli (GPa) = 78.52685 139.85664 83.25205
#
# Poissons Ratio (x) = -0.02458 0.12596
# Poissons Ratio (y) = -0.01380 0.33824
# Poissons Ratio (z) = 0.11881 0.56821
#
# Static dielectric constant tensor:
#      x y z
#    x 1.955930 0.000000 0.000000 
#    y 0.000000 2.254710 0.000000 
#    z 0.000000 0.000000 2.025220 
# 
# From -- ./inp_files/5492.got.cif
#   From: 2010.05.17/outbox.cif.g08.bks.cpg/sg37_3_cif.got.tgz:5492.got - 2010.06.03 17:53:42.
