data_PCOD9355138
_publ_section_title
;
Structure prediction by ZEFSAII (Michael W. Deem and Ramdas Pophale) SiO2 
 PCOD9355138
Probable space group: C C C 2
;
_chemical_formula_sum "Si O2"
_cell_formula_units_Z 40
_cell_length_a 11.979969
_cell_length_b 9.073778
_cell_length_c 17.770438
_cell_angle_alpha 90.000000
_cell_angle_beta 90.000000
_cell_angle_gamma 90.000000
_cell_volume 1931.710214
_symmetry_space_group_name_H-M "C C C 2"
_symmetry_group_IT_number 37
_symmetry_cell_setting 'orthorhombic'
loop_
_space_group_symop_operation_xyz
x,y,z
-x,-y,z
-x,y,1/2+z
x,-y,1/2+z
1/2+x,1/2+y,z
1/2-x,1/2-y,z
1/2-x,1/2+y,1/2+z
1/2+x,1/2-y,1/2+z
loop_
_atom_site_type_symbol
_atom_site_label
_atom_site_fract_x
_atom_site_fract_y
_atom_site_fract_z
Si Si1 0.250000 0.250000 0.872010
Si Si2 0.557638 0.363228 0.109384
Si Si3 0.228026 0.915571 0.227366
Si Si4 0.750000 0.250000 0.998614
Si Si5 0.643070 0.856513 0.139916
Si Si6 0.371543 0.969344 0.471617
O O1 0.211300 0.119440 0.815117
O O2 0.339496 0.175858 0.925779
O O3 0.500000 0.500000 0.067086
O O4 0.619343 0.448260 0.178365
O O5 0.470858 0.238912 0.138755
O O6 0.645974 0.295011 0.051524
O O7 0.250000 0.750000 0.198048
O O8 0.328522 0.024828 0.205399
O O9 0.793319 0.391352 0.952729
O O10 0.750000 0.750000 0.141317
O O11 0.645034 0.940911 0.060484
O O12 0.500000 0.000000 0.457411
#
# Coordination Sequence:
#
# PCOD9355138 Si02
#       6
#     4   8   8   4   8   8
#     4  10  27  48  60  97 152 178 218 284 349 410
#     4  12  22  39  71 107 135 167 232 296 336 392
#     4  10  23  44  64  94 139 178 219 282 340 405
#     4  12  23  40  66 107 136 170 228 286 339 402
#     4  12  22  40  73 103 130 176 238 285 338 403
#     4  12  24  42  69 101 135 185 225 282 345 403
#
# _framework density 20.707039000000002
#
# number of rings (size 3 to 8) (size 9 to 14) (size 15 to 20)
#    0.600    0.000    8.000    0.000    0.000    1.600 
#    1.800    2.000    0.000    0.000    0.000    0.000 
#    0.000    0.000    0.000    0.000    0.000    0.000 
#
# Total GULP energy -111465.365273 kJ/mol
# GULP energy per Si atom -5573.268264 kJ/mol
# Density = 2.065991 g / cm^3
# Si number density = 20.707039 Si / 1000 Ang^3
#
#
#
# Elastic Constant Matrix: (Units=GPa)
#
#
# Indices 1 2 3 4 5 6 
#
# 1 112.9287 59.9764 21.4491 0.0000 0.0000 0.0000
# 2 59.9764 118.0602 29.0562 0.0000 0.0000 0.0000
# 3 21.4491 29.0562 63.9796 0.0000 0.0000 0.0000
# 4 0.0000 0.0000 0.0000 45.9545 0.0000 0.0000
# 5 0.0000 0.0000 0.0000 0.0000 2.3440 0.0000
# 6 0.0000 0.0000 0.0000 0.0000 0.0000 55.3547
#
#
#
# Elastic Compliance Matrix: (Units=1/GPa)
#
#
# Indices 1 2 3 4 5 6 
#
# 1 0.012244 -0.005865 -0.001441 0.000000 0.000000 0.000000
# 2 -0.005865 0.012346 -0.003641 0.000000 0.000000 0.000000
# 3 -0.001441 -0.003641 0.017766 0.000000 0.000000 0.000000
# 4 0.000000 0.000000 0.000000 0.021761 0.000000 0.000000
# 5 0.000000 0.000000 0.000000 0.000000 0.426613 0.000000
# 6 0.000000 0.000000 0.000000 0.000000 0.000000 0.018065
#
#
# Mechanical properties :
#
#
# Convention : Reuss Voigt Hill
#
# Bulk Modulus (GPa) = 48.87010 57.32579 53.09794
# Shear Modulus (GPa) = 9.30214 33.02976 21.16595
#
# Velocity S-wave (km/s) = 2.12179 3.99820 3.20060
# Velocity P-wave (km/s) = 5.44561 7.00417 6.27348
#
# Compressibility (1/GPa) = 0.02046241
#
# Stress axis : x y z
#
# Youngs Moduli (GPa) = 81.67264 80.99790 56.28604
#
# Poissons Ratio (x) = 0.47509 0.08111
# Poissons Ratio (y) = 0.47905 0.20491
# Poissons Ratio (z) = 0.11769 0.29487
#
# Static dielectric constant tensor:
#      x y z
#    x 1.898880 0.000000 0.000000 
#    y 0.000000 1.874550 0.000000 
#    z 0.000000 0.000000 1.733880 
# 
# From -- ./inp_files/14882.got.cif
#   From: 2010.05.17/outbox.cif.g08.bks.cpg/sg37_8_cif.got.tgz:14882.got - 2010.06.03 17:53:42.
