data_PCOD9355521
_publ_section_title
;
Structure prediction by ZEFSAII (Michael W. Deem and Ramdas Pophale) SiO2 
 PCOD9355521
Probable space group: C C C 2
;
_chemical_formula_sum "Si O2"
_cell_formula_units_Z 40
_cell_length_a 25.905772
_cell_length_b 8.047832
_cell_length_c 8.540350
_cell_angle_alpha 90.000000
_cell_angle_beta 90.000000
_cell_angle_gamma 90.000000
_cell_volume 1780.537439
_symmetry_space_group_name_H-M "C C C 2"
_symmetry_group_IT_number 37
_symmetry_cell_setting 'orthorhombic'
loop_
_space_group_symop_operation_xyz
x,y,z
-x,-y,z
-x,y,1/2+z
x,-y,1/2+z
1/2+x,1/2+y,z
1/2-x,1/2-y,z
1/2-x,1/2+y,1/2+z
1/2+x,1/2-y,1/2+z
loop_
_atom_site_type_symbol
_atom_site_label
_atom_site_fract_x
_atom_site_fract_y
_atom_site_fract_z
Si Si1 0.946252 0.453797 0.729810
Si Si2 0.655126 0.120228 0.938717
Si Si3 0.913141 0.853041 0.025234
Si Si4 0.307100 0.207300 0.116290
Si Si5 0.588443 0.302924 0.153441
O O1 0.896789 0.428312 0.840944
O O2 0.943792 0.292393 0.617303
O O3 0.938406 0.624653 0.634894
O O4 0.000000 0.500000 0.813004
O O5 0.693068 0.176955 0.802231
O O6 0.642016 0.262972 0.064145
O O7 0.674509 0.959888 0.030028
O O8 0.853596 0.836145 0.083254
O O9 0.933911 0.034245 0.071417
O O10 0.911448 0.832782 0.838879
O O11 0.250000 0.250000 0.060789
#
# Coordination Sequence:
#
# PCOD9355521 Si02
#       5
#     8   8   8   8   8
#     4  11  24  46  74 102 142 188 236 292 363 423
#     4  11  22  46  69 102 144 184 234 303 350 424
#     4  11  24  43  69 103 138 185 234 294 350 422
#     4  11  23  43  69 102 138 186 240 288 362 424
#     4  12  23  44  70  97 147 180 232 294 353 419
#
# _framework density 22.465126000000001
#
# number of rings (size 3 to 8) (size 9 to 14) (size 15 to 20)
#    0.000    0.800    6.000    2.400    0.000    7.200 
#    0.000    4.000    0.000    0.000    0.000    0.000 
#    0.000    0.000    0.000    0.000    0.000    0.000 
#
# Total GULP energy -111678.934210 kJ/mol
# GULP energy per Si atom -5583.946710 kJ/mol
# Density = 2.241399 g / cm^3
# Si number density = 22.465126 Si / 1000 Ang^3
#
#
#
# Elastic Constant Matrix: (Units=GPa)
#
#
# Indices 1 2 3 4 5 6 
#
# 1 91.8038 17.5003 22.2710 0.0000 0.0000 0.0000
# 2 17.5003 164.4130 46.6499 0.0000 0.0000 0.0000
# 3 22.2710 46.6499 120.4183 0.0000 0.0000 0.0000
# 4 0.0000 0.0000 0.0000 34.5796 0.0000 0.0000
# 5 0.0000 0.0000 0.0000 0.0000 20.4589 0.0000
# 6 0.0000 0.0000 0.0000 0.0000 0.0000 13.0587
#
#
#
# Elastic Compliance Matrix: (Units=1/GPa)
#
#
# Indices 1 2 3 4 5 6 
#
# 1 0.011475 -0.000696 -0.001853 0.000000 0.000000 0.000000
# 2 -0.000696 0.006876 -0.002535 0.000000 0.000000 0.000000
# 3 -0.001853 -0.002535 0.009629 0.000000 0.000000 0.000000
# 4 0.000000 0.000000 0.000000 0.028919 0.000000 0.000000
# 5 0.000000 0.000000 0.000000 0.000000 0.048878 0.000000
# 6 0.000000 0.000000 0.000000 0.000000 0.000000 0.076577
#
#
# Mechanical properties :
#
#
# Convention : Reuss Voigt Hill
#
# Bulk Modulus (GPa) = 56.13945 61.05305 58.59625
# Shear Modulus (GPa) = 25.19420 32.96704 29.08062
#
# Velocity S-wave (km/s) = 3.35248 3.83492 3.60179
# Velocity P-wave (km/s) = 6.32688 6.84431 6.59068
#
# Compressibility (1/GPa) = 0.01781279
#
# Stress axis : x y z
#
# Youngs Moduli (GPa) = 87.14695 145.44305 103.85226
#
# Poissons Ratio (x) = 0.10119 0.19241
# Poissons Ratio (y) = 0.06063 0.26326
# Poissons Ratio (z) = 0.16146 0.36868
#
# Static dielectric constant tensor:
#      x y z
#    x 1.939120 0.000000 0.000000 
#    y 0.000000 1.849410 0.000000 
#    z 0.000000 0.000000 1.852590 
# 
# From -- ./inp_files/2295.got.cif
#   From: 2010.05.17/outbox.cif.g08.bks.cpg/sg37_2_cif.got.tgz:2295.got - 2010.06.03 17:53:42.
