data_PCOD9355211
_publ_section_title
;
Structure prediction by ZEFSAII (Michael W. Deem and Ramdas Pophale) SiO2 
 PCOD9355211
Probable space group: C C C 2
;
_chemical_formula_sum "Si O2"
_cell_formula_units_Z 28
_cell_length_a 27.245551
_cell_length_b 4.744714
_cell_length_c 8.021220
_cell_angle_alpha 90.000000
_cell_angle_beta 90.000000
_cell_angle_gamma 90.000000
_cell_volume 1036.921937
_symmetry_space_group_name_H-M "C C C 2"
_symmetry_group_IT_number 37
_symmetry_cell_setting 'orthorhombic'
loop_
_space_group_symop_operation_xyz
x,y,z
-x,-y,z
-x,y,1/2+z
x,-y,1/2+z
1/2+x,1/2+y,z
1/2-x,1/2-y,z
1/2-x,1/2+y,1/2+z
1/2+x,1/2-y,1/2+z
loop_
_atom_site_type_symbol
_atom_site_label
_atom_site_fract_x
_atom_site_fract_y
_atom_site_fract_z
Si Si1 0.698737 0.676805 0.833830
Si Si2 0.094986 0.618257 0.312860
Si Si3 0.250000 0.750000 0.671555
Si Si4 0.555686 0.408332 0.997068
O O1 0.750000 0.750000 0.729511
O O2 0.650290 0.807425 0.760687
O O3 0.708185 0.346905 0.811370
O O4 0.708436 0.772611 0.020711
O O5 0.077992 0.309943 0.363226
O O6 0.087623 0.810429 0.478258
O O7 0.060417 0.752092 0.172501
O O8 0.500000 0.500000 0.968057
#
# Coordination Sequence:
#
# PCOD9355211 Si02
#       4
#     8   8   4   8
#     4  10  26  41  73 108 157 206 255 313 380 480
#     4  12  27  48  82 112 161 208 266 326 412 475
#     4  10  24  40  68 104 162 198 264 306 378 454
#     4  12  28  50  77 115 153 205 270 340 402 470
#
# _framework density 27.002998000000002
#
# number of rings (size 3 to 8) (size 9 to 14) (size 15 to 20)
#    0.857    0.000    0.000    5.143   10.000    2.286 
#    0.000    1.429    0.000    0.000    0.000    0.000 
#    0.000    0.000    0.000    0.000    0.000    0.000 
#
# Total GULP energy -77956.714735 kJ/mol
# GULP energy per Si atom -5568.336767 kJ/mol
# Density = 2.694154 g / cm^3
# Si number density = 27.002998 Si / 1000 Ang^3
#
#
#
# Elastic Constant Matrix: (Units=GPa)
#
#
# Indices 1 2 3 4 5 6 
#
# 1 207.7708 57.7798 27.6378 0.0000 0.0000 0.0000
# 2 57.7798 104.8692 37.2689 0.0000 0.0000 0.0000
# 3 27.6378 37.2689 118.3019 0.0000 0.0000 0.0000
# 4 0.0000 0.0000 0.0000 30.6987 0.0000 0.0000
# 5 0.0000 0.0000 0.0000 0.0000 28.1819 0.0000
# 6 0.0000 0.0000 0.0000 0.0000 0.0000 49.0037
#
#
#
# Elastic Compliance Matrix: (Units=1/GPa)
#
#
# Indices 1 2 3 4 5 6 
#
# 1 0.005699 -0.003003 -0.000385 0.000000 0.000000 0.000000
# 2 -0.003003 0.012320 -0.003180 0.000000 0.000000 0.000000
# 3 -0.000385 -0.003180 0.009545 0.000000 0.000000 0.000000
# 4 0.000000 0.000000 0.000000 0.032575 0.000000 0.000000
# 5 0.000000 0.000000 0.000000 0.000000 0.035484 0.000000
# 6 0.000000 0.000000 0.000000 0.000000 0.000000 0.020407
#
#
# Mechanical properties :
#
#
# Convention : Reuss Voigt Hill
#
# Bulk Modulus (GPa) = 69.31038 75.14608 72.22823
# Shear Modulus (GPa) = 37.32024 42.12723 39.72374
#
# Velocity S-wave (km/s) = 3.72166 3.95409 3.83964
# Velocity P-wave (km/s) = 6.64764 6.98109 6.81640
#
# Compressibility (1/GPa) = 0.01442785
#
# Stress axis : x y z
#
# Youngs Moduli (GPa) = 175.45555 81.16616 104.77029
#
# Poissons Ratio (x) = 0.24376 0.04038
# Poissons Ratio (y) = 0.52694 0.33314
# Poissons Ratio (z) = 0.06762 0.25808
#
# Static dielectric constant tensor:
#      x y z
#    x 2.188370 0.000000 0.000000 
#    y 0.000000 1.510980 0.000000 
#    z 0.000000 0.000000 2.048650 
# 
# From -- ./inp_files/4714.got.cif
#   From: 2010.05.17/outbox.cif.g08.bks.cpg/sg37_3_cif.got.tgz:4714.got - 2010.06.03 17:53:42.
