data_PCOD9355011
_publ_section_title
;
Structure prediction by ZEFSAII (Michael W. Deem and Ramdas Pophale) SiO2 
 PCOD9355011
Probable space group: C C C 2
;
_chemical_formula_sum "Si O2"
_cell_formula_units_Z 64
_cell_length_a 8.194209
_cell_length_b 28.409140
_cell_length_c 12.042033
_cell_angle_alpha 90.000000
_cell_angle_beta 90.000000
_cell_angle_gamma 90.000000
_cell_volume 2803.270048
_symmetry_space_group_name_H-M "C C C 2"
_symmetry_group_IT_number 37
_symmetry_cell_setting 'orthorhombic'
loop_
_space_group_symop_operation_xyz
x,y,z
-x,-y,z
-x,y,1/2+z
x,-y,1/2+z
1/2+x,1/2+y,z
1/2-x,1/2-y,z
1/2-x,1/2+y,1/2+z
1/2+x,1/2-y,1/2+z
loop_
_atom_site_type_symbol
_atom_site_label
_atom_site_fract_x
_atom_site_fract_y
_atom_site_fract_z
Si Si1 0.672835 0.173516 0.502450
Si Si2 0.969541 0.946979 0.635016
Si Si3 0.406065 0.951181 0.137926
Si Si4 0.608945 0.350443 0.083009
Si Si5 0.636915 0.709978 0.786145
Si Si6 0.614219 0.113169 0.952036
Si Si7 0.439995 0.742835 0.965740
Si Si8 0.281631 0.891629 0.709309
O O1 0.772039 0.192954 0.396899
O O2 0.568504 0.131242 0.447691
O O3 0.552414 0.217917 0.522899
O O4 0.737765 0.150099 0.617544
O O5 0.132342 0.929520 0.700448
O O6 0.781565 0.948268 0.683385
O O7 0.958482 0.902021 0.553164
O O8 0.000000 0.000000 0.594246
O O9 0.539826 0.914408 0.184469
O O10 0.500000 0.000000 0.153032
O O11 0.385044 0.938611 0.006376
O O12 0.601152 0.334809 0.210495
O O13 0.795123 0.355633 0.045108
O O14 0.529670 0.307433 0.021285
O O15 0.750000 0.750000 0.729496
O O16 0.482676 0.737516 0.835597
O O17 0.706116 0.122500 0.837651
O O18 0.250000 0.750000 0.976903
#
# Coordination Sequence:
#
# PCOD9355011 Si02
#       8
#     8   8   8   8   8   8   8   8
#     4  10  23  42  70 100 141 188 237 291 361 434
#     4  11  24  45  72 103 137 192 236 303 362 422
#     4  10  22  46  71 101 144 183 244 302 367 431
#     4  11  24  43  70 100 145 182 238 296 360 429
#     4  10  24  42  68  98 137 186 236 289 358 430
#     4  10  24  39  69 104 141 192 233 296 368 431
#     4  11  22  42  65 105 142 183 238 290 365 432
#     4  11  24  46  70 105 150 182 250 295 357 449
#
# _framework density 22.830480999999999
#
# number of rings (size 3 to 8) (size 9 to 14) (size 15 to 20)
#    0.000    1.500    2.500    1.125    7.000    1.500 
#    0.000    3.125    0.000    0.000    0.000    0.000 
#    0.000    0.000    0.000    0.000    0.000    0.000 
#
# Total GULP energy -178156.235877 kJ/mol
# GULP energy per Si atom -5567.382371 kJ/mol
# Density = 2.277852 g / cm^3
# Si number density = 22.830481 Si / 1000 Ang^3
#
#
#
# Elastic Constant Matrix: (Units=GPa)
#
#
# Indices 1 2 3 4 5 6 
#
# 1 115.6038 28.6611 34.8496 0.0000 0.0000 0.0000
# 2 28.6611 126.9394 23.9573 0.0000 0.0000 0.0000
# 3 34.8496 23.9573 67.7877 0.0000 0.0000 0.0000
# 4 0.0000 0.0000 0.0000 14.2265 0.0000 0.0000
# 5 0.0000 0.0000 0.0000 0.0000 16.4845 0.0000
# 6 0.0000 0.0000 0.0000 0.0000 0.0000 36.5170
#
#
#
# Elastic Compliance Matrix: (Units=1/GPa)
#
#
# Indices 1 2 3 4 5 6 
#
# 1 0.010479 -0.001446 -0.004876 0.000000 0.000000 0.000000
# 2 -0.001446 0.008640 -0.002310 0.000000 0.000000 0.000000
# 3 -0.004876 -0.002310 0.018075 0.000000 0.000000 0.000000
# 4 0.000000 0.000000 0.000000 0.070291 0.000000 0.000000
# 5 0.000000 0.000000 0.000000 0.000000 0.060663 0.000000
# 6 0.000000 0.000000 0.000000 0.000000 0.000000 0.027385
#
#
# Mechanical properties :
#
#
# Convention : Reuss Voigt Hill
#
# Bulk Modulus (GPa) = 50.17619 53.91855 52.04737
# Shear Modulus (GPa) = 22.78523 28.30314 25.54418
#
# Velocity S-wave (km/s) = 3.16257 3.52477 3.34857
# Velocity P-wave (km/s) = 5.94653 6.34299 6.14796
#
# Compressibility (1/GPa) = 0.01992977
#
# Stress axis : x y z
#
# Youngs Moduli (GPa) = 95.43278 115.73783 55.32424
#
# Poissons Ratio (x) = 0.16732 0.26977
# Poissons Ratio (y) = 0.13796 0.12782
# Poissons Ratio (z) = 0.46534 0.26740
#
# Static dielectric constant tensor:
#      x y z
#    x 2.012500 0.000000 0.000000 
#    y 0.000000 1.912700 0.000000 
#    z 0.000000 0.000000 1.848400 
# 
# From -- ./inp_files/6637.got.cif
#   From: 2010.05.17/outbox.cif.g08.bks.cpg/sg37_4_cif.got.tgz:6637.got - 2010.06.03 17:53:42.
