data_PCOD9355554
_publ_section_title
;
Structure prediction by ZEFSAII (Michael W. Deem and Ramdas Pophale) SiO2 
 PCOD9355554
Probable space group: C C C 2
;
_chemical_formula_sum "Si O2"
_cell_formula_units_Z 48
_cell_length_a 16.667164
_cell_length_b 13.974367
_cell_length_c 9.975631
_cell_angle_alpha 90.000000
_cell_angle_beta 90.000000
_cell_angle_gamma 90.000000
_cell_volume 2323.454807
_symmetry_space_group_name_H-M "C C C 2"
_symmetry_group_IT_number 37
_symmetry_cell_setting 'orthorhombic'
loop_
_space_group_symop_operation_xyz
x,y,z
-x,-y,z
-x,y,1/2+z
x,-y,1/2+z
1/2+x,1/2+y,z
1/2-x,1/2-y,z
1/2-x,1/2+y,1/2+z
1/2+x,1/2-y,1/2+z
loop_
_atom_site_type_symbol
_atom_site_label
_atom_site_fract_x
_atom_site_fract_y
_atom_site_fract_z
Si Si1 0.345451 0.993077 0.556650
Si Si2 0.780388 0.854626 0.518212
Si Si3 0.470427 0.391703 0.537101
Si Si4 0.811452 0.681887 0.243346
Si Si5 0.429348 0.074092 0.793869
Si Si6 0.482024 0.728634 0.788222
O O1 0.342591 0.899837 0.647822
O O2 0.364361 0.960105 0.405094
O O3 0.265051 0.053711 0.575930
O O4 0.408459 0.060454 0.636302
O O5 0.750000 0.750000 0.571878
O O6 0.874125 0.874799 0.536558
O O7 0.744481 0.853073 0.366240
O O8 0.500000 0.500000 0.562609
O O9 0.506365 0.317303 0.643350
O O10 0.498589 0.355806 0.392191
O O11 0.750000 0.750000 0.164619
O O12 0.890649 0.733111 0.301171
O O13 0.459777 0.181629 0.813685
O O14 0.500000 0.000000 0.822190
#
# Coordination Sequence:
#
# PCOD9355554 Si02
#       6
#     8   8   8   8   8   8
#     4  12  24  43  69 108 137 184 239 299 351 445
#     4  11  23  47  71  95 142 199 235 289 373 442
#     4  12  28  47  75 104 145 191 248 301 373 438
#     4  11  23  43  72  97 140 192 232 285 366 434
#     4  12  25  40  71 108 145 175 234 298 371 426
#     4  12  25  47  71 107 143 188 238 304 366 442
#
# _framework density 20.65889
#
# number of rings (size 3 to 8) (size 9 to 14) (size 15 to 20)
#    0.000    0.333    6.667    3.000    4.667    1.333 
#    0.000    0.833    0.000    0.000    0.000    0.000 
#    0.000    0.000    0.000    0.000    0.000    0.000 
#
# Total GULP energy -133900.623643 kJ/mol
# GULP energy per Si atom -5579.192652 kJ/mol
# Density = 2.061187 g / cm^3
# Si number density = 20.658890 Si / 1000 Ang^3
#
#
#
# Elastic Constant Matrix: (Units=GPa)
#
#
# Indices 1 2 3 4 5 6 
#
# 1 81.2582 28.4596 2.4230 0.0000 0.0000 0.0000
# 2 28.4596 99.1646 -7.0926 0.0000 0.0000 0.0000
# 3 2.4230 -7.0926 51.1602 0.0000 0.0000 0.0000
# 4 0.0000 0.0000 0.0000 -9.8762 0.0000 0.0000
# 5 0.0000 0.0000 0.0000 0.0000 4.3185 0.0000
# 6 0.0000 0.0000 0.0000 0.0000 0.0000 38.6954
#
#
#
# Elastic Compliance Matrix: (Units=1/GPa)
#
#
# Indices 1 2 3 4 5 6 
#
# 1 0.013756 -0.004034 -0.001211 0.000000 0.000000 0.000000
# 2 -0.004034 0.011368 0.001767 0.000000 0.000000 0.000000
# 3 -0.001211 0.001767 0.019849 0.000000 0.000000 0.000000
# 4 0.000000 0.000000 0.000000 -0.101254 0.000000 0.000000
# 5 0.000000 0.000000 0.000000 0.000000 0.231560 0.000000
# 6 0.000000 0.000000 0.000000 0.000000 0.000000 0.025843
#
#
# Mechanical properties :
#
#
# Convention : Reuss Voigt Hill
#
# Bulk Modulus (GPa) = 26.30419 31.01814 28.66116
# Shear Modulus (GPa) = 22.65006 20.48042 21.56524
#
# Velocity S-wave (km/s) = 3.31476 3.15200 3.23441
# Velocity P-wave (km/s) = 5.23550 5.31920 5.27751
#
# Compressibility (1/GPa) = 0.03801676
#
# Stress axis : x y z
#
# Youngs Moduli (GPa) = 72.69806 87.96256 50.38097
#
# Poissons Ratio (x) = 0.35487 0.06100
# Poissons Ratio (y) = 0.29329 -0.08903
# Poissons Ratio (z) = 0.08802 -0.15544
#
# Static dielectric constant tensor:
#      x y z
#    x 1.808760 0.000000 0.000000 
#    y 0.000000 1.778900 0.000000 
#    z 0.000000 0.000000 1.748420 
# 
# From -- ./inp_files/3972.got.cif
#   From: 2010.05.17/outbox.cif.g08.bks.cpg/sg37_2_cif.got.tgz:3972.got - 2010.06.03 17:53:42.
