data_PCOD9355657
_publ_section_title
;
Structure prediction by ZEFSAII (Michael W. Deem and Ramdas Pophale) SiO2 
 PCOD9355657
Probable space group: C C C 2
;
_chemical_formula_sum "Si O2"
_cell_formula_units_Z 40
_cell_length_a 20.748143
_cell_length_b 11.685552
_cell_length_c 7.586587
_cell_angle_alpha 90.000000
_cell_angle_beta 90.000000
_cell_angle_gamma 90.000000
_cell_volume 1839.394601
_symmetry_space_group_name_H-M "C C C 2"
_symmetry_group_IT_number 37
_symmetry_cell_setting 'orthorhombic'
loop_
_space_group_symop_operation_xyz
x,y,z
-x,-y,z
-x,y,1/2+z
x,-y,1/2+z
1/2+x,1/2+y,z
1/2-x,1/2-y,z
1/2-x,1/2+y,1/2+z
1/2+x,1/2-y,1/2+z
loop_
_atom_site_type_symbol
_atom_site_label
_atom_site_fract_x
_atom_site_fract_y
_atom_site_fract_z
Si Si1 0.709369 0.103929 0.833070
Si Si2 0.541161 0.615823 0.176926
Si Si3 0.417075 0.307490 0.804450
Si Si4 0.804268 0.657102 0.921302
Si Si5 0.150049 0.175886 0.456739
O O1 0.703814 0.144555 0.631467
O O2 0.780547 0.127424 0.907484
O O3 0.660315 0.186033 0.941530
O O4 0.701311 0.968584 0.841560
O O5 0.500000 0.500000 0.197266
O O6 0.486358 0.712114 0.213411
O O7 0.597389 0.634286 0.316609
O O8 0.569007 0.621606 0.981106
O O9 0.373543 0.638972 0.149568
O O10 0.374586 0.203312 0.873402
O O11 0.750000 0.750000 0.861664
#
# Coordination Sequence:
#
# PCOD9355657 Si02
#       5
#     8   8   8   8   8
#     4  11  25  50  76 113 155 196 259 324 388 468
#     4  12  26  46  73 111 153 203 254 319 381 458
#     4  12  26  45  73 106 154 196 255 306 387 451
#     4  12  26  46  78 112 154 201 256 322 390 465
#     4  11  25  49  77 110 155 202 254 317 393 465
#
# _framework density 21.746285
#
# number of rings (size 3 to 8) (size 9 to 14) (size 15 to 20)
#    0.000    0.400    6.000    1.800    8.400    0.800 
#    0.000    1.000    0.000    0.000    0.000    0.000 
#    0.000    0.000    0.000    0.000    0.000    0.000 
#
# Total GULP energy -111899.010626 kJ/mol
# GULP energy per Si atom -5594.950531 kJ/mol
# Density = 2.169679 g / cm^3
# Si number density = 21.746285 Si / 1000 Ang^3
#
#
#
# Elastic Constant Matrix: (Units=GPa)
#
#
# Indices 1 2 3 4 5 6 
#
# 1 143.9758 67.8664 77.3771 0.0000 0.0000 0.0000
# 2 67.8664 150.1586 37.5629 0.0000 0.0000 0.0000
# 3 77.3771 37.5629 171.3894 0.0000 0.0000 0.0000
# 4 0.0000 0.0000 0.0000 33.3150 0.0000 0.0000
# 5 0.0000 0.0000 0.0000 0.0000 36.4098 0.0000
# 6 0.0000 0.0000 0.0000 0.0000 0.0000 34.5018
#
#
#
# Elastic Compliance Matrix: (Units=1/GPa)
#
#
# Indices 1 2 3 4 5 6 
#
# 1 0.011015 -0.003951 -0.004107 0.000000 0.000000 0.000000
# 2 -0.003951 0.008463 -0.000071 0.000000 0.000000 0.000000
# 3 -0.004107 -0.000071 0.007704 0.000000 0.000000 0.000000
# 4 0.000000 0.000000 0.000000 0.030017 0.000000 0.000000
# 5 0.000000 0.000000 0.000000 0.000000 0.027465 0.000000
# 6 0.000000 0.000000 0.000000 0.000000 0.000000 0.028984
#
#
# Mechanical properties :
#
#
# Convention : Reuss Voigt Hill
#
# Bulk Modulus (GPa) = 91.53819 92.34851 91.94335
# Shear Modulus (GPa) = 37.43949 39.69315 38.56632
#
# Velocity S-wave (km/s) = 4.15378 4.27697 4.21582
# Velocity P-wave (km/s) = 8.07405 8.18221 8.12831
#
# Compressibility (1/GPa) = 0.01092440
#
# Stress axis : x y z
#
# Youngs Moduli (GPa) = 90.78211 118.15907 129.79450
#
# Poissons Ratio (x) = 0.46686 0.53309
# Poissons Ratio (y) = 0.35869 0.00922
# Poissons Ratio (z) = 0.37286 0.00839
#
# Static dielectric constant tensor:
#      x y z
#    x 1.780760 0.000000 0.000000 
#    y 0.000000 1.839740 0.000000 
#    z 0.000000 0.000000 1.821950 
# 
# From -- ./inp_files/8528.got.cif
#   From: 2010.05.17/outbox.cif.g08.bks.cpg/sg37_5_cif.got.tgz:8528.got - 2010.06.03 17:53:42.
