data_PCOD9355264
_publ_section_title
;
Structure prediction by ZEFSAII (Michael W. Deem and Ramdas Pophale) SiO2 
 PCOD9355264
Probable space group: C C C 2
;
_chemical_formula_sum "Si O2"
_cell_formula_units_Z 56
_cell_length_a 8.686580
_cell_length_b 12.972304
_cell_length_c 25.867416
_cell_angle_alpha 90.000000
_cell_angle_beta 90.000000
_cell_angle_gamma 90.000000
_cell_volume 2914.868646
_symmetry_space_group_name_H-M "C C C 2"
_symmetry_group_IT_number 37
_symmetry_cell_setting 'orthorhombic'
loop_
_space_group_symop_operation_xyz
x,y,z
-x,-y,z
-x,y,1/2+z
x,-y,1/2+z
1/2+x,1/2+y,z
1/2-x,1/2-y,z
1/2-x,1/2+y,1/2+z
1/2+x,1/2-y,1/2+z
loop_
_atom_site_type_symbol
_atom_site_label
_atom_site_fract_x
_atom_site_fract_y
_atom_site_fract_z
Si Si1 0.821441 0.972934 0.182970
Si Si2 0.983325 0.379341 0.493464
Si Si3 0.250000 0.750000 0.424756
Si Si4 0.881236 0.330840 0.197644
Si Si5 0.987145 0.881187 0.374217
Si Si6 0.900742 0.803696 0.266711
Si Si7 0.862245 0.650854 0.108559
Si Si8 0.750000 0.250000 0.941689
O O1 0.834184 0.873914 0.220314
O O2 0.744122 0.942268 0.128870
O O3 0.712451 0.062630 0.206710
O O4 0.000000 0.000000 0.175654
O O5 0.135950 0.317391 0.477068
O O6 0.000000 0.500000 0.481544
O O7 0.848477 0.326524 0.460384
O O8 0.939161 0.366594 0.553426
O O9 0.137147 0.817855 0.390317
O O10 0.750000 0.250000 0.181992
O O11 0.975894 0.278610 0.244817
O O12 0.005472 0.340944 0.152025
O O13 0.969137 0.871489 0.312519
O O14 0.849162 0.826069 0.405350
O O15 0.000000 0.000000 0.389190
O O16 0.750000 0.750000 0.289280
O O17 0.750000 0.750000 0.107442
#
# Coordination Sequence:
#
# PCOD9355264 Si02
#       8
#     8   8   4   8   8   8   8   4
#     4  12  23  42  63  94 131 175 216 264 324 391
#     4  11  23  44  69  96 129 170 216 273 332 386
#     4  10  24  44  68  94 130 166 220 280 324 390
#     4  12  24  40  64  91 130 173 214 262 321 384
#     4  11  24  43  68  96 129 171 217 271 332 387
#     4  12  24  42  63  94 135 169 217 270 319 389
#     4  12  23  44  64  95 134 170 217 269 322 393
#     4  10  24  46  68  96 128 168 220 270 332 394
#
# _framework density 19.211843999999999
#
# number of rings (size 3 to 8) (size 9 to 14) (size 15 to 20)
#    0.000    0.571    5.714    2.571    2.000    0.000 
#    2.571    0.714    0.000    0.000    0.000    0.000 
#    0.000    0.000    0.000    0.000    0.000    0.000 
#
# Total GULP energy -156435.359100 kJ/mol
# GULP energy per Si atom -5586.977111 kJ/mol
# Density = 1.916812 g / cm^3
# Si number density = 19.211844 Si / 1000 Ang^3
#
#
#
# Elastic Constant Matrix: (Units=GPa)
#
#
# Indices 1 2 3 4 5 6 
#
# 1 133.0032 60.3091 37.5843 0.0000 0.0000 0.0000
# 2 60.3091 140.1559 35.6022 0.0000 0.0000 0.0000
# 3 37.5843 35.6022 87.2694 0.0000 0.0000 0.0000
# 4 0.0000 0.0000 0.0000 18.4638 0.0000 0.0000
# 5 0.0000 0.0000 0.0000 0.0000 -3.3940 0.0000
# 6 0.0000 0.0000 0.0000 0.0000 0.0000 24.6487
#
#
#
# Elastic Compliance Matrix: (Units=1/GPa)
#
#
# Indices 1 2 3 4 5 6 
#
# 1 0.009929 -0.003555 -0.002826 0.000000 0.000000 0.000000
# 2 -0.003555 0.009232 -0.002236 0.000000 0.000000 0.000000
# 3 -0.002826 -0.002236 0.013588 0.000000 0.000000 0.000000
# 4 0.000000 0.000000 0.000000 0.054160 0.000000 0.000000
# 5 0.000000 0.000000 0.000000 0.000000 -0.294636 0.000000
# 6 0.000000 0.000000 0.000000 0.000000 0.000000 0.040570
#
#
# Mechanical properties :
#
#
# Convention : Reuss Voigt Hill
#
# Bulk Modulus (GPa) = 64.44583 69.71330 67.07956
# Shear Modulus (GPa) = -34.54192 23.07255 -5.73469
#
# Velocity S-wave (km/s) = -4.24482 3.46924 -1.72958
# Velocity P-wave (km/s) = 3.09725 7.23967 5.56803
#
# Compressibility (1/GPa) = 0.01551691
#
# Stress axis : x y z
#
# Youngs Moduli (GPa) = 100.71524 108.31519 73.59515
#
# Poissons Ratio (x) = 0.38502 0.20798
# Poissons Ratio (y) = 0.35800 0.16452
# Poissons Ratio (z) = 0.28462 0.24214
#
# Static dielectric constant tensor:
#      x y z
#    x 1.670400 0.000000 0.000000 
#    y 0.000000 1.675240 0.000000 
#    z 0.000000 0.000000 1.630990 
# 
# From -- ./inp_files/19686.got.cif
#   From: 2010.05.17/outbox.cif.g08.bks.cpg/sg37_10_cif.got.tgz:19686.got - 2010.06.03 17:53:42.
