data_PCOD9355739
_publ_section_title
;
Structure prediction by ZEFSAII (Michael W. Deem and Ramdas Pophale) SiO2 
 PCOD9355739
Probable space group: C C C 2
;
_chemical_formula_sum "Si O2"
_cell_formula_units_Z 44
_cell_length_a 5.372136
_cell_length_b 25.113987
_cell_length_c 14.921997
_cell_angle_alpha 90.000000
_cell_angle_beta 90.000000
_cell_angle_gamma 90.000000
_cell_volume 2013.212471
_symmetry_space_group_name_H-M "C C C 2"
_symmetry_group_IT_number 37
_symmetry_cell_setting 'orthorhombic'
loop_
_space_group_symop_operation_xyz
x,y,z
-x,-y,z
-x,y,1/2+z
x,-y,1/2+z
1/2+x,1/2+y,z
1/2-x,1/2-y,z
1/2-x,1/2+y,1/2+z
1/2+x,1/2-y,1/2+z
loop_
_atom_site_type_symbol
_atom_site_label
_atom_site_fract_x
_atom_site_fract_y
_atom_site_fract_z
Si Si1 0.250000 0.750000 0.973511
Si Si2 0.633054 0.808822 0.044674
Si Si3 0.668689 0.585266 0.755600
Si Si4 0.678745 0.914908 0.148073
Si Si5 0.000000 0.000000 0.399721
Si Si6 0.348138 0.304917 0.852019
Si Si7 0.500000 0.000000 0.504844
O O1 0.412476 0.715795 0.904727
O O2 0.344251 0.795336 0.041448
O O3 0.750000 0.750000 0.060197
O O4 0.698034 0.854732 0.111746
O O5 0.683974 0.821737 0.939354
O O6 0.949994 0.579629 0.718624
O O7 0.610182 0.547399 0.839187
O O8 0.629287 0.646163 0.786408
O O9 0.449940 0.570557 0.685780
O O10 0.598945 0.952219 0.066472
O O11 0.750775 0.981758 0.452643
O O12 0.250000 0.250000 0.808637
#
# Coordination Sequence:
#
# PCOD9355739 Si02
#       7
#     4   8   8   8   4   8   4
#     4   8  18  36  64  86 132 164 240 260 304 384
#     4   9  21  39  64  94 129 182 229 268 314 399
#     4  12  27  43  67 101 141 169 213 284 346 392
#     4  12  27  43  67 101 141 169 213 284 346 392
#     4  12  26  48  76  96 126 180 234 272 326 412
#     4   9  21  39  64  94 129 182 229 268 314 399
#     4  12  26  48  76  96 126 180 234 272 326 412
#
# _framework density 21.855619000000001
#
# number of rings (size 3 to 8) (size 9 to 14) (size 15 to 20)
#    0.000    1.818    0.000    4.364   12.727    1.455 
#    0.000    0.000    0.000    0.000    0.000    0.000 
#    0.000    0.000    0.000    0.000    0.000    0.000 
#
# Total GULP energy -122618.747121 kJ/mol
# GULP energy per Si atom -5573.579415 kJ/mol
# Density = 2.180587 g / cm^3
# Si number density = 21.855619 Si / 1000 Ang^3
#
#
#
# Elastic Constant Matrix: (Units=GPa)
#
#
# Indices 1 2 3 4 5 6 
#
# 1 54.9423 1.8426 10.4268 0.0000 0.0000 0.0000
# 2 1.8426 87.2331 24.3601 0.0000 0.0000 0.0000
# 3 10.4268 24.3601 46.6477 0.0000 0.0000 0.0000
# 4 0.0000 0.0000 0.0000 43.3530 0.0000 0.0000
# 5 0.0000 0.0000 0.0000 0.0000 -233.0076 0.0000
# 6 0.0000 0.0000 0.0000 0.0000 0.0000 19.2905
#
#
#
# Elastic Compliance Matrix: (Units=1/GPa)
#
#
# Indices 1 2 3 4 5 6 
#
# 1 0.019070 0.000922 -0.004744 0.000000 0.000000 0.000000
# 2 0.000922 0.013465 -0.007238 0.000000 0.000000 0.000000
# 3 -0.004744 -0.007238 0.026277 0.000000 0.000000 0.000000
# 4 0.000000 0.000000 0.000000 0.023066 0.000000 0.000000
# 5 0.000000 0.000000 0.000000 0.000000 -0.004292 0.000000
# 6 0.000000 0.000000 0.000000 0.000000 0.000000 0.051839
#
#
# Mechanical properties :
#
#
# Convention : Reuss Voigt Hill
#
# Bulk Modulus (GPa) = 27.25313 29.12025 28.18669
# Shear Modulus (GPa) = 30.52922 -23.92658 3.30132
#
# Velocity S-wave (km/s) = 3.74151 -3.31230 1.23036
# Velocity P-wave (km/s) = 5.58229 1.12942 3.86564
#
# Compressibility (1/GPa) = 0.03669304
#
# Stress axis : x y z
#
# Youngs Moduli (GPa) = 52.43749 74.26532 38.05558
#
# Poissons Ratio (x) = -0.06847 0.18054
# Poissons Ratio (y) = -0.04835 0.27544
# Poissons Ratio (z) = 0.24877 0.53752
#
# Static dielectric constant tensor:
#      x y z
#    x 2.029510 0.000000 0.000000 
#    y 0.000000 1.774980 0.000000 
#    z 0.000000 0.000000 1.811070 
# 
# From -- ./inp_files/9730.got.cif
#   From: 2010.05.17/outbox.cif.g08.bks.cpg/sg37_5_cif.got.tgz:9730.got - 2010.06.03 17:53:42.
