data_PCOD9355291
_publ_section_title
;
Structure prediction by ZEFSAII (Michael W. Deem and Ramdas Pophale) SiO2 
 PCOD9355291
Probable space group: C C C 2
;
_chemical_formula_sum "Si O2"
_cell_formula_units_Z 36
_cell_length_a 14.628267
_cell_length_b 5.323961
_cell_length_c 18.127616
_cell_angle_alpha 90.000000
_cell_angle_beta 90.000000
_cell_angle_gamma 90.000000
_cell_volume 1411.784589
_symmetry_space_group_name_H-M "C C C 2"
_symmetry_group_IT_number 37
_symmetry_cell_setting 'orthorhombic'
loop_
_space_group_symop_operation_xyz
x,y,z
-x,-y,z
-x,y,1/2+z
x,-y,1/2+z
1/2+x,1/2+y,z
1/2-x,1/2-y,z
1/2-x,1/2+y,1/2+z
1/2+x,1/2-y,1/2+z
loop_
_atom_site_type_symbol
_atom_site_label
_atom_site_fract_x
_atom_site_fract_y
_atom_site_fract_z
Si Si1 0.889952 0.457278 0.128450
Si Si2 0.000000 0.500000 0.384851
Si Si3 0.645746 0.286014 0.287126
Si Si4 0.390264 0.537234 0.549228
Si Si5 0.350463 0.362178 0.404131
O O1 0.862306 0.332167 0.206449
O O2 0.858550 0.733475 0.101637
O O3 0.000000 0.500000 0.130132
O O4 0.856498 0.237455 0.073949
O O5 0.070373 0.644700 0.333695
O O6 0.065920 0.315606 0.428587
O O7 0.750000 0.250000 0.311930
O O8 0.629972 0.569194 0.317782
O O9 0.500000 0.500000 0.556250
O O10 0.359739 0.582680 0.464866
O O11 0.250000 0.250000 0.408505
#
# Coordination Sequence:
#
# PCOD9355291 Si02
#       5
#     8   4   8   8   8
#     4  10  24  45  77 110 155 215 263 327 403 478
#     4  12  26  48  80 114 164 210 262 348 400 484
#     4  12  26  47  78 117 157 213 273 330 408 486
#     4  10  24  46  77 111 157 211 267 324 408 477
#     4  12  28  48  81 120 161 212 274 337 413 488
#
# _framework density 25.499641
#
# number of rings (size 3 to 8) (size 9 to 14) (size 15 to 20)
#    0.000    0.889    3.333    2.000   10.889    2.667 
#    0.000    2.222    0.000    0.000    0.000    0.000 
#    0.000    0.000    0.000    0.000    0.000    0.000 
#
# Total GULP energy -100507.418384 kJ/mol
# GULP energy per Si atom -5583.745466 kJ/mol
# Density = 2.544160 g / cm^3
# Si number density = 25.499641 Si / 1000 Ang^3
#
#
#
# Elastic Constant Matrix: (Units=GPa)
#
#
# Indices 1 2 3 4 5 6 
#
# 1 154.4621 51.9514 38.0228 0.0000 0.0000 0.0000
# 2 51.9514 137.0829 61.3087 0.0000 0.0000 0.0000
# 3 38.0228 61.3087 159.2277 0.0000 0.0000 0.0000
# 4 0.0000 0.0000 0.0000 25.6790 0.0000 0.0000
# 5 0.0000 0.0000 0.0000 0.0000 9.2400 0.0000
# 6 0.0000 0.0000 0.0000 0.0000 0.0000 16.6336
#
#
#
# Elastic Compliance Matrix: (Units=1/GPa)
#
#
# Indices 1 2 3 4 5 6 
#
# 1 0.007512 -0.002470 -0.000843 0.000000 0.000000 0.000000
# 2 -0.002470 0.009625 -0.003116 0.000000 0.000000 0.000000
# 3 -0.000843 -0.003116 0.007681 0.000000 0.000000 0.000000
# 4 0.000000 0.000000 0.000000 0.038942 0.000000 0.000000
# 5 0.000000 0.000000 0.000000 0.000000 0.108225 0.000000
# 6 0.000000 0.000000 0.000000 0.000000 0.000000 0.060119
#
#
# Mechanical properties :
#
#
# Convention : Reuss Voigt Hill
#
# Bulk Modulus (GPa) = 83.60877 83.70429 83.65653
# Shear Modulus (GPa) = 20.08441 30.27650 25.18046
#
# Velocity S-wave (km/s) = 2.80953 3.44950 3.14583
# Velocity P-wave (km/s) = 6.58665 6.98301 6.78772
#
# Compressibility (1/GPa) = 0.01196047
#
# Stress axis : x y z
#
# Youngs Moduli (GPa) = 133.11454 103.90111 130.18541
#
# Poissons Ratio (x) = 0.25664 0.10973
# Poissons Ratio (y) = 0.32880 0.40565
# Poissons Ratio (z) = 0.11219 0.32375
#
# Static dielectric constant tensor:
#      x y z
#    x 1.950440 0.000000 0.000000 
#    y 0.000000 2.168930 0.000000 
#    z 0.000000 0.000000 2.038690 
# 
# From -- ./inp_files/17016.got.cif
#   From: 2010.05.17/outbox.cif.g08.bks.cpg/sg37_9_cif.got.tgz:17016.got - 2010.06.03 17:53:42.
