data_PCOD9355273
_publ_section_title
;
Structure prediction by ZEFSAII (Michael W. Deem and Ramdas Pophale) SiO2 
 PCOD9355273
Probable space group: C C C 2
;
_chemical_formula_sum "Si O2"
_cell_formula_units_Z 60
_cell_length_a 18.501235
_cell_length_b 15.323566
_cell_length_c 9.224598
_cell_angle_alpha 90.000000
_cell_angle_beta 90.000000
_cell_angle_gamma 90.000000
_cell_volume 2615.218693
_symmetry_space_group_name_H-M "C C C 2"
_symmetry_group_IT_number 37
_symmetry_cell_setting 'orthorhombic'
loop_
_space_group_symop_operation_xyz
x,y,z
-x,-y,z
-x,y,1/2+z
x,-y,1/2+z
1/2+x,1/2+y,z
1/2-x,1/2-y,z
1/2-x,1/2+y,1/2+z
1/2+x,1/2-y,1/2+z
loop_
_atom_site_type_symbol
_atom_site_label
_atom_site_fract_x
_atom_site_fract_y
_atom_site_fract_z
Si Si1 0.886596 0.970310 0.479180
Si Si2 0.475885 0.632457 0.511487
Si Si3 0.955194 0.752446 0.762409
Si Si4 0.189439 0.674542 0.312647
Si Si5 0.068694 0.389711 0.307641
Si Si6 0.291661 0.840565 0.648563
Si Si7 0.214649 0.020102 0.714745
Si Si8 0.500000 0.000000 0.550178
O O1 0.951959 0.907326 0.438160
O O2 0.831748 0.929742 0.593648
O O3 0.839011 0.002282 0.347008
O O4 0.926386 0.051664 0.558682
O O5 0.504915 0.695459 0.635642
O O6 0.431705 0.681081 0.387694
O O7 0.883536 0.698398 0.727117
O O8 0.014169 0.689571 0.834043
O O9 0.250000 0.750000 0.293003
O O10 0.175840 0.667477 0.486091
O O11 0.220223 0.581717 0.262386
O O12 0.147886 0.356171 0.270494
O O13 0.057505 0.454776 0.441963
O O14 0.039856 0.434422 0.159379
O O15 0.250000 0.750000 0.675361
O O16 0.241656 0.926923 0.654082
#
# Coordination Sequence:
#
# PCOD9355273 Si02
#       8
#     8   8   8   8   8   8   8   4
#     4  11  24  44  71 104 141 192 233 299 359 432
#     4  11  24  43  73 106 143 182 240 291 368 433
#     4  12  25  44  74 103 142 183 233 301 360 428
#     4  11  24  46  72 105 143 190 234 291 364 435
#     4  11  25  44  70  99 135 177 234 286 351 422
#     4  11  27  45  71 101 145 195 238 295 359 429
#     4  12  25  45  71 104 146 193 243 294 362 434
#     4  10  24  44  72  98 134 178 226 292 352 416
#
# _framework density 22.942633000000001
#
# number of rings (size 3 to 8) (size 9 to 14) (size 15 to 20)
#    0.000    0.800    1.333    5.600   11.200    2.133 
#    2.400    0.667    0.000    0.000    0.000    0.000 
#    0.000    0.000    0.000    0.000    0.000    0.000 
#
# Total GULP energy -167920.148294 kJ/mol
# GULP energy per Si atom -5597.338276 kJ/mol
# Density = 2.289041 g / cm^3
# Si number density = 22.942633 Si / 1000 Ang^3
#
#
#
# Elastic Constant Matrix: (Units=GPa)
#
#
# Indices 1 2 3 4 5 6 
#
# 1 55.2399 1.0368 -0.6066 0.0000 0.0000 0.0000
# 2 1.0368 77.0288 15.0199 0.0000 0.0000 0.0000
# 3 -0.6066 15.0199 79.7249 0.0000 0.0000 0.0000
# 4 0.0000 0.0000 0.0000 18.1125 0.0000 0.0000
# 5 0.0000 0.0000 0.0000 0.0000 25.8364 0.0000
# 6 0.0000 0.0000 0.0000 0.0000 0.0000 39.7280
#
#
#
# Elastic Compliance Matrix: (Units=1/GPa)
#
#
# Indices 1 2 3 4 5 6 
#
# 1 0.018110 -0.000281 0.000191 0.000000 0.000000 0.000000
# 2 -0.000281 0.013482 -0.002542 0.000000 0.000000 0.000000
# 3 0.000191 -0.002542 0.013023 0.000000 0.000000 0.000000
# 4 0.000000 0.000000 0.000000 0.055210 0.000000 0.000000
# 5 0.000000 0.000000 0.000000 0.000000 0.038705 0.000000
# 6 0.000000 0.000000 0.000000 0.000000 0.000000 0.025171
#
#
# Mechanical properties :
#
#
# Convention : Reuss Voigt Hill
#
# Bulk Modulus (GPa) = 25.41243 26.98820 26.20031
# Shear Modulus (GPa) = 27.45994 29.83828 28.64911
#
# Velocity S-wave (km/s) = 3.46337 3.61024 3.53757
# Velocity P-wave (km/s) = 5.20517 5.40068 5.30383
#
# Compressibility (1/GPa) = 0.03935083
#
# Stress axis : x y z
#
# Youngs Moduli (GPa) = 55.21738 74.17507 76.78435
#
# Poissons Ratio (x) = 0.02084 -0.01464
# Poissons Ratio (y) = 0.01551 0.19519
# Poissons Ratio (z) = -0.01053 0.18856
#
# Static dielectric constant tensor:
#      x y z
#    x 1.843010 0.000000 0.000000 
#    y 0.000000 1.906560 0.000000 
#    z 0.000000 0.000000 1.854160 
# 
# From -- ./inp_files/4093.got.cif
#   From: 2010.05.17/outbox.cif.g08.bks.cpg/sg37_3_cif.got.tgz:4093.got - 2010.06.03 17:53:42.
