data_PCOD9355346
_publ_section_title
;
Structure prediction by ZEFSAII (Michael W. Deem and Ramdas Pophale) SiO2 
 PCOD9355346
Probable space group: C C C 2
;
_chemical_formula_sum "Si O2"
_cell_formula_units_Z 32
_cell_length_a 25.089991
_cell_length_b 5.153959
_cell_length_c 9.042343
_cell_angle_alpha 90.000000
_cell_angle_beta 90.000000
_cell_angle_gamma 90.000000
_cell_volume 1169.290556
_symmetry_space_group_name_H-M "C C C 2"
_symmetry_group_IT_number 37
_symmetry_cell_setting 'orthorhombic'
loop_
_space_group_symop_operation_xyz
x,y,z
-x,-y,z
-x,y,1/2+z
x,-y,1/2+z
1/2+x,1/2+y,z
1/2-x,1/2-y,z
1/2-x,1/2+y,1/2+z
1/2+x,1/2-y,1/2+z
loop_
_atom_site_type_symbol
_atom_site_label
_atom_site_fract_x
_atom_site_fract_y
_atom_site_fract_z
Si Si1 0.430403 0.205304 0.916700
Si Si2 0.840130 0.024190 0.502301
Si Si3 0.666283 0.124667 0.764468
Si Si4 0.000000 0.500000 0.177830
Si Si5 0.250000 0.750000 0.193202
O O1 0.476185 0.212335 0.792242
O O2 0.383141 0.041510 0.831317
O O3 0.404647 0.468709 0.982556
O O4 0.453990 0.078213 0.063902
O O5 0.830663 0.904566 0.340961
O O6 0.797981 0.852530 0.591345
O O7 0.834406 0.298118 0.590516
O O8 0.719445 0.961107 0.790717
#
# Coordination Sequence:
#
# PCOD9355346 Si02
#       5
#     8   8   8   4   4
#     4  11  24  52  83 122 171 218 289 360 433 526
#     4  12  28  49  83 122 167 228 285 362 423 538
#     4  12  28  52  83 120 173 224 287 358 433 532
#     4  10  24  50  88 120 174 230 278 370 444 516
#     4  12  30  52  80 120 172 234 282 362 446 514
#
# _framework density 27.367024000000001
#
# number of rings (size 3 to 8) (size 9 to 14) (size 15 to 20)
#    0.000    0.500    2.500    3.750   10.500    0.000 
#    0.000    7.500    0.000    0.000    0.000    0.000 
#    0.000    0.000    0.000    0.000    0.000    0.000 
#
# Total GULP energy -89098.369302 kJ/mol
# GULP energy per Si atom -5568.648081 kJ/mol
# Density = 2.730474 g / cm^3
# Si number density = 27.367024 Si / 1000 Ang^3
#
#
#
# Elastic Constant Matrix: (Units=GPa)
#
#
# Indices 1 2 3 4 5 6 
#
# 1 135.8868 73.4670 54.3319 0.0000 0.0000 0.0000
# 2 73.4670 82.8820 41.8932 0.0000 0.0000 0.0000
# 3 54.3319 41.8932 162.4143 0.0000 0.0000 0.0000
# 4 0.0000 0.0000 0.0000 8.8184 0.0000 0.0000
# 5 0.0000 0.0000 0.0000 0.0000 59.1442 0.0000
# 6 0.0000 0.0000 0.0000 0.0000 0.0000 41.2223
#
#
#
# Elastic Compliance Matrix: (Units=1/GPa)
#
#
# Indices 1 2 3 4 5 6 
#
# 1 0.014562 -0.012012 -0.001773 0.000000 0.000000 0.000000
# 2 -0.012012 0.023782 -0.002116 0.000000 0.000000 0.000000
# 3 -0.001773 -0.002116 0.007296 0.000000 0.000000 0.000000
# 4 0.000000 0.000000 0.000000 0.113400 0.000000 0.000000
# 5 0.000000 0.000000 0.000000 0.000000 0.016908 0.000000
# 6 0.000000 0.000000 0.000000 0.000000 0.000000 0.024259
#
#
# Mechanical properties :
#
#
# Convention : Reuss Voigt Hill
#
# Bulk Modulus (GPa) = 72.26232 80.06305 76.16268
# Shear Modulus (GPa) = 21.13078 35.93635 28.53357
#
# Velocity S-wave (km/s) = 2.78173 3.62764 3.23247
# Velocity P-wave (km/s) = 6.06462 6.84581 6.46702
#
# Compressibility (1/GPa) = 0.01383847
#
# Stress axis : x y z
#
# Youngs Moduli (GPa) = 68.67119 42.04816 137.05967
#
# Poissons Ratio (x) = 0.50507 0.24302
# Poissons Ratio (y) = 0.82486 0.29004
# Poissons Ratio (z) = 0.12176 0.08898
#
# Static dielectric constant tensor:
#      x y z
#    x 2.187240 0.000000 0.000000 
#    y 0.000000 2.252520 0.000000 
#    z 0.000000 0.000000 2.175450 
# 
# From -- ./inp_files/4879.got.cif
#   From: 2010.05.17/outbox.cif.g08.bks.cpg/sg37_3_cif.got.tgz:4879.got - 2010.06.03 17:53:42.
