data_PCOD9355432
_publ_section_title
;
Structure prediction by ZEFSAII (Michael W. Deem and Ramdas Pophale) SiO2 
 PCOD9355432
Probable space group: C C C 2
;
_chemical_formula_sum "Si O2"
_cell_formula_units_Z 48
_cell_length_a 9.705081
_cell_length_b 15.135461
_cell_length_c 16.077125
_cell_angle_alpha 90.000000
_cell_angle_beta 90.000000
_cell_angle_gamma 90.000000
_cell_volume 2361.582958
_symmetry_space_group_name_H-M "C C C 2"
_symmetry_group_IT_number 37
_symmetry_cell_setting 'orthorhombic'
loop_
_space_group_symop_operation_xyz
x,y,z
-x,-y,z
-x,y,1/2+z
x,-y,1/2+z
1/2+x,1/2+y,z
1/2-x,1/2-y,z
1/2-x,1/2+y,1/2+z
1/2+x,1/2-y,1/2+z
loop_
_atom_site_type_symbol
_atom_site_label
_atom_site_fract_x
_atom_site_fract_y
_atom_site_fract_z
Si Si1 0.759667 0.345191 0.699810
Si Si2 0.664882 0.980919 0.053027
Si Si3 0.028407 0.395353 0.771321
Si Si4 0.753514 0.352187 0.132172
Si Si5 0.471547 0.396258 0.772443
Si Si6 0.752513 0.149999 0.408681
O O1 0.750000 0.250000 0.656196
O O2 0.796028 0.424346 0.635919
O O3 0.618525 0.357651 0.748601
O O4 0.883320 0.347349 0.765766
O O5 0.500000 0.000000 0.045985
O O6 0.739836 0.075513 0.060038
O O7 0.724278 0.922725 0.978342
O O8 0.109634 0.372051 0.686603
O O9 0.127260 0.362002 0.843610
O O10 0.000000 0.500000 0.778560
O O11 0.750000 0.250000 0.107160
O O12 0.629001 0.372932 0.195265
O O13 0.500000 0.500000 0.778670
O O14 0.391266 0.364991 0.854820
O O15 0.750000 0.250000 0.441258
#
# Coordination Sequence:
#
# PCOD9355432 Si02
#       6
#     8   8   8   8   8   8
#     4  12  21  37  69 105 130 166 224 279 323 394
#     4  12  24  44  66 100 131 180 226 275 333 398
#     4  11  19  41  71  97 131 173 229 267 317 406
#     4  11  21  41  68  97 129 176 224 272 330 395
#     4  11  22  41  67  99 134 169 215 274 337 389
#     4  11  25  45  66  97 138 183 218 270 341 403
#
# _framework density 20.325351000000001
#
# number of rings (size 3 to 8) (size 9 to 14) (size 15 to 20)
#    0.000    0.667    5.000    6.000    0.000    0.000 
#    3.000    0.000    0.000    2.000    0.000    0.000 
#    0.000    0.000    0.000    0.000    0.000    0.000 
#
# Total GULP energy -134105.643864 kJ/mol
# GULP energy per Si atom -5587.735161 kJ/mol
# Density = 2.027909 g / cm^3
# Si number density = 20.325351 Si / 1000 Ang^3
#
#
#
# Elastic Constant Matrix: (Units=GPa)
#
#
# Indices 1 2 3 4 5 6 
#
# 1 156.1920 33.3169 38.8316 0.0000 0.0000 0.0000
# 2 33.3169 190.4688 44.8301 0.0000 0.0000 0.0000
# 3 38.8316 44.8301 87.1403 0.0000 0.0000 0.0000
# 4 0.0000 0.0000 0.0000 25.0686 0.0000 0.0000
# 5 0.0000 0.0000 0.0000 0.0000 -7.3520 0.0000
# 6 0.0000 0.0000 0.0000 0.0000 0.0000 24.3856
#
#
#
# Elastic Compliance Matrix: (Units=1/GPa)
#
#
# Indices 1 2 3 4 5 6 
#
# 1 0.007256 -0.000578 -0.002936 0.000000 0.000000 0.000000
# 2 -0.000578 0.006020 -0.002839 0.000000 0.000000 0.000000
# 3 -0.002936 -0.002839 0.014245 0.000000 0.000000 0.000000
# 4 0.000000 0.000000 0.000000 0.039891 0.000000 0.000000
# 5 0.000000 0.000000 0.000000 0.000000 -0.136017 0.000000
# 6 0.000000 0.000000 0.000000 0.000000 0.000000 0.041008
#
#
# Mechanical properties :
#
#
# Convention : Reuss Voigt Hill
#
# Bulk Modulus (GPa) = 67.50594 74.19537 70.85066
# Shear Modulus (GPa) = -502.28215 29.54194 -236.37010
#
# Velocity S-wave (km/s) = -15.73714 3.81655 -10.79563
# Velocity P-wave (km/s) = 17.23152 7.48362 10.97544
#
# Compressibility (1/GPa) = 0.01481351
#
# Stress axis : x y z
#
# Youngs Moduli (GPa) = 137.82486 166.12443 70.20183
#
# Poissons Ratio (x) = 0.09605 0.20610
# Poissons Ratio (y) = 0.07968 0.19932
# Poissons Ratio (z) = 0.40463 0.47166
#
# Static dielectric constant tensor:
#      x y z
#    x 1.782050 0.000000 0.000000 
#    y 0.000000 1.602330 0.000000 
#    z 0.000000 0.000000 1.721530 
# 
# From -- ./inp_files/14504.got.cif
#   From: 2010.05.17/outbox.cif.g08.bks.cpg/sg37_8_cif.got.tgz:14504.got - 2010.06.03 17:53:42.
