data_PCOD9355528
_publ_section_title
;
Structure prediction by ZEFSAII (Michael W. Deem and Ramdas Pophale) SiO2 
 PCOD9355528
Probable space group: C C C 2
;
_chemical_formula_sum "Si O2"
_cell_formula_units_Z 44
_cell_length_a 15.141723
_cell_length_b 21.700600
_cell_length_c 5.457820
_cell_angle_alpha 90.000000
_cell_angle_beta 90.000000
_cell_angle_gamma 90.000000
_cell_volume 1793.354915
_symmetry_space_group_name_H-M "C C C 2"
_symmetry_group_IT_number 37
_symmetry_cell_setting 'orthorhombic'
loop_
_space_group_symop_operation_xyz
x,y,z
-x,-y,z
-x,y,1/2+z
x,-y,1/2+z
1/2+x,1/2+y,z
1/2-x,1/2-y,z
1/2-x,1/2+y,1/2+z
1/2+x,1/2-y,1/2+z
loop_
_atom_site_type_symbol
_atom_site_label
_atom_site_fract_x
_atom_site_fract_y
_atom_site_fract_z
Si Si1 0.250000 0.750000 0.431010
Si Si2 0.876729 0.974679 0.530742
Si Si3 0.370908 0.664993 0.097810
Si Si4 0.802263 0.337936 0.820377
Si Si5 0.043882 0.714283 0.075051
Si Si6 0.332436 0.023963 0.424556
O O1 0.311635 0.699021 0.301669
O O2 0.185082 0.708430 0.598652
O O3 0.891209 0.906196 0.637170
O O4 0.771549 0.987603 0.487714
O O5 0.909453 0.018824 0.750287
O O6 0.302219 0.662895 0.871061
O O7 0.451431 0.711347 0.060366
O O8 0.855446 0.308311 0.045937
O O9 0.834383 0.407608 0.810646
O O10 0.997581 0.692179 0.826597
O O11 0.370124 0.017836 0.702147
#
# Coordination Sequence:
#
# PCOD9355528 Si02
#       6
#     4   8   8   8   8   8
#     4  12  20  36  64  96 124 166 214 264 310 386
#     4   9  20  34  57  90 122 154 201 262 313 363
#     4  11  23  39  65  92 126 167 211 261 317 383
#     4  11  23  39  65  92 126 167 211 261 317 383
#     4  12  26  42  61  93 132 166 208 260 322 380
#     4   9  20  34  57  90 122 154 201 262 313 363
#
# _framework density 24.535022000000001
#
# number of rings (size 3 to 8) (size 9 to 14) (size 15 to 20)
#    0.000    1.455    3.636    1.091   12.727    0.000 
#    0.000    0.000    0.000    6.545    0.000    0.000 
#    0.000    0.000    0.000    0.000    0.000    0.000 
#
# Total GULP energy -122736.312622 kJ/mol
# GULP energy per Si atom -5578.923301 kJ/mol
# Density = 2.447918 g / cm^3
# Si number density = 24.535022 Si / 1000 Ang^3
#
#
#
# Elastic Constant Matrix: (Units=GPa)
#
#
# Indices 1 2 3 4 5 6 
#
# 1 33.2831 -3.6626 13.8155 0.0000 0.0000 0.0000
# 2 -3.6626 116.2289 53.8737 0.0000 0.0000 0.0000
# 3 13.8155 53.8737 151.2171 0.0000 0.0000 0.0000
# 4 0.0000 0.0000 0.0000 29.7742 0.0000 0.0000
# 5 0.0000 0.0000 0.0000 0.0000 415.0584 0.0000
# 6 0.0000 0.0000 0.0000 0.0000 0.0000 14.7136
#
#
#
# Elastic Compliance Matrix: (Units=1/GPa)
#
#
# Indices 1 2 3 4 5 6 
#
# 1 0.031988 0.002830 -0.003931 0.000000 0.000000 0.000000
# 2 0.002830 0.010556 -0.004019 0.000000 0.000000 0.000000
# 3 -0.003931 -0.004019 0.008404 0.000000 0.000000 0.000000
# 4 0.000000 0.000000 0.000000 0.033586 0.000000 0.000000
# 5 0.000000 0.000000 0.000000 0.000000 0.002409 0.000000
# 6 0.000000 0.000000 0.000000 0.000000 0.000000 0.067964
#
#
# Mechanical properties :
#
#
# Convention : Reuss Voigt Hill
#
# Bulk Modulus (GPa) = 24.56509 47.64246 36.10378
# Shear Modulus (GPa) = 27.97713 107.68942 67.83327
#
# Velocity S-wave (km/s) = 3.38049 6.63230 5.26380
# Velocity P-wave (km/s) = 5.02702 8.83800 7.18961
#
# Compressibility (1/GPa) = 0.04070817
#
# Stress axis : x y z
#
# Youngs Moduli (GPa) = 31.26142 94.73401 118.99016
#
# Poissons Ratio (x) = -0.26809 0.46772
# Poissons Ratio (y) = -0.08847 0.47825
# Poissons Ratio (z) = 0.12288 0.38076
#
# Static dielectric constant tensor:
#      x y z
#    x 1.411010 0.000000 0.000000 
#    y 0.000000 1.968970 0.000000 
#    z 0.000000 0.000000 2.042270 
# 
# From -- ./inp_files/975.got.cif
#   From: 2010.05.17/outbox.cif.g08.bks.cpg/sg37_1_cif.got.tgz:975.got - 2010.06.03 17:53:42.
