data_PCOD9355691
_publ_section_title
;
Structure prediction by ZEFSAII (Michael W. Deem and Ramdas Pophale) SiO2 
 PCOD9355691
Probable space group: C C C 2
;
_chemical_formula_sum "Si O2"
_cell_formula_units_Z 48
_cell_length_a 9.886673
_cell_length_b 9.886675
_cell_length_c 25.899713
_cell_angle_alpha 90.000000
_cell_angle_beta 90.000000
_cell_angle_gamma 90.000000
_cell_volume 2531.601707
_symmetry_space_group_name_H-M "C C C 2"
_symmetry_group_IT_number 37
_symmetry_cell_setting 'orthorhombic'
loop_
_space_group_symop_operation_xyz
x,y,z
-x,-y,z
-x,y,1/2+z
x,-y,1/2+z
1/2+x,1/2+y,z
1/2-x,1/2-y,z
1/2-x,1/2+y,1/2+z
1/2+x,1/2-y,1/2+z
loop_
_atom_site_type_symbol
_atom_site_label
_atom_site_fract_x
_atom_site_fract_y
_atom_site_fract_z
Si Si1 0.754764 0.408918 0.729810
Si Si2 0.500408 0.833245 0.480372
Si Si3 0.750000 0.250000 0.049592
Si Si4 0.408918 0.245236 0.869374
Si Si5 0.000000 0.000000 0.799592
Si Si6 0.000000 0.500000 0.799592
Si Si7 0.250000 0.750000 0.549592
Si Si8 0.166755 0.499592 0.618813
O O1 0.750000 0.250000 0.716803
O O2 0.623446 0.454396 0.762379
O O3 0.781530 0.491854 0.677449
O O4 0.884806 0.432781 0.765243
O O5 0.625970 0.770575 0.510693
O O6 0.491854 0.781530 0.421735
O O7 0.375117 0.769993 0.511275
O O8 0.500000 0.000000 0.482155
O O9 0.770575 0.374030 0.088491
O O10 0.250000 0.250000 0.882382
O O11 0.454396 0.376554 0.836806
O O12 0.432781 0.115194 0.833941
O O13 0.230007 0.624883 0.587910
O O14 0.000000 0.500000 0.617030
#
# Coordination Sequence:
#
# PCOD9355691 Si02
#       8
#     8   8   4   8   4   4   4   8
#     4  12  26  44  74 104 142 185 234 292 348 417
#     4  12  26  46  72 105 139 185 235 285 358 422
#     4  12  26  46  72 108 142 172 238 302 332 424
#     4  12  26  44  74 104 142 185 234 292 348 417
#     4  12  28  44  68 118 136 176 252 288 344 426
#     4  12  24  44  76  98 140 188 224 288 352 402
#     4  12  22  46  72  96 138 176 234 286 340 420
#     4  12  26  46  72 105 139 185 235 285 358 422
#
# _framework density 18.960328000000001
#
# number of rings (size 3 to 8) (size 9 to 14) (size 15 to 20)
#    0.000    0.000   10.000    0.000    0.000    8.667 
#    0.000    0.000    0.000    0.000    0.000    0.000 
#    0.000    0.000    0.000    0.000    0.000    0.000 
#
# Total GULP energy -133995.318728 kJ/mol
# GULP energy per Si atom -5583.138280 kJ/mol
# Density = 1.891717 g / cm^3
# Si number density = 18.960328 Si / 1000 Ang^3
#
#
#
# Elastic Constant Matrix: (Units=GPa)
#
#
# Indices 1 2 3 4 5 6 
#
# 1 133.1493 63.7892 59.2429 0.0000 0.0000 0.0000
# 2 63.7892 133.1494 59.2429 0.0000 0.0000 0.0000
# 3 59.2429 59.2429 157.3733 0.0000 0.0000 0.0000
# 4 0.0000 0.0000 0.0000 32.5042 0.0000 0.0000
# 5 0.0000 0.0000 0.0000 0.0000 32.5041 0.0000
# 6 0.0000 0.0000 0.0000 0.0000 0.0000 25.6820
#
#
#
# Elastic Compliance Matrix: (Units=1/GPa)
#
#
# Indices 1 2 3 4 5 6 
#
# 1 0.010491 -0.003927 -0.002471 0.000000 0.000000 0.000000
# 2 -0.003927 0.010491 -0.002471 0.000000 0.000000 0.000000
# 3 -0.002471 -0.002471 0.008215 0.000000 0.000000 0.000000
# 4 0.000000 0.000000 0.000000 0.030765 0.000000 0.000000
# 5 0.000000 0.000000 0.000000 0.000000 0.030765 0.000000
# 6 0.000000 0.000000 0.000000 0.000000 0.000000 0.038938
#
#
# Mechanical properties :
#
#
# Convention : Reuss Voigt Hill
#
# Bulk Modulus (GPa) = 87.26700 87.58023 87.42362
# Shear Modulus (GPa) = 33.06383 34.23120 33.64751
#
# Velocity S-wave (km/s) = 4.18046 4.25362 4.21720
# Velocity P-wave (km/s) = 8.33233 8.39142 8.36193
#
# Compressibility (1/GPa) = 0.01145908
#
# Stress axis : x y z
#
# Youngs Moduli (GPa) = 95.31980 95.31990 121.73054
#
# Poissons Ratio (x) = 0.37427 0.30082
# Poissons Ratio (y) = 0.37427 0.30082
# Poissons Ratio (z) = 0.23555 0.23555
#
# Static dielectric constant tensor:
#      x y z
#    x 1.609890 0.000000 0.000000 
#    y 0.000000 1.609890 0.000000 
#    z 0.000000 0.000000 1.662730 
# 
# From -- ./inp_files/20389.got.cif
#   From: 2010.05.17/outbox.cif.g08.bks.cpg/sg37_11_cif.got.tgz:20389.got - 2010.06.03 17:53:42.
