data_PCOD9355876
_publ_section_title
;
Structure prediction by ZEFSAII (Michael W. Deem and Ramdas Pophale) SiO2 
 PCOD9355876
Probable space group: A M M 2
;
_chemical_formula_sum "Si O2"
_cell_formula_units_Z 64
_cell_length_a 7.431082
_cell_length_b 19.361941
_cell_length_c 22.526709
_cell_angle_alpha 90.000000
_cell_angle_beta 90.000000
_cell_angle_gamma 90.000000
_cell_volume 3241.146749
_symmetry_space_group_name_H-M "A M M 2"
_symmetry_group_IT_number 38
_symmetry_cell_setting 'orthorhombic'
loop_
_space_group_symop_operation_xyz
x,y,z
-x,-y,z
-x,y,z
x,-y,z
x,1/2+y,1/2+z
-x,1/2-y,1/2+z
-x,1/2+y,1/2+z
x,1/2-y,1/2+z
loop_
_atom_site_type_symbol
_atom_site_label
_atom_site_fract_x
_atom_site_fract_y
_atom_site_fract_z
Si Si1 0.781425 0.075714 0.844980
Si Si2 0.215495 0.575820 0.205650
Si Si3 0.787508 0.227501 0.843593
Si Si4 0.299614 0.314040 0.112868
Si Si5 0.707769 0.122288 0.387404
Si Si6 0.720121 0.075607 0.260103
Si Si7 0.717574 0.780172 0.211169
Si Si8 0.279018 0.921292 0.516712
O O1 0.738366 0.076139 0.774842
O O2 0.719122 0.152107 0.864687
O O3 0.000000 0.075641 0.849904
O O4 0.720827 0.000000 0.868522
O O5 0.257204 0.500000 0.181683
O O6 0.311296 0.632138 0.167139
O O7 0.000000 0.586732 0.201813
O O8 0.712616 0.295213 0.876236
O O9 0.762156 0.238958 0.772299
O O10 0.000000 0.228508 0.853959
O O11 0.500000 0.293050 0.092563
O O12 0.212961 0.250920 0.149129
O O13 0.216176 0.360684 0.061069
O O14 0.500000 0.100292 0.389153
O O15 0.783911 0.088654 0.327612
O O16 0.781671 0.098073 0.450250
O O17 0.500000 0.077604 0.261109
O O18 0.777725 0.141575 0.222437
O O19 0.774720 0.000000 0.239388
O O20 0.500000 0.778864 0.207669
O O21 0.500000 0.920205 0.519387
O O22 0.224665 0.000000 0.531447
#
# Coordination Sequence:
#
# PCOD9355876 Si02
#       8
#     8   8   8   8   8   8   8   8
#     4   8  14  24  38  57  81 109 140 169 199 247
#     4   9  16  26  39  55  79 114 149 173 201 247
#     4  10  17  27  45  64  84 111 142 177 218 263
#     4  10  18  27  41  62  89 115 145 184 217 248
#     4   9  17  29  45  62  82 109 145 186 222 254
#     4   8  13  23  41  61  78 101 136 176 213 252
#     4   9  17  27  40  62  89 112 138 177 220 259
#     4   9  17  29  45  64  86 119 159 186 208 250
#
# _framework density 19.746098
#
# number of rings (size 3 to 8) (size 9 to 14) (size 15 to 20)
#    0.000    3.000    1.250    2.625    0.000    2.250 
#    0.000    0.625    0.000   11.625    0.000    0.875 
#    0.000    3.000    0.000    0.125    0.000    0.125 
#
# Total GULP energy -178224.959888 kJ/mol
# GULP energy per Si atom -5569.529996 kJ/mol
# Density = 1.970115 g / cm^3
# Si number density = 19.746098 Si / 1000 Ang^3
#
#
#
# Elastic Constant Matrix: (Units=GPa)
#
#
# Indices 1 2 3 4 5 6 
#
# 1 59.1663 -3.5204 1.1541 0.0000 0.0000 0.0000
# 2 -3.5204 151.0099 43.0937 0.0000 0.0000 0.0000
# 3 1.1541 43.0937 75.8482 0.0000 0.0000 0.0000
# 4 0.0000 0.0000 0.0000 22.1232 0.0000 0.0000
# 5 0.0000 0.0000 0.0000 0.0000 32.0018 0.0000
# 6 0.0000 0.0000 0.0000 0.0000 0.0000 6.5081
#
#
#
# Elastic Compliance Matrix: (Units=1/GPa)
#
#
# Indices 1 2 3 4 5 6 
#
# 1 0.016946 0.000559 -0.000576 0.000000 0.000000 0.000000
# 2 0.000559 0.007922 -0.004509 0.000000 0.000000 0.000000
# 3 -0.000576 -0.004509 0.015755 0.000000 0.000000 0.000000
# 4 0.000000 0.000000 0.000000 0.045201 0.000000 0.000000
# 5 0.000000 0.000000 0.000000 0.000000 0.031248 0.000000
# 6 0.000000 0.000000 0.000000 0.000000 0.000000 0.153655
#
#
# Mechanical properties :
#
#
# Convention : Reuss Voigt Hill
#
# Bulk Modulus (GPa) = 31.67407 40.83102 36.25254
# Shear Modulus (GPa) = 17.22339 28.47974 22.85156
#
# Velocity S-wave (km/s) = 2.95658 3.80188 3.40556
# Velocity P-wave (km/s) = 5.26599 6.32418 5.81919
#
# Compressibility (1/GPa) = 0.03157157
#
# Stress axis : x y z
#
# Youngs Moduli (GPa) = 59.01086 126.23107 63.47166
#
# Poissons Ratio (x) = -0.07060 0.03654
# Poissons Ratio (y) = -0.03301 0.28622
# Poissons Ratio (z) = 0.03397 0.56923
#
# Static dielectric constant tensor:
#      x y z
#    x 1.729680 0.000000 0.000000 
#    y 0.000000 1.770280 0.000000 
#    z 0.000000 0.000000 1.676630 
# 
# From -- ./inp_files/20833.got.cif
#   From: 2010.05.17/outbox.cif.g08.bks.cpg/sg38_11_cif.got.tgz:20833.got - 2010.06.03 18:07:57.
