data_PCOD9355621
_publ_section_title
;
Structure prediction by ZEFSAII (Michael W. Deem and Ramdas Pophale) SiO2 
 PCOD9355621
Probable space group: C C C 2
;
_chemical_formula_sum "Si O2"
_cell_formula_units_Z 32
_cell_length_a 26.575737
_cell_length_b 5.171785
_cell_length_c 10.173678
_cell_angle_alpha 90.000000
_cell_angle_beta 90.000000
_cell_angle_gamma 90.000000
_cell_volume 1398.310978
_symmetry_space_group_name_H-M "C C C 2"
_symmetry_group_IT_number 37
_symmetry_cell_setting 'orthorhombic'
loop_
_space_group_symop_operation_xyz
x,y,z
-x,-y,z
-x,y,1/2+z
x,-y,1/2+z
1/2+x,1/2+y,z
1/2-x,1/2-y,z
1/2-x,1/2+y,1/2+z
1/2+x,1/2-y,1/2+z
loop_
_atom_site_type_symbol
_atom_site_label
_atom_site_fract_x
_atom_site_fract_y
_atom_site_fract_z
Si Si1 0.144114 0.119392 0.983010
Si Si2 0.397010 0.991936 0.806203
Si Si3 0.192996 0.192405 0.242268
Si Si4 0.557909 0.511002 0.675839
O O1 0.122856 0.405862 0.947219
O O2 0.166270 0.988697 0.851491
O O3 0.186939 0.093425 0.093822
O O4 0.095436 0.993597 0.051919
O O5 0.429552 0.228390 0.753050
O O6 0.342986 0.943168 0.738069
O O7 0.427941 0.734343 0.768829
O O8 0.250000 0.250000 0.276822
O O9 0.500000 0.500000 0.636808
#
# Coordination Sequence:
#
# PCOD9355621 Si02
#       4
#     8   8   8   8
#     4  11  25  50  75 114 158 194 257 318 373 467
#     4  11  24  48  73 112 154 190 253 314 366 458
#     4  11  28  46  80 111 155 205 252 318 388 454
#     4  11  26  49  78 112 154 204 251 312 385 449
#
# _framework density 22.884751999999999
#
# number of rings (size 3 to 8) (size 9 to 14) (size 15 to 20)
#    0.000    1.000    5.000    0.750   10.500    1.000 
#    4.500    0.000    0.000    0.000    0.000    0.000 
#    0.000    0.000    0.000    0.000    0.000    0.000 
#
# Total GULP energy -89239.034975 kJ/mol
# GULP energy per Si atom -5577.439686 kJ/mol
# Density = 2.283267 g / cm^3
# Si number density = 22.884752 Si / 1000 Ang^3
#
#
#
# Elastic Constant Matrix: (Units=GPa)
#
#
# Indices 1 2 3 4 5 6 
#
# 1 135.4404 27.1735 -8.3883 0.0000 0.0000 0.0000
# 2 27.1735 138.1492 38.2647 0.0000 0.0000 0.0000
# 3 -8.3883 38.2647 117.4342 0.0000 0.0000 0.0000
# 4 0.0000 0.0000 0.0000 24.8869 0.0000 0.0000
# 5 0.0000 0.0000 0.0000 0.0000 4.9387 0.0000
# 6 0.0000 0.0000 0.0000 0.0000 0.0000 23.6427
#
#
#
# Elastic Compliance Matrix: (Units=1/GPa)
#
#
# Indices 1 2 3 4 5 6 
#
# 1 0.007829 -0.001863 0.001166 0.000000 0.000000 0.000000
# 2 -0.001863 0.008400 -0.002870 0.000000 0.000000 0.000000
# 3 0.001166 -0.002870 0.009534 0.000000 0.000000 0.000000
# 4 0.000000 0.000000 0.000000 0.040182 0.000000 0.000000
# 5 0.000000 0.000000 0.000000 0.000000 0.202484 0.000000
# 6 0.000000 0.000000 0.000000 0.000000 0.000000 0.042296
#
#
# Mechanical properties :
#
#
# Convention : Reuss Voigt Hill
#
# Bulk Modulus (GPa) = 53.67831 56.12483 54.90157
# Shear Modulus (GPa) = 15.42881 32.95858 24.19370
#
# Velocity S-wave (km/s) = 2.59935 3.79911 3.25498
# Velocity P-wave (km/s) = 5.70225 6.61986 6.17811
#
# Compressibility (1/GPa) = 0.01862950
#
# Stress axis : x y z
#
# Youngs Moduli (GPa) = 127.72470 119.04799 104.88871
#
# Poissons Ratio (x) = 0.22179 -0.12233
# Poissons Ratio (y) = 0.23796 0.30104
# Poissons Ratio (z) = -0.14897 0.34168
#
# Static dielectric constant tensor:
#      x y z
#    x 1.804940 0.000000 0.000000 
#    y 0.000000 1.967020 0.000000 
#    z 0.000000 0.000000 1.969950 
# 
# From -- ./inp_files/4873.got.cif
#   From: 2010.05.17/outbox.cif.g08.bks.cpg/sg37_3_cif.got.tgz:4873.got - 2010.06.03 17:53:42.
