data_PCOD9355207
_publ_section_title
;
Structure prediction by ZEFSAII (Michael W. Deem and Ramdas Pophale) SiO2 
 PCOD9355207
Probable space group: C C C 2
;
_chemical_formula_sum "Si O2"
_cell_formula_units_Z 56
_cell_length_a 14.295374
_cell_length_b 12.855889
_cell_length_c 13.853226
_cell_angle_alpha 90.000000
_cell_angle_beta 90.000000
_cell_angle_gamma 90.000000
_cell_volume 2545.942291
_symmetry_space_group_name_H-M "C C C 2"
_symmetry_group_IT_number 37
_symmetry_cell_setting 'orthorhombic'
loop_
_space_group_symop_operation_xyz
x,y,z
-x,-y,z
-x,y,1/2+z
x,-y,1/2+z
1/2+x,1/2+y,z
1/2-x,1/2-y,z
1/2-x,1/2+y,1/2+z
1/2+x,1/2-y,1/2+z
loop_
_atom_site_type_symbol
_atom_site_label
_atom_site_fract_x
_atom_site_fract_y
_atom_site_fract_z
Si Si1 0.972223 0.657953 0.976610
Si Si2 0.455198 0.141004 0.202736
Si Si3 0.854436 0.423761 0.198341
Si Si4 0.158610 0.187433 0.304240
Si Si5 0.517738 0.388691 0.424536
Si Si6 0.306049 0.475219 0.817674
Si Si7 0.653093 0.960672 0.468038
O O1 0.948553 0.779388 0.968754
O O2 0.897552 0.571064 0.946942
O O3 0.074723 0.624852 0.934890
O O4 0.975315 0.634146 0.089826
O O5 0.562212 0.150471 0.237163
O O6 0.393264 0.236765 0.231632
O O7 0.399362 0.035989 0.227203
O O8 0.761297 0.401694 0.257044
O O9 0.834329 0.434512 0.082649
O O10 0.250000 0.250000 0.340393
O O11 0.081416 0.147478 0.380274
O O12 0.184104 0.079057 0.252856
O O13 0.500000 0.500000 0.478803
O O14 0.597251 0.422862 0.347924
O O15 0.249270 0.524013 0.909866
#
# Coordination Sequence:
#
# PCOD9355207 Si02
#       7
#     8   8   8   8   8   8   8
#     4   9  19  39  61  92 124 157 213 270 318 376
#     4   9  19  36  62  92 118 157 210 274 314 372
#     4   9  19  37  61  97 130 149 212 269 321 376
#     4  11  21  38  60  84 117 168 219 251 314 391
#     4  10  24  40  55  87 131 166 215 257 316 398
#     4  11  22  37  59  93 128 172 201 260 324 385
#     4   9  20  37  65  97 124 163 209 269 321 375
#
# _framework density 21.995784
#
# number of rings (size 3 to 8) (size 9 to 14) (size 15 to 20)
#    0.000    2.286    1.429    2.571    2.000    2.857 
#    0.000    5.000    0.000    6.857    0.000    0.000 
#    0.000    0.000    0.000    0.000    0.000    0.000 
#
# Total GULP energy -155881.428281 kJ/mol
# GULP energy per Si atom -5567.193867 kJ/mol
# Density = 2.194572 g / cm^3
# Si number density = 21.995784 Si / 1000 Ang^3
#
#
#
# Elastic Constant Matrix: (Units=GPa)
#
#
# Indices 1 2 3 4 5 6 
#
# 1 139.0139 31.5719 22.1866 0.0000 0.0000 0.0000
# 2 31.5719 96.1664 -10.4628 0.0000 0.0000 0.0000
# 3 22.1866 -10.4628 41.8117 0.0000 0.0000 0.0000
# 4 0.0000 0.0000 0.0000 23.1725 0.0000 0.0000
# 5 0.0000 0.0000 0.0000 0.0000 -35.6763 0.0000
# 6 0.0000 0.0000 0.0000 0.0000 0.0000 24.2328
#
#
#
# Elastic Compliance Matrix: (Units=1/GPa)
#
#
# Indices 1 2 3 4 5 6 
#
# 1 0.008888 -0.003527 -0.005599 0.000000 0.000000 0.000000
# 2 -0.003527 0.012089 0.004897 0.000000 0.000000 0.000000
# 3 -0.005599 0.004897 0.028113 0.000000 0.000000 0.000000
# 4 0.000000 0.000000 0.000000 0.043155 0.000000 0.000000
# 5 0.000000 0.000000 0.000000 0.000000 -0.028030 0.000000
# 6 0.000000 0.000000 0.000000 0.000000 0.000000 0.041266
#
#
# Mechanical properties :
#
#
# Convention : Reuss Voigt Hill
#
# Bulk Modulus (GPa) = 24.61110 40.39814 32.50462
# Shear Modulus (GPa) = 39.22041 17.92555 28.57298
#
# Velocity S-wave (km/s) = 4.22724 2.85784 3.60810
# Velocity P-wave (km/s) = 5.91941 5.41256 5.67165
#
# Compressibility (1/GPa) = 0.04063207
#
# Stress axis : x y z
#
# Youngs Moduli (GPa) = 112.50878 82.71699 35.57055
#
# Poissons Ratio (x) = 0.29176 0.19916
# Poissons Ratio (y) = 0.39684 -0.17418
# Poissons Ratio (z) = 0.62994 -0.40505
#
# Static dielectric constant tensor:
#      x y z
#    x 1.896550 0.000000 0.000000 
#    y 0.000000 1.865820 0.000000 
#    z 0.000000 0.000000 1.857740 
# 
# From -- ./inp_files/11599.got.cif
#   From: 2010.05.17/outbox.cif.g08.bks.cpg/sg37_6_cif.got.tgz:11599.got - 2010.06.03 17:53:42.
