data_PCOD9355564
_publ_section_title
;
Structure prediction by ZEFSAII (Michael W. Deem and Ramdas Pophale) SiO2 
 PCOD9355564
Probable space group: C C C 2
;
_chemical_formula_sum "Si O2"
_cell_formula_units_Z 40
_cell_length_a 30.608117
_cell_length_b 5.232587
_cell_length_c 10.688059
_cell_angle_alpha 90.000000
_cell_angle_beta 90.000000
_cell_angle_gamma 90.000000
_cell_volume 1711.795629
_symmetry_space_group_name_H-M "C C C 2"
_symmetry_group_IT_number 37
_symmetry_cell_setting 'orthorhombic'
loop_
_space_group_symop_operation_xyz
x,y,z
-x,-y,z
-x,y,1/2+z
x,-y,1/2+z
1/2+x,1/2+y,z
1/2-x,1/2-y,z
1/2-x,1/2+y,1/2+z
1/2+x,1/2-y,1/2+z
loop_
_atom_site_type_symbol
_atom_site_label
_atom_site_fract_x
_atom_site_fract_y
_atom_site_fract_z
Si Si1 0.417186 0.448580 0.676630
Si Si2 0.627214 0.117811 0.975616
Si Si3 0.331266 0.521143 0.804793
Si Si4 0.451487 0.971994 0.793858
Si Si5 0.198193 0.776111 0.553542
O O1 0.391623 0.368716 0.549472
O O2 0.379513 0.419919 0.780360
O O3 0.439191 0.720529 0.709784
O O4 0.448948 0.214489 0.702110
O O5 0.660354 0.201939 0.865826
O O6 0.584116 0.015187 0.905544
O O7 0.658253 0.936086 0.061388
O O8 0.310687 0.535841 0.669402
O O9 0.307121 0.373294 0.912563
O O10 0.500000 0.000000 0.848271
O O11 0.250000 0.750000 0.567327
#
# Coordination Sequence:
#
# PCOD9355564 Si02
#       5
#     8   8   8   8   8
#     4  11  23  45  76 108 155 207 262 322 405 477
#     4  11  24  46  75 104 159 211 264 328 413 482
#     4  11  25  48  70 109 152 205 260 330 401 479
#     4  11  25  45  75 114 158 204 267 332 403 487
#     4  12  28  45  77 113 158 215 273 338 401 492
#
# _framework density 23.367277999999999
#
# number of rings (size 3 to 8) (size 9 to 14) (size 15 to 20)
#    0.000    0.800    4.000    3.000    2.800    0.800 
#    0.000    6.000    0.000    0.000    0.000    0.000 
#    0.000    0.000    0.000    0.000    0.000    0.000 
#
# Total GULP energy -111361.446280 kJ/mol
# GULP energy per Si atom -5568.072314 kJ/mol
# Density = 2.331409 g / cm^3
# Si number density = 23.367278 Si / 1000 Ang^3
#
#
#
# Elastic Constant Matrix: (Units=GPa)
#
#
# Indices 1 2 3 4 5 6 
#
# 1 128.9617 51.8745 5.7471 0.0000 0.0000 0.0000
# 2 51.8745 93.2868 33.1335 0.0000 0.0000 0.0000
# 3 5.7471 33.1335 84.7056 0.0000 0.0000 0.0000
# 4 0.0000 0.0000 0.0000 37.3671 0.0000 0.0000
# 5 0.0000 0.0000 0.0000 0.0000 22.4859 0.0000
# 6 0.0000 0.0000 0.0000 0.0000 0.0000 14.9882
#
#
#
# Elastic Compliance Matrix: (Units=1/GPa)
#
#
# Indices 1 2 3 4 5 6 
#
# 1 0.010213 -0.006310 0.001775 0.000000 0.000000 0.000000
# 2 -0.006310 0.016348 -0.005966 0.000000 0.000000 0.000000
# 3 0.001775 -0.005966 0.014019 0.000000 0.000000 0.000000
# 4 0.000000 0.000000 0.000000 0.026761 0.000000 0.000000
# 5 0.000000 0.000000 0.000000 0.000000 0.044472 0.000000
# 6 0.000000 0.000000 0.000000 0.000000 0.000000 0.066719
#
#
# Mechanical properties :
#
#
# Convention : Reuss Voigt Hill
#
# Bulk Modulus (GPa) = 51.07858 54.27381 52.67620
# Shear Modulus (GPa) = 24.26472 29.38152 26.82312
#
# Velocity S-wave (km/s) = 3.22593 3.54980 3.39173
# Velocity P-wave (km/s) = 5.98180 6.33074 6.15874
#
# Compressibility (1/GPa) = 0.01957768
#
# Stress axis : x y z
#
# Youngs Moduli (GPa) = 97.91189 61.17125 71.33186
#
# Poissons Ratio (x) = 0.38598 -0.12663
# Poissons Ratio (y) = 0.61781 0.42560
# Poissons Ratio (z) = -0.17382 0.36497
#
# Static dielectric constant tensor:
#      x y z
#    x 1.972840 0.000000 0.000000 
#    y 0.000000 2.031010 0.000000 
#    z 0.000000 0.000000 1.901090 
# 
# From -- ./inp_files/5523.got.cif
#   From: 2010.05.17/outbox.cif.g08.bks.cpg/sg37_3_cif.got.tgz:5523.got - 2010.06.03 17:53:42.
