data_PCOD9355882
_publ_section_title
;
Structure prediction by ZEFSAII (Michael W. Deem and Ramdas Pophale) SiO2 
 PCOD9355882
Probable space group: A M M 2
;
_chemical_formula_sum "Si O2"
_cell_formula_units_Z 56
_cell_length_a 14.843338
_cell_length_b 7.430414
_cell_length_c 26.796029
_cell_angle_alpha 90.000000
_cell_angle_beta 90.000000
_cell_angle_gamma 90.000000
_cell_volume 2955.391556
_symmetry_space_group_name_H-M "A M M 2"
_symmetry_group_IT_number 38
_symmetry_cell_setting 'orthorhombic'
loop_
_space_group_symop_operation_xyz
x,y,z
-x,-y,z
-x,y,z
x,-y,z
x,1/2+y,1/2+z
-x,1/2-y,1/2+z
-x,1/2+y,1/2+z
x,1/2-y,1/2+z
loop_
_atom_site_type_symbol
_atom_site_label
_atom_site_fract_x
_atom_site_fract_y
_atom_site_fract_z
Si Si1 0.603946 0.782395 0.737030
Si Si2 0.706415 0.211810 0.638197
Si Si3 0.604306 0.719240 0.041314
Si Si4 0.396100 0.280119 0.929280
Si Si5 0.900230 0.783465 0.174266
Si Si6 0.717544 0.212127 0.336320
Si Si7 0.100573 0.780269 0.289557
O O1 0.500000 0.722494 0.736206
O O2 0.658642 0.716017 0.688395
O O3 0.654384 0.729960 0.787736
O O4 0.603672 0.000000 0.735913
O O5 0.665311 0.284583 0.586861
O O6 0.813554 0.230100 0.642858
O O7 0.685293 0.000000 0.638075
O O8 0.500000 0.769146 0.049920
O O9 0.607156 0.500000 0.040682
O O10 0.630052 0.776457 0.985316
O O11 0.500000 0.226781 0.920497
O O12 0.395530 0.500000 0.928547
O O13 0.332155 0.214449 0.885089
O O14 0.886660 0.724567 0.231798
O O15 0.000000 0.721998 0.158046
O O16 0.901948 0.000000 0.174845
O O17 0.815862 0.285291 0.322082
O O18 0.729983 0.000000 0.345477
O O19 0.000000 0.726055 0.305369
O O20 0.102216 0.000000 0.289474
#
# Coordination Sequence:
#
# PCOD9355882 Si02
#       7
#     8   8   8   8   8   8   8
#     4  10  20  30  39  59  92 121 141 168 215 270
#     4  10  18  28  45  66  87 114 149 183 213 250
#     4   8  14  26  43  62  87 119 150 179 213 254
#     4   8  14  24  40  64  88 110 144 185 217 249
#     4   9  17  30  46  63  87 118 147 175 216 267
#     4  10  17  27  46  67  86 111 146 184 216 254
#     4   8  14  25  41  61  85 112 140 171 210 257
#
# _framework density 18.948419999999999
#
# number of rings (size 3 to 8) (size 9 to 14) (size 15 to 20)
#    0.000    3.000    1.429    2.571    0.000    2.857 
#    0.000    0.000    0.000    3.429    0.000    6.000 
#    0.000    0.000    0.000    0.000    0.000    0.000 
#
# Total GULP energy -156170.777387 kJ/mol
# GULP energy per Si atom -5577.527764 kJ/mol
# Density = 1.890529 g / cm^3
# Si number density = 18.948420 Si / 1000 Ang^3
#
#
#
# Elastic Constant Matrix: (Units=GPa)
#
#
# Indices 1 2 3 4 5 6 
#
# 1 158.3768 -4.9862 111.5343 0.0000 0.0000 0.0000
# 2 -4.9862 56.2739 1.0930 0.0000 0.0000 0.0000
# 3 111.5343 1.0930 163.5333 0.0000 0.0000 0.0000
# 4 0.0000 0.0000 0.0000 6.1045 0.0000 0.0000
# 5 0.0000 0.0000 0.0000 0.0000 25.2191 0.0000
# 6 0.0000 0.0000 0.0000 0.0000 0.0000 33.5699
#
#
#
# Elastic Compliance Matrix: (Units=1/GPa)
#
#
# Indices 1 2 3 4 5 6 
#
# 1 0.012236 0.001246 -0.008354 0.000000 0.000000 0.000000
# 2 0.001246 0.017900 -0.000970 0.000000 0.000000 0.000000
# 3 -0.008354 -0.000970 0.011819 0.000000 0.000000 0.000000
# 4 0.000000 0.000000 0.000000 0.163814 0.000000 0.000000
# 5 0.000000 0.000000 0.000000 0.000000 0.039653 0.000000
# 6 0.000000 0.000000 0.000000 0.000000 0.000000 0.029789
#
#
# Mechanical properties :
#
#
# Convention : Reuss Voigt Hill
#
# Bulk Modulus (GPa) = 38.75884 65.94069 52.34977
# Shear Modulus (GPa) = 16.66863 31.01488 23.84175
#
# Velocity S-wave (km/s) = 2.96917 4.05013 3.55102
# Velocity P-wave (km/s) = 5.67925 7.53307 6.67087
#
# Compressibility (1/GPa) = 0.02580056
#
# Stress axis : x y z
#
# Youngs Moduli (GPa) = 81.72340 55.86747 84.60921
#
# Poissons Ratio (x) = -0.06964 0.70682
# Poissons Ratio (y) = -0.10187 0.08205
# Poissons Ratio (z) = 0.68271 0.05418
#
# Static dielectric constant tensor:
#      x y z
#    x 1.652220 0.000000 0.000000 
#    y 0.000000 1.751010 0.000000 
#    z 0.000000 0.000000 1.639850 
# 
# From -- ./inp_files/24988.got.cif
#   From: 2010.05.17/outbox.cif.g08.bks.cpg/sg38_13_cif.got.tgz:24988.got - 2010.06.03 18:07:57.
