data_PCOD9355376
_publ_section_title
;
Structure prediction by ZEFSAII (Michael W. Deem and Ramdas Pophale) SiO2 
 PCOD9355376
Probable space group: C C C 2
;
_chemical_formula_sum "Si O2"
_cell_formula_units_Z 40
_cell_length_a 8.979152
_cell_length_b 21.670381
_cell_length_c 7.853063
_cell_angle_alpha 90.000000
_cell_angle_beta 90.000000
_cell_angle_gamma 90.000000
_cell_volume 1528.061916
_symmetry_space_group_name_H-M "C C C 2"
_symmetry_group_IT_number 37
_symmetry_cell_setting 'orthorhombic'
loop_
_space_group_symop_operation_xyz
x,y,z
-x,-y,z
-x,y,1/2+z
x,-y,1/2+z
1/2+x,1/2+y,z
1/2-x,1/2-y,z
1/2-x,1/2+y,1/2+z
1/2+x,1/2-y,1/2+z
loop_
_atom_site_type_symbol
_atom_site_label
_atom_site_fract_x
_atom_site_fract_y
_atom_site_fract_z
Si Si1 0.635377 0.334554 0.879250
Si Si2 0.090945 0.377774 0.226761
Si Si3 0.191116 0.557362 0.386603
Si Si4 0.869760 0.048024 0.054872
Si Si5 0.914550 0.753326 0.060939
O O1 0.805293 0.356675 0.884003
O O2 0.618485 0.309052 0.690526
O O3 0.560434 0.396726 0.945323
O O4 0.563094 0.277416 0.973895
O O5 0.965507 0.423669 0.297883
O O6 0.045548 0.311397 0.148764
O O7 0.179723 0.409674 0.070816
O O8 0.300934 0.573279 0.230074
O O9 0.245687 0.489177 0.444253
O O10 0.000000 0.000000 0.095616
O O11 0.750000 0.750000 0.967932
#
# Coordination Sequence:
#
# PCOD9355376 Si02
#       5
#     8   8   8   8   8
#     4  11  26  48  82 120 165 219 288 351 425 515
#     4  11  26  51  82 126 165 222 287 356 437 506
#     4  12  28  51  79 118 169 220 286 352 419 518
#     4  12  30  49  81 118 172 231 289 347 432 510
#     4  10  25  49  80 120 169 219 282 351 431 510
#
# _framework density 26.176949
#
# number of rings (size 3 to 8) (size 9 to 14) (size 15 to 20)
#    0.000    0.800    0.000    4.200   11.200    9.600 
#    0.000    3.000    0.000    0.000    0.000    0.000 
#    0.000    0.000    0.000    0.000    0.000    0.000 
#
# Total GULP energy -111657.402249 kJ/mol
# GULP energy per Si atom -5582.870112 kJ/mol
# Density = 2.611737 g / cm^3
# Si number density = 26.176949 Si / 1000 Ang^3
#
#
#
# Elastic Constant Matrix: (Units=GPa)
#
#
# Indices 1 2 3 4 5 6 
#
# 1 139.6589 54.0336 56.2316 0.0000 0.0000 0.0000
# 2 54.0336 158.4947 47.4323 0.0000 0.0000 0.0000
# 3 56.2316 47.4323 70.6233 0.0000 0.0000 0.0000
# 4 0.0000 0.0000 0.0000 23.9829 0.0000 0.0000
# 5 0.0000 0.0000 0.0000 0.0000 27.1332 0.0000
# 6 0.0000 0.0000 0.0000 0.0000 0.0000 63.5518
#
#
#
# Elastic Compliance Matrix: (Units=1/GPa)
#
#
# Indices 1 2 3 4 5 6 
#
# 1 0.010776 -0.001384 -0.007651 0.000000 0.000000 0.000000
# 2 -0.001384 0.008074 -0.004321 0.000000 0.000000 0.000000
# 3 -0.007651 -0.004321 0.023153 0.000000 0.000000 0.000000
# 4 0.000000 0.000000 0.000000 0.041696 0.000000 0.000000
# 5 0.000000 0.000000 0.000000 0.000000 0.036855 0.000000
# 6 0.000000 0.000000 0.000000 0.000000 0.000000 0.015735
#
#
# Mechanical properties :
#
#
# Convention : Reuss Voigt Hill
#
# Bulk Modulus (GPa) = 65.39138 76.01912 70.70525
# Shear Modulus (GPa) = 29.74436 37.00554 33.37495
#
# Velocity S-wave (km/s) = 3.37453 3.76396 3.57455
# Velocity P-wave (km/s) = 6.34177 6.92772 6.64121
#
# Compressibility (1/GPa) = 0.01529253
#
# Stress axis : x y z
#
# Youngs Moduli (GPa) = 92.79665 123.84927 43.19079
#
# Poissons Ratio (x) = 0.17144 0.33043
# Poissons Ratio (y) = 0.12845 0.18662
# Poissons Ratio (z) = 0.70995 0.53512
#
# Static dielectric constant tensor:
#      x y z
#    x 2.215890 0.000000 0.000000 
#    y 0.000000 2.096950 0.000000 
#    z 0.000000 0.000000 2.070540 
# 
# From -- ./inp_files/2848.got.cif
#   From: 2010.05.17/outbox.cif.g08.bks.cpg/sg37_2_cif.got.tgz:2848.got - 2010.06.03 17:53:42.
