data_PCOD9355956
_publ_section_title
;
Structure prediction by ZEFSAII (Michael W. Deem and Ramdas Pophale) SiO2 
 PCOD9355956
Probable space group: A M M 2
;
_chemical_formula_sum "Si O2"
_cell_formula_units_Z 64
_cell_length_a 22.769580
_cell_length_b 7.462502
_cell_length_c 14.642337
_cell_angle_alpha 90.000000
_cell_angle_beta 90.000000
_cell_angle_gamma 90.000000
_cell_volume 2487.997150
_symmetry_space_group_name_H-M "A M M 2"
_symmetry_group_IT_number 38
_symmetry_cell_setting 'orthorhombic'
loop_
_space_group_symop_operation_xyz
x,y,z
-x,-y,z
-x,y,z
x,-y,z
x,1/2+y,1/2+z
-x,1/2-y,1/2+z
-x,1/2+y,1/2+z
x,1/2-y,1/2+z
loop_
_atom_site_type_symbol
_atom_site_label
_atom_site_fract_x
_atom_site_fract_y
_atom_site_fract_z
Si Si1 0.437399 0.711740 0.906980
Si Si2 0.188861 0.287183 0.053214
Si Si3 0.807543 0.299238 0.349475
Si Si4 0.686514 0.285708 0.377959
Si Si5 0.936706 0.791323 0.827728
Si Si6 0.688256 0.715525 0.589216
Si Si7 0.564350 0.294571 0.619636
Si Si8 0.938069 0.708487 0.109167
O O1 0.500000 0.764528 0.865058
O O2 0.438173 0.500000 0.923244
O O3 0.379865 0.749723 0.848077
O O4 0.434577 0.799002 0.007760
O O5 0.184944 0.500000 0.037670
O O6 0.245205 0.260231 0.117830
O O7 0.125438 0.218225 0.084527
O O8 0.200573 0.189766 0.958392
O O9 0.813193 0.500000 0.307670
O O10 0.744119 0.215322 0.325129
O O11 0.872067 0.211140 0.344189
O O12 0.693644 0.500000 0.378454
O O13 0.685795 0.218004 0.483391
O O14 0.940169 0.791337 0.718425
O O15 0.000000 0.716114 0.860509
O O16 0.934535 0.000000 0.859298
O O17 0.683644 0.500000 0.588250
O O18 0.629390 0.784055 0.638859
O O19 0.500000 0.215084 0.642680
O O20 0.563646 0.500000 0.653690
O O21 0.938106 0.500000 0.079788
O O22 0.000000 0.789521 0.076344
#
# Coordination Sequence:
#
# PCOD9355956 Si02
#       8
#     8   8   8   8   8   8   8   8
#     4   9  15  20  28  45  68  95 129 164 193 226
#     4  10  18  26  40  62  86 111 136 164 201 245
#     4   9  17  28  42  62  85 107 135 170 205 240
#     4   8  14  23  33  47  71 101 128 157 195 236
#     4   8  14  27  47  65  80 103 137 174 205 235
#     4   8  14  24  36  51  75 105 134 166 200 234
#     4   8  13  21  32  45  64  95 132 163 193 230
#     4   8  15  28  44  62  83 107 137 170 202 238
#
# _framework density 25.723503999999998
#
# number of rings (size 3 to 8) (size 9 to 14) (size 15 to 20)
#    0.000    3.500    0.000    3.000    0.000    5.750 
#    0.000    0.000    0.000    2.625    0.000    3.500 
#    0.000    1.000    0.000   10.250    0.000    5.750 
#
# Total GULP energy -178198.531410 kJ/mol
# GULP energy per Si atom -5568.704107 kJ/mol
# Density = 2.566496 g / cm^3
# Si number density = 25.723504 Si / 1000 Ang^3
#
#
#
# Elastic Constant Matrix: (Units=GPa)
#
#
# Indices 1 2 3 4 5 6 
#
# 1 300.8418 14.0132 -6.7174 0.0000 0.0000 0.0000
# 2 14.0132 95.0795 -3.9509 0.0000 0.0000 0.0000
# 3 -6.7174 -3.9509 54.6210 0.0000 0.0000 0.0000
# 4 0.0000 0.0000 0.0000 -2.1209 0.0000 0.0000
# 5 0.0000 0.0000 0.0000 0.0000 71.5586 0.0000
# 6 0.0000 0.0000 0.0000 0.0000 0.0000 -39.6383
#
#
#
# Elastic Compliance Matrix: (Units=1/GPa)
#
#
# Indices 1 2 3 4 5 6 
#
# 1 0.003355 -0.000479 0.000378 0.000000 0.000000 0.000000
# 2 -0.000479 0.010618 0.000709 0.000000 0.000000 0.000000
# 3 0.000378 0.000709 0.018406 0.000000 0.000000 0.000000
# 4 0.000000 0.000000 0.000000 -0.471489 0.000000 0.000000
# 5 0.000000 0.000000 0.000000 0.000000 0.013975 0.000000
# 6 0.000000 0.000000 0.000000 0.000000 0.000000 -0.025228
#
#
# Mechanical properties :
#
#
# Convention : Reuss Voigt Hill
#
# Bulk Modulus (GPa) = 29.76661 50.80356 40.28508
# Shear Modulus (GPa) = -11.35375 35.77303 12.20964
#
# Velocity S-wave (km/s) = -2.10318 3.73322 2.18101
# Velocity P-wave (km/s) = 2.38727 6.19478 4.69438
#
# Compressibility (1/GPa) = 0.03359469
#
# Stress axis : x y z
#
# Youngs Moduli (GPa) = 298.08526 94.18378 54.33089
#
# Poissons Ratio (x) = 0.04509 -0.02053
# Poissons Ratio (y) = 0.14270 -0.03853
# Poissons Ratio (z) = -0.11266 -0.06679
#
# Static dielectric constant tensor:
#      x y z
#    x 2.280040 0.000000 0.000000 
#    y 0.000000 2.014480 0.000000 
#    z 0.000000 0.000000 2.008720 
# 
# From -- ./inp_files/21504.got.cif
#   From: 2010.05.17/outbox.cif.g08.bks.cpg/sg38_11_cif.got.tgz:21504.got - 2010.06.03 18:07:57.
