data_PCOD9355041
_publ_section_title
;
Structure prediction by ZEFSAII (Michael W. Deem and Ramdas Pophale) SiO2 
 PCOD9355041
Probable space group: C C C 2
;
_chemical_formula_sum "Si O2"
_cell_formula_units_Z 28
_cell_length_a 5.326543
_cell_length_b 19.649654
_cell_length_c 9.382420
_cell_angle_alpha 90.000000
_cell_angle_beta 90.000000
_cell_angle_gamma 90.000000
_cell_volume 982.008428
_symmetry_space_group_name_H-M "C C C 2"
_symmetry_group_IT_number 37
_symmetry_cell_setting 'orthorhombic'
loop_
_space_group_symop_operation_xyz
x,y,z
-x,-y,z
-x,y,1/2+z
x,-y,1/2+z
1/2+x,1/2+y,z
1/2-x,1/2-y,z
1/2-x,1/2+y,1/2+z
1/2+x,1/2-y,1/2+z
loop_
_atom_site_type_symbol
_atom_site_label
_atom_site_fract_x
_atom_site_fract_y
_atom_site_fract_z
Si Si1 0.352539 0.649229 0.836770
Si Si2 0.439173 0.849312 0.113397
Si Si3 0.500000 0.000000 0.034711
Si Si4 0.250000 0.750000 0.406828
Si Si5 0.500000 0.500000 0.852987
O O1 0.573368 0.702542 0.807352
O O2 0.442931 0.574247 0.787138
O O3 0.088205 0.664572 0.761779
O O4 0.309219 0.655091 0.008753
O O5 0.457729 0.931285 0.118351
O O6 0.615167 0.802605 0.013199
O O7 0.748331 0.987850 0.942776
#
# Coordination Sequence:
#
# PCOD9355041 Si02
#       5
#     8   8   4   4   4
#     4  11  27  54  87 125 172 229 290 360 438 522
#     4  11  27  49  84 124 170 225 285 358 436 515
#     4  10  22  50  78 126 168 218 284 350 420 512
#     4  12  26  52  80 128 168 228 290 356 434 528
#     4  10  22  50  82 126 164 228 282 350 428 514
#
# _framework density 28.512996999999999
#
# number of rings (size 3 to 8) (size 9 to 14) (size 15 to 20)
#    0.000    1.143    2.857    0.857    4.000    8.000 
#    0.000    0.000    0.000    1.714    0.000    0.000 
#    0.000    0.000    0.000    0.000    0.000    0.000 
#
# Total GULP energy -78143.343479 kJ/mol
# GULP energy per Si atom -5581.667391 kJ/mol
# Density = 2.844810 g / cm^3
# Si number density = 28.512997 Si / 1000 Ang^3
#
#
#
# Elastic Constant Matrix: (Units=GPa)
#
#
# Indices 1 2 3 4 5 6 
#
# 1 139.7511 6.3706 10.9177 0.0000 0.0000 0.0000
# 2 6.3706 140.8026 6.9469 0.0000 0.0000 0.0000
# 3 10.9177 6.9469 130.1190 0.0000 0.0000 0.0000
# 4 0.0000 0.0000 0.0000 12.6176 0.0000 0.0000
# 5 0.0000 0.0000 0.0000 0.0000 2.2278 0.0000
# 6 0.0000 0.0000 0.0000 0.0000 0.0000 55.7504
#
#
#
# Elastic Compliance Matrix: (Units=1/GPa)
#
#
# Indices 1 2 3 4 5 6 
#
# 1 0.007215 -0.000297 -0.000590 0.000000 0.000000 0.000000
# 2 -0.000297 0.007133 -0.000356 0.000000 0.000000 0.000000
# 3 -0.000590 -0.000356 0.007754 0.000000 0.000000 0.000000
# 4 0.000000 0.000000 0.000000 0.079255 0.000000 0.000000
# 5 0.000000 0.000000 0.000000 0.000000 0.448863 0.000000
# 6 0.000000 0.000000 0.000000 0.000000 0.000000 0.017937
#
#
# Mechanical properties :
#
#
# Convention : Reuss Voigt Hill
#
# Bulk Modulus (GPa) = 50.97735 51.01590 50.99662
# Shear Modulus (GPa) = 8.66279 39.88166 24.27222
#
# Velocity S-wave (km/s) = 1.74493 3.74400 2.92082
# Velocity P-wave (km/s) = 4.68798 6.05153 5.41287
#
# Compressibility (1/GPa) = 0.01961655
#
# Stress axis : x y z
#
# Youngs Moduli (GPa) = 138.59648 140.19048 128.97006
#
# Poissons Ratio (x) = 0.04169 0.07603
# Poissons Ratio (y) = 0.04121 0.04590
# Poissons Ratio (z) = 0.08171 0.04989
#
# Static dielectric constant tensor:
#      x y z
#    x 2.326380 0.000000 0.000000 
#    y 0.000000 2.223590 0.000000 
#    z 0.000000 0.000000 2.619090 
# 
# From -- ./inp_files/4501.got.cif
#   From: 2010.05.17/outbox.cif.g08.bks.cpg/sg37_3_cif.got.tgz:4501.got - 2010.06.03 17:53:42.
