data_PCOD9355169
_publ_section_title
;
Structure prediction by ZEFSAII (Michael W. Deem and Ramdas Pophale) SiO2 
 PCOD9355169
Probable space group: C C C 2
;
_chemical_formula_sum "Si O2"
_cell_formula_units_Z 60
_cell_length_a 26.975109
_cell_length_b 11.029955
_cell_length_c 8.485926
_cell_angle_alpha 90.000000
_cell_angle_beta 90.000000
_cell_angle_gamma 90.000000
_cell_volume 2524.853529
_symmetry_space_group_name_H-M "C C C 2"
_symmetry_group_IT_number 37
_symmetry_cell_setting 'orthorhombic'
loop_
_space_group_symop_operation_xyz
x,y,z
-x,-y,z
-x,y,1/2+z
x,-y,1/2+z
1/2+x,1/2+y,z
1/2-x,1/2-y,z
1/2-x,1/2+y,1/2+z
1/2+x,1/2-y,1/2+z
loop_
_atom_site_type_symbol
_atom_site_label
_atom_site_fract_x
_atom_site_fract_y
_atom_site_fract_z
Si Si1 0.500000 0.500000 0.398630
Si Si2 0.882378 0.726838 0.213520
Si Si3 0.751146 0.937722 0.730011
Si Si4 0.902528 0.102209 0.978437
Si Si5 0.045247 0.771408 0.218695
Si Si6 0.208459 0.650099 0.921211
Si Si7 0.680411 0.598261 0.000974
Si Si8 0.031489 0.376609 0.021710
O O1 0.547812 0.527058 0.502894
O O2 0.519259 0.384922 0.301584
O O3 0.910240 0.830529 0.312520
O O4 0.844043 0.684644 0.348404
O O5 0.850071 0.791986 0.077757
O O6 0.921486 0.632520 0.140612
O O7 0.717430 0.865156 0.607216
O O8 0.719445 0.020475 0.845614
O O9 0.783172 0.034960 0.627741
O O10 0.788949 0.867975 0.845087
O O11 0.904075 0.189684 0.130253
O O12 0.856782 0.012567 0.962640
O O13 0.050285 0.668633 0.352076
O O14 0.008456 0.719426 0.086727
O O15 0.250000 0.750000 0.871933
O O16 0.000000 0.500000 0.012729
#
# Coordination Sequence:
#
# PCOD9355169 Si02
#       8
#     4   8   8   8   8   8   8   8
#     4  12  22  42  68 110 152 180 246 328 410 452
#     4  12  24  47  77 109 153 206 266 326 386 477
#     4  10  23  45  76 109 149 194 241 326 415 466
#     4  12  24  41  72 115 150 189 248 322 406 475
#     4  12  25  45  71 103 153 198 251 330 396 448
#     4  11  23  51  74 108 153 193 248 324 396 485
#     4  11  21  42  74 117 152 189 248 329 414 497
#     4  12  27  50  71 102 153 224 273 316 373 471
#
# _framework density 23.763756999999998
#
# number of rings (size 3 to 8) (size 9 to 14) (size 15 to 20)
#    0.000    0.533    5.333    3.200    1.867    0.000 
#   12.000    0.667    0.000    0.000    0.000    0.000 
#    0.000    0.000    0.000    0.000    0.000    0.000 
#
# Total GULP energy -167770.829203 kJ/mol
# GULP energy per Si atom -5592.360973 kJ/mol
# Density = 2.370967 g / cm^3
# Si number density = 23.763757 Si / 1000 Ang^3
#
#
#
# Elastic Constant Matrix: (Units=GPa)
#
#
# Indices 1 2 3 4 5 6 
#
# 1 92.4443 29.6259 56.1198 0.0000 0.0000 0.0000
# 2 29.6259 89.5097 51.6289 0.0000 0.0000 0.0000
# 3 56.1198 51.6289 149.6569 0.0000 0.0000 0.0000
# 4 0.0000 0.0000 0.0000 30.3652 0.0000 0.0000
# 5 0.0000 0.0000 0.0000 0.0000 27.8245 0.0000
# 6 0.0000 0.0000 0.0000 0.0000 0.0000 31.5728
#
#
#
# Elastic Compliance Matrix: (Units=1/GPa)
#
#
# Indices 1 2 3 4 5 6 
#
# 1 0.014300 -0.002047 -0.004656 0.000000 0.000000 0.000000
# 2 -0.002047 0.014240 -0.004145 0.000000 0.000000 0.000000
# 3 -0.004656 -0.004145 0.009858 0.000000 0.000000 0.000000
# 4 0.000000 0.000000 0.000000 0.032932 0.000000 0.000000
# 5 0.000000 0.000000 0.000000 0.000000 0.035940 0.000000
# 6 0.000000 0.000000 0.000000 0.000000 0.000000 0.031673
#
#
# Mechanical properties :
#
#
# Convention : Reuss Voigt Hill
#
# Bulk Modulus (GPa) = 59.87491 67.37334 63.62413
# Shear Modulus (GPa) = 30.08298 30.90159 30.49229
#
# Velocity S-wave (km/s) = 3.56184 3.60997 3.58598
# Velocity P-wave (km/s) = 6.49355 6.76674 6.63155
#
# Compressibility (1/GPa) = 0.01670149
#
# Stress axis : x y z
#
# Youngs Moduli (GPa) = 69.93012 70.22265 101.44215
#
# Poissons Ratio (x) = 0.14378 0.47232
# Poissons Ratio (y) = 0.14318 0.42047
# Poissons Ratio (z) = 0.32560 0.29107
#
# Static dielectric constant tensor:
#      x y z
#    x 1.915900 0.000000 0.000000 
#    y 0.000000 2.039360 0.000000 
#    z 0.000000 0.000000 1.940360 
# 
# From -- ./inp_files/4807.got.cif
#   From: 2010.05.17/outbox.cif.g08.bks.cpg/sg37_3_cif.got.tgz:4807.got - 2010.06.03 17:53:42.
