data_PCOD9355546
_publ_section_title
;
Structure prediction by ZEFSAII (Michael W. Deem and Ramdas Pophale) SiO2 
 PCOD9355546
Probable space group: C C C 2
;
_chemical_formula_sum "Si O2"
_cell_formula_units_Z 48
_cell_length_a 26.358039
_cell_length_b 9.004814
_cell_length_c 10.063759
_cell_angle_alpha 90.000000
_cell_angle_beta 90.000000
_cell_angle_gamma 90.000000
_cell_volume 2388.625536
_symmetry_space_group_name_H-M "C C C 2"
_symmetry_group_IT_number 37
_symmetry_cell_setting 'orthorhombic'
loop_
_space_group_symop_operation_xyz
x,y,z
-x,-y,z
-x,y,1/2+z
x,-y,1/2+z
1/2+x,1/2+y,z
1/2-x,1/2-y,z
1/2-x,1/2+y,1/2+z
1/2+x,1/2-y,1/2+z
loop_
_atom_site_type_symbol
_atom_site_label
_atom_site_fract_x
_atom_site_fract_y
_atom_site_fract_z
Si Si1 0.393992 0.359714 0.353030
Si Si2 0.077760 0.680029 0.592475
Si Si3 0.300642 0.154914 0.405161
Si Si4 0.161763 0.455372 0.668386
Si Si5 0.475037 0.664403 0.085478
Si Si6 0.390255 0.699112 0.308152
O O1 0.405744 0.296979 0.206531
O O2 0.348656 0.264459 0.412870
O O3 0.442081 0.340212 0.450355
O O4 0.377710 0.529904 0.342082
O O5 0.106374 0.528834 0.635396
O O6 0.097752 0.720295 0.446560
O O7 0.017400 0.706352 0.583678
O O8 0.250000 0.250000 0.399266
O O9 0.305375 0.055166 0.535946
O O10 0.310182 0.056961 0.275260
O O11 0.151571 0.294530 0.731408
O O12 0.500000 0.500000 0.096753
O O13 0.438855 0.689318 0.211337
#
# Coordination Sequence:
#
# PCOD9355546 Si02
#       6
#     8   8   8   8   8   8
#     4  11  23  42  69 102 139 183 234 290 331 414
#     4  11  24  39  65  97 145 186 228 274 344 405
#     4  11  26  51  74  99 137 177 234 294 361 412
#     4  11  25  49  68 102 140 178 228 298 346 422
#     4  12  22  38  66 103 142 190 229 275 334 419
#     4  12  22  41  68  97 141 184 228 282 342 392
#
# _framework density 20.095237999999998
#
# number of rings (size 3 to 8) (size 9 to 14) (size 15 to 20)
#    0.000    0.667    6.667    1.000    0.000    2.000 
#    3.000    2.500    0.000    0.000    0.000    0.000 
#    0.000    0.000    0.000    0.000    0.000    0.000 
#
# Total GULP energy -134150.899174 kJ/mol
# GULP energy per Si atom -5589.620799 kJ/mol
# Density = 2.004950 g / cm^3
# Si number density = 20.095238 Si / 1000 Ang^3
#
#
#
# Elastic Constant Matrix: (Units=GPa)
#
#
# Indices 1 2 3 4 5 6 
#
# 1 75.7515 32.0400 32.1441 0.0000 0.0000 0.0000
# 2 32.0400 73.0732 38.2080 0.0000 0.0000 0.0000
# 3 32.1441 38.2080 144.0516 0.0000 0.0000 0.0000
# 4 0.0000 0.0000 0.0000 23.2640 0.0000 0.0000
# 5 0.0000 0.0000 0.0000 0.0000 9.8010 0.0000
# 6 0.0000 0.0000 0.0000 0.0000 0.0000 29.6008
#
#
#
# Elastic Compliance Matrix: (Units=1/GPa)
#
#
# Indices 1 2 3 4 5 6 
#
# 1 0.016724 -0.006248 -0.002075 0.000000 0.000000 0.000000
# 2 -0.006248 0.018223 -0.003439 0.000000 0.000000 0.000000
# 3 -0.002075 -0.003439 0.008317 0.000000 0.000000 0.000000
# 4 0.000000 0.000000 0.000000 0.042985 0.000000 0.000000
# 5 0.000000 0.000000 0.000000 0.000000 0.102030 0.000000
# 6 0.000000 0.000000 0.000000 0.000000 0.000000 0.033783
#
#
# Mechanical properties :
#
#
# Convention : Reuss Voigt Hill
#
# Bulk Modulus (GPa) = 50.65828 55.29562 52.97695
# Shear Modulus (GPa) = 19.82822 25.23212 22.53017
#
# Velocity S-wave (km/s) = 3.14461 3.54733 3.35202
# Velocity P-wave (km/s) = 6.20069 6.65992 6.43440
#
# Compressibility (1/GPa) = 0.01974011
#
# Stress axis : x y z
#
# Youngs Moduli (GPa) = 59.79382 54.87648 120.23444
#
# Poissons Ratio (x) = 0.34288 0.24944
# Poissons Ratio (y) = 0.37360 0.41350
# Poissons Ratio (z) = 0.12405 0.18873
#
# Static dielectric constant tensor:
#      x y z
#    x 1.700120 0.000000 0.000000 
#    y 0.000000 1.722270 0.000000 
#    z 0.000000 0.000000 1.698060 
# 
# From -- ./inp_files/4940.got.cif
#   From: 2010.05.17/outbox.cif.g08.bks.cpg/sg37_3_cif.got.tgz:4940.got - 2010.06.03 17:53:42.
