data_PCOD9355092
_publ_section_title
;
Structure prediction by ZEFSAII (Michael W. Deem and Ramdas Pophale) SiO2 
 PCOD9355092
Probable space group: C C C 2
;
_chemical_formula_sum "Si O2"
_cell_formula_units_Z 40
_cell_length_a 16.953127
_cell_length_b 7.827573
_cell_length_c 13.061753
_cell_angle_alpha 90.000000
_cell_angle_beta 90.000000
_cell_angle_gamma 90.000000
_cell_volume 1733.318646
_symmetry_space_group_name_H-M "C C C 2"
_symmetry_group_IT_number 37
_symmetry_cell_setting 'orthorhombic'
loop_
_space_group_symop_operation_xyz
x,y,z
-x,-y,z
-x,y,1/2+z
x,-y,1/2+z
1/2+x,1/2+y,z
1/2-x,1/2-y,z
1/2-x,1/2+y,1/2+z
1/2+x,1/2-y,1/2+z
loop_
_atom_site_type_symbol
_atom_site_label
_atom_site_fract_x
_atom_site_fract_y
_atom_site_fract_z
Si Si1 0.656508 0.293828 0.580630
Si Si2 0.549942 0.833459 0.895382
Si Si3 0.161591 0.190229 0.521726
Si Si4 0.655310 0.266124 0.236798
Si Si5 0.401993 0.650218 0.801751
O O1 0.750000 0.250000 0.573869
O O2 0.596282 0.216475 0.497932
O O3 0.653723 0.492799 0.550827
O O4 0.623349 0.263175 0.694966
O O5 0.618520 0.867620 0.814052
O O6 0.491875 0.695624 0.837646
O O7 0.500000 0.000000 0.915146
O O8 0.250000 0.250000 0.527912
O O9 0.122022 0.271761 0.622718
O O10 0.138251 0.214561 0.405554
O O11 0.750000 0.250000 0.238467
O O12 0.629288 0.454988 0.278977
#
# Coordination Sequence:
#
# PCOD9355092 Si02
#       5
#     8   8   8   8   8
#     4  11  26  48  72 106 153 194 247 306 366 447
#     4  12  28  45  72 107 151 195 244 306 369 437
#     4  10  23  41  75 106 138 190 245 302 371 443
#     4  10  23  47  74 105 147 192 245 306 373 445
#     4  11  25  45  73 104 147 192 244 303 378 431
#
# _framework density 23.077117999999999
#
# number of rings (size 3 to 8) (size 9 to 14) (size 15 to 20)
#    0.000    1.200    2.000    1.800    5.600    5.600 
#    0.000    0.000    0.000    0.000    0.000    0.000 
#    0.000    0.000    0.000    0.000    0.000    0.000 
#
# Total GULP energy -111477.275062 kJ/mol
# GULP energy per Si atom -5573.863753 kJ/mol
# Density = 2.302459 g / cm^3
# Si number density = 23.077118 Si / 1000 Ang^3
#
#
#
# Elastic Constant Matrix: (Units=GPa)
#
#
# Indices 1 2 3 4 5 6 
#
# 1 151.5333 49.6405 102.1617 0.0000 0.0000 0.0000
# 2 49.6405 67.5875 56.1573 0.0000 0.0000 0.0000
# 3 102.1617 56.1573 270.7664 0.0000 0.0000 0.0000
# 4 0.0000 0.0000 0.0000 -25.7788 0.0000 0.0000
# 5 0.0000 0.0000 0.0000 0.0000 239.5185 0.0000
# 6 0.0000 0.0000 0.0000 0.0000 0.0000 44.2563
#
#
#
# Elastic Compliance Matrix: (Units=1/GPa)
#
#
# Indices 1 2 3 4 5 6 
#
# 1 0.010151 -0.005163 -0.002759 0.000000 0.000000 0.000000
# 2 -0.005163 0.020502 -0.002304 0.000000 0.000000 0.000000
# 3 -0.002759 -0.002304 0.005212 0.000000 0.000000 0.000000
# 4 0.000000 0.000000 0.000000 -0.038792 0.000000 0.000000
# 5 0.000000 0.000000 0.000000 0.000000 0.004175 0.000000
# 6 0.000000 0.000000 0.000000 0.000000 0.000000 0.022596
#
#
# Mechanical properties :
#
#
# Convention : Reuss Voigt Hill
#
# Bulk Modulus (GPa) = 64.88193 100.64513 82.76353
# Shear Modulus (GPa) = 101.14589 70.39439 85.77014
#
# Velocity S-wave (km/s) = 6.62757 5.52903 6.10307
# Velocity P-wave (km/s) = 9.31357 9.19062 9.25230
#
# Compressibility (1/GPa) = 0.01541261
#
# Stress axis : x y z
#
# Youngs Moduli (GPa) = 98.51601 48.77576 191.85934
#
# Poissons Ratio (x) = 0.25182 0.52937
# Poissons Ratio (y) = 0.50861 0.44208
# Poissons Ratio (z) = 0.27182 0.11239
#
# Static dielectric constant tensor:
#      x y z
#    x 0.662600 0.000000 0.000000 
#    y 0.000000 1.929180 0.000000 
#    z 0.000000 0.000000 1.925360 
# 
# From -- ./inp_files/6119.got.cif
#   From: 2010.05.17/outbox.cif.g08.bks.cpg/sg37_4_cif.got.tgz:6119.got - 2010.06.03 17:53:42.
