data_PCOD9355628
_publ_section_title
;
Structure prediction by ZEFSAII (Michael W. Deem and Ramdas Pophale) SiO2 
 PCOD9355628
Probable space group: C C C 2
;
_chemical_formula_sum "Si O2"
_cell_formula_units_Z 64
_cell_length_a 29.485298
_cell_length_b 11.810530
_cell_length_c 8.617776
_cell_angle_alpha 90.000000
_cell_angle_beta 90.000000
_cell_angle_gamma 90.000000
_cell_volume 3001.028432
_symmetry_space_group_name_H-M "C C C 2"
_symmetry_group_IT_number 37
_symmetry_cell_setting 'orthorhombic'
loop_
_space_group_symop_operation_xyz
x,y,z
-x,-y,z
-x,y,1/2+z
x,-y,1/2+z
1/2+x,1/2+y,z
1/2-x,1/2-y,z
1/2-x,1/2+y,1/2+z
1/2+x,1/2-y,1/2+z
loop_
_atom_site_type_symbol
_atom_site_label
_atom_site_fract_x
_atom_site_fract_y
_atom_site_fract_z
Si Si1 0.803360 0.246922 0.056270
Si Si2 0.940061 0.761689 0.642015
Si Si3 0.903771 0.987429 0.094884
Si Si4 0.800555 0.798716 0.913872
Si Si5 0.627799 0.909056 0.460689
Si Si6 0.337963 0.533897 0.858739
Si Si7 0.961245 0.785750 0.008175
Si Si8 0.624891 0.152347 0.598906
O O1 0.750000 0.250000 0.036434
O O2 0.814541 0.227724 0.236361
O O3 0.823352 0.368015 0.017084
O O4 0.824332 0.149470 0.945029
O O5 0.907853 0.665781 0.563613
O O6 0.951822 0.762002 0.825601
O O7 0.987320 0.759661 0.549544
O O8 0.916432 0.883102 0.620401
O O9 0.857478 0.950016 0.185891
O O10 0.947406 0.907253 0.084990
O O11 0.885262 0.983648 0.920999
O O12 0.750000 0.750000 0.943276
O O13 0.801778 0.936430 0.900729
O O14 0.836131 0.735076 0.027775
O O15 0.629124 0.880909 0.278694
O O16 0.622709 0.040279 0.494646
O O17 0.924009 0.709060 0.090215
#
# Coordination Sequence:
#
# PCOD9355628 Si02
#       8
#     8   8   8   8   8   8   8   8
#     4  11  25  44  69 102 141 183 236 288 350 418
#     4  12  26  44  69 103 139 178 229 285 346 419
#     4  12  23  41  71  99 142 180 229 286 350 415
#     4  11  25  45  69 102 141 184 234 290 347 418
#     4  12  26  47  71  97 136 181 231 285 345 415
#     4  12  22  43  70 101 140 187 230 290 354 410
#     4  12  26  43  69 103 138 179 229 285 347 418
#     4  12  26  47  71  97 135 182 231 285 346 413
#
# _framework density 21.326021000000001
#
# number of rings (size 3 to 8) (size 9 to 14) (size 15 to 20)
#    0.000    0.250    5.000    4.125    3.500    2.000 
#    0.000    2.500    0.000    0.000    0.000    0.000 
#    0.000    0.000    0.000    0.000    0.000    0.000 
#
# Total GULP energy -178467.049406 kJ/mol
# GULP energy per Si atom -5577.095294 kJ/mol
# Density = 2.127748 g / cm^3
# Si number density = 21.326021 Si / 1000 Ang^3
#
#
#
# Elastic Constant Matrix: (Units=GPa)
#
#
# Indices 1 2 3 4 5 6 
#
# 1 82.8327 15.7410 4.4522 0.0000 0.0000 0.0000
# 2 15.7410 75.7740 8.4152 0.0000 0.0000 0.0000
# 3 4.4522 8.4152 84.5260 0.0000 0.0000 0.0000
# 4 0.0000 0.0000 0.0000 24.2719 0.0000 0.0000
# 5 0.0000 0.0000 0.0000 0.0000 22.4231 0.0000
# 6 0.0000 0.0000 0.0000 0.0000 0.0000 -62.0759
#
#
#
# Elastic Compliance Matrix: (Units=1/GPa)
#
#
# Indices 1 2 3 4 5 6 
#
# 1 0.012583 -0.002569 -0.000407 0.000000 0.000000 0.000000
# 2 -0.002569 0.013869 -0.001245 0.000000 0.000000 0.000000
# 3 -0.000407 -0.001245 0.011976 0.000000 0.000000 0.000000
# 4 0.000000 0.000000 0.000000 0.041200 0.000000 0.000000
# 5 0.000000 0.000000 0.000000 0.000000 0.044597 0.000000
# 6 0.000000 0.000000 0.000000 0.000000 0.000000 -0.016109
#
#
# Mechanical properties :
#
#
# Convention : Reuss Voigt Hill
#
# Bulk Modulus (GPa) = 33.34953 33.37215 33.36084
# Shear Modulus (GPa) = 39.50926 11.22543 25.36735
#
# Velocity S-wave (km/s) = 4.30889 2.29677 3.45266
# Velocity P-wave (km/s) = 6.35825 4.76614 5.61887
#
# Compressibility (1/GPa) = 0.02998543
#
# Stress axis : x y z
#
# Youngs Moduli (GPa) = 79.47524 72.10301 83.49951
#
# Poissons Ratio (x) = 0.18521 0.03399
# Poissons Ratio (y) = 0.20414 0.10400
# Poissons Ratio (z) = 0.03235 0.08980
#
# Static dielectric constant tensor:
#      x y z
#    x 1.728640 0.000000 0.000000 
#    y 0.000000 2.011850 0.000000 
#    z 0.000000 0.000000 1.811250 
# 
# From -- ./inp_files/4995.got.cif
#   From: 2010.05.17/outbox.cif.g08.bks.cpg/sg37_3_cif.got.tgz:4995.got - 2010.06.03 17:53:42.
