data_PCOD9355005
_publ_section_title
;
Structure prediction by ZEFSAII (Michael W. Deem and Ramdas Pophale) SiO2 
 PCOD9355005
Probable space group: C C C 2
;
_chemical_formula_sum "Si O2"
_cell_formula_units_Z 56
_cell_length_a 13.939701
_cell_length_b 15.672011
_cell_length_c 11.090407
_cell_angle_alpha 90.000000
_cell_angle_beta 90.000000
_cell_angle_gamma 90.000000
_cell_volume 2422.845219
_symmetry_space_group_name_H-M "C C C 2"
_symmetry_group_IT_number 37
_symmetry_cell_setting 'orthorhombic'
loop_
_space_group_symop_operation_xyz
x,y,z
-x,-y,z
-x,y,1/2+z
x,-y,1/2+z
1/2+x,1/2+y,z
1/2-x,1/2-y,z
1/2-x,1/2+y,1/2+z
1/2+x,1/2-y,1/2+z
loop_
_atom_site_type_symbol
_atom_site_label
_atom_site_fract_x
_atom_site_fract_y
_atom_site_fract_z
Si Si1 0.250000 0.750000 0.631040
Si Si2 0.943780 0.724529 0.283262
Si Si3 0.797845 0.063679 0.557440
Si Si4 0.653789 0.210164 0.025109
Si Si5 0.263888 0.969885 0.305211
Si Si6 0.000000 0.000000 0.097652
Si Si7 0.563589 0.925548 0.669493
Si Si8 0.895408 0.847905 0.729694
O O1 0.152637 0.749500 0.711272
O O2 0.239761 0.838638 0.557073
O O3 0.917752 0.697053 0.416492
O O4 0.992428 0.648766 0.209279
O O5 0.022377 0.798678 0.301465
O O6 0.754111 0.009803 0.445647
O O7 0.771694 0.030798 0.694104
O O8 0.912415 0.050692 0.534991
O O9 0.750000 0.250000 0.971055
O O10 0.647538 0.121004 0.094491
O O11 0.628455 0.283151 0.121763
O O12 0.376851 0.961106 0.282644
O O13 0.201420 0.882477 0.289933
O O14 0.053412 0.930380 0.176732
O O15 0.500000 0.000000 0.612468
#
# Coordination Sequence:
#
# PCOD9355005 Si02
#       8
#     4   8   8   8   8   4   8   8
#     4  12  24  46  68 116 146 194 242 322 376 452
#     4  11  25  41  74 104 149 191 250 308 377 447
#     4  11  27  45  78 105 155 195 256 311 384 449
#     4  11  23  45  74 105 144 198 250 311 369 447
#     4  11  26  48  72 108 146 199 252 313 375 460
#     4  10  22  46  66 106 142 192 240 308 366 452
#     4  11  26  47  70 105 146 193 251 309 375 449
#     4  10  23  43  68 105 141 191 245 305 375 438
#
# _framework density 23.113320999999999
#
# number of rings (size 3 to 8) (size 9 to 14) (size 15 to 20)
#    0.000    1.143    3.571    0.857    2.000   13.143 
#    0.000    0.000    0.000    0.857    0.000    0.000 
#    0.000    0.000    0.000    0.000    0.000    0.000 
#
# Total GULP energy -156224.807721 kJ/mol
# GULP energy per Si atom -5579.457419 kJ/mol
# Density = 2.306071 g / cm^3
# Si number density = 23.113321 Si / 1000 Ang^3
#
#
#
# Elastic Constant Matrix: (Units=GPa)
#
#
# Indices 1 2 3 4 5 6 
#
# 1 95.1255 27.9047 9.0731 0.0000 0.0000 0.0000
# 2 27.9047 114.7865 23.5819 0.0000 0.0000 0.0000
# 3 9.0731 23.5819 90.1410 0.0000 0.0000 0.0000
# 4 0.0000 0.0000 0.0000 13.5976 0.0000 0.0000
# 5 0.0000 0.0000 0.0000 0.0000 13.5851 0.0000
# 6 0.0000 0.0000 0.0000 0.0000 0.0000 32.4757
#
#
#
# Elastic Compliance Matrix: (Units=1/GPa)
#
#
# Indices 1 2 3 4 5 6 
#
# 1 0.011336 -0.002665 -0.000444 0.000000 0.000000 0.000000
# 2 -0.002665 0.009833 -0.002304 0.000000 0.000000 0.000000
# 3 -0.000444 -0.002304 0.011741 0.000000 0.000000 0.000000
# 4 0.000000 0.000000 0.000000 0.073542 0.000000 0.000000
# 5 0.000000 0.000000 0.000000 0.000000 0.073610 0.000000
# 6 0.000000 0.000000 0.000000 0.000000 0.000000 0.030792
#
#
# Mechanical properties :
#
#
# Convention : Reuss Voigt Hill
#
# Bulk Modulus (GPa) = 45.27967 46.79692 46.03830
# Shear Modulus (GPa) = 21.82999 27.89790 24.86394
#
# Velocity S-wave (km/s) = 3.07657 3.47797 3.28341
# Velocity P-wave (km/s) = 5.67919 6.03482 5.85970
#
# Compressibility (1/GPa) = 0.02208496
#
# Stress axis : x y z
#
# Youngs Moduli (GPa) = 88.21103 101.69838 85.16996
#
# Poissons Ratio (x) = 0.27100 0.03781
# Poissons Ratio (y) = 0.23506 0.19625
# Poissons Ratio (z) = 0.03916 0.23433
#
# Static dielectric constant tensor:
#      x y z
#    x 1.218880 0.000000 0.000000 
#    y 0.000000 1.849790 0.000000 
#    z 0.000000 0.000000 1.890780 
# 
# From -- ./inp_files/7870.got.cif
#   From: 2010.05.17/outbox.cif.g08.bks.cpg/sg37_4_cif.got.tgz:7870.got - 2010.06.03 17:53:42.
