data_PCOD9355435
_publ_section_title
;
Structure prediction by ZEFSAII (Michael W. Deem and Ramdas Pophale) SiO2 
 PCOD9355435
Probable space group: C C C 2
;
_chemical_formula_sum "Si O2"
_cell_formula_units_Z 56
_cell_length_a 25.678456
_cell_length_b 17.207612
_cell_length_c 7.545948
_cell_angle_alpha 90.000000
_cell_angle_beta 90.000000
_cell_angle_gamma 90.000000
_cell_volume 3334.289616
_symmetry_space_group_name_H-M "C C C 2"
_symmetry_group_IT_number 37
_symmetry_cell_setting 'orthorhombic'
loop_
_space_group_symop_operation_xyz
x,y,z
-x,-y,z
-x,y,1/2+z
x,-y,1/2+z
1/2+x,1/2+y,z
1/2-x,1/2-y,z
1/2-x,1/2+y,1/2+z
1/2+x,1/2-y,1/2+z
loop_
_atom_site_type_symbol
_atom_site_label
_atom_site_fract_x
_atom_site_fract_y
_atom_site_fract_z
Si Si1 0.454211 0.109096 0.922750
Si Si2 0.177928 0.420693 0.509712
Si Si3 0.937460 0.565627 0.520916
Si Si4 0.692854 0.249990 0.870034
Si Si5 0.640793 0.211178 0.529995
Si Si6 0.798664 0.190904 0.249391
Si Si7 0.284634 0.081635 0.894524
O O1 0.437643 0.096405 0.720547
O O2 0.517098 0.114440 0.925148
O O3 0.416118 0.173727 0.003507
O O4 0.447269 0.026850 0.023295
O O5 0.119558 0.429130 0.438103
O O6 0.193771 0.335713 0.452939
O O7 0.179328 0.419257 0.720866
O O8 0.214039 0.493179 0.459350
O O9 0.750000 0.250000 0.781956
O O10 0.650054 0.253626 0.717193
O O11 0.687284 0.307750 0.039396
O O12 0.656994 0.270087 0.371363
O O13 0.683563 0.140167 0.522851
O O14 0.750000 0.250000 0.260018
O O15 0.771803 0.114284 0.334404
#
# Coordination Sequence:
#
# PCOD9355435 Si02
#       7
#     8   8   8   8   8   8   8
#     4  11  22  33  47  68  93 138 183 226 269 309
#     4  12  20  32  51  72 101 140 178 222 259 315
#     4  11  21  33  44  66 102 134 178 232 266 298
#     4  11  20  33  54  70  98 135 175 215 274 323
#     4  11  20  33  51  71  93 134 180 224 267 316
#     4   9  18  37  47  70 101 128 172 226 265 323
#     4  11  20  33  49  74 105 130 184 226 266 315
#
# _framework density 16.795182
#
# number of rings (size 3 to 8) (size 9 to 14) (size 15 to 20)
#    0.000    1.143    7.143    3.857    4.000    0.000 
#    0.000    0.000    0.000    0.000    0.000    0.000 
#    0.000    0.000    0.000    1.286    6.286    1.714 
#
# Total GULP energy -155988.221181 kJ/mol
# GULP energy per Si atom -5571.007899 kJ/mol
# Density = 1.675696 g / cm^3
# Si number density = 16.795182 Si / 1000 Ang^3
#
#
#
# Elastic Constant Matrix: (Units=GPa)
#
#
# Indices 1 2 3 4 5 6 
#
# 1 77.6771 40.3239 14.3983 0.0000 0.0000 0.0000
# 2 40.3239 35.6430 10.4775 0.0000 0.0000 0.0000
# 3 14.3983 10.4775 60.3413 0.0000 0.0000 0.0000
# 4 0.0000 0.0000 0.0000 23.6051 0.0000 0.0000
# 5 0.0000 0.0000 0.0000 0.0000 16.3448 0.0000
# 6 0.0000 0.0000 0.0000 0.0000 0.0000 30.0452
#
#
#
# Elastic Compliance Matrix: (Units=1/GPa)
#
#
# Indices 1 2 3 4 5 6 
#
# 1 0.031304 -0.035006 -0.001391 0.000000 0.000000 0.000000
# 2 -0.035006 0.068711 -0.003578 0.000000 0.000000 0.000000
# 3 -0.001391 -0.003578 0.017526 0.000000 0.000000 0.000000
# 4 0.000000 0.000000 0.000000 0.042364 0.000000 0.000000
# 5 0.000000 0.000000 0.000000 0.000000 0.061182 0.000000
# 6 0.000000 0.000000 0.000000 0.000000 0.000000 0.033283
#
#
# Mechanical properties :
#
#
# Convention : Reuss Voigt Hill
#
# Bulk Modulus (GPa) = 26.60258 33.78453 30.19356
# Shear Modulus (GPa) = 14.41541 21.22981 17.82261
#
# Velocity S-wave (km/s) = 2.93286 3.55919 3.26110
# Velocity P-wave (km/s) = 5.22903 6.08685 5.67417
#
# Compressibility (1/GPa) = 0.03759033
#
# Stress axis : x y z
#
# Youngs Moduli (GPa) = 31.94447 14.55361 57.05937
#
# Poissons Ratio (x) = 0.50947 0.07938
# Poissons Ratio (y) = 1.11826 0.20415
# Poissons Ratio (z) = 0.04444 0.05207
#
# Static dielectric constant tensor:
#      x y z
#    x 1.654300 0.000000 0.000000 
#    y 0.000000 1.488310 0.000000 
#    z 0.000000 0.000000 1.648500 
# 
# From -- ./inp_files/4670.got.cif
#   From: 2010.05.17/outbox.cif.g08.bks.cpg/sg37_3_cif.got.tgz:4670.got - 2010.06.03 17:53:42.
