data_PCOD9355549
_publ_section_title
;
Structure prediction by ZEFSAII (Michael W. Deem and Ramdas Pophale) SiO2 
 PCOD9355549
Probable space group: C C C 2
;
_chemical_formula_sum "Si O2"
_cell_formula_units_Z 48
_cell_length_a 28.764580
_cell_length_b 8.393178
_cell_length_c 9.308970
_cell_angle_alpha 90.000000
_cell_angle_beta 90.000000
_cell_angle_gamma 90.000000
_cell_volume 2247.429626
_symmetry_space_group_name_H-M "C C C 2"
_symmetry_group_IT_number 37
_symmetry_cell_setting 'orthorhombic'
loop_
_space_group_symop_operation_xyz
x,y,z
-x,-y,z
-x,y,1/2+z
x,-y,1/2+z
1/2+x,1/2+y,z
1/2-x,1/2-y,z
1/2-x,1/2+y,1/2+z
1/2+x,1/2-y,1/2+z
loop_
_atom_site_type_symbol
_atom_site_label
_atom_site_fract_x
_atom_site_fract_y
_atom_site_fract_z
Si Si1 0.701515 0.657092 0.898210
Si Si2 0.123040 0.687158 0.213665
Si Si3 0.985737 0.320185 0.957597
Si Si4 0.198175 0.174934 0.232181
Si Si5 0.466742 0.647410 0.231390
Si Si6 0.615069 0.868497 0.382157
O O1 0.750000 0.750000 0.899502
O O2 0.668648 0.759967 0.795878
O O3 0.702384 0.484250 0.826257
O O4 0.686311 0.644044 0.064644
O O5 0.088607 0.841243 0.212045
O O6 0.105168 0.538783 0.308789
O O7 0.129011 0.625774 0.050765
O O8 0.935344 0.282769 0.887387
O O9 0.000000 0.500000 0.930130
O O10 0.022224 0.198234 0.892418
O O11 0.982211 0.290339 0.126373
O O12 0.250000 0.250000 0.236796
O O13 0.156976 0.283264 0.298312
O O14 0.500000 0.500000 0.196003
#
# Coordination Sequence:
#
# PCOD9355549 Si02
#       6
#     8   8   8   8   8   8
#     4  11  25  45  70 102 139 179 224 281 348 416
#     4  11  24  43  66 101 136 180 230 286 349 415
#     4  11  23  43  67  95 133 183 230 286 344 415
#     4  11  25  45  71 101 138 181 224 283 344 414
#     4  11  25  42  65  97 136 180 229 289 349 409
#     4  11  24  41  67 100 132 180 231 281 345 411
#
# _framework density 21.357731999999999
#
# number of rings (size 3 to 8) (size 9 to 14) (size 15 to 20)
#    0.000    1.000    1.667    4.000    4.667    6.667 
#    0.000    0.000    0.000    0.000    0.000    0.000 
#    0.000    0.000    0.000    0.000    0.000    0.000 
#
# Total GULP energy -133972.414381 kJ/mol
# GULP energy per Si atom -5582.183933 kJ/mol
# Density = 2.130912 g / cm^3
# Si number density = 21.357732 Si / 1000 Ang^3
#
#
#
# Elastic Constant Matrix: (Units=GPa)
#
#
# Indices 1 2 3 4 5 6 
#
# 1 80.5785 23.1596 48.3763 0.0000 0.0000 0.0000
# 2 23.1596 67.6236 22.4943 0.0000 0.0000 0.0000
# 3 48.3763 22.4943 145.7121 0.0000 0.0000 0.0000
# 4 0.0000 0.0000 0.0000 9.0520 0.0000 0.0000
# 5 0.0000 0.0000 0.0000 0.0000 34.3355 0.0000
# 6 0.0000 0.0000 0.0000 0.0000 0.0000 38.9789
#
#
#
# Elastic Compliance Matrix: (Units=1/GPa)
#
#
# Indices 1 2 3 4 5 6 
#
# 1 0.016480 -0.004031 -0.004849 0.000000 0.000000 0.000000
# 2 -0.004031 0.016574 -0.001220 0.000000 0.000000 0.000000
# 3 -0.004849 -0.001220 0.008661 0.000000 0.000000 0.000000
# 4 0.000000 0.000000 0.000000 0.110472 0.000000 0.000000
# 5 0.000000 0.000000 0.000000 0.000000 0.029124 0.000000
# 6 0.000000 0.000000 0.000000 0.000000 0.000000 0.025655
#
#
# Mechanical properties :
#
#
# Convention : Reuss Voigt Hill
#
# Bulk Modulus (GPa) = 46.48037 53.55274 50.01655
# Shear Modulus (GPa) = 21.33657 29.79890 25.56774
#
# Velocity S-wave (km/s) = 3.16414 3.73933 3.46369
# Velocity P-wave (km/s) = 5.92951 6.61604 6.28216
#
# Compressibility (1/GPa) = 0.02151446
#
# Stress axis : x y z
#
# Youngs Moduli (GPa) = 60.67947 60.33469 115.45842
#
# Poissons Ratio (x) = 0.24321 0.55987
# Poissons Ratio (y) = 0.24460 0.14090
# Poissons Ratio (z) = 0.29424 0.07363
#
# Static dielectric constant tensor:
#      x y z
#    x 1.803640 0.000000 0.000000 
#    y 0.000000 1.821890 0.000000 
#    z 0.000000 0.000000 1.726400 
# 
# From -- ./inp_files/2385.got.cif
#   From: 2010.05.17/outbox.cif.g08.bks.cpg/sg37_2_cif.got.tgz:2385.got - 2010.06.03 17:53:42.
