data_PCOD9355794
_publ_section_title
;
Structure prediction by ZEFSAII (Michael W. Deem and Ramdas Pophale) SiO2 
 PCOD9355794
Probable space group: A M M 2
;
_chemical_formula_sum "Si O2"
_cell_formula_units_Z 40
_cell_length_a 7.395088
_cell_length_b 11.205595
_cell_length_c 23.002172
_cell_angle_alpha 90.000000
_cell_angle_beta 90.000000
_cell_angle_gamma 90.000000
_cell_volume 1906.106291
_symmetry_space_group_name_H-M "A M M 2"
_symmetry_group_IT_number 38
_symmetry_cell_setting 'orthorhombic'
loop_
_space_group_symop_operation_xyz
x,y,z
-x,-y,z
-x,y,z
x,-y,z
x,1/2+y,1/2+z
-x,1/2-y,1/2+z
-x,1/2+y,1/2+z
x,1/2-y,1/2+z
loop_
_atom_site_type_symbol
_atom_site_label
_atom_site_fract_x
_atom_site_fract_y
_atom_site_fract_z
Si Si1 0.296288 0.205740 0.741620
Si Si2 0.217991 0.500000 0.327826
Si Si3 0.212711 0.260472 0.964425
Si Si4 0.282170 0.000000 0.659598
Si Si5 0.281015 0.136022 0.339654
Si Si6 0.219227 0.500000 0.463774
Si Si7 0.784841 0.000000 0.523160
O O1 0.500000 0.238246 0.722947
O O2 0.214915 0.317697 0.776435
O O3 0.298906 0.112419 0.794900
O O4 0.214679 0.121801 0.691033
O O5 0.257610 0.500000 0.395157
O O6 0.000000 0.500000 0.320389
O O7 0.226342 0.284290 0.895121
O O8 0.285729 0.130631 0.983496
O O9 0.000000 0.256273 0.978355
O O10 0.289826 0.378245 0.995198
O O11 0.500000 0.000000 0.668864
O O12 0.242404 0.000000 0.591983
O O13 0.500000 0.138542 0.337541
O O14 0.223358 0.000000 0.350696
O O15 0.000000 0.500000 0.470683
O O16 0.000000 0.000000 0.510945
#
# Coordination Sequence:
#
# PCOD9355794 Si02
#       7
#     8   4   8   4   8   4   4
#     4   9  18  32  48  71 100 130 162 205 259 301
#     4  10  16  24  45  73  97 124 158 196 240 296
#     4  10  19  33  51  75 106 138 169 206 256 308
#     4   9  19  35  55  71  95 134 175 215 254 299
#     4  10  19  30  48  76 106 134 166 206 257 313
#     4   9  17  28  46  73 102 132 163 197 249 304
#     4  10  21  35  54  75 100 136 178 218 251 297
#
# _framework density 20.985188000000001
#
# number of rings (size 3 to 8) (size 9 to 14) (size 15 to 20)
#    0.000    2.400    3.000    0.900    0.000    2.400 
#    0.000    0.500    2.200    0.000    0.000    0.000 
#    0.000    0.000    0.000    0.000    0.000    0.000 
#
# Total GULP energy -111409.566355 kJ/mol
# GULP energy per Si atom -5570.478318 kJ/mol
# Density = 2.093742 g / cm^3
# Si number density = 20.985188 Si / 1000 Ang^3
#
#
#
# Elastic Constant Matrix: (Units=GPa)
#
#
# Indices 1 2 3 4 5 6 
#
# 1 73.7981 1.7475 -8.7802 0.0000 0.0000 0.0000
# 2 1.7475 176.0035 48.4555 0.0000 0.0000 0.0000
# 3 -8.7802 48.4555 87.1418 0.0000 0.0000 0.0000
# 4 0.0000 0.0000 0.0000 27.5761 0.0000 0.0000
# 5 0.0000 0.0000 0.0000 0.0000 17.9921 0.0000
# 6 0.0000 0.0000 0.0000 0.0000 0.0000 -2.7636
#
#
#
# Elastic Compliance Matrix: (Units=1/GPa)
#
#
# Indices 1 2 3 4 5 6 
#
# 1 0.013771 -0.000612 0.001728 0.000000 0.000000 0.000000
# 2 -0.000612 0.006736 -0.003807 0.000000 0.000000 0.000000
# 3 0.001728 -0.003807 0.013767 0.000000 0.000000 0.000000
# 4 0.000000 0.000000 0.000000 0.036263 0.000000 0.000000
# 5 0.000000 0.000000 0.000000 0.000000 0.055580 0.000000
# 6 0.000000 0.000000 0.000000 0.000000 0.000000 -0.361852
#
#
# Mechanical properties :
#
#
# Convention : Reuss Voigt Hill
#
# Bulk Modulus (GPa) = 34.61416 46.64321 40.62869
# Shear Modulus (GPa) = -22.65296 28.26229 2.80467
#
# Velocity S-wave (km/s) = -3.28910 3.67382 1.15732
# Velocity P-wave (km/s) = 1.45126 6.34594 4.60310
#
# Compressibility (1/GPa) = 0.02888991
#
# Stress axis : x y z
#
# Youngs Moduli (GPa) = 72.61851 148.45689 72.63897
#
# Poissons Ratio (x) = 0.09093 -0.12553
# Poissons Ratio (y) = 0.04448 0.27656
# Poissons Ratio (z) = -0.12549 0.56522
#
# Static dielectric constant tensor:
#      x y z
#    x 1.794230 0.000000 0.000000 
#    y 0.000000 1.866800 0.000000 
#    z 0.000000 0.000000 1.699110 
# 
# From -- ./inp_files/19549.got.cif
#   From: 2010.05.17/outbox.cif.g08.bks.cpg/sg38_10_cif.got.tgz:19549.got - 2010.06.03 18:07:57.
