data_PCOD9355210
_publ_section_title
;
Structure prediction by ZEFSAII (Michael W. Deem and Ramdas Pophale) SiO2 
 PCOD9355210
Probable space group: C C C 2
;
_chemical_formula_sum "Si O2"
_cell_formula_units_Z 28
_cell_length_a 4.876731
_cell_length_b 25.673020
_cell_length_c 9.127634
_cell_angle_alpha 90.000000
_cell_angle_beta 90.000000
_cell_angle_gamma 90.000000
_cell_volume 1142.783542
_symmetry_space_group_name_H-M "C C C 2"
_symmetry_group_IT_number 37
_symmetry_cell_setting 'orthorhombic'
loop_
_space_group_symop_operation_xyz
x,y,z
-x,-y,z
-x,y,1/2+z
x,-y,1/2+z
1/2+x,1/2+y,z
1/2-x,1/2-y,z
1/2-x,1/2+y,1/2+z
1/2+x,1/2-y,1/2+z
loop_
_atom_site_type_symbol
_atom_site_label
_atom_site_fract_x
_atom_site_fract_y
_atom_site_fract_z
Si Si1 0.165334 0.553755 0.851200
Si Si2 0.250000 0.250000 0.875095
Si Si3 0.039714 0.206654 0.598033
Si Si4 0.695985 0.590197 0.672254
O O1 0.441169 0.563411 0.757306
O O2 0.000000 0.500000 0.825802
O O3 0.946753 0.594304 0.785948
O O4 0.227652 0.559431 0.023357
O O5 0.023936 0.231034 0.759431
O O6 0.272316 0.295528 0.996243
O O7 0.250000 0.250000 0.529855
O O8 0.135208 0.148338 0.618510
#
# Coordination Sequence:
#
# PCOD9355210 Si02
#       4
#     8   4   8   8
#     4  12  28  50  77 112 153 197 259 322 386 451
#     4  10  24  40  66  98 152 188 248 298 368 436
#     4  10  26  41  73 105 152 194 249 303 373 458
#     4  12  27  48  81 111 155 202 254 315 392 456
#
# _framework density 24.501579
#
# number of rings (size 3 to 8) (size 9 to 14) (size 15 to 20)
#    0.857    0.000    0.000    5.143   10.000    2.286 
#    0.000    1.429    0.000    0.000    0.000    0.000 
#    0.000    0.000    0.000    0.000    0.000    0.000 
#
# Total GULP energy -77970.630294 kJ/mol
# GULP energy per Si atom -5569.330735 kJ/mol
# Density = 2.444581 g / cm^3
# Si number density = 24.501579 Si / 1000 Ang^3
#
#
#
# Elastic Constant Matrix: (Units=GPa)
#
#
# Indices 1 2 3 4 5 6 
#
# 1 138.7515 33.5360 59.5646 0.0000 0.0000 0.0000
# 2 33.5360 74.9354 33.4257 0.0000 0.0000 0.0000
# 3 59.5646 33.4257 188.9495 0.0000 0.0000 0.0000
# 4 0.0000 0.0000 0.0000 81.7152 0.0000 0.0000
# 5 0.0000 0.0000 0.0000 0.0000 44.5489 0.0000
# 6 0.0000 0.0000 0.0000 0.0000 0.0000 39.6718
#
#
#
# Elastic Compliance Matrix: (Units=1/GPa)
#
#
# Indices 1 2 3 4 5 6 
#
# 1 0.008904 -0.002967 -0.002282 0.000000 0.000000 0.000000
# 2 -0.002967 0.015477 -0.001803 0.000000 0.000000 0.000000
# 3 -0.002282 -0.001803 0.006331 0.000000 0.000000 0.000000
# 4 0.000000 0.000000 0.000000 0.012238 0.000000 0.000000
# 5 0.000000 0.000000 0.000000 0.000000 0.022447 0.000000
# 6 0.000000 0.000000 0.000000 0.000000 0.000000 0.025207
#
#
# Mechanical properties :
#
#
# Convention : Reuss Voigt Hill
#
# Bulk Modulus (GPa) = 60.21091 72.85435 66.53263
# Shear Modulus (GPa) = 45.35480 51.59451 48.47466
#
# Velocity S-wave (km/s) = 4.30711 4.59384 4.45278
# Velocity P-wave (km/s) = 7.02585 7.61163 7.32460
#
# Compressibility (1/GPa) = 0.01660829
#
# Stress axis : x y z
#
# Youngs Moduli (GPa) = 112.31086 64.61344 157.96071
#
# Poissons Ratio (x) = 0.19170 0.36047
# Poissons Ratio (y) = 0.33321 0.28474
# Poissons Ratio (z) = 0.25630 0.11647
#
# Static dielectric constant tensor:
#      x y z
#    x 1.886160 0.000000 0.000000 
#    y 0.000000 1.982650 0.000000 
#    z 0.000000 0.000000 1.888920 
# 
# From -- ./inp_files/1680.got.cif
#   From: 2010.05.17/outbox.cif.g08.bks.cpg/sg37_1_cif.got.tgz:1680.got - 2010.06.03 17:53:42.
