data_PCOD9355430
_publ_section_title
;
Structure prediction by ZEFSAII (Michael W. Deem and Ramdas Pophale) SiO2 
 PCOD9355430
Probable space group: C C C 2
;
_chemical_formula_sum "Si O2"
_cell_formula_units_Z 64
_cell_length_a 12.590311
_cell_length_b 19.191662
_cell_length_c 13.322969
_cell_angle_alpha 90.000000
_cell_angle_beta 90.000000
_cell_angle_gamma 90.000000
_cell_volume 3219.215586
_symmetry_space_group_name_H-M "C C C 2"
_symmetry_group_IT_number 37
_symmetry_cell_setting 'orthorhombic'
loop_
_space_group_symop_operation_xyz
x,y,z
-x,-y,z
-x,y,1/2+z
x,-y,1/2+z
1/2+x,1/2+y,z
1/2-x,1/2-y,z
1/2-x,1/2+y,1/2+z
1/2+x,1/2-y,1/2+z
loop_
_atom_site_type_symbol
_atom_site_label
_atom_site_fract_x
_atom_site_fract_y
_atom_site_fract_z
Si Si1 0.997980 0.109481 0.228050
Si Si2 0.218035 0.918596 0.320032
Si Si3 0.984107 0.916340 0.506994
Si Si4 0.682233 0.176947 0.154311
Si Si5 0.470106 0.759516 0.303108
Si Si6 0.331634 0.814122 0.921190
Si Si7 0.690973 0.574339 0.338907
Si Si8 0.820725 0.189963 0.464621
O O1 0.948607 0.093191 0.121303
O O2 0.013956 0.190833 0.247921
O O3 0.112157 0.074593 0.243580
O O4 0.911114 0.084023 0.308988
O O5 0.262016 0.883841 0.218761
O O6 0.251650 0.868510 0.411170
O O7 0.239907 0.997895 0.345508
O O8 0.082125 0.859239 0.505940
O O9 0.890042 0.901687 0.428194
O O10 0.000000 0.000000 0.494057
O O11 0.750000 0.250000 0.159537
O O12 0.574788 0.191956 0.215815
O O13 0.664324 0.161217 0.037195
O O14 0.556191 0.790362 0.377921
O O15 0.373993 0.732481 0.372793
O O16 0.250000 0.750000 0.920215
O O17 0.284172 0.870825 0.845607
O O18 0.750000 0.250000 0.520039
#
# Coordination Sequence:
#
# PCOD9355430 Si02
#       8
#     8   8   8   8   8   8   8   8
#     4  11  22  35  59  92 125 162 201 262 332 391
#     4  11  19  38  63  90 122 161 210 263 325 383
#     4  12  22  36  59  92 129 168 214 264 336 405
#     4  11  21  39  69  92 117 166 218 260 313 397
#     4  11  21  38  61  87 124 159 208 265 315 377
#     4  11  24  40  63  93 127 167 212 261 326 397
#     4  12  22  39  60  90 132 163 206 273 326 384
#     4  11  20  37  59  89 122 161 207 266 328 385
#
# _framework density 19.88062
#
# number of rings (size 3 to 8) (size 9 to 14) (size 15 to 20)
#    0.000    0.750    8.750    1.875    3.500    0.000 
#    2.250    0.625    0.000    1.500    0.000    0.000 
#    0.000    0.000    0.000    0.000    0.000    0.000 
#
# Total GULP energy -178326.624421 kJ/mol
# GULP energy per Si atom -5572.707013 kJ/mol
# Density = 1.983537 g / cm^3
# Si number density = 19.880620 Si / 1000 Ang^3
#
#
#
# Elastic Constant Matrix: (Units=GPa)
#
#
# Indices 1 2 3 4 5 6 
#
# 1 42.0889 29.4783 7.6832 0.0000 0.0000 0.0000
# 2 29.4783 114.7029 6.5239 0.0000 0.0000 0.0000
# 3 7.6832 6.5239 43.8914 0.0000 0.0000 0.0000
# 4 0.0000 0.0000 0.0000 13.8463 0.0000 0.0000
# 5 0.0000 0.0000 0.0000 0.0000 23.1388 0.0000
# 6 0.0000 0.0000 0.0000 0.0000 0.0000 29.9651
#
#
#
# Elastic Compliance Matrix: (Units=1/GPa)
#
#
# Indices 1 2 3 4 5 6 
#
# 1 0.029688 -0.007397 -0.004097 0.000000 0.000000 0.000000
# 2 -0.007397 0.010635 -0.000286 0.000000 0.000000 0.000000
# 3 -0.004097 -0.000286 0.023543 0.000000 0.000000 0.000000
# 4 0.000000 0.000000 0.000000 0.072221 0.000000 0.000000
# 5 0.000000 0.000000 0.000000 0.000000 0.043217 0.000000
# 6 0.000000 0.000000 0.000000 0.000000 0.000000 0.033372
#
#
# Mechanical properties :
#
#
# Convention : Reuss Voigt Hill
#
# Bulk Modulus (GPa) = 24.81008 32.00599 28.40804
# Shear Modulus (GPa) = 20.02622 23.85657 21.94140
#
# Velocity S-wave (km/s) = 3.17728 3.46785 3.32574
# Velocity P-wave (km/s) = 5.09576 5.67174 5.39145
#
# Compressibility (1/GPa) = 0.04030620
#
# Stress axis : x y z
#
# Youngs Moduli (GPa) = 33.68407 94.02600 42.47495
#
# Poissons Ratio (x) = 0.69547 0.17404
# Poissons Ratio (y) = 0.24915 0.01215
# Poissons Ratio (z) = 0.13802 0.02690
#
# Static dielectric constant tensor:
#      x y z
#    x 1.887230 0.000000 0.000000 
#    y 0.000000 1.782610 0.000000 
#    z 0.000000 0.000000 1.726860 
# 
# From -- ./inp_files/11796.got.cif
#   From: 2010.05.17/outbox.cif.g08.bks.cpg/sg37_6_cif.got.tgz:11796.got - 2010.06.03 17:53:42.
