data_PCOD9355020
_publ_section_title
;
Structure prediction by ZEFSAII (Michael W. Deem and Ramdas Pophale) SiO2 
 PCOD9355020
Probable space group: C C C 2
;
_chemical_formula_sum "Si O2"
_cell_formula_units_Z 40
_cell_length_a 15.758985
_cell_length_b 9.823407
_cell_length_c 10.128369
_cell_angle_alpha 90.000000
_cell_angle_beta 90.000000
_cell_angle_gamma 90.000000
_cell_volume 1567.941646
_symmetry_space_group_name_H-M "C C C 2"
_symmetry_group_IT_number 37
_symmetry_cell_setting 'orthorhombic'
loop_
_space_group_symop_operation_xyz
x,y,z
-x,-y,z
-x,y,1/2+z
x,-y,1/2+z
1/2+x,1/2+y,z
1/2-x,1/2-y,z
1/2-x,1/2+y,1/2+z
1/2+x,1/2-y,1/2+z
loop_
_atom_site_type_symbol
_atom_site_label
_atom_site_fract_x
_atom_site_fract_y
_atom_site_fract_z
Si Si1 0.181425 0.360412 0.633880
Si Si2 0.757985 0.910185 0.298808
Si Si3 0.505521 0.217178 0.574728
Si Si4 0.322550 0.144557 0.937348
Si Si5 0.048826 0.124827 0.326951
O O1 0.250000 0.250000 0.578931
O O2 0.206310 0.487289 0.414029
O O3 0.163425 0.305731 0.785623
O O4 0.085751 0.356734 0.578131
O O5 0.750000 0.750000 0.284180
O O6 0.855654 0.926601 0.332021
O O7 0.726163 0.995729 0.172411
O O8 0.589071 0.150879 0.512101
O O9 0.485928 0.338523 0.470970
O O10 0.534700 0.254032 0.723047
O O11 0.250000 0.250000 0.986974
O O12 0.000000 0.000000 0.264967
#
# Coordination Sequence:
#
# PCOD9355020 Si02
#       5
#     8   8   8   8   8
#     4   9  20  45  79 112 163 215 270 335 414 491
#     4  10  22  46  76 110 157 211 270 337 406 487
#     4  12  23  46  81 120 158 220 276 342 412 514
#     4   9  20  45  79 112 163 215 270 335 414 491
#     4  12  25  44  74 120 164 209 270 339 420 489
#
# _framework density 25.511153
#
# number of rings (size 3 to 8) (size 9 to 14) (size 15 to 20)
#    1.200    0.400    2.000    3.000    0.000    1.600 
#    0.000   12.000    0.000    0.000    0.000    1.400 
#    0.000    0.000    0.000    0.000    0.000    0.000 
#
# Total GULP energy -111777.684256 kJ/mol
# GULP energy per Si atom -5588.884213 kJ/mol
# Density = 2.545309 g / cm^3
# Si number density = 25.511153 Si / 1000 Ang^3
#
#
#
# Elastic Constant Matrix: (Units=GPa)
#
#
# Indices 1 2 3 4 5 6 
#
# 1 234.1936 87.8799 15.7238 0.0000 0.0000 0.0000
# 2 87.8799 168.0590 16.5344 0.0000 0.0000 0.0000
# 3 15.7238 16.5344 93.0334 0.0000 0.0000 0.0000
# 4 0.0000 0.0000 0.0000 3.8551 0.0000 0.0000
# 5 0.0000 0.0000 0.0000 0.0000 66.7226 0.0000
# 6 0.0000 0.0000 0.0000 0.0000 0.0000 29.9398
#
#
#
# Elastic Compliance Matrix: (Units=1/GPa)
#
#
# Indices 1 2 3 4 5 6 
#
# 1 0.005328 -0.002745 -0.000413 0.000000 0.000000 0.000000
# 2 -0.002745 0.007471 -0.000864 0.000000 0.000000 0.000000
# 3 -0.000413 -0.000864 0.010972 0.000000 0.000000 0.000000
# 4 0.000000 0.000000 0.000000 0.259394 0.000000 0.000000
# 5 0.000000 0.000000 0.000000 0.000000 0.014987 0.000000
# 6 0.000000 0.000000 0.000000 0.000000 0.000000 0.033400
#
#
# Mechanical properties :
#
#
# Convention : Reuss Voigt Hill
#
# Bulk Modulus (GPa) = 63.58338 81.72913 72.65625
# Shear Modulus (GPa) = 14.49954 45.11338 29.80646
#
# Velocity S-wave (km/s) = 2.38662 4.20977 3.42185
# Velocity P-wave (km/s) = 5.70723 7.46564 6.64486
#
# Compressibility (1/GPa) = 0.01572738
#
# Stress axis : x y z
#
# Youngs Moduli (GPa) = 187.69220 133.85305 91.14057
#
# Poissons Ratio (x) = 0.36748 0.03760
# Poissons Ratio (y) = 0.51529 0.07872
# Poissons Ratio (z) = 0.07743 0.11562
#
# Static dielectric constant tensor:
#      x y z
#    x 1.894320 0.000000 0.000000 
#    y 0.000000 2.157700 0.000000 
#    z 0.000000 0.000000 2.247030 
# 
# From -- ./inp_files/7661.got.cif
#   From: 2010.05.17/outbox.cif.g08.bks.cpg/sg37_4_cif.got.tgz:7661.got - 2010.06.03 17:53:42.
