data_PCOD9355407
_publ_section_title
;
Structure prediction by ZEFSAII (Michael W. Deem and Ramdas Pophale) SiO2 
 PCOD9355407
Probable space group: C C C 2
;
_chemical_formula_sum "Si O2"
_cell_formula_units_Z 28
_cell_length_a 25.970169
_cell_length_b 4.972396
_cell_length_c 8.652695
_cell_angle_alpha 90.000000
_cell_angle_beta 90.000000
_cell_angle_gamma 90.000000
_cell_volume 1117.356809
_symmetry_space_group_name_H-M "C C C 2"
_symmetry_group_IT_number 37
_symmetry_cell_setting 'orthorhombic'
loop_
_space_group_symop_operation_xyz
x,y,z
-x,-y,z
-x,y,1/2+z
x,-y,1/2+z
1/2+x,1/2+y,z
1/2-x,1/2-y,z
1/2-x,1/2+y,1/2+z
1/2+x,1/2-y,1/2+z
loop_
_atom_site_type_symbol
_atom_site_label
_atom_site_fract_x
_atom_site_fract_y
_atom_site_fract_z
Si Si1 0.153011 0.849852 0.127160
Si Si2 0.000000 0.500000 0.414977
Si Si3 0.951473 0.841558 0.184659
Si Si4 0.692421 0.174335 0.803425
O O1 0.176193 0.617949 0.239051
O O2 0.095850 0.959488 0.163417
O O3 0.184713 0.121103 0.160643
O O4 0.158031 0.751345 0.951717
O O5 0.047656 0.395381 0.309779
O O6 0.028578 0.709102 0.527562
O O7 0.000000 0.000000 0.246776
O O8 0.750000 0.250000 0.857187
#
# Coordination Sequence:
#
# PCOD9355407 Si02
#       4
#     8   4   8   8
#     4  12  30  49  85 118 161 217 269 327 422 483
#     4  10  26  50  74 108 174 214 270 328 404 468
#     4  11  27  46  78 114 164 213 273 332 404 497
#     4  12  27  53  82 119 162 209 275 344 406 482
#
# _framework density 25.059142000000001
#
# number of rings (size 3 to 8) (size 9 to 14) (size 15 to 20)
#    0.000    0.571    0.000    5.143   16.000    0.000 
#    0.000    0.000    0.000    0.000    0.000    0.000 
#    0.000    0.000    0.000    0.000    0.000    0.000 
#
# Total GULP energy -78291.057501 kJ/mol
# GULP energy per Si atom -5592.218393 kJ/mol
# Density = 2.500211 g / cm^3
# Si number density = 25.059142 Si / 1000 Ang^3
#
#
#
# Elastic Constant Matrix: (Units=GPa)
#
#
# Indices 1 2 3 4 5 6 
#
# 1 156.2675 52.6544 25.6531 0.0000 0.0000 0.0000
# 2 52.6544 140.0637 42.0136 0.0000 0.0000 0.0000
# 3 25.6531 42.0136 129.8401 0.0000 0.0000 0.0000
# 4 0.0000 0.0000 0.0000 32.8552 0.0000 0.0000
# 5 0.0000 0.0000 0.0000 0.0000 21.0326 0.0000
# 6 0.0000 0.0000 0.0000 0.0000 0.0000 50.6752
#
#
#
# Elastic Compliance Matrix: (Units=1/GPa)
#
#
# Indices 1 2 3 4 5 6 
#
# 1 0.007372 -0.002585 -0.000620 0.000000 0.000000 0.000000
# 2 -0.002585 0.008814 -0.002341 0.000000 0.000000 0.000000
# 3 -0.000620 -0.002341 0.008582 0.000000 0.000000 0.000000
# 4 0.000000 0.000000 0.000000 0.030437 0.000000 0.000000
# 5 0.000000 0.000000 0.000000 0.000000 0.047545 0.000000
# 6 0.000000 0.000000 0.000000 0.000000 0.000000 0.019734
#
#
# Mechanical properties :
#
#
# Convention : Reuss Voigt Hill
#
# Bulk Modulus (GPa) = 73.12782 74.09041 73.60911
# Shear Modulus (GPa) = 36.19659 41.30262 38.74961
#
# Velocity S-wave (km/s) = 3.80471 4.06421 3.93660
# Velocity P-wave (km/s) = 6.96753 7.18709 7.07816
#
# Compressibility (1/GPa) = 0.01367469
#
# Stress axis : x y z
#
# Youngs Moduli (GPa) = 135.64400 113.45803 116.52546
#
# Poissons Ratio (x) = 0.29335 0.07224
# Poissons Ratio (y) = 0.35071 0.27280
# Poissons Ratio (z) = 0.08409 0.26562
#
# Static dielectric constant tensor:
#      x y z
#    x 2.066560 0.000000 0.000000 
#    y 0.000000 3.015070 0.000000 
#    z 0.000000 0.000000 1.921320 
# 
# From -- ./inp_files/1672.got.cif
#   From: 2010.05.17/outbox.cif.g08.bks.cpg/sg37_1_cif.got.tgz:1672.got - 2010.06.03 17:53:42.
