data_PCOD9355861
_publ_section_title
;
Structure prediction by ZEFSAII (Michael W. Deem and Ramdas Pophale) SiO2 
 PCOD9355861
Probable space group: A M M 2
;
_chemical_formula_sum "Si O2"
_cell_formula_units_Z 64
_cell_length_a 14.633492
_cell_length_b 7.613899
_cell_length_c 32.840284
_cell_angle_alpha 90.000000
_cell_angle_beta 90.000000
_cell_angle_gamma 90.000000
_cell_volume 3658.996467
_symmetry_space_group_name_H-M "A M M 2"
_symmetry_group_IT_number 38
_symmetry_cell_setting 'orthorhombic'
loop_
_space_group_symop_operation_xyz
x,y,z
-x,-y,z
-x,y,z
x,-y,z
x,1/2+y,1/2+z
-x,1/2-y,1/2+z
-x,1/2+y,1/2+z
x,1/2-y,1/2+z
loop_
_atom_site_type_symbol
_atom_site_label
_atom_site_fract_x
_atom_site_fract_y
_atom_site_fract_z
Si Si1 0.707263 0.291776 0.156140
Si Si2 0.292363 0.291035 0.993489
Si Si3 0.102282 0.288589 0.528246
Si Si4 0.392875 0.714515 0.236447
Si Si5 0.393849 0.784945 0.574817
Si Si6 0.604660 0.209878 0.414073
Si Si7 0.897361 0.211713 0.121307
Si Si8 0.394590 0.289143 0.325354
O O1 0.689211 0.500000 0.156521
O O2 0.665317 0.221464 0.198093
O O3 0.656949 0.222325 0.115626
O O4 0.815041 0.266779 0.150106
O O5 0.307741 0.500000 0.993459
O O6 0.184755 0.263064 0.999245
O O7 0.343030 0.222512 0.034018
O O8 0.336028 0.221365 0.951784
O O9 0.100346 0.500000 0.529525
O O10 0.121268 0.227460 0.574750
O O11 0.000000 0.228462 0.517057
O O12 0.500000 0.762573 0.232097
O O13 0.390573 0.500000 0.236323
O O14 0.358661 0.771360 0.281340
O O15 0.500000 0.735116 0.574808
O O16 0.390522 0.000000 0.574801
O O17 0.500000 0.279394 0.415647
O O18 0.645672 0.241661 0.369157
O O19 0.598520 0.000000 0.418321
O O20 0.000000 0.270246 0.132390
O O21 0.898237 0.000000 0.120496
O O22 0.500000 0.226129 0.326834
O O23 0.396161 0.500000 0.324001
#
# Coordination Sequence:
#
# PCOD9355861 Si02
#       8
#     8   8   8   8   8   8   8   8
#     4  10  17  26  44  68  87 110 146 182 211 245
#     4  10  18  28  43  65  88 113 145 179 212 247
#     4   9  18  32  47  61  81 112 146 180 219 259
#     4   8  14  25  42  65  91 116 143 177 215 252
#     4   9  16  25  38  59  88 118 144 168 199 244
#     4   9  17  28  42  62  90 119 145 176 213 252
#     4   9  18  32  46  59  82 116 146 176 219 262
#     4   8  14  26  43  61  83 113 148 182 213 248
#
# _framework density 17.491135
#
# number of rings (size 3 to 8) (size 9 to 14) (size 15 to 20)
#    0.000    3.000    1.250    2.250    0.000    4.000 
#    0.000    1.875    0.000    4.125    0.000    0.875 
#    0.000    1.000    0.000    0.000    0.000    0.000 
#
# Total GULP energy -178293.178747 kJ/mol
# GULP energy per Si atom -5571.661836 kJ/mol
# Density = 1.745132 g / cm^3
# Si number density = 17.491135 Si / 1000 Ang^3
#
#
#
# Elastic Constant Matrix: (Units=GPa)
#
#
# Indices 1 2 3 4 5 6 
#
# 1 101.8660 -3.3168 87.5611 0.0000 0.0000 0.0000
# 2 -3.3168 32.8528 9.6047 0.0000 0.0000 0.0000
# 3 87.5611 9.6047 182.1452 0.0000 0.0000 0.0000
# 4 0.0000 0.0000 0.0000 12.7047 0.0000 0.0000
# 5 0.0000 0.0000 0.0000 0.0000 12.0451 0.0000
# 6 0.0000 0.0000 0.0000 0.0000 0.0000 37.7607
#
#
#
# Elastic Compliance Matrix: (Units=1/GPa)
#
#
# Indices 1 2 3 4 5 6 
#
# 1 0.017293 0.004242 -0.008537 0.000000 0.000000 0.000000
# 2 0.004242 0.031956 -0.003724 0.000000 0.000000 0.000000
# 3 -0.008537 -0.003724 0.009790 0.000000 0.000000 0.000000
# 4 0.000000 0.000000 0.000000 0.078711 0.000000 0.000000
# 5 0.000000 0.000000 0.000000 0.000000 0.083021 0.000000
# 6 0.000000 0.000000 0.000000 0.000000 0.000000 0.026483
#
#
# Mechanical properties :
#
#
# Convention : Reuss Voigt Hill
#
# Bulk Modulus (GPa) = 23.25555 56.06245 39.65900
# Shear Modulus (GPa) = 18.00990 27.36979 22.68984
#
# Velocity S-wave (km/s) = 3.21231 3.96002 3.60560
# Velocity P-wave (km/s) = 5.20414 7.28221 6.32904
#
# Compressibility (1/GPa) = 0.04300048
#
# Stress axis : x y z
#
# Youngs Moduli (GPa) = 57.82753 31.29327 102.14232
#
# Poissons Ratio (x) = -0.13273 0.87196
# Poissons Ratio (y) = -0.24528 0.38039
# Poissons Ratio (z) = 0.49366 0.11654
#
# Static dielectric constant tensor:
#      x y z
#    x 1.579850 0.000000 0.000000 
#    y 0.000000 1.669680 0.000000 
#    z 0.000000 0.000000 1.622140 
# 
# From -- ./inp_files/22604.got.cif
#   From: 2010.05.17/outbox.cif.g08.bks.cpg/sg38_12_cif.got.tgz:22604.got - 2010.06.03 18:07:57.
