data_PCOD9355233
_publ_section_title
;
Structure prediction by ZEFSAII (Michael W. Deem and Ramdas Pophale) SiO2 
 PCOD9355233
Probable space group: C C C 2
;
_chemical_formula_sum "Si O2"
_cell_formula_units_Z 28
_cell_length_a 4.852249
_cell_length_b 26.138518
_cell_length_c 8.973156
_cell_angle_alpha 90.000000
_cell_angle_beta 90.000000
_cell_angle_gamma 90.000000
_cell_volume 1138.070740
_symmetry_space_group_name_H-M "C C C 2"
_symmetry_group_IT_number 37
_symmetry_cell_setting 'orthorhombic'
loop_
_space_group_symop_operation_xyz
x,y,z
-x,-y,z
-x,y,1/2+z
x,-y,1/2+z
1/2+x,1/2+y,z
1/2-x,1/2-y,z
1/2-x,1/2+y,1/2+z
1/2+x,1/2-y,1/2+z
loop_
_atom_site_type_symbol
_atom_site_label
_atom_site_fract_x
_atom_site_fract_y
_atom_site_fract_z
Si Si1 0.452683 0.794851 0.511610
Si Si2 0.750000 0.250000 0.226668
Si Si3 0.353910 0.554472 0.269269
Si Si4 0.678654 0.909102 0.087645
O O1 0.250000 0.750000 0.578135
O O2 0.462435 0.774985 0.343418
O O3 0.738240 0.794506 0.602020
O O4 0.354110 0.852171 0.523670
O O5 0.500000 0.500000 0.242466
O O6 0.592396 0.593068 0.217140
O O7 0.271829 0.558984 0.442189
O O8 0.092139 0.566623 0.164381
#
# Coordination Sequence:
#
# PCOD9355233 Si02
#       4
#     8   4   8   8
#     4  10  26  42  73 107 156 200 253 306 377 464
#     4  10  24  42  68 100 154 194 250 302 372 440
#     4  12  28  52  79 114 155 200 265 329 397 456
#     4  12  27  48  82 114 156 206 261 319 397 469
#
# _framework density 24.603041000000001
#
# number of rings (size 3 to 8) (size 9 to 14) (size 15 to 20)
#    0.857    0.000    0.000    5.143   10.000    2.286 
#    0.000    1.429    0.000    0.000    0.000    0.000 
#    0.000    0.000    0.000    0.000    0.000    0.000 
#
# Total GULP energy -77962.680140 kJ/mol
# GULP energy per Si atom -5568.762867 kJ/mol
# Density = 2.454704 g / cm^3
# Si number density = 24.603041 Si / 1000 Ang^3
#
#
#
# Elastic Constant Matrix: (Units=GPa)
#
#
# Indices 1 2 3 4 5 6 
#
# 1 132.7738 33.8867 31.5652 0.0000 0.0000 0.0000
# 2 33.8867 88.5487 17.7566 0.0000 0.0000 0.0000
# 3 31.5652 17.7566 118.4057 0.0000 0.0000 0.0000
# 4 0.0000 0.0000 0.0000 -180.7371 0.0000 0.0000
# 5 0.0000 0.0000 0.0000 0.0000 49.8392 0.0000
# 6 0.0000 0.0000 0.0000 0.0000 0.0000 38.3363
#
#
#
# Elastic Compliance Matrix: (Units=1/GPa)
#
#
# Indices 1 2 3 4 5 6 
#
# 1 0.008736 -0.002965 -0.001884 0.000000 0.000000 0.000000
# 2 -0.002965 0.012650 -0.001106 0.000000 0.000000 0.000000
# 3 -0.001884 -0.001106 0.009114 0.000000 0.000000 0.000000
# 4 0.000000 0.000000 0.000000 -0.005533 0.000000 0.000000
# 5 0.000000 0.000000 0.000000 0.000000 0.020065 0.000000
# 6 0.000000 0.000000 0.000000 0.000000 0.000000 0.026085
#
#
# Mechanical properties :
#
#
# Convention : Reuss Voigt Hill
#
# Bulk Modulus (GPa) = 53.79909 56.23835 55.01872
# Shear Modulus (GPa) = 56.03800 -1.41101 27.31350
#
# Velocity S-wave (km/s) = 4.77769 -0.75813 3.33553
# Velocity P-wave (km/s) = 7.23529 4.70548 6.10291
#
# Compressibility (1/GPa) = 0.01858767
#
# Stress axis : x y z
#
# Youngs Moduli (GPa) = 114.46323 79.05156 109.72375
#
# Poissons Ratio (x) = 0.23443 0.20675
# Poissons Ratio (y) = 0.33944 0.12141
# Poissons Ratio (z) = 0.21568 0.08747
#
# Static dielectric constant tensor:
#      x y z
#    x 1.050000 0.000000 0.000000 
#    y 0.000000 2.633940 0.000000 
#    z 0.000000 0.000000 1.881410 
# 
# From -- ./inp_files/1676.got.cif
#   From: 2010.05.17/outbox.cif.g08.bks.cpg/sg37_1_cif.got.tgz:1676.got - 2010.06.03 17:53:42.
