data_PCOD9355083
_publ_section_title
;
Structure prediction by ZEFSAII (Michael W. Deem and Ramdas Pophale) SiO2 
 PCOD9355083
Probable space group: C C C 2
;
_chemical_formula_sum "Si O2"
_cell_formula_units_Z 36
_cell_length_a 19.690170
_cell_length_b 5.087150
_cell_length_c 14.231579
_cell_angle_alpha 90.000000
_cell_angle_beta 90.000000
_cell_angle_gamma 90.000000
_cell_volume 1425.532415
_symmetry_space_group_name_H-M "C C C 2"
_symmetry_group_IT_number 37
_symmetry_cell_setting 'orthorhombic'
loop_
_space_group_symop_operation_xyz
x,y,z
-x,-y,z
-x,y,1/2+z
x,-y,1/2+z
1/2+x,1/2+y,z
1/2-x,1/2-y,z
1/2-x,1/2+y,1/2+z
1/2+x,1/2-y,1/2+z
loop_
_atom_site_type_symbol
_atom_site_label
_atom_site_fract_x
_atom_site_fract_y
_atom_site_fract_z
Si Si1 0.750000 0.750000 0.266820
Si Si2 0.846436 0.551844 0.622065
Si Si3 0.331506 0.003013 0.402236
Si Si4 0.074025 0.043051 0.119043
Si Si5 0.577948 0.510444 0.397279
O O1 0.795513 0.592666 0.190801
O O2 0.739232 0.975011 0.348409
O O3 0.820709 0.544869 0.514068
O O4 0.909588 0.349807 0.621914
O O5 0.868849 0.841441 0.656791
O O6 0.377396 0.245859 0.361835
O O7 0.379099 0.753326 0.385096
O O8 0.072425 0.954463 0.010096
O O9 0.000000 0.000000 0.159888
O O10 0.500000 0.500000 0.364041
#
# Coordination Sequence:
#
# PCOD9355083 Si02
#       5
#     4   8   8   8   8
#     4  12  28  46  66  96 140 186 232 272 320 400
#     4  10  23  41  65  95 130 176 224 276 334 395
#     4  10  23  41  65  95 130 176 224 276 334 395
#     4   9  18  38  67  96 127 166 217 280 346 400
#     4   9  18  38  67  96 127 166 217 280 346 400
#
# _framework density 25.253720999999999
#
# number of rings (size 3 to 8) (size 9 to 14) (size 15 to 20)
#    0.000    2.222    0.000    1.333    0.000   16.000 
#    0.000    6.667    0.000    0.000    0.000    0.000 
#    0.000    0.000    0.000    0.000    0.000    0.000 
#
# Total GULP energy -100357.307436 kJ/mol
# GULP energy per Si atom -5575.405969 kJ/mol
# Density = 2.519624 g / cm^3
# Si number density = 25.253721 Si / 1000 Ang^3
#
#
#
# Elastic Constant Matrix: (Units=GPa)
#
#
# Indices 1 2 3 4 5 6 
#
# 1 106.6464 44.5661 24.9196 0.0000 0.0000 0.0000
# 2 44.5661 150.4143 20.3832 0.0000 0.0000 0.0000
# 3 24.9196 20.3832 139.4277 0.0000 0.0000 0.0000
# 4 0.0000 0.0000 0.0000 -36.9313 0.0000 0.0000
# 5 0.0000 0.0000 0.0000 0.0000 -11.9536 0.0000
# 6 0.0000 0.0000 0.0000 0.0000 0.0000 26.5500
#
#
#
# Elastic Compliance Matrix: (Units=1/GPa)
#
#
# Indices 1 2 3 4 5 6 
#
# 1 0.011009 -0.003056 -0.001521 0.000000 0.000000 0.000000
# 2 -0.003056 0.007631 -0.000569 0.000000 0.000000 0.000000
# 3 -0.001521 -0.000569 0.007527 0.000000 0.000000 0.000000
# 4 0.000000 0.000000 0.000000 -0.027077 0.000000 0.000000
# 5 0.000000 0.000000 0.000000 0.000000 -0.083657 0.000000
# 6 0.000000 0.000000 0.000000 0.000000 0.000000 0.037665
#
#
# Mechanical properties :
#
#
# Convention : Reuss Voigt Hill
#
# Bulk Modulus (GPa) = 62.99198 64.02512 63.50855
# Shear Modulus (GPa) = -159.65264 15.97432 -71.83916
#
# Velocity S-wave (km/s) = -7.95969 2.51779 -5.33936
# Velocity P-wave (km/s) = 7.71219 5.81895 3.57894
#
# Compressibility (1/GPa) = 0.01587504
#
# Stress axis : x y z
#
# Youngs Moduli (GPa) = 90.83365 131.04678 132.85074
#
# Poissons Ratio (x) = 0.40045 0.20205
# Poissons Ratio (y) = 0.27757 0.07565
# Poissons Ratio (z) = 0.13815 0.07462
#
# Static dielectric constant tensor:
#      x y z
#    x 2.163760 0.000000 0.000000 
#    y 0.000000 2.102420 0.000000 
#    z 0.000000 0.000000 2.037790 
# 
# From -- ./inp_files/12796.got.cif
#   From: 2010.05.17/outbox.cif.g08.bks.cpg/sg37_7_cif.got.tgz:12796.got - 2010.06.03 17:53:42.
