data_PCOD9355118
_publ_section_title
;
Structure prediction by ZEFSAII (Michael W. Deem and Ramdas Pophale) SiO2 
 PCOD9355118
Probable space group: C C C 2
;
_chemical_formula_sum "Si O2"
_cell_formula_units_Z 40
_cell_length_a 10.889529
_cell_length_b 16.060445
_cell_length_c 9.413613
_cell_angle_alpha 90.000000
_cell_angle_beta 90.000000
_cell_angle_gamma 90.000000
_cell_volume 1646.353194
_symmetry_space_group_name_H-M "C C C 2"
_symmetry_group_IT_number 37
_symmetry_cell_setting 'orthorhombic'
loop_
_space_group_symop_operation_xyz
x,y,z
-x,-y,z
-x,y,1/2+z
x,-y,1/2+z
1/2+x,1/2+y,z
1/2-x,1/2-y,z
1/2-x,1/2+y,1/2+z
1/2+x,1/2-y,1/2+z
loop_
_atom_site_type_symbol
_atom_site_label
_atom_site_fract_x
_atom_site_fract_y
_atom_site_fract_z
Si Si1 0.660795 0.168393 0.909890
Si Si2 0.744713 0.342080 0.477201
Si Si3 0.074900 0.121498 0.751500
Si Si4 0.302969 0.550481 0.723497
Si Si5 0.574873 0.192616 0.215187
O O1 0.750000 0.250000 0.912664
O O2 0.733259 0.085796 0.860347
O O3 0.556429 0.184923 0.790833
O O4 0.597602 0.152382 0.062585
O O5 0.750000 0.250000 0.543853
O O6 0.608784 0.359886 0.415691
O O7 0.769492 0.413268 0.589165
O O8 0.832036 0.336245 0.339663
O O9 0.097810 0.209864 0.680948
O O10 0.936470 0.093851 0.730729
O O11 0.164027 0.045882 0.710920
#
# Coordination Sequence:
#
# PCOD9355118 Si02
#       5
#     8   8   8   8   8
#     4  12  24  44  75 110 151 201 261 307 378 450
#     4  10  23  43  66 101 149 194 250 311 368 450
#     4  10  24  41  68 110 152 188 245 316 385 436
#     4  11  24  43  72 109 149 196 245 320 385 439
#     4  11  25  45  74 110 150 203 259 307 368 466
#
# _framework density 24.296125
#
# number of rings (size 3 to 8) (size 9 to 14) (size 15 to 20)
#    0.000    1.200    2.000    3.600    5.600    8.000 
#    0.000    1.000    0.000   12.000    0.000    0.000 
#    0.000    0.000    0.000    0.000    0.000    0.000 
#
# Total GULP energy -111902.001513 kJ/mol
# GULP energy per Si atom -5595.100076 kJ/mol
# Density = 2.424083 g / cm^3
# Si number density = 24.296125 Si / 1000 Ang^3
#
#
#
# Elastic Constant Matrix: (Units=GPa)
#
#
# Indices 1 2 3 4 5 6 
#
# 1 121.5626 47.9011 69.4254 0.0000 0.0000 0.0000
# 2 47.9011 120.7270 65.8304 0.0000 0.0000 0.0000
# 3 69.4254 65.8304 152.6155 0.0000 0.0000 0.0000
# 4 0.0000 0.0000 0.0000 11.6089 0.0000 0.0000
# 5 0.0000 0.0000 0.0000 0.0000 37.9470 0.0000
# 6 0.0000 0.0000 0.0000 0.0000 0.0000 38.4696
#
#
#
# Elastic Compliance Matrix: (Units=1/GPa)
#
#
# Indices 1 2 3 4 5 6 
#
# 1 0.011562 -0.002248 -0.004290 0.000000 0.000000 0.000000
# 2 -0.002248 0.011268 -0.003838 0.000000 0.000000 0.000000
# 3 -0.004290 -0.003838 0.010159 0.000000 0.000000 0.000000
# 4 0.000000 0.000000 0.000000 0.086141 0.000000 0.000000
# 5 0.000000 0.000000 0.000000 0.000000 0.026353 0.000000
# 6 0.000000 0.000000 0.000000 0.000000 0.000000 0.025995
#
#
# Mechanical properties :
#
#
# Convention : Reuss Voigt Hill
#
# Bulk Modulus (GPa) = 81.71518 84.57989 83.14753
# Shear Modulus (GPa) = 25.47019 31.72163 28.59591
#
# Velocity S-wave (km/s) = 3.24129 3.61726 3.43443
# Velocity P-wave (km/s) = 6.90753 7.23421 7.07276
#
# Compressibility (1/GPa) = 0.01223763
#
# Stress axis : x y z
#
# Youngs Moduli (GPa) = 86.48919 88.74856 98.43294
#
# Poissons Ratio (x) = 0.19954 0.42226
# Poissons Ratio (y) = 0.19446 0.37774
# Poissons Ratio (z) = 0.37102 0.34058
#
# Static dielectric constant tensor:
#      x y z
#    x 1.968480 0.000000 0.000000 
#    y 0.000000 1.939930 0.000000 
#    z 0.000000 0.000000 1.953000 
# 
# From -- ./inp_files/2704.got.cif
#   From: 2010.05.17/outbox.cif.g08.bks.cpg/sg37_2_cif.got.tgz:2704.got - 2010.06.03 17:53:42.
