data_PCOD9355059
_publ_section_title
;
Structure prediction by ZEFSAII (Michael W. Deem and Ramdas Pophale) SiO2 
 PCOD9355059
Probable space group: C C C 2
;
_chemical_formula_sum "Si O2"
_cell_formula_units_Z 48
_cell_length_a 7.517308
_cell_length_b 14.144029
_cell_length_c 23.327802
_cell_angle_alpha 90.000000
_cell_angle_beta 90.000000
_cell_angle_gamma 90.000000
_cell_volume 2480.329069
_symmetry_space_group_name_H-M "C C C 2"
_symmetry_group_IT_number 37
_symmetry_cell_setting 'orthorhombic'
loop_
_space_group_symop_operation_xyz
x,y,z
-x,-y,z
-x,y,1/2+z
x,-y,1/2+z
1/2+x,1/2+y,z
1/2-x,1/2-y,z
1/2-x,1/2+y,1/2+z
1/2+x,1/2-y,1/2+z
loop_
_atom_site_type_symbol
_atom_site_label
_atom_site_fract_x
_atom_site_fract_y
_atom_site_fract_z
Si Si1 0.250000 0.250000 0.323020
Si Si2 0.000000 0.000000 0.076756
Si Si3 0.000000 0.500000 0.266717
Si Si4 0.193474 0.457948 0.485034
Si Si5 0.250000 0.750000 0.020453
Si Si6 0.442404 0.706489 0.611253
Si Si7 0.442410 0.793509 0.232218
Si Si8 0.306523 0.457949 0.358440
O O1 0.418060 0.232523 0.281668
O O2 0.297434 0.344037 0.357814
O O3 0.955164 0.907271 0.113589
O O4 0.167501 0.986860 0.034206
O O5 0.955171 0.407270 0.229884
O O6 0.832497 0.513137 0.309266
O O7 0.202560 0.344036 0.485658
O O8 0.249997 0.492230 0.421737
O O9 0.000000 0.500000 0.497930
O O10 0.418057 0.732520 0.061805
O O11 0.250000 0.750000 0.597251
O O12 0.499990 0.750000 0.671736
O O13 0.250000 0.750000 0.246215
O O14 0.500000 0.500000 0.345545
#
# Coordination Sequence:
#
# PCOD9355059 Si02
#       8
#     4   4   4   8   4   8   8   8
#     4  10  23  40  60  88 122 158 201 256 300 364
#     4  10  24  40  62  88 124 160 202 252 306 364
#     4  10  24  40  62  88 124 160 202 252 306 364
#     4  11  21  40  64  89 120 159 201 252 308 366
#     4  10  23  40  60  88 122 158 201 256 300 364
#     4  11  22  41  60  89 122 160 205 250 306 366
#     4  11  22  41  60  89 122 160 205 250 306 366
#     4  11  21  40  64  89 120 159 201 252 308 366
#
# _framework density 19.352270999999998
#
# number of rings (size 3 to 8) (size 9 to 14) (size 15 to 20)
#    0.000    1.333    3.333    2.500    0.000    1.333 
#    3.000    0.000    0.000    0.000    0.000    0.000 
#    0.000    0.000    0.000    0.000    0.000    0.000 
#
# Total GULP energy -134028.403154 kJ/mol
# GULP energy per Si atom -5584.516798 kJ/mol
# Density = 1.930822 g / cm^3
# Si number density = 19.352271 Si / 1000 Ang^3
#
#
#
# Elastic Constant Matrix: (Units=GPa)
#
#
# Indices 1 2 3 4 5 6 
#
# 1 173.7140 67.2632 30.1457 0.0000 0.0000 0.0000
# 2 67.2632 158.4417 57.9456 0.0000 0.0000 0.0000
# 3 30.1457 57.9456 74.8405 0.0000 0.0000 0.0000
# 4 0.0000 0.0000 0.0000 26.1716 0.0000 0.0000
# 5 0.0000 0.0000 0.0000 0.0000 -5.3050 0.0000
# 6 0.0000 0.0000 0.0000 0.0000 0.0000 28.9262
#
#
#
# Elastic Compliance Matrix: (Units=1/GPa)
#
#
# Indices 1 2 3 4 5 6 
#
# 1 0.006916 -0.002675 -0.000715 0.000000 0.000000 0.000000
# 2 -0.002675 0.009839 -0.006540 0.000000 0.000000 0.000000
# 3 -0.000715 -0.006540 0.018714 0.000000 0.000000 0.000000
# 4 0.000000 0.000000 0.000000 0.038209 0.000000 0.000000
# 5 0.000000 0.000000 0.000000 0.000000 -0.188502 0.000000
# 6 0.000000 0.000000 0.000000 0.000000 0.000000 0.034571
#
#
# Mechanical properties :
#
#
# Convention : Reuss Voigt Hill
#
# Bulk Modulus (GPa) = 64.06696 79.74501 71.90599
# Shear Modulus (GPa) = -90.59647 26.73468 -31.93090
#
# Velocity S-wave (km/s) = -6.84953 3.72085 -4.06640
# Velocity P-wave (km/s) = 5.42007 7.73021 3.89737
#
# Compressibility (1/GPa) = 0.01560867
#
# Stress axis : x y z
#
# Youngs Moduli (GPa) = 144.58539 101.63678 53.43666
#
# Poissons Ratio (x) = 0.27185 0.03821
# Poissons Ratio (y) = 0.38672 0.34950
# Poissons Ratio (z) = 0.10338 0.66475
#
# Static dielectric constant tensor:
#      x y z
#    x 1.647290 0.000000 0.000000 
#    y 0.000000 1.700020 0.000000 
#    z 0.000000 0.000000 1.637810 
# 
# From -- ./inp_files/19441.got.cif
#   From: 2010.05.17/outbox.cif.g08.bks.cpg/sg37_10_cif.got.tgz:19441.got - 2010.06.03 17:53:42.
