data_PCOD9355248
_publ_section_title
;
Structure prediction by ZEFSAII (Michael W. Deem and Ramdas Pophale) SiO2 
 PCOD9355248
Probable space group: C C C 2
;
_chemical_formula_sum "Si O2"
_cell_formula_units_Z 28
_cell_length_a 14.722393
_cell_length_b 8.100776
_cell_length_c 9.380181
_cell_angle_alpha 90.000000
_cell_angle_beta 90.000000
_cell_angle_gamma 90.000000
_cell_volume 1118.706724
_symmetry_space_group_name_H-M "C C C 2"
_symmetry_group_IT_number 37
_symmetry_cell_setting 'orthorhombic'
loop_
_space_group_symop_operation_xyz
x,y,z
-x,-y,z
-x,y,1/2+z
x,-y,1/2+z
1/2+x,1/2+y,z
1/2-x,1/2-y,z
1/2-x,1/2+y,1/2+z
1/2+x,1/2-y,1/2+z
loop_
_atom_site_type_symbol
_atom_site_label
_atom_site_fract_x
_atom_site_fract_y
_atom_site_fract_z
Si Si1 0.116183 0.360506 0.518750
Si Si2 0.717118 0.422694 0.635362
Si Si3 0.607102 0.499689 0.400849
Si Si4 0.000000 0.500000 0.761428
O O1 0.200714 0.471159 0.570147
O O2 0.132403 0.171506 0.478710
O O3 0.074725 0.432298 0.371539
O O4 0.044995 0.371262 0.650821
O O5 0.750000 0.250000 0.699637
O O6 0.644989 0.369060 0.513403
O O7 0.663369 0.516910 0.757848
O O8 0.500000 0.500000 0.377503
#
# Coordination Sequence:
#
# PCOD9355248 Si02
#       4
#     8   8   8   4
#     4  11  25  47  77 112 153 198 254 313 379 461
#     4  12  27  49  74 111 153 199 253 311 386 457
#     4  12  29  48  76 110 151 199 256 315 381 452
#     4  10  24  42  80 112 148 190 254 314 382 436
#
# _framework density 25.028898000000002
#
# number of rings (size 3 to 8) (size 9 to 14) (size 15 to 20)
#    0.000    0.571    0.000    6.857   16.000    2.286 
#    0.000    0.000    0.000    0.000    0.000    0.000 
#    0.000    0.000    0.000    0.000    0.000    0.000 
#
# Total GULP energy -78442.847728 kJ/mol
# GULP energy per Si atom -5603.060552 kJ/mol
# Density = 2.497193 g / cm^3
# Si number density = 25.028898 Si / 1000 Ang^3
#
#
#
# Elastic Constant Matrix: (Units=GPa)
#
#
# Indices 1 2 3 4 5 6 
#
# 1 141.5889 30.0029 62.8962 0.0000 0.0000 0.0000
# 2 30.0029 65.1314 11.6195 0.0000 0.0000 0.0000
# 3 62.8962 11.6195 194.3281 0.0000 0.0000 0.0000
# 4 0.0000 0.0000 0.0000 24.3441 0.0000 0.0000
# 5 0.0000 0.0000 0.0000 0.0000 62.0086 0.0000
# 6 0.0000 0.0000 0.0000 0.0000 0.0000 33.6257
#
#
#
# Elastic Compliance Matrix: (Units=1/GPa)
#
#
# Indices 1 2 3 4 5 6 
#
# 1 0.009046 -0.003684 -0.002708 0.000000 0.000000 0.000000
# 2 -0.003684 0.017019 0.000175 0.000000 0.000000 0.000000
# 3 -0.002708 0.000175 0.006012 0.000000 0.000000 0.000000
# 4 0.000000 0.000000 0.000000 0.041078 0.000000 0.000000
# 5 0.000000 0.000000 0.000000 0.000000 0.016127 0.000000
# 6 0.000000 0.000000 0.000000 0.000000 0.000000 0.029739
#
#
# Mechanical properties :
#
#
# Convention : Reuss Voigt Hill
#
# Bulk Modulus (GPa) = 50.90719 67.78727 59.34723
# Shear Modulus (GPa) = 36.23115 43.76433 39.99774
#
# Velocity S-wave (km/s) = 3.80883 4.18611 4.00191
# Velocity P-wave (km/s) = 6.30289 7.10683 6.71690
#
# Compressibility (1/GPa) = 0.01964359
#
# Stress axis : x y z
#
# Youngs Moduli (GPa) = 110.54468 58.75618 166.33891
#
# Poissons Ratio (x) = 0.21646 0.45038
# Poissons Ratio (y) = 0.40726 -0.02907
# Poissons Ratio (z) = 0.29931 -0.01027
#
# Static dielectric constant tensor:
#      x y z
#    x 2.043920 0.000000 0.000000 
#    y 0.000000 2.094120 0.000000 
#    z 0.000000 0.000000 1.951320 
# 
# From -- ./inp_files/2032.got.cif
#   From: 2010.05.17/outbox.cif.g08.bks.cpg/sg37_2_cif.got.tgz:2032.got - 2010.06.03 17:53:42.
