data_PCOD9355931
_publ_section_title
;
Structure prediction by ZEFSAII (Michael W. Deem and Ramdas Pophale) SiO2 
 PCOD9355931
Probable space group: A M M 2
;
_chemical_formula_sum "Si O2"
_cell_formula_units_Z 58
_cell_length_a 15.681047
_cell_length_b 7.508591
_cell_length_c 25.924811
_cell_angle_alpha 90.000000
_cell_angle_beta 90.000000
_cell_angle_gamma 90.000000
_cell_volume 3052.453832
_symmetry_space_group_name_H-M "A M M 2"
_symmetry_group_IT_number 38
_symmetry_cell_setting 'orthorhombic'
loop_
_space_group_symop_operation_xyz
x,y,z
-x,-y,z
-x,y,z
x,-y,z
x,1/2+y,1/2+z
-x,1/2-y,1/2+z
-x,1/2+y,1/2+z
x,1/2-y,1/2+z
loop_
_atom_site_type_symbol
_atom_site_label
_atom_site_fract_x
_atom_site_fract_y
_atom_site_fract_z
Si Si1 0.126527 0.300222 0.220750
Si Si2 0.402631 0.214753 0.085982
Si Si3 0.000000 0.500000 0.685112
Si Si4 0.402864 0.289121 0.968423
Si Si5 0.594152 0.783271 0.292512
Si Si6 0.275314 0.717878 0.880628
Si Si7 0.904769 0.715654 0.841353
Si Si8 0.317658 0.784059 0.189899
O O1 0.099822 0.500000 0.208812
O O2 0.110586 0.265489 0.281626
O O3 0.225738 0.279534 0.207894
O O4 0.073618 0.154882 0.189991
O O5 0.500000 0.276478 0.093677
O O6 0.344850 0.277552 0.133177
O O7 0.403419 0.000000 0.087787
O O8 0.377616 0.265488 0.028030
O O9 0.500000 0.216999 0.961636
O O10 0.408961 0.500000 0.958110
O O11 0.330424 0.220697 0.929735
O O12 0.500000 0.723726 0.308823
O O13 0.669298 0.727561 0.330782
O O14 0.615328 0.730668 0.234128
O O15 0.593697 0.000000 0.294110
O O16 0.272762 0.500000 0.881465
O O17 0.177366 0.776870 0.873972
O O18 0.905755 0.500000 0.843021
O O19 0.000000 0.776821 0.856672
O O20 0.315993 0.000000 0.189512
#
# Coordination Sequence:
#
# PCOD9355931 Si02
#       8
#     8   8   2   8   8   8   8   8
#     4  12  22  34  56  82 111 146 184 227 277 336
#     4   9  18  32  52  76 103 142 189 229 273 327
#     4  12  22  40  56  78 114 148 186 232 280 326
#     4   9  17  30  48  72 100 134 183 235 277 324
#     4   9  15  23  43  72 103 139 178 218 270 337
#     4   9  16  26  46  73 103 136 179 224 279 337
#     4  10  17  31  50  74 105 139 176 226 281 335
#     4  10  18  32  50  75 109 141 181 228 277 330
#
# _framework density 19.001107000000001
#
# number of rings (size 3 to 8) (size 9 to 14) (size 15 to 20)
#    0.000    2.207    3.448    1.034    0.000    3.862 
#    0.000    0.690    0.000    1.241    1.793    0.000 
#    0.000    0.000    0.000    0.000    0.000    0.276 
#
# Total GULP energy -161567.628830 kJ/mol
# GULP energy per Si atom -5571.297546 kJ/mol
# Density = 1.895786 g / cm^3
# Si number density = 19.001107 Si / 1000 Ang^3
#
#
#
# Elastic Constant Matrix: (Units=GPa)
#
#
# Indices 1 2 3 4 5 6 
#
# 1 165.8684 12.9959 74.0482 0.0000 0.0000 0.0000
# 2 12.9959 71.9904 1.7847 0.0000 0.0000 0.0000
# 3 74.0482 1.7847 98.6772 0.0000 0.0000 0.0000
# 4 0.0000 0.0000 0.0000 10.5517 0.0000 0.0000
# 5 0.0000 0.0000 0.0000 0.0000 92.7514 0.0000
# 6 0.0000 0.0000 0.0000 0.0000 0.0000 -81.5054
#
#
#
# Elastic Compliance Matrix: (Units=1/GPa)
#
#
# Indices 1 2 3 4 5 6 
#
# 1 0.009224 -0.001494 -0.006895 0.000000 0.000000 0.000000
# 2 -0.001494 0.014139 0.000866 0.000000 0.000000 0.000000
# 3 -0.006895 0.000866 0.015292 0.000000 0.000000 0.000000
# 4 0.000000 0.000000 0.000000 0.094772 0.000000 0.000000
# 5 0.000000 0.000000 0.000000 0.000000 0.010782 0.000000
# 6 0.000000 0.000000 0.000000 0.000000 0.000000 -0.012269
#
#
# Mechanical properties :
#
#
# Convention : Reuss Voigt Hill
#
# Bulk Modulus (GPa) = 42.35765 57.13261 49.74513
# Shear Modulus (GPa) = 32.28816 20.87336 26.58076
#
# Velocity S-wave (km/s) = 4.12670 3.31801 3.74425
# Velocity P-wave (km/s) = 6.71169 6.69419 6.70295
#
# Compressibility (1/GPa) = 0.02360848
#
# Stress axis : x y z
#
# Youngs Moduli (GPa) = 108.41376 70.72626 65.39273
#
# Poissons Ratio (x) = 0.10568 0.45086
# Poissons Ratio (y) = 0.16199 -0.05660
# Poissons Ratio (z) = 0.74748 -0.06122
#
# Static dielectric constant tensor:
#      x y z
#    x 1.575050 0.000000 0.000000 
#    y 0.000000 1.715070 0.000000 
#    z 0.000000 0.000000 1.636390 
# 
# From -- ./inp_files/23957.got.cif
#   From: 2010.05.17/outbox.cif.g08.bks.cpg/sg38_12_cif.got.tgz:23957.got - 2010.06.03 18:07:57.
