data_PCOD9355825
_publ_section_title
;
Structure prediction by ZEFSAII (Michael W. Deem and Ramdas Pophale) SiO2 
 PCOD9355825
Probable space group: A M M 2
;
_chemical_formula_sum "Si O2"
_cell_formula_units_Z 48
_cell_length_a 8.512914
_cell_length_b 17.049310
_cell_length_c 18.685209
_cell_angle_alpha 90.000000
_cell_angle_beta 90.000000
_cell_angle_gamma 90.000000
_cell_volume 2711.958338
_symmetry_space_group_name_H-M "A M M 2"
_symmetry_group_IT_number 38
_symmetry_cell_setting 'orthorhombic'
loop_
_space_group_symop_operation_xyz
x,y,z
-x,-y,z
-x,y,z
x,-y,z
x,1/2+y,1/2+z
-x,1/2-y,1/2+z
-x,1/2+y,1/2+z
x,1/2-y,1/2+z
loop_
_atom_site_type_symbol
_atom_site_label
_atom_site_fract_x
_atom_site_fract_y
_atom_site_fract_z
Si Si1 0.812602 0.155568 0.422510
Si Si2 0.311903 0.172716 0.581042
Si Si3 0.189567 0.500000 0.834441
Si Si4 0.811853 0.089505 0.721012
Si Si5 0.311678 0.500000 0.673928
Si Si6 0.691050 0.171128 0.157795
Si Si7 0.311970 0.261036 0.301140
O O1 0.739571 0.154437 0.501081
O O2 0.766992 0.077311 0.378987
O O3 0.757756 0.229029 0.374739
O O4 0.000000 0.156410 0.429096
O O5 0.500000 0.168329 0.587339
O O6 0.240157 0.116319 0.641556
O O7 0.261497 0.261294 0.602605
O O8 0.272756 0.500000 0.758048
O O9 0.000000 0.500000 0.824001
O O10 0.741321 0.153054 0.775775
O O11 0.000000 0.093242 0.725147
O O12 0.761383 0.000000 0.734502
O O13 0.500000 0.500000 0.664735
O O14 0.251162 0.416920 0.644152
O O15 0.500000 0.169177 0.157905
O O16 0.738833 0.202430 0.236454
O O17 0.500000 0.258973 0.304974
#
# Coordination Sequence:
#
# PCOD9355825 Si02
#       7
#     8   8   4   8   4   8   8
#     4  11  22  36  53  77 111 148 181 219 272 327
#     4  10  21  36  53  78 110 143 183 225 270 323
#     4  10  22  34  48  78 112 137 172 219 264 320
#     4  10  21  37  57  81 109 142 180 223 273 329
#     4  10  16  30  56  80 104 133 170 213 264 318
#     4   8  16  30  51  78 104 132 170 216 259 310
#     4  10  19  34  56  81 107 139 181 224 267 321
#
# _framework density 17.699387000000002
#
# number of rings (size 3 to 8) (size 9 to 14) (size 15 to 20)
#    0.000    2.167    1.667    3.000    1.167    2.000 
#    0.000    0.833    1.833    0.000    0.000    0.000 
#    0.000    0.000    0.000    0.000    0.000    0.000 
#
# Total GULP energy -133903.324079 kJ/mol
# GULP energy per Si atom -5579.305170 kJ/mol
# Density = 1.765910 g / cm^3
# Si number density = 17.699387 Si / 1000 Ang^3
#
#
#
# Elastic Constant Matrix: (Units=GPa)
#
#
# Indices 1 2 3 4 5 6 
#
# 1 18.8984 6.8838 -2.0248 0.0000 0.0000 0.0000
# 2 6.8838 115.9436 5.8616 0.0000 0.0000 0.0000
# 3 -2.0248 5.8616 35.8994 0.0000 0.0000 0.0000
# 4 0.0000 0.0000 0.0000 16.4589 0.0000 0.0000
# 5 0.0000 0.0000 0.0000 0.0000 24.8342 0.0000
# 6 0.0000 0.0000 0.0000 0.0000 0.0000 21.7993
#
#
#
# Elastic Compliance Matrix: (Units=1/GPa)
#
#
# Indices 1 2 3 4 5 6 
#
# 1 0.054551 -0.003423 0.003636 0.000000 0.000000 0.000000
# 2 -0.003423 0.008911 -0.001648 0.000000 0.000000 0.000000
# 3 0.003636 -0.001648 0.028330 0.000000 0.000000 0.000000
# 4 0.000000 0.000000 0.000000 0.060758 0.000000 0.000000
# 5 0.000000 0.000000 0.000000 0.000000 0.040267 0.000000
# 6 0.000000 0.000000 0.000000 0.000000 0.000000 0.045873
#
#
# Mechanical properties :
#
#
# Convention : Reuss Voigt Hill
#
# Bulk Modulus (GPa) = 11.24582 21.35361 16.29972
# Shear Modulus (GPa) = 18.43656 23.28652 20.86154
#
# Velocity S-wave (km/s) = 3.23096 3.63115 3.43688
# Velocity P-wave (km/s) = 4.50404 5.44712 4.99788
#
# Compressibility (1/GPa) = 0.08892195
#
# Stress axis : x y z
#
# Youngs Moduli (GPa) = 18.33156 112.21569 35.29850
#
# Poissons Ratio (x) = 0.38407 -0.12833
# Poissons Ratio (y) = 0.06274 0.05818
# Poissons Ratio (z) = -0.06665 0.18494
#
# Static dielectric constant tensor:
#      x y z
#    x 1.604080 0.000000 0.000000 
#    y 0.000000 1.631490 0.000000 
#    z 0.000000 0.000000 1.565850 
# 
# From -- ./inp_files/16693.got.cif
#   From: 2010.05.17/outbox.cif.g08.bks.cpg/sg38_9_cif.got.tgz:16693.got - 2010.06.03 18:07:57.
