data_PCOD9355565
_publ_section_title
;
Structure prediction by ZEFSAII (Michael W. Deem and Ramdas Pophale) SiO2 
 PCOD9355565
Probable space group: C C C 2
;
_chemical_formula_sum "Si O2"
_cell_formula_units_Z 56
_cell_length_a 11.199167
_cell_length_b 14.946709
_cell_length_c 12.831801
_cell_angle_alpha 90.000000
_cell_angle_beta 90.000000
_cell_angle_gamma 90.000000
_cell_volume 2147.924026
_symmetry_space_group_name_H-M "C C C 2"
_symmetry_group_IT_number 37
_symmetry_cell_setting 'orthorhombic'
loop_
_space_group_symop_operation_xyz
x,y,z
-x,-y,z
-x,y,1/2+z
x,-y,1/2+z
1/2+x,1/2+y,z
1/2-x,1/2-y,z
1/2-x,1/2+y,1/2+z
1/2+x,1/2-y,1/2+z
loop_
_atom_site_type_symbol
_atom_site_label
_atom_site_fract_x
_atom_site_fract_y
_atom_site_fract_z
Si Si1 0.423700 0.122828 0.191670
Si Si2 0.578614 0.590309 0.579420
Si Si3 0.527118 0.101282 0.919553
Si Si4 0.634228 0.676328 0.164480
Si Si5 0.126449 0.048882 0.359041
Si Si6 0.681333 0.156335 0.107892
Si Si7 0.212596 0.592839 0.490935
O O1 0.417085 0.089180 0.307242
O O2 0.358792 0.218993 0.188069
O O3 0.564910 0.136151 0.174839
O O4 0.363617 0.069061 0.097468
O O5 0.500000 0.500000 0.583775
O O6 0.492877 0.338374 0.645087
O O7 0.594880 0.612685 0.457533
O O8 0.712172 0.584603 0.622510
O O9 0.393556 0.142898 0.927561
O O10 0.500000 0.000000 0.952178
O O11 0.622382 0.149022 0.992960
O O12 0.663125 0.607629 0.258912
O O13 0.686426 0.649839 0.050588
O O14 0.218911 0.977718 0.414844
O O15 0.000000 0.000000 0.332954
O O16 0.750000 0.250000 0.121724
#
# Coordination Sequence:
#
# PCOD9355565 Si02
#       7
#     8   8   8   8   8   8   8
#     4  11  28  50  79 117 160 214 267 338 419 494
#     4  11  23  45  77 110 152 199 269 330 394 474
#     4  11  28  50  79 115 157 216 273 331 411 495
#     4  12  25  47  78 115 160 207 266 337 411 483
#     4  11  25  44  76 117 156 206 266 337 403 481
#     4  11  25  50  80 110 161 212 265 336 408 489
#     4  11  26  51  74 112 161 205 266 334 404 487
#
# _framework density 26.071686
#
# number of rings (size 3 to 8) (size 9 to 14) (size 15 to 20)
#    0.000    0.857    4.286    1.714    6.000    5.714 
#    2.571    0.000    0.000    0.000    0.000    0.000 
#    0.000    0.000    0.000    0.000    0.000    0.000 
#
# Total GULP energy -156424.455816 kJ/mol
# GULP energy per Si atom -5586.587708 kJ/mol
# Density = 2.601235 g / cm^3
# Si number density = 26.071686 Si / 1000 Ang^3
#
#
#
# Elastic Constant Matrix: (Units=GPa)
#
#
# Indices 1 2 3 4 5 6 
#
# 1 200.6793 46.5399 31.4128 0.0000 0.0000 0.0000
# 2 46.5399 109.7362 34.9816 0.0000 0.0000 0.0000
# 3 31.4128 34.9816 117.2231 0.0000 0.0000 0.0000
# 4 0.0000 0.0000 0.0000 20.4711 0.0000 0.0000
# 5 0.0000 0.0000 0.0000 0.0000 32.0830 0.0000
# 6 0.0000 0.0000 0.0000 0.0000 0.0000 42.6560
#
#
#
# Elastic Compliance Matrix: (Units=1/GPa)
#
#
# Indices 1 2 3 4 5 6 
#
# 1 0.005607 -0.002099 -0.000876 0.000000 0.000000 0.000000
# 2 -0.002099 0.010856 -0.002677 0.000000 0.000000 0.000000
# 3 -0.000876 -0.002677 0.009565 0.000000 0.000000 0.000000
# 4 0.000000 0.000000 0.000000 0.048849 0.000000 0.000000
# 5 0.000000 0.000000 0.000000 0.000000 0.031169 0.000000
# 6 0.000000 0.000000 0.000000 0.000000 0.000000 0.023443
#
#
# Mechanical properties :
#
#
# Convention : Reuss Voigt Hill
#
# Bulk Modulus (GPa) = 67.91944 72.61191 70.26567
# Shear Modulus (GPa) = 34.31668 40.02231 37.16949
#
# Velocity S-wave (km/s) = 3.63194 3.92227 3.77989
# Velocity P-wave (km/s) = 6.61026 6.95871 6.78672
#
# Compressibility (1/GPa) = 0.01472332
#
# Stress axis : x y z
#
# Youngs Moduli (GPa) = 178.35071 92.11260 104.55298
#
# Poissons Ratio (x) = 0.19331 0.09161
# Poissons Ratio (y) = 0.37429 0.27992
# Poissons Ratio (z) = 0.15628 0.24662
#
# Static dielectric constant tensor:
#      x y z
#    x 2.300260 0.000000 0.000000 
#    y 0.000000 2.277580 0.000000 
#    z 0.000000 0.000000 2.018380 
# 
# From -- ./inp_files/11597.got.cif
#   From: 2010.05.17/outbox.cif.g08.bks.cpg/sg37_6_cif.got.tgz:11597.got - 2010.06.03 17:53:42.
