data_PCOD9355989
_publ_section_title
;
Structure prediction by ZEFSAII (Michael W. Deem and Ramdas Pophale) SiO2 
 PCOD9355989
Probable space group: A M M 2
;
_chemical_formula_sum "Si O2"
_cell_formula_units_Z 64
_cell_length_a 12.454303
_cell_length_b 17.621848
_cell_length_c 16.239375
_cell_angle_alpha 90.000000
_cell_angle_beta 90.000000
_cell_angle_gamma 90.000000
_cell_volume 3564.020463
_symmetry_space_group_name_H-M "A M M 2"
_symmetry_group_IT_number 38
_symmetry_cell_setting 'orthorhombic'
loop_
_space_group_symop_operation_xyz
x,y,z
-x,-y,z
-x,y,z
x,-y,z
x,1/2+y,1/2+z
-x,1/2-y,1/2+z
-x,1/2+y,1/2+z
x,1/2-y,1/2+z
loop_
_atom_site_type_symbol
_atom_site_label
_atom_site_fract_x
_atom_site_fract_y
_atom_site_fract_z
Si Si1 0.375544 0.912003 0.706320
Si Si2 0.231879 0.412892 0.542147
Si Si3 0.716559 0.727622 0.831730
Si Si4 0.622048 0.126143 0.889944
Si Si5 0.874767 0.232976 0.967392
Si Si6 0.693601 0.678557 0.061536
Si Si7 0.377769 0.411967 0.909659
Si Si8 0.625187 0.183159 0.157560
O O1 0.500000 0.882451 0.700175
O O2 0.340991 0.902867 0.800723
O O3 0.297905 0.868211 0.645356
O O4 0.378390 0.000000 0.684858
O O5 0.194530 0.500000 0.551922
O O6 0.312521 0.407362 0.464747
O O7 0.146916 0.348137 0.512957
O O8 0.299770 0.384088 0.621788
O O9 0.633287 0.782683 0.880092
O O10 0.700581 0.640733 0.857638
O O11 0.682476 0.723267 0.736266
O O12 0.825473 0.760339 0.873944
O O13 0.500000 0.103969 0.900263
O O14 0.803047 0.292716 0.019534
O O15 0.000000 0.249396 0.966927
O O16 0.629159 0.754420 0.084885
O O17 0.630921 0.623505 0.000186
O O18 0.500000 0.404062 0.879222
O O19 0.349632 0.500000 0.909623
O O20 0.500000 0.163750 0.174610
#
# Coordination Sequence:
#
# PCOD9355989 Si02
#       8
#     8   8   8   8   8   8   8   8
#     4  10  18  27  47  80 117 152 179 211 263 331
#     4  10  22  36  54  83 115 147 188 233 282 333
#     4  10  20  34  54  78 108 146 192 234 275 321
#     4  10  18  31  51  77 115 157 190 217 260 328
#     4   9  21  41  62  79  98 138 196 247 290 326
#     4  10  19  32  52  76 106 139 183 228 273 328
#     4  10  19  30  47  74 108 145 181 218 266 328
#     4  11  20  32  53  82 119 154 180 213 269 341
#
# _framework density 17.957246999999999
#
# number of rings (size 3 to 8) (size 9 to 14) (size 15 to 20)
#    0.000    2.000    1.250    4.125    0.000    3.250 
#    0.000    2.500    0.000    9.375    0.000    0.000 
#    0.000    0.000    0.000    0.000    0.000    0.000 
#
# Total GULP energy -178182.341950 kJ/mol
# GULP energy per Si atom -5568.198186 kJ/mol
# Density = 1.791638 g / cm^3
# Si number density = 17.957247 Si / 1000 Ang^3
#
#
#
# Elastic Constant Matrix: (Units=GPa)
#
#
# Indices 1 2 3 4 5 6 
#
# 1 84.5693 15.1912 31.6214 0.0000 0.0000 0.0000
# 2 15.1912 98.0479 9.8657 0.0000 0.0000 0.0000
# 3 31.6214 9.8657 75.2150 0.0000 0.0000 0.0000
# 4 0.0000 0.0000 0.0000 20.8567 0.0000 0.0000
# 5 0.0000 0.0000 0.0000 0.0000 13.6532 0.0000
# 6 0.0000 0.0000 0.0000 0.0000 0.0000 9.1203
#
#
#
# Elastic Compliance Matrix: (Units=1/GPa)
#
#
# Indices 1 2 3 4 5 6 
#
# 1 0.014283 -0.001630 -0.005791 0.000000 0.000000 0.000000
# 2 -0.001630 0.010522 -0.000695 0.000000 0.000000 0.000000
# 3 -0.005791 -0.000695 0.015821 0.000000 0.000000 0.000000
# 4 0.000000 0.000000 0.000000 0.047946 0.000000 0.000000
# 5 0.000000 0.000000 0.000000 0.000000 0.073243 0.000000
# 6 0.000000 0.000000 0.000000 0.000000 0.000000 0.109646
#
#
# Mechanical properties :
#
#
# Convention : Reuss Voigt Hill
#
# Bulk Modulus (GPa) = 40.99425 41.24320 41.11873
# Shear Modulus (GPa) = 16.90200 22.13629 19.51914
#
# Velocity S-wave (km/s) = 3.07128 3.51482 3.30051
# Velocity P-wave (km/s) = 5.95444 6.28405 6.12147
#
# Compressibility (1/GPa) = 0.02439366
#
# Stress axis : x y z
#
# Youngs Moduli (GPa) = 70.01468 95.04273 63.20760
#
# Poissons Ratio (x) = 0.15494 0.36602
# Poissons Ratio (y) = 0.11414 0.04391
# Poissons Ratio (z) = 0.40544 0.06603
#
# Static dielectric constant tensor:
#      x y z
#    x 1.590180 0.000000 0.000000 
#    y 0.000000 1.671730 0.000000 
#    z 0.000000 0.000000 1.688550 
# 
# From -- ./inp_files/13959.got.cif
#   From: 2010.05.17/outbox.cif.g08.bks.cpg/sg38_7_cif.got.tgz:13959.got - 2010.06.03 18:07:57.
