data_PCOD9355012
_publ_section_title
;
Structure prediction by ZEFSAII (Michael W. Deem and Ramdas Pophale) SiO2 
 PCOD9355012
Probable space group: C C C 2
;
_chemical_formula_sum "Si O2"
_cell_formula_units_Z 64
_cell_length_a 9.200297
_cell_length_b 27.917780
_cell_length_c 11.500293
_cell_angle_alpha 90.000000
_cell_angle_beta 90.000000
_cell_angle_gamma 90.000000
_cell_volume 2953.871735
_symmetry_space_group_name_H-M "C C C 2"
_symmetry_group_IT_number 37
_symmetry_cell_setting 'orthorhombic'
loop_
_space_group_symop_operation_xyz
x,y,z
-x,-y,z
-x,y,1/2+z
x,-y,1/2+z
1/2+x,1/2+y,z
1/2-x,1/2-y,z
1/2-x,1/2+y,1/2+z
1/2+x,1/2-y,1/2+z
loop_
_atom_site_type_symbol
_atom_site_label
_atom_site_fract_x
_atom_site_fract_y
_atom_site_fract_z
Si Si1 0.875450 0.968907 0.945870
Si Si2 0.353504 0.194167 0.871581
Si Si3 0.807081 0.824546 0.632240
Si Si4 0.753743 0.444775 0.806245
Si Si5 0.543836 0.296364 0.452336
Si Si6 0.994550 0.116038 0.289226
Si Si7 0.587022 0.953884 0.087647
Si Si8 0.584165 0.873672 0.471583
O O1 0.933385 0.921434 0.883518
O O2 0.822007 0.007032 0.849275
O O3 0.740961 0.955982 0.024674
O O4 0.000000 0.000000 0.010358
O O5 0.277187 0.196479 0.744808
O O6 0.438296 0.242889 0.902565
O O7 0.215293 0.188250 0.959989
O O8 0.468778 0.151652 0.886272
O O9 0.686105 0.836020 0.536818
O O10 0.941116 0.798141 0.566200
O O11 0.882077 0.872066 0.687009
O O12 0.638412 0.409672 0.743603
O O13 0.884507 0.457924 0.723380
O O14 0.813079 0.412225 0.909798
O O15 0.479463 0.334072 0.358144
O O16 0.507098 0.904635 0.062486
O O17 0.500000 0.000000 0.044102
#
# Coordination Sequence:
#
# PCOD9355012 Si02
#       8
#     8   8   8   8   8   8   8   8
#     4  10  24  45  66  93 137 182 237 297 347 431
#     4  10  25  45  72 109 144 179 239 301 353 430
#     4  11  24  45  78  97 147 190 229 285 377 413
#     4  11  25  42  62 102 135 178 248 284 356 431
#     4  10  22  46  72 102 140 182 235 286 352 432
#     4  10  23  42  70  99 134 184 238 292 339 433
#     4  12  26  39  67  91 140 183 227 297 364 410
#     4  12  25  45  67 105 142 185 238 296 360 436
#
# _framework density 21.666478999999999
#
# number of rings (size 3 to 8) (size 9 to 14) (size 15 to 20)
#    0.000    1.250    2.500    2.250    7.000    6.000 
#    0.000    0.000    0.000    0.000    0.000    0.000 
#    0.000    0.000    0.000    0.000    0.000    0.000 
#
# Total GULP energy -178674.843789 kJ/mol
# GULP energy per Si atom -5583.588868 kJ/mol
# Density = 2.161717 g / cm^3
# Si number density = 21.666479 Si / 1000 Ang^3
#
#
#
# Elastic Constant Matrix: (Units=GPa)
#
#
# Indices 1 2 3 4 5 6 
#
# 1 100.7447 33.9255 41.9611 0.0000 0.0000 0.0000
# 2 33.9255 78.6501 15.3684 0.0000 0.0000 0.0000
# 3 41.9611 15.3684 68.0543 0.0000 0.0000 0.0000
# 4 0.0000 0.0000 0.0000 4.4149 0.0000 0.0000
# 5 0.0000 0.0000 0.0000 0.0000 40.0260 0.0000
# 6 0.0000 0.0000 0.0000 0.0000 0.0000 28.5455
#
#
#
# Elastic Compliance Matrix: (Units=1/GPa)
#
#
# Indices 1 2 3 4 5 6 
#
# 1 0.014943 -0.004860 -0.008116 0.000000 0.000000 0.000000
# 2 -0.004860 0.014882 -0.000364 0.000000 0.000000 0.000000
# 3 -0.008116 -0.000364 0.019781 0.000000 0.000000 0.000000
# 4 0.000000 0.000000 0.000000 0.226507 0.000000 0.000000
# 5 0.000000 0.000000 0.000000 0.000000 0.024984 0.000000
# 6 0.000000 0.000000 0.000000 0.000000 0.000000 0.035032
#
#
# Mechanical properties :
#
#
# Convention : Reuss Voigt Hill
#
# Bulk Modulus (GPa) = 43.61992 47.77323 45.69658
# Shear Modulus (GPa) = 13.49707 25.01022 19.25364
#
# Velocity S-wave (km/s) = 2.49860 3.40123 2.98424
# Velocity P-wave (km/s) = 5.33855 6.12550 5.74551
#
# Compressibility (1/GPa) = 0.02292531
#
# Stress axis : x y z
#
# Youngs Moduli (GPa) = 66.92080 67.19544 50.55433
#
# Poissons Ratio (x) = 0.32655 0.41031
# Poissons Ratio (y) = 0.32522 0.01842
# Poissons Ratio (z) = 0.54314 0.02448
#
# Static dielectric constant tensor:
#      x y z
#    x 1.801430 0.000000 0.000000 
#    y 0.000000 1.779270 0.000000 
#    z 0.000000 0.000000 1.787670 
# 
# From -- ./inp_files/6620.got.cif
#   From: 2010.05.17/outbox.cif.g08.bks.cpg/sg37_4_cif.got.tgz:6620.got - 2010.06.03 17:53:42.
