data_PCOD9355276
_publ_section_title
;
Structure prediction by ZEFSAII (Michael W. Deem and Ramdas Pophale) SiO2 
 PCOD9355276
Probable space group: C C C 2
;
_chemical_formula_sum "Si O2"
_cell_formula_units_Z 64
_cell_length_a 16.974259
_cell_length_b 13.989664
_cell_length_c 11.169143
_cell_angle_alpha 90.000000
_cell_angle_beta 90.000000
_cell_angle_gamma 90.000000
_cell_volume 2652.271384
_symmetry_space_group_name_H-M "C C C 2"
_symmetry_group_IT_number 37
_symmetry_cell_setting 'orthorhombic'
loop_
_space_group_symop_operation_xyz
x,y,z
-x,-y,z
-x,y,1/2+z
x,-y,1/2+z
1/2+x,1/2+y,z
1/2-x,1/2-y,z
1/2-x,1/2+y,1/2+z
1/2+x,1/2-y,1/2+z
loop_
_atom_site_type_symbol
_atom_site_label
_atom_site_fract_x
_atom_site_fract_y
_atom_site_fract_z
Si Si1 0.761888 0.625746 0.488750
Si Si2 0.317509 0.927227 0.559088
Si Si3 0.658583 0.752565 0.927693
Si Si4 0.993648 0.209574 0.570448
Si Si5 0.101567 0.254060 0.372564
Si Si6 0.176647 0.092352 0.238524
Si Si7 0.871476 0.121203 0.197891
Si Si8 0.467569 0.894236 0.709811
O O1 0.815714 0.538609 0.533199
O O2 0.822666 0.707396 0.444104
O O3 0.722425 0.590185 0.365441
O O4 0.695789 0.637106 0.593819
O O5 0.348417 0.867956 0.442950
O O6 0.234247 0.903617 0.623908
O O7 0.379554 0.902734 0.660612
O O8 0.750000 0.750000 0.963329
O O9 0.649683 0.696447 0.803378
O O10 0.593853 0.707169 0.016399
O O11 0.048799 0.189817 0.456533
O O12 0.037566 0.141848 0.664282
O O13 0.008729 0.316907 0.622576
O O14 0.127597 0.190127 0.259439
O O15 0.044368 0.339908 0.334223
O O16 0.134334 0.990317 0.230955
O O17 0.500000 0.000000 0.715464
#
# Coordination Sequence:
#
# PCOD9355276 Si02
#       8
#     8   8   8   8   8   8   8   8
#     4  11  23  44  77 111 155 212 258 327 397 481
#     4  10  24  44  74 110 154 199 266 321 392 479
#     4  11  26  47  79 113 153 207 265 332 400 477
#     4  11  26  48  73 112 153 206 261 331 406 468
#     4  12  25  45  76 108 158 206 266 325 404 478
#     4  11  24  46  74 113 151 214 263 324 391 474
#     4  11  26  49  78 116 161 206 269 331 398 484
#     4  11  25  45  70 108 152 199 252 325 398 476
#
# _framework density 24.130261999999998
#
# number of rings (size 3 to 8) (size 9 to 14) (size 15 to 20)
#    0.000    1.000    2.500    2.625    5.250    3.500 
#    4.500    3.750    0.000    0.000    0.000    0.000 
#    0.000    0.000    0.000    0.000    0.000    0.000 
#
# Total GULP energy -178573.088542 kJ/mol
# GULP energy per Si atom -5580.409017 kJ/mol
# Density = 2.407534 g / cm^3
# Si number density = 24.130262 Si / 1000 Ang^3
#
#
#
# Elastic Constant Matrix: (Units=GPa)
#
#
# Indices 1 2 3 4 5 6 
#
# 1 107.8648 58.0824 31.3264 0.0000 0.0000 0.0000
# 2 58.0824 126.0434 57.9408 0.0000 0.0000 0.0000
# 3 31.3264 57.9408 106.2990 0.0000 0.0000 0.0000
# 4 0.0000 0.0000 0.0000 32.4858 0.0000 0.0000
# 5 0.0000 0.0000 0.0000 0.0000 30.4720 0.0000
# 6 0.0000 0.0000 0.0000 0.0000 0.0000 39.3635
#
#
#
# Elastic Compliance Matrix: (Units=1/GPa)
#
#
# Indices 1 2 3 4 5 6 
#
# 1 0.012371 -0.005371 -0.000718 0.000000 0.000000 0.000000
# 2 -0.005371 0.012918 -0.005458 0.000000 0.000000 0.000000
# 3 -0.000718 -0.005458 0.012594 0.000000 0.000000 0.000000
# 4 0.000000 0.000000 0.000000 0.030783 0.000000 0.000000
# 5 0.000000 0.000000 0.000000 0.000000 0.032817 0.000000
# 6 0.000000 0.000000 0.000000 0.000000 0.000000 0.025404
#
#
# Mechanical properties :
#
#
# Convention : Reuss Voigt Hill
#
# Bulk Modulus (GPa) = 67.61972 70.54513 69.08242
# Shear Modulus (GPa) = 32.27633 33.32143 32.79888
#
# Velocity S-wave (km/s) = 3.66127 3.72008 3.69079
# Velocity P-wave (km/s) = 6.77915 6.91018 6.84498
#
# Compressibility (1/GPa) = 0.01478859
#
# Stress axis : x y z
#
# Youngs Moduli (GPa) = 80.83101 77.41248 79.40037
#
# Poissons Ratio (x) = 0.41576 0.05705
# Poissons Ratio (y) = 0.43412 0.43340
# Poissons Ratio (z) = 0.05808 0.42255
#
# Static dielectric constant tensor:
#      x y z
#    x 1.975940 0.000000 0.000000 
#    y 0.000000 2.018440 0.000000 
#    z 0.000000 0.000000 1.926600 
# 
# From -- ./inp_files/8374.got.cif
#   From: 2010.05.17/outbox.cif.g08.bks.cpg/sg37_5_cif.got.tgz:8374.got - 2010.06.03 17:53:42.
