data_PCOD9355588
_publ_section_title
;
Structure prediction by ZEFSAII (Michael W. Deem and Ramdas Pophale) SiO2 
 PCOD9355588
Probable space group: C C C 2
;
_chemical_formula_sum "Si O2"
_cell_formula_units_Z 36
_cell_length_a 13.853150
_cell_length_b 5.380753
_cell_length_c 22.774891
_cell_angle_alpha 90.000000
_cell_angle_beta 90.000000
_cell_angle_gamma 90.000000
_cell_volume 1697.648994
_symmetry_space_group_name_H-M "C C C 2"
_symmetry_group_IT_number 37
_symmetry_cell_setting 'orthorhombic'
loop_
_space_group_symop_operation_xyz
x,y,z
-x,-y,z
-x,y,1/2+z
x,-y,1/2+z
1/2+x,1/2+y,z
1/2-x,1/2-y,z
1/2-x,1/2+y,1/2+z
1/2+x,1/2-y,1/2+z
loop_
_atom_site_type_symbol
_atom_site_label
_atom_site_fract_x
_atom_site_fract_y
_atom_site_fract_z
Si Si1 0.250000 0.250000 0.653360
Si Si2 0.065194 0.747356 0.068719
Si Si3 0.104406 0.873694 0.940760
Si Si4 0.396746 0.920684 0.820222
Si Si5 0.750000 0.750000 0.230022
Si Si6 0.250000 0.750000 0.384240
O O1 0.153191 0.245823 0.614177
O O2 0.248214 0.500544 0.691929
O O3 0.000000 0.500000 0.076312
O O4 0.112092 0.739459 0.003245
O O5 0.000000 0.000000 0.074094
O O6 0.093641 0.709119 0.883095
O O7 0.194254 0.053475 0.925655
O O8 0.000000 0.000000 0.945307
O O9 0.341498 0.754478 0.773461
O O10 0.500000 0.000000 0.797331
O O11 0.329905 0.148037 0.839487
#
# Coordination Sequence:
#
# PCOD9355588 Si02
#       6
#     4   8   8   8   4   4
#     4  12  29  51  76 103 140 199 258 302 356 422
#     4  11  27  49  76 108 147 188 242 306 370 434
#     4  11  24  41  73 109 147 186 235 291 378 444
#     4  12  25  44  70 105 151 186 236 298 369 433
#     4  12  28  48  74 107 141 198 258 296 358 432
#     4  12  23  41  68 108 151 189 228 288 358 450
#
# _framework density 21.205795999999999
#
# number of rings (size 3 to 8) (size 9 to 14) (size 15 to 20)
#    0.000    0.444    4.444    2.667    6.222    3.556 
#    0.000    2.222    0.000    0.000    0.000    0.000 
#    0.000    0.000    0.000    0.000    0.000    0.000 
#
# Total GULP energy -100650.415534 kJ/mol
# GULP energy per Si atom -5591.689752 kJ/mol
# Density = 2.115753 g / cm^3
# Si number density = 21.205796 Si / 1000 Ang^3
#
#
#
# Elastic Constant Matrix: (Units=GPa)
#
#
# Indices 1 2 3 4 5 6 
#
# 1 145.5046 46.3456 51.7898 0.0000 0.0000 0.0000
# 2 46.3456 115.3479 53.7307 0.0000 0.0000 0.0000
# 3 51.7898 53.7307 140.6346 0.0000 0.0000 0.0000
# 4 0.0000 0.0000 0.0000 38.2626 0.0000 0.0000
# 5 0.0000 0.0000 0.0000 0.0000 309.8759 0.0000
# 6 0.0000 0.0000 0.0000 0.0000 0.0000 42.5697
#
#
#
# Elastic Compliance Matrix: (Units=1/GPa)
#
#
# Indices 1 2 3 4 5 6 
#
# 1 0.008404 -0.002354 -0.002195 0.000000 0.000000 0.000000
# 2 -0.002354 0.011206 -0.003414 0.000000 0.000000 0.000000
# 3 -0.002195 -0.003414 0.009224 0.000000 0.000000 0.000000
# 4 0.000000 0.000000 0.000000 0.026135 0.000000 0.000000
# 5 0.000000 0.000000 0.000000 0.000000 0.003227 0.000000
# 6 0.000000 0.000000 0.000000 0.000000 0.000000 0.023491
#
#
# Mechanical properties :
#
#
# Convention : Reuss Voigt Hill
#
# Bulk Modulus (GPa) = 77.48545 78.35767 77.92156
# Shear Modulus (GPa) = 49.06020 94.78303 71.92162
#
# Velocity S-wave (km/s) = 4.81513 6.69282 5.83006
# Velocity P-wave (km/s) = 8.21785 9.83648 9.06337
#
# Compressibility (1/GPa) = 0.01290565
#
# Stress axis : x y z
#
# Youngs Moduli (GPa) = 118.99350 89.24056 108.41746
#
# Poissons Ratio (x) = 0.21006 0.23802
# Poissons Ratio (y) = 0.28010 0.37018
# Poissons Ratio (z) = 0.26124 0.30470
#
# Static dielectric constant tensor:
#      x y z
#    x 1.645840 0.000000 0.000000 
#    y 0.000000 1.780370 0.000000 
#    z 0.000000 0.000000 1.754460 
# 
# From -- ./inp_files/15634.got.cif
#   From: 2010.05.17/outbox.cif.g08.bks.cpg/sg37_8_cif.got.tgz:15634.got - 2010.06.03 17:53:42.
