data_PCOD9355737
_publ_section_title
;
Structure prediction by ZEFSAII (Michael W. Deem and Ramdas Pophale) SiO2 
 PCOD9355737
Probable space group: C C C 2
;
_chemical_formula_sum "Si O2"
_cell_formula_units_Z 32
_cell_length_a 5.203762
_cell_length_b 8.448462
_cell_length_c 30.001109
_cell_angle_alpha 90.000000
_cell_angle_beta 90.000000
_cell_angle_gamma 90.000000
_cell_volume 1318.962321
_symmetry_space_group_name_H-M "C C C 2"
_symmetry_group_IT_number 37
_symmetry_cell_setting 'orthorhombic'
loop_
_space_group_symop_operation_xyz
x,y,z
-x,-y,z
-x,y,1/2+z
x,-y,1/2+z
1/2+x,1/2+y,z
1/2-x,1/2-y,z
1/2-x,1/2+y,1/2+z
1/2+x,1/2-y,1/2+z
loop_
_atom_site_type_symbol
_atom_site_label
_atom_site_fract_x
_atom_site_fract_y
_atom_site_fract_z
Si Si1 0.250000 0.750000 0.510280
Si Si2 0.250000 0.750000 0.324678
Si Si3 0.250000 0.250000 0.637336
Si Si4 0.000000 0.000000 0.761873
Si Si5 0.750000 0.750000 0.197854
Si Si6 0.500000 0.000000 0.945082
Si Si7 0.000000 0.000000 0.076117
Si Si8 0.250000 0.250000 0.386622
O O1 0.103517 0.865986 0.543419
O O2 0.092645 0.638964 0.477213
O O3 0.311371 0.602872 0.292695
O O4 0.498471 0.757371 0.356031
O O5 0.501609 0.222833 0.667186
O O6 0.302339 0.405578 0.607527
O O7 0.173597 0.892487 0.730168
O O8 0.716978 0.089126 0.915631
#
# Coordination Sequence:
#
# PCOD9355737 Si02
#       8
#     4   4   4   4   4   4   4   4
#     4  12  26  48  76 112 152 200 252 312 380 452
#     4  12  28  50  78 113 153 202 255 315 382 454
#     4  12  29  51  80 115 155 204 257 317 382 455
#     4  12  29  52  79 114 156 202 256 318 383 456
#     4  12  30  52  80 115 155 204 257 317 384 456
#     4  12  26  48  78 112 154 200 254 314 380 454
#     4  12  27  48  77 112 154 200 254 314 379 454
#     4  12  27  49  78 113 153 202 255 315 380 453
#
# _framework density 24.261495
#
# number of rings (size 3 to 8) (size 9 to 14) (size 15 to 20)
#    0.000    0.000    0.000    8.250    0.000   19.000 
#    0.000    0.000    0.000    0.000    0.000    0.000 
#    0.000    0.000    0.000    0.000    0.000    0.000 
#
# Total GULP energy -89804.898354 kJ/mol
# GULP energy per Si atom -5612.806147 kJ/mol
# Density = 2.420627 g / cm^3
# Si number density = 24.261495 Si / 1000 Ang^3
#
#
#
# Elastic Constant Matrix: (Units=GPa)
#
#
# Indices 1 2 3 4 5 6 
#
# 1 205.6306 101.4121 126.9366 0.0000 0.0000 0.0000
# 2 101.4121 208.2210 117.9874 0.0000 0.0000 0.0000
# 3 126.9366 117.9874 197.4901 0.0000 0.0000 0.0000
# 4 0.0000 0.0000 0.0000 54.3356 0.0000 0.0000
# 5 0.0000 0.0000 0.0000 0.0000 5.3381 0.0000
# 6 0.0000 0.0000 0.0000 0.0000 0.0000 63.7158
#
#
#
# Elastic Compliance Matrix: (Units=1/GPa)
#
#
# Indices 1 2 3 4 5 6 
#
# 1 0.008383 -0.001557 -0.004458 0.000000 0.000000 0.000000
# 2 -0.001557 0.007550 -0.003510 0.000000 0.000000 0.000000
# 3 -0.004458 -0.003510 0.010026 0.000000 0.000000 0.000000
# 4 0.000000 0.000000 0.000000 0.018404 0.000000 0.000000
# 5 0.000000 0.000000 0.000000 0.000000 0.187334 0.000000
# 6 0.000000 0.000000 0.000000 0.000000 0.000000 0.015695
#
#
# Mechanical properties :
#
#
# Convention : Reuss Voigt Hill
#
# Bulk Modulus (GPa) = 144.73545 144.89042 144.81294
# Shear Modulus (GPa) = 18.60514 42.34493 30.47504
#
# Velocity S-wave (km/s) = 2.77223 4.18228 3.54801
# Velocity P-wave (km/s) = 8.36857 9.11986 8.75228
#
# Compressibility (1/GPa) = 0.00690916
#
# Stress axis : x y z
#
# Youngs Moduli (GPa) = 119.29296 132.45784 99.74220
#
# Poissons Ratio (x) = 0.20619 0.44465
# Poissons Ratio (y) = 0.18569 0.35008
# Poissons Ratio (z) = 0.53181 0.46491
#
# Static dielectric constant tensor:
#      x y z
#    x 1.896360 0.000000 0.000000 
#    y 0.000000 1.876420 0.000000 
#    z 0.000000 0.000000 1.931050 
# 
# From -- ./inp_files/19150.got.cif
#   From: 2010.05.17/outbox.cif.g08.bks.cpg/sg37_10_cif.got.tgz:19150.got - 2010.06.03 17:53:42.
