data_PCOD9355712
_publ_section_title
;
Structure prediction by ZEFSAII (Michael W. Deem and Ramdas Pophale) SiO2 
 PCOD9355712
Probable space group: C C C 2
;
_chemical_formula_sum "Si O2"
_cell_formula_units_Z 36
_cell_length_a 12.581477
_cell_length_b 11.681838
_cell_length_c 9.332995
_cell_angle_alpha 90.000000
_cell_angle_beta 90.000000
_cell_angle_gamma 90.000000
_cell_volume 1371.714851
_symmetry_space_group_name_H-M "C C C 2"
_symmetry_group_IT_number 37
_symmetry_cell_setting 'orthorhombic'
loop_
_space_group_symop_operation_xyz
x,y,z
-x,-y,z
-x,y,1/2+z
x,-y,1/2+z
1/2+x,1/2+y,z
1/2-x,1/2-y,z
1/2-x,1/2+y,1/2+z
1/2+x,1/2-y,1/2+z
loop_
_atom_site_type_symbol
_atom_site_label
_atom_site_fract_x
_atom_site_fract_y
_atom_site_fract_z
Si Si1 0.822033 0.629719 0.092130
Si Si2 0.750000 0.250000 0.132539
Si Si3 0.975732 0.750217 0.478293
Si Si4 0.264373 0.017401 0.809642
Si Si5 0.559185 0.388936 0.720312
O O1 0.750000 0.750000 0.099438
O O2 0.856612 0.554411 0.231509
O O3 0.932776 0.661023 0.013651
O O4 0.767702 0.542964 0.976939
O O5 0.856668 0.265104 0.038176
O O6 0.758176 0.138100 0.232860
O O7 0.971308 0.778804 0.311700
O O8 0.022643 0.861994 0.560940
O O9 0.177318 0.924606 0.758971
O O10 0.500000 0.500000 0.772157
#
# Coordination Sequence:
#
# PCOD9355712 Si02
#       5
#     8   4   8   8   8
#     4  12  26  52  79 119 154 205 257 337 386 475
#     4  12  26  48  74 118 152 212 252 326 382 486
#     4  12  27  47  78 112 158 193 267 313 397 456
#     4  12  26  48  83 112 160 199 266 320 406 454
#     4  12  24  45  79 115 140 207 262 324 366 470
#
# _framework density 26.244520000000001
#
# number of rings (size 3 to 8) (size 9 to 14) (size 15 to 20)
#    0.000    0.000    5.556    4.667    0.000    4.444 
#    2.000    4.444    0.000    0.000    0.000    0.000 
#    0.000    0.000    0.000    0.000    0.000    0.000 
#
# Total GULP energy -100637.225272 kJ/mol
# GULP energy per Si atom -5590.956960 kJ/mol
# Density = 2.618479 g / cm^3
# Si number density = 26.244520 Si / 1000 Ang^3
#
#
#
# Elastic Constant Matrix: (Units=GPa)
#
#
# Indices 1 2 3 4 5 6 
#
# 1 61.5235 10.5006 -29.0285 0.0000 0.0000 0.0000
# 2 10.5006 115.6531 46.4263 0.0000 0.0000 0.0000
# 3 -29.0285 46.4263 91.4743 0.0000 0.0000 0.0000
# 4 0.0000 0.0000 0.0000 78.9455 0.0000 0.0000
# 5 0.0000 0.0000 0.0000 0.0000 18.2343 0.0000
# 6 0.0000 0.0000 0.0000 0.0000 0.0000 47.3674
#
#
#
# Elastic Compliance Matrix: (Units=1/GPa)
#
#
# Indices 1 2 3 4 5 6 
#
# 1 0.022028 -0.006036 0.010054 0.000000 0.000000 0.000000
# 2 -0.006036 0.012513 -0.008266 0.000000 0.000000 0.000000
# 3 0.010054 -0.008266 0.018318 0.000000 0.000000 0.000000
# 4 0.000000 0.000000 0.000000 0.012667 0.000000 0.000000
# 5 0.000000 0.000000 0.000000 0.000000 0.054842 0.000000
# 6 0.000000 0.000000 0.000000 0.000000 0.000000 0.021112
#
#
# Mechanical properties :
#
#
# Convention : Reuss Voigt Hill
#
# Bulk Modulus (GPa) = 22.54187 36.04975 29.29581
# Shear Modulus (GPa) = 30.34674 44.95960 37.65317
#
# Velocity S-wave (km/s) = 3.40414 4.14346 3.79186
# Velocity P-wave (km/s) = 4.90497 6.05449 5.50979
#
# Compressibility (1/GPa) = 0.04436189
#
# Stress axis : x y z
#
# Youngs Moduli (GPa) = 45.39733 79.91823 54.59173
#
# Poissons Ratio (x) = 0.48237 -0.54885
# Poissons Ratio (y) = 0.27401 0.45126
# Poissons Ratio (z) = -0.45641 0.66061
#
# Static dielectric constant tensor:
#      x y z
#    x 0.769160 0.000000 0.000000 
#    y 0.000000 2.163530 0.000000 
#    z 0.000000 0.000000 2.084860 
# 
# From -- ./inp_files/6884.got.cif
#   From: 2010.05.17/outbox.cif.g08.bks.cpg/sg37_4_cif.got.tgz:6884.got - 2010.06.03 17:53:42.
