data_PCOD9355320
_publ_section_title
;
Structure prediction by ZEFSAII (Michael W. Deem and Ramdas Pophale) SiO2 
 PCOD9355320
Probable space group: C C C 2
;
_chemical_formula_sum "Si O2"
_cell_formula_units_Z 40
_cell_length_a 11.754617
_cell_length_b 11.983492
_cell_length_c 11.774104
_cell_angle_alpha 90.000000
_cell_angle_beta 90.000000
_cell_angle_gamma 90.000000
_cell_volume 1658.516288
_symmetry_space_group_name_H-M "C C C 2"
_symmetry_group_IT_number 37
_symmetry_cell_setting 'orthorhombic'
loop_
_space_group_symop_operation_xyz
x,y,z
-x,-y,z
-x,y,1/2+z
x,-y,1/2+z
1/2+x,1/2+y,z
1/2-x,1/2-y,z
1/2-x,1/2+y,1/2+z
1/2+x,1/2-y,1/2+z
loop_
_atom_site_type_symbol
_atom_site_label
_atom_site_fract_x
_atom_site_fract_y
_atom_site_fract_z
Si Si1 0.532950 0.129371 0.041510
Si Si2 0.296849 0.856390 0.612836
Si Si3 0.391593 0.428017 0.928419
Si Si4 0.829978 0.527629 0.340025
Si Si5 0.618102 0.216846 0.280794
O O1 0.500000 0.000000 0.061711
O O2 0.586223 0.194659 0.149187
O O3 0.619042 0.111991 0.934764
O O4 0.405981 0.181395 0.040213
O O5 0.250000 0.750000 0.677211
O O6 0.196429 0.899063 0.531498
O O7 0.339647 0.933397 0.712029
O O8 0.500000 0.500000 0.965715
O O9 0.303892 0.504327 0.856831
O O10 0.433135 0.323206 0.849268
O O11 0.892865 0.406661 0.336812
O O12 0.750000 0.250000 0.285824
#
# Coordination Sequence:
#
# PCOD9355320 Si02
#       5
#     8   8   8   8   8
#     4  12  25  46  81 112 148 204 263 323 387 471
#     4  12  28  49  74 113 160 203 265 328 394 471
#     4  11  26  48  76 109 162 209 253 327 401 469
#     4  11  24  47  77 112 152 206 263 327 389 476
#     4  10  24  47  78 112 155 199 261 326 396 475
#
# _framework density 24.117940999999998
#
# number of rings (size 3 to 8) (size 9 to 14) (size 15 to 20)
#    0.000    0.800    4.000    1.800    5.600    1.600 
#    7.200    0.000    0.000    0.000    0.000    0.000 
#    0.000    0.000    0.000    0.000    0.000    0.000 
#
# Total GULP energy -111454.397508 kJ/mol
# GULP energy per Si atom -5572.719875 kJ/mol
# Density = 2.406305 g / cm^3
# Si number density = 24.117941 Si / 1000 Ang^3
#
#
#
# Elastic Constant Matrix: (Units=GPa)
#
#
# Indices 1 2 3 4 5 6 
#
# 1 91.5757 30.7081 28.1667 0.0000 0.0000 0.0000
# 2 30.7081 60.1493 38.4177 0.0000 0.0000 0.0000
# 3 28.1667 38.4177 157.6666 0.0000 0.0000 0.0000
# 4 0.0000 0.0000 0.0000 33.7244 0.0000 0.0000
# 5 0.0000 0.0000 0.0000 0.0000 39.3308 0.0000
# 6 0.0000 0.0000 0.0000 0.0000 0.0000 -1.3349
#
#
#
# Elastic Compliance Matrix: (Units=1/GPa)
#
#
# Indices 1 2 3 4 5 6 
#
# 1 0.013272 -0.006231 -0.000853 0.000000 0.000000 0.000000
# 2 -0.006231 0.022615 -0.004397 0.000000 0.000000 0.000000
# 3 -0.000853 -0.004397 0.007566 0.000000 0.000000 0.000000
# 4 0.000000 0.000000 0.000000 0.029652 0.000000 0.000000
# 5 0.000000 0.000000 0.000000 0.000000 0.025425 0.000000
# 6 0.000000 0.000000 0.000000 0.000000 0.000000 -0.749114
#
#
# Mechanical properties :
#
#
# Convention : Reuss Voigt Hill
#
# Bulk Modulus (GPa) = 48.80195 55.99740 52.39967
# Shear Modulus (GPa) = -8.05424 28.48399 10.21487
#
# Velocity S-wave (km/s) = -1.82942 3.44034 2.06024
# Velocity P-wave (km/s) = 3.97697 6.24898 5.23766
#
# Compressibility (1/GPa) = 0.02049098
#
# Stress axis : x y z
#
# Youngs Moduli (GPa) = 75.34866 44.21840 132.16508
#
# Poissons Ratio (x) = 0.27552 0.11269
# Poissons Ratio (y) = 0.46950 0.58117
# Poissons Ratio (z) = 0.06425 0.19444
#
# Static dielectric constant tensor:
#      x y z
#    x 1.989440 0.000000 0.000000 
#    y 0.000000 1.091070 0.000000 
#    z 0.000000 0.000000 1.993720 
# 
# From -- ./inp_files/11331.got.cif
#   From: 2010.05.17/outbox.cif.g08.bks.cpg/sg37_6_cif.got.tgz:11331.got - 2010.06.03 17:53:42.
