data_PCOD9355312
_publ_section_title
;
Structure prediction by ZEFSAII (Michael W. Deem and Ramdas Pophale) SiO2 
 PCOD9355312
Probable space group: C C C 2
;
_chemical_formula_sum "Si O2"
_cell_formula_units_Z 32
_cell_length_a 8.266543
_cell_length_b 5.095703
_cell_length_c 30.538250
_cell_angle_alpha 90.000000
_cell_angle_beta 90.000000
_cell_angle_gamma 90.000000
_cell_volume 1286.388600
_symmetry_space_group_name_H-M "C C C 2"
_symmetry_group_IT_number 37
_symmetry_cell_setting 'orthorhombic'
loop_
_space_group_symop_operation_xyz
x,y,z
-x,-y,z
-x,y,1/2+z
x,-y,1/2+z
1/2+x,1/2+y,z
1/2-x,1/2-y,z
1/2-x,1/2+y,1/2+z
1/2+x,1/2-y,1/2+z
loop_
_atom_site_type_symbol
_atom_site_label
_atom_site_fract_x
_atom_site_fract_y
_atom_site_fract_z
Si Si1 0.250000 0.750000 0.740420
Si Si2 0.500000 0.500000 0.491334
Si Si3 0.250000 0.750000 0.113655
Si Si4 0.500000 0.000000 0.553592
Si Si5 0.500000 0.000000 0.863965
Si Si6 0.500000 0.000000 0.674604
Si Si7 0.250000 0.250000 0.927576
Si Si8 0.500000 0.500000 0.301196
O O1 0.373426 0.877906 0.707269
O O2 0.343886 0.540110 0.770490
O O3 0.491903 0.251996 0.523061
O O4 0.646369 0.436635 0.458908
O O5 0.169697 0.528554 0.081338
O O6 0.405497 0.773539 0.146433
O O7 0.352954 0.061589 0.896294
O O8 0.506164 0.249114 0.832380
#
# Coordination Sequence:
#
# PCOD9355312 Si02
#       8
#     4   4   4   4   4   4   4   4
#     4  12  26  48  77 111 154 200 254 313 379 452
#     4  12  27  48  77 110 150 198 252 312 381 452
#     4  10  24  46  75 109 152 198 252 309 377 448
#     4  11  25  46  75 111 150 200 252 313 377 452
#     4  12  28  50  76 112 150 200 252 314 380 454
#     4  11  25  46  75 113 152 200 252 313 379 452
#     4  12  28  50  78 110 152 196 252 314 382 454
#     4  12  27  48  77 110 152 200 254 312 379 452
#
# _framework density 24.875844000000001
#
# number of rings (size 3 to 8) (size 9 to 14) (size 15 to 20)
#    0.000    0.500    0.000    6.750    0.000   13.000 
#    0.000    0.000    0.000    0.000    0.000    0.000 
#    0.000    0.000    0.000    0.000    0.000    0.000 
#
# Total GULP energy -89441.109341 kJ/mol
# GULP energy per Si atom -5590.069334 kJ/mol
# Density = 2.481923 g / cm^3
# Si number density = 24.875844 Si / 1000 Ang^3
#
#
#
# Elastic Constant Matrix: (Units=GPa)
#
#
# Indices 1 2 3 4 5 6 
#
# 1 192.5237 98.0723 112.5142 0.0000 0.0000 0.0000
# 2 98.0723 206.5468 113.4601 0.0000 0.0000 0.0000
# 3 112.5142 113.4601 197.3008 0.0000 0.0000 0.0000
# 4 0.0000 0.0000 0.0000 26.0649 0.0000 0.0000
# 5 0.0000 0.0000 0.0000 0.0000 187.8794 0.0000
# 6 0.0000 0.0000 0.0000 0.0000 0.0000 62.4801
#
#
#
# Elastic Compliance Matrix: (Units=1/GPa)
#
#
# Indices 1 2 3 4 5 6 
#
# 1 0.008300 -0.001960 -0.003606 0.000000 0.000000 0.000000
# 2 -0.001960 0.007540 -0.003218 0.000000 0.000000 0.000000
# 3 -0.003606 -0.003218 0.008975 0.000000 0.000000 0.000000
# 4 0.000000 0.000000 0.000000 0.038366 0.000000 0.000000
# 5 0.000000 0.000000 0.000000 0.000000 0.005323 0.000000
# 6 0.000000 0.000000 0.000000 0.000000 0.000000 0.016005
#
#
# Mechanical properties :
#
#
# Convention : Reuss Voigt Hill
#
# Bulk Modulus (GPa) = 137.99150 138.27383 138.13267
# Shear Modulus (GPa) = 47.84987 73.43986 60.64486
#
# Velocity S-wave (km/s) = 4.39058 5.43936 4.94287
# Velocity P-wave (km/s) = 9.01640 9.75475 9.39283
#
# Compressibility (1/GPa) = 0.00724682
#
# Stress axis : x y z
#
# Youngs Moduli (GPa) = 120.47985 132.62514 111.41463
#
# Poissons Ratio (x) = 0.25997 0.40177
# Poissons Ratio (y) = 0.23616 0.35855
# Poissons Ratio (z) = 0.43446 0.42681
#
# Static dielectric constant tensor:
#      x y z
#    x 1.955460 0.000000 0.000000 
#    y 0.000000 1.913660 0.000000 
#    z 0.000000 0.000000 1.973270 
# 
# From -- ./inp_files/19603.got.cif
#   From: 2010.05.17/outbox.cif.g08.bks.cpg/sg37_10_cif.got.tgz:19603.got - 2010.06.03 17:53:42.
