data_PCOD9355995
_publ_section_title
;
Structure prediction by ZEFSAII (Michael W. Deem and Ramdas Pophale) SiO2 
 PCOD9355995
Probable space group: A M M 2
;
_chemical_formula_sum "Si O2"
_cell_formula_units_Z 56
_cell_length_a 8.193266
_cell_length_b 19.065584
_cell_length_c 21.655842
_cell_angle_alpha 90.000000
_cell_angle_beta 90.000000
_cell_angle_gamma 90.000000
_cell_volume 3382.846110
_symmetry_space_group_name_H-M "A M M 2"
_symmetry_group_IT_number 38
_symmetry_cell_setting 'orthorhombic'
loop_
_space_group_symop_operation_xyz
x,y,z
-x,-y,z
-x,y,z
x,-y,z
x,1/2+y,1/2+z
-x,1/2-y,1/2+z
-x,1/2+y,1/2+z
x,1/2-y,1/2+z
loop_
_atom_site_type_symbol
_atom_site_label
_atom_site_fract_x
_atom_site_fract_y
_atom_site_fract_z
Si Si1 0.193463 0.839394 0.588520
Si Si2 0.306735 0.920464 0.467116
Si Si3 0.310886 0.783361 0.015360
Si Si4 0.800243 0.080964 0.711481
Si Si5 0.197406 0.580179 0.465045
Si Si6 0.800528 0.155430 0.837430
Si Si7 0.811366 0.706545 0.895962
O O1 0.227351 0.888438 0.528995
O O2 0.274586 0.764328 0.574470
O O3 0.252539 0.877868 0.650221
O O4 0.000000 0.828841 0.593521
O O5 0.500000 0.920959 0.477772
O O6 0.272201 0.867094 0.410959
O O7 0.250530 0.000000 0.456139
O O8 0.500000 0.774412 0.998388
O O9 0.266578 0.864952 0.014760
O O10 0.203277 0.749186 0.960660
O O11 0.747707 0.119747 0.774056
O O12 0.000000 0.080561 0.711427
O O13 0.747608 0.000000 0.710494
O O14 0.249701 0.500000 0.473009
O O15 0.247452 0.609505 0.397319
O O16 0.000000 0.582258 0.467330
O O17 0.745295 0.235938 0.847669
O O18 0.000000 0.156990 0.837688
O O19 0.000000 0.692876 0.882204
#
# Coordination Sequence:
#
# PCOD9355995 Si02
#       7
#     8   8   8   8   8   8   8
#     4  10  18  28  43  62  85 114 148 180 207 242
#     4  10  19  29  42  61  86 114 141 174 218 260
#     4  10  18  28  42  59  84 115 144 176 214 254
#     4   9  16  25  40  64  90 114 141 173 207 243
#     4   9  16  27  45  67  89 112 139 174 214 254
#     4   8  14  25  41  63  89 114 139 169 207 249
#     4   9  16  27  44  63  83 109 142 177 212 252
#
# _framework density 16.554107999999999
#
# number of rings (size 3 to 8) (size 9 to 14) (size 15 to 20)
#    0.000    2.714    0.000    6.000    0.000    3.714 
#    0.000    0.000    0.000    8.571    0.000    1.000 
#    0.000    3.429    0.000    0.000    0.000    0.000 
#
# Total GULP energy -155958.377098 kJ/mol
# GULP energy per Si atom -5569.942039 kJ/mol
# Density = 1.651643 g / cm^3
# Si number density = 16.554108 Si / 1000 Ang^3
#
#
#
# Elastic Constant Matrix: (Units=GPa)
#
#
# Indices 1 2 3 4 5 6 
#
# 1 19.8389 12.0829 4.9644 0.0000 0.0000 0.0000
# 2 12.0829 165.1751 68.3740 0.0000 0.0000 0.0000
# 3 4.9644 68.3740 79.0381 0.0000 0.0000 0.0000
# 4 0.0000 0.0000 0.0000 27.5640 0.0000 0.0000
# 5 0.0000 0.0000 0.0000 0.0000 -9.3834 0.0000
# 6 0.0000 0.0000 0.0000 0.0000 0.0000 -72.2503
#
#
#
# Elastic Compliance Matrix: (Units=1/GPa)
#
#
# Indices 1 2 3 4 5 6 
#
# 1 0.052757 -0.003875 0.000039 0.000000 0.000000 0.000000
# 2 -0.003875 0.009716 -0.008162 0.000000 0.000000 0.000000
# 3 0.000039 -0.008162 0.019710 0.000000 0.000000 0.000000
# 4 0.000000 0.000000 0.000000 0.036279 0.000000 0.000000
# 5 0.000000 0.000000 0.000000 0.000000 -0.106572 0.000000
# 6 0.000000 0.000000 0.000000 0.000000 0.000000 -0.013841
#
#
# Mechanical properties :
#
#
# Convention : Reuss Voigt Hill
#
# Bulk Modulus (GPa) = 17.18614 48.32165 32.75390
# Shear Modulus (GPa) = 120.64880 1.09479 60.87180
#
# Velocity S-wave (km/s) = 8.54633 0.81411 6.07052
# Velocity P-wave (km/s) = 10.38223 5.48974 8.30445
#
# Compressibility (1/GPa) = 0.05818642
#
# Stress axis : x y z
#
# Youngs Moduli (GPa) = 18.95493 102.92000 50.73470
#
# Poissons Ratio (x) = 0.39885 -0.00197
# Poissons Ratio (y) = 0.07346 0.41409
# Poissons Ratio (z) = -0.00073 0.84002
#
# Static dielectric constant tensor:
#      x y z
#    x 1.567890 0.000000 0.000000 
#    y 0.000000 1.592350 0.000000 
#    z 0.000000 0.000000 1.542810 
# 
# From -- ./inp_files/22237.got.cif
#   From: 2010.05.17/outbox.cif.g08.bks.cpg/sg38_12_cif.got.tgz:22237.got - 2010.06.03 18:07:57.
