data_PCOD9355824
_publ_section_title
;
Structure prediction by ZEFSAII (Michael W. Deem and Ramdas Pophale) SiO2 
 PCOD9355824
Probable space group: A M M 2
;
_chemical_formula_sum "Si O2"
_cell_formula_units_Z 40
_cell_length_a 7.431971
_cell_length_b 11.933199
_cell_length_c 21.034649
_cell_angle_alpha 90.000000
_cell_angle_beta 90.000000
_cell_angle_gamma 90.000000
_cell_volume 1865.503889
_symmetry_space_group_name_H-M "A M M 2"
_symmetry_group_IT_number 38
_symmetry_cell_setting 'orthorhombic'
loop_
_space_group_symop_operation_xyz
x,y,z
-x,-y,z
-x,y,z
x,-y,z
x,1/2+y,1/2+z
-x,1/2-y,1/2+z
-x,1/2+y,1/2+z
x,1/2-y,1/2+z
loop_
_atom_site_type_symbol
_atom_site_label
_atom_site_fract_x
_atom_site_fract_y
_atom_site_fract_z
Si Si1 0.209098 0.746900 0.577650
Si Si2 0.217611 0.000000 0.738070
Si Si3 0.780087 0.871871 0.204876
Si Si4 0.218819 0.720335 0.316840
Si Si5 0.702534 0.500000 0.090831
Si Si6 0.779592 0.630376 0.450135
O O1 0.281842 0.705016 0.645710
O O2 0.217025 0.880838 0.570813
O O3 0.284579 0.683814 0.516188
O O4 0.000000 0.714616 0.579475
O O5 0.268275 0.890609 0.777346
O O6 0.291333 0.000000 0.667365
O O7 0.000000 0.000000 0.731619
O O8 0.721046 0.823002 0.272873
O O9 0.000000 0.868329 0.205926
O O10 0.726433 0.000000 0.194867
O O11 0.279411 0.702106 0.388943
O O12 0.000000 0.724053 0.319024
O O13 0.500000 0.500000 0.067422
O O14 0.727626 0.500000 0.443825
O O15 0.000000 0.631792 0.449973
#
# Coordination Sequence:
#
# PCOD9355824 Si02
#       6
#     8   4   8   8   4   8
#     4  10  19  33  53  76 102 134 172 213 258 307
#     4  10  16  30  56  80 102 131 168 210 261 310
#     4   9  16  26  44  73 106 136 165 201 249 302
#     4   9  15  25  46  77 111 135 158 205 262 306
#     4  12  24  36  52  74 102 135 176 222 263 306
#     4   9  16  27  47  79 111 134 164 210 258 304
#
# _framework density 21.441927
#
# number of rings (size 3 to 8) (size 9 to 14) (size 15 to 20)
#    0.000    2.400    3.000    1.500    0.000    2.400 
#    1.800    0.000    0.000    3.600    0.000    0.000 
#    0.000    0.000    0.000    0.000    0.000    0.000 
#
# Total GULP energy -111637.752016 kJ/mol
# GULP energy per Si atom -5581.887601 kJ/mol
# Density = 2.139312 g / cm^3
# Si number density = 21.441927 Si / 1000 Ang^3
#
#
#
# Elastic Constant Matrix: (Units=GPa)
#
#
# Indices 1 2 3 4 5 6 
#
# 1 60.6435 -5.0826 5.0988 0.0000 0.0000 0.0000
# 2 -5.0826 120.8098 68.6358 0.0000 0.0000 0.0000
# 3 5.0988 68.6358 163.1989 0.0000 0.0000 0.0000
# 4 0.0000 0.0000 0.0000 38.7791 0.0000 0.0000
# 5 0.0000 0.0000 0.0000 0.0000 -34.8642 0.0000
# 6 0.0000 0.0000 0.0000 0.0000 0.0000 -33.0803
#
#
#
# Elastic Compliance Matrix: (Units=1/GPa)
#
#
# Indices 1 2 3 4 5 6 
#
# 1 0.016690 0.001312 -0.001073 0.000000 0.000000 0.000000
# 2 0.001312 0.010979 -0.004659 0.000000 0.000000 0.000000
# 3 -0.001073 -0.004659 0.008120 0.000000 0.000000 0.000000
# 4 0.000000 0.000000 0.000000 0.025787 0.000000 0.000000
# 5 0.000000 0.000000 0.000000 0.000000 -0.028683 0.000000
# 6 0.000000 0.000000 0.000000 0.000000 0.000000 -0.030229
#
#
# Mechanical properties :
#
#
# Convention : Reuss Voigt Hill
#
# Bulk Modulus (GPa) = 37.10590 53.55071 45.32831
# Shear Modulus (GPa) = 244.05271 12.56692 128.30982
#
# Velocity S-wave (km/s) = 10.68024 2.42356 7.74406
# Velocity P-wave (km/s) = 13.01663 5.73241 10.05717
#
# Compressibility (1/GPa) = 0.02694989
#
# Stress axis : x y z
#
# Youngs Moduli (GPa) = 59.91617 91.08045 123.14924
#
# Poissons Ratio (x) = -0.11948 0.13216
# Poissons Ratio (y) = -0.07860 0.57369
# Poissons Ratio (z) = 0.06430 0.42430
#
# Static dielectric constant tensor:
#      x y z
#    x 1.823760 0.000000 0.000000 
#    y 0.000000 1.734770 0.000000 
#    z 0.000000 0.000000 1.755550 
# 
# From -- ./inp_files/19486.got.cif
#   From: 2010.05.17/outbox.cif.g08.bks.cpg/sg38_10_cif.got.tgz:19486.got - 2010.06.03 18:07:57.
