data_PCOD9355401
_publ_section_title
;
Structure prediction by ZEFSAII (Michael W. Deem and Ramdas Pophale) SiO2 
 PCOD9355401
Probable space group: C C C 2
;
_chemical_formula_sum "Si O2"
_cell_formula_units_Z 40
_cell_length_a 10.304826
_cell_length_b 15.819335
_cell_length_c 10.242665
_cell_angle_alpha 90.000000
_cell_angle_beta 90.000000
_cell_angle_gamma 90.000000
_cell_volume 1669.713101
_symmetry_space_group_name_H-M "C C C 2"
_symmetry_group_IT_number 37
_symmetry_cell_setting 'orthorhombic'
loop_
_space_group_symop_operation_xyz
x,y,z
-x,-y,z
-x,y,1/2+z
x,-y,1/2+z
1/2+x,1/2+y,z
1/2-x,1/2-y,z
1/2-x,1/2+y,1/2+z
1/2+x,1/2-y,1/2+z
loop_
_atom_site_type_symbol
_atom_site_label
_atom_site_fract_x
_atom_site_fract_y
_atom_site_fract_z
Si Si1 0.250000 0.750000 0.453190
Si Si2 0.599095 0.170685 0.218642
Si Si3 0.228233 0.941232 0.858999
Si Si4 0.097268 0.179138 0.178743
Si Si5 0.500000 0.000000 0.820931
Si Si6 0.342752 0.576944 0.138467
O O1 0.352844 0.794876 0.359059
O O2 0.181654 0.817353 0.547642
O O3 0.483575 0.233093 0.177964
O O4 0.540443 0.078351 0.232822
O O5 0.734263 0.152520 0.141942
O O6 0.191277 0.849858 0.797088
O O7 0.376917 0.962407 0.897160
O O8 0.197850 0.007267 0.743689
O O9 0.150204 0.954801 0.991102
O O10 0.981026 0.112665 0.178826
#
# Coordination Sequence:
#
# PCOD9355401 Si02
#       6
#     4   8   8   8   4   8
#     4  12  26  44  76 106 152 208 256 316 396 462
#     4  11  25  50  73 110 151 205 253 327 379 466
#     4  11  27  46  78 112 151 205 252 319 386 464
#     4  12  25  47  77 110 156 198 264 315 396 466
#     4  10  26  48  76 104 154 190 264 300 388 444
#     4  11  26  47  76 110 155 200 255 323 392 457
#
# _framework density 23.956209999999999
#
# number of rings (size 3 to 8) (size 9 to 14) (size 15 to 20)
#    0.000    0.800    2.000    3.000    8.400    4.800 
#    7.200    0.000    0.000    0.000    0.000    0.000 
#    0.000    0.000    0.000    0.000    0.000    0.000 
#
# Total GULP energy -111815.414632 kJ/mol
# GULP energy per Si atom -5590.770732 kJ/mol
# Density = 2.390168 g / cm^3
# Si number density = 23.956210 Si / 1000 Ang^3
#
#
#
# Elastic Constant Matrix: (Units=GPa)
#
#
# Indices 1 2 3 4 5 6 
#
# 1 86.4973 24.8812 -8.5055 0.0000 0.0000 0.0000
# 2 24.8812 90.7206 18.0731 0.0000 0.0000 0.0000
# 3 -8.5055 18.0731 106.6145 0.0000 0.0000 0.0000
# 4 0.0000 0.0000 0.0000 6.8426 0.0000 0.0000
# 5 0.0000 0.0000 0.0000 0.0000 31.9600 0.0000
# 6 0.0000 0.0000 0.0000 0.0000 0.0000 43.4287
#
#
#
# Elastic Compliance Matrix: (Units=1/GPa)
#
#
# Indices 1 2 3 4 5 6 
#
# 1 0.012835 -0.003854 0.001677 0.000000 0.000000 0.000000
# 2 -0.003854 0.012566 -0.002438 0.000000 0.000000 0.000000
# 3 0.001677 -0.002438 0.009927 0.000000 0.000000 0.000000
# 4 0.000000 0.000000 0.000000 0.146143 0.000000 0.000000
# 5 0.000000 0.000000 0.000000 0.000000 0.031289 0.000000
# 6 0.000000 0.000000 0.000000 0.000000 0.000000 0.023026
#
#
# Mechanical properties :
#
#
# Convention : Reuss Voigt Hill
#
# Bulk Modulus (GPa) = 38.31741 39.19225 38.75483
# Shear Modulus (GPa) = 19.70731 33.07184 26.38958
#
# Velocity S-wave (km/s) = 2.87128 3.71956 3.32260
# Velocity P-wave (km/s) = 5.19825 5.90273 5.56166
#
# Compressibility (1/GPa) = 0.02609780
#
# Stress axis : x y z
#
# Youngs Moduli (GPa) = 77.91405 79.58289 100.73940
#
# Poissons Ratio (x) = 0.30673 -0.16897
# Poissons Ratio (y) = 0.30030 0.24556
# Poissons Ratio (z) = -0.13068 0.19399
#
# Static dielectric constant tensor:
#      x y z
#    x 1.984610 0.000000 0.000000 
#    y 0.000000 1.982420 0.000000 
#    z 0.000000 0.000000 1.840830 
# 
# From -- ./inp_files/2752.got.cif
#   From: 2010.05.17/outbox.cif.g08.bks.cpg/sg37_2_cif.got.tgz:2752.got - 2010.06.03 17:53:42.
