data_PCOD9355181
_publ_section_title
;
Structure prediction by ZEFSAII (Michael W. Deem and Ramdas Pophale) SiO2 
 PCOD9355181
Probable space group: C C C 2
;
_chemical_formula_sum "Si O2"
_cell_formula_units_Z 40
_cell_length_a 18.467647
_cell_length_b 10.491363
_cell_length_c 9.055567
_cell_angle_alpha 90.000000
_cell_angle_beta 90.000000
_cell_angle_gamma 90.000000
_cell_volume 1754.523246
_symmetry_space_group_name_H-M "C C C 2"
_symmetry_group_IT_number 37
_symmetry_cell_setting 'orthorhombic'
loop_
_space_group_symop_operation_xyz
x,y,z
-x,-y,z
-x,y,1/2+z
x,-y,1/2+z
1/2+x,1/2+y,z
1/2-x,1/2-y,z
1/2-x,1/2+y,1/2+z
1/2+x,1/2-y,1/2+z
loop_
_atom_site_type_symbol
_atom_site_label
_atom_site_fract_x
_atom_site_fract_y
_atom_site_fract_z
Si Si1 0.000000 0.500000 0.897040
Si Si2 0.526302 0.177210 0.144897
Si Si3 0.147525 0.801601 0.028212
Si Si4 0.271134 0.430005 0.038693
Si Si5 0.855129 0.294117 0.695723
Si Si6 0.250000 0.750000 0.270559
O O1 0.956556 0.599180 0.794407
O O2 0.954127 0.415840 0.009438
O O3 0.565493 0.306019 0.092172
O O4 0.439511 0.188595 0.158517
O O5 0.184103 0.724026 0.160994
O O6 0.191747 0.933261 0.027290
O O7 0.154523 0.735089 0.869540
O O8 0.196685 0.405116 0.130150
O O9 0.327047 0.333433 0.116404
O O10 0.260859 0.370637 0.876163
#
# Coordination Sequence:
#
# PCOD9355181 Si02
#       6
#     4   8   8   8   8   4
#     4  10  24  44  64 104 144 180 234 310 358 436
#     4  11  24  45  74 106 139 192 251 305 371 440
#     4  12  24  45  75 108 143 193 250 306 367 439
#     4  10  25  46  69 104 154 193 242 305 366 440
#     4  10  23  47  70 107 152 193 245 299 381 443
#     4  10  24  42  68 104 144 198 242 288 376 444
#
# _framework density 22.798216
#
# number of rings (size 3 to 8) (size 9 to 14) (size 15 to 20)
#    0.000    1.600    2.000    2.400    5.600    4.000 
#    7.200    2.000    0.000    0.000    0.000    0.000 
#    0.000    0.000    0.000    0.000    0.000    0.000 
#
# Total GULP energy -111605.178007 kJ/mol
# GULP energy per Si atom -5580.258900 kJ/mol
# Density = 2.274633 g / cm^3
# Si number density = 22.798216 Si / 1000 Ang^3
#
#
#
# Elastic Constant Matrix: (Units=GPa)
#
#
# Indices 1 2 3 4 5 6 
#
# 1 139.6047 61.6640 57.4640 0.0000 0.0000 0.0000
# 2 61.6640 103.2873 58.6515 0.0000 0.0000 0.0000
# 3 57.4640 58.6515 205.2746 0.0000 0.0000 0.0000
# 4 0.0000 0.0000 0.0000 20.9259 0.0000 0.0000
# 5 0.0000 0.0000 0.0000 0.0000 26.2308 0.0000
# 6 0.0000 0.0000 0.0000 0.0000 0.0000 35.0615
#
#
#
# Elastic Compliance Matrix: (Units=1/GPa)
#
#
# Indices 1 2 3 4 5 6 
#
# 1 0.010014 -0.005236 -0.001307 0.000000 0.000000 0.000000
# 2 -0.005236 0.014295 -0.002619 0.000000 0.000000 0.000000
# 3 -0.001307 -0.002619 0.005986 0.000000 0.000000 0.000000
# 4 0.000000 0.000000 0.000000 0.047788 0.000000 0.000000
# 5 0.000000 0.000000 0.000000 0.000000 0.038123 0.000000
# 6 0.000000 0.000000 0.000000 0.000000 0.000000 0.028521
#
#
# Mechanical properties :
#
#
# Convention : Reuss Voigt Hill
#
# Bulk Modulus (GPa) = 83.53848 89.30284 86.42066
# Shear Modulus (GPa) = 29.93284 34.46943 32.20113
#
# Velocity S-wave (km/s) = 3.62739 3.89258 3.76232
# Velocity P-wave (km/s) = 7.36655 7.71096 7.54072
#
# Compressibility (1/GPa) = 0.01197053
#
# Stress axis : x y z
#
# Youngs Moduli (GPa) = 99.86002 69.95572 167.06705
#
# Poissons Ratio (x) = 0.36630 0.21839
# Poissons Ratio (y) = 0.52289 0.43747
# Poissons Ratio (z) = 0.13054 0.18318
#
# Static dielectric constant tensor:
#      x y z
#    x 2.042900 0.000000 0.000000 
#    y 0.000000 1.900010 0.000000 
#    z 0.000000 0.000000 1.856610 
# 
# From -- ./inp_files/3909.got.cif
#   From: 2010.05.17/outbox.cif.g08.bks.cpg/sg37_2_cif.got.tgz:3909.got - 2010.06.03 17:53:42.
