data_PCOD9355955
_publ_section_title
;
Structure prediction by ZEFSAII (Michael W. Deem and Ramdas Pophale) SiO2 
 PCOD9355955
Probable space group: A M M 2
;
_chemical_formula_sum "Si O2"
_cell_formula_units_Z 64
_cell_length_a 9.056398
_cell_length_b 26.662762
_cell_length_c 18.969564
_cell_angle_alpha 90.000000
_cell_angle_beta 90.000000
_cell_angle_gamma 90.000000
_cell_volume 4580.553767
_symmetry_space_group_name_H-M "A M M 2"
_symmetry_group_IT_number 38
_symmetry_cell_setting 'orthorhombic'
loop_
_space_group_symop_operation_xyz
x,y,z
-x,-y,z
-x,y,z
x,-y,z
x,1/2+y,1/2+z
-x,1/2-y,1/2+z
-x,1/2+y,1/2+z
x,1/2-y,1/2+z
loop_
_atom_site_type_symbol
_atom_site_label
_atom_site_fract_x
_atom_site_fract_y
_atom_site_fract_z
Si Si1 0.830488 0.696796 0.332820
Si Si2 0.324082 0.349742 0.206542
Si Si3 0.323626 0.057962 0.610871
Si Si4 0.175247 0.059198 0.460988
Si Si5 0.821583 0.739750 0.959915
Si Si6 0.324091 0.146795 0.378398
Si Si7 0.177790 0.257880 0.124022
Si Si8 0.170058 0.304368 0.752035
O O1 0.736144 0.659658 0.285079
O O2 0.780345 0.712759 0.410855
O O3 0.828353 0.750290 0.291620
O O4 0.000000 0.679603 0.335138
O O5 0.500000 0.344277 0.206449
O O6 0.285364 0.403158 0.172294
O O7 0.254369 0.306745 0.156893
O O8 0.500000 0.062208 0.597294
O O9 0.237693 0.070461 0.539074
O O10 0.292266 0.000000 0.628986
O O11 0.257650 0.094841 0.406228
O O12 0.000000 0.068559 0.458958
O O13 0.201144 0.000000 0.448075
O O14 0.742980 0.690685 0.928322
O O15 0.000000 0.733210 0.952477
O O16 0.787032 0.747077 0.041828
O O17 0.500000 0.147165 0.382722
O O18 0.269791 0.159887 0.299456
O O19 0.217818 0.210179 0.172991
O O20 0.000000 0.263805 0.131109
O O21 0.000000 0.322038 0.752248
#
# Coordination Sequence:
#
# PCOD9355955 Si02
#       8
#     8   8   8   8   8   8   8   8
#     4   8  15  27  41  56  77 105 133 163 198 233
#     4  10  18  26  39  58  79 105 135 164 197 236
#     4   9  18  31  43  57  80 107 135 169 205 237
#     4  10  20  32  45  60  78 103 136 171 202 233
#     4   9  17  29  43  59  80 107 138 167 197 236
#     4  11  20  28  41  60  82 109 136 163 199 237
#     4   9  17  28  42  58  78 105 134 164 197 233
#     4   8  15  28  42  56  76 103 133 163 195 233
#
# _framework density 13.972109
#
# number of rings (size 3 to 8) (size 9 to 14) (size 15 to 20)
#    0.000    2.750    0.000    4.125    0.000    8.750 
#    0.000    0.000    0.000    0.000    0.000    0.000 
#    0.000    1.000    0.000    9.250    0.000    1.875 
#
# Total GULP energy -178243.589242 kJ/mol
# GULP energy per Si atom -5570.112164 kJ/mol
# Density = 1.394031 g / cm^3
# Si number density = 13.972109 Si / 1000 Ang^3
#
#
#
# Elastic Constant Matrix: (Units=GPa)
#
#
# Indices 1 2 3 4 5 6 
#
# 1 50.3066 39.2590 39.5791 0.0000 0.0000 0.0000
# 2 39.2590 58.2152 42.6413 0.0000 0.0000 0.0000
# 3 39.5791 42.6413 100.9556 0.0000 0.0000 0.0000
# 4 0.0000 0.0000 0.0000 25.8541 0.0000 0.0000
# 5 0.0000 0.0000 0.0000 0.0000 14.0908 0.0000
# 6 0.0000 0.0000 0.0000 0.0000 0.0000 18.4387
#
#
#
# Elastic Compliance Matrix: (Units=1/GPa)
#
#
# Indices 1 2 3 4 5 6 
#
# 1 0.045144 -0.025311 -0.007008 0.000000 0.000000 0.000000
# 2 -0.025311 0.039064 -0.006577 0.000000 0.000000 0.000000
# 3 -0.007008 -0.006577 0.015431 0.000000 0.000000 0.000000
# 4 0.000000 0.000000 0.000000 0.038679 0.000000 0.000000
# 5 0.000000 0.000000 0.000000 0.000000 0.070968 0.000000
# 6 0.000000 0.000000 0.000000 0.000000 0.000000 0.054234
#
#
# Mechanical properties :
#
#
# Convention : Reuss Voigt Hill
#
# Bulk Modulus (GPa) = 45.77131 50.27068 48.02100
# Shear Modulus (GPa) = 14.34335 17.54325 15.94330
#
# Velocity S-wave (km/s) = 3.20749 3.54728 3.38165
# Velocity P-wave (km/s) = 6.82257 7.26877 7.04920
#
# Compressibility (1/GPa) = 0.02184775
#
# Stress axis : x y z
#
# Youngs Moduli (GPa) = 22.15123 25.59884 64.80670
#
# Poissons Ratio (x) = 0.64794 0.45414
# Poissons Ratio (y) = 0.56068 0.42621
# Poissons Ratio (z) = 0.15523 0.16836
#
# Static dielectric constant tensor:
#      x y z
#    x 1.466720 0.000000 0.000000 
#    y 0.000000 1.443560 0.000000 
#    z 0.000000 0.000000 1.478490 
# 
# From -- ./inp_files/17354.got.cif
#   From: 2010.05.17/outbox.cif.g08.bks.cpg/sg38_9_cif.got.tgz:17354.got - 2010.06.03 18:07:57.
