data_PCOD9355844
_publ_section_title
;
Structure prediction by ZEFSAII (Michael W. Deem and Ramdas Pophale) SiO2 
 PCOD9355844
Probable space group: A M M 2
;
_chemical_formula_sum "Si O2"
_cell_formula_units_Z 56
_cell_length_a 9.092760
_cell_length_b 22.719214
_cell_length_c 18.272131
_cell_angle_alpha 90.000000
_cell_angle_beta 90.000000
_cell_angle_gamma 90.000000
_cell_volume 3774.663405
_symmetry_space_group_name_H-M "A M M 2"
_symmetry_group_IT_number 38
_symmetry_cell_setting 'orthorhombic'
loop_
_space_group_symop_operation_xyz
x,y,z
-x,-y,z
-x,y,z
x,-y,z
x,1/2+y,1/2+z
-x,1/2-y,1/2+z
-x,1/2+y,1/2+z
x,1/2-y,1/2+z
loop_
_atom_site_type_symbol
_atom_site_label
_atom_site_fract_x
_atom_site_fract_y
_atom_site_fract_z
Si Si1 0.823801 0.349071 0.330950
Si Si2 0.669163 0.819934 0.424391
Si Si3 0.677437 0.155704 0.581515
Si Si4 0.675994 0.931403 0.712390
Si Si5 0.177101 0.219767 0.119046
Si Si6 0.175592 0.284217 0.783527
Si Si7 0.329155 0.182857 0.976105
O O1 0.759388 0.397932 0.277190
O O2 0.784285 0.284434 0.298040
O O3 0.752848 0.351594 0.411497
O O4 0.000000 0.352476 0.335299
O O5 0.500000 0.834736 0.409694
O O6 0.720009 0.854784 0.496702
O O7 0.757359 0.822097 0.349220
O O8 0.675634 0.751656 0.451125
O O9 0.500000 0.167082 0.581827
O O10 0.707942 0.102683 0.636677
O O11 0.760617 0.214026 0.608962
O O12 0.500000 0.926549 0.724727
O O13 0.714420 0.000000 0.708554
O O14 0.218994 0.199771 0.200913
O O15 0.000000 0.220657 0.112793
O O16 0.247698 0.181792 0.053911
O O17 0.000000 0.287480 0.788193
O O18 0.500000 0.166179 0.982005
#
# Coordination Sequence:
#
# PCOD9355844 Si02
#       7
#     8   8   8   8   8   8   8
#     4  10  18  30  44  60  83 113 145 181 221 258
#     4   8  15  25  38  56  77 105 139 171 206 252
#     4   9  17  29  42  57  80 111 146 181 217 257
#     4  10  20  32  46  63  84 114 152 191 226 259
#     4  10  17  26  40  61  86 112 141 172 210 256
#     4   9  17  26  38  59  85 111 139 169 208 255
#     4   9  17  28  41  60  82 110 143 173 210 257
#
# _framework density 14.835760000000001
#
# number of rings (size 3 to 8) (size 9 to 14) (size 15 to 20)
#    0.000    2.714    1.429    2.143    0.000    5.429 
#    0.000    0.000    0.000    0.000    0.000    0.000 
#    0.000    1.143    0.000   10.571    0.000    2.857 
#
# Total GULP energy -155917.832063 kJ/mol
# GULP energy per Si atom -5568.494002 kJ/mol
# Density = 1.480199 g / cm^3
# Si number density = 14.835760 Si / 1000 Ang^3
#
#
#
# Elastic Constant Matrix: (Units=GPa)
#
#
# Indices 1 2 3 4 5 6 
#
# 1 46.2329 24.6860 61.8297 0.0000 0.0000 0.0000
# 2 24.6860 45.5257 45.4408 0.0000 0.0000 0.0000
# 3 61.8297 45.4408 176.9489 0.0000 0.0000 0.0000
# 4 0.0000 0.0000 0.0000 12.3139 0.0000 0.0000
# 5 0.0000 0.0000 0.0000 0.0000 28.9678 0.0000
# 6 0.0000 0.0000 0.0000 0.0000 0.0000 11.6353
#
#
#
# Elastic Compliance Matrix: (Units=1/GPa)
#
#
# Indices 1 2 3 4 5 6 
#
# 1 0.044769 -0.011647 -0.012652 0.000000 0.000000 0.000000
# 2 -0.011647 0.032567 -0.004293 0.000000 0.000000 0.000000
# 3 -0.012652 -0.004293 0.011175 0.000000 0.000000 0.000000
# 4 0.000000 0.000000 0.000000 0.081209 0.000000 0.000000
# 5 0.000000 0.000000 0.000000 0.000000 0.034521 0.000000
# 6 0.000000 0.000000 0.000000 0.000000 0.000000 0.085946
#
#
# Mechanical properties :
#
#
# Convention : Reuss Voigt Hill
#
# Bulk Modulus (GPa) = 31.92336 59.18008 45.55172
# Shear Modulus (GPa) = 13.97373 19.70011 16.83692
#
# Velocity S-wave (km/s) = 3.07236 3.64796 3.37246
# Velocity P-wave (km/s) = 5.84384 7.59738 6.77756
#
# Compressibility (1/GPa) = 0.03132503
#
# Stress axis : x y z
#
# Youngs Moduli (GPa) = 22.33673 30.70632 89.48618
#
# Poissons Ratio (x) = 0.35764 1.13221
# Poissons Ratio (y) = 0.26016 0.38420
# Poissons Ratio (z) = 0.28261 0.13183
#
# Static dielectric constant tensor:
#      x y z
#    x 1.498190 0.000000 0.000000 
#    y 0.000000 1.455020 0.000000 
#    z 0.000000 0.000000 1.517460 
# 
# From -- ./inp_files/17065.got.cif
#   From: 2010.05.17/outbox.cif.g08.bks.cpg/sg38_9_cif.got.tgz:17065.got - 2010.06.03 18:07:57.
