data_PCOD9355962
_publ_section_title
;
Structure prediction by ZEFSAII (Michael W. Deem and Ramdas Pophale) SiO2 
 PCOD9355962
Probable space group: A M M 2
;
_chemical_formula_sum "Si O2"
_cell_formula_units_Z 52
_cell_length_a 11.794819
_cell_length_b 14.141784
_cell_length_c 16.315647
_cell_angle_alpha 90.000000
_cell_angle_beta 90.000000
_cell_angle_gamma 90.000000
_cell_volume 2721.446373
_symmetry_space_group_name_H-M "A M M 2"
_symmetry_group_IT_number 38
_symmetry_cell_setting 'orthorhombic'
loop_
_space_group_symop_operation_xyz
x,y,z
-x,-y,z
-x,y,z
x,-y,z
x,1/2+y,1/2+z
-x,1/2-y,1/2+z
-x,1/2+y,1/2+z
x,1/2-y,1/2+z
loop_
_atom_site_type_symbol
_atom_site_label
_atom_site_fract_x
_atom_site_fract_y
_atom_site_fract_z
Si Si1 0.810605 0.112185 0.918540
Si Si2 0.625126 0.385887 0.200692
Si Si3 0.000000 0.806756 0.036602
Si Si4 0.191946 0.109170 0.341529
Si Si5 0.872753 0.613855 0.227177
Si Si6 0.000000 0.114540 0.217450
Si Si7 0.375202 0.232126 0.868811
Si Si8 0.000000 0.396471 0.980111
O O1 0.850677 0.133259 0.824640
O O2 0.689965 0.161722 0.929156
O O3 0.806664 0.000000 0.926788
O O4 0.894522 0.156599 0.983661
O O5 0.500000 0.368414 0.158335
O O6 0.628396 0.500000 0.213772
O O7 0.757042 0.359828 0.176328
O O8 0.616301 0.328281 0.285147
O O9 0.000000 0.851397 0.125545
O O10 0.000000 0.693836 0.036610
O O11 0.297144 0.177026 0.354709
O O12 0.108690 0.109671 0.420166
O O13 0.112437 0.144098 0.266980
O O14 0.224821 0.000000 0.327027
O O15 0.878676 0.500000 0.220217
O O16 0.000000 0.650617 0.208977
O O17 0.000000 0.000000 0.221517
O O18 0.500000 0.258611 0.896372
O O19 0.000000 0.500000 0.020623
#
# Coordination Sequence:
#
# PCOD9355962 Si02
#       8
#     8   8   4   8   8   4   8   4
#     4  10  18  26  42  75 113 137 166 215 272 332
#     4   8  14  23  34  53  87 127 158 188 241 312
#     4  12  18  30  55  84 105 141 182 220 270 337
#     4   9  18  35  52  73 106 141 182 229 271 316
#     4   8  12  18  28  47  80 118 148 182 227 280
#     4   9  20  35  54  78 108 143 177 218 279 341
#     4  10  18  28  46  71 100 139 185 225 267 317
#     4   9  18  33  55  78 103 140 177 220 277 322
#
# _framework density 19.107488
#
# number of rings (size 3 to 8) (size 9 to 14) (size 15 to 20)
#    0.000    2.769    2.308    3.000    0.000    1.231 
#    1.385    0.000    0.000    2.769    0.000    2.154 
#    0.000    0.000    0.000    0.000    0.000    0.000 
#
# Total GULP energy -144791.820527 kJ/mol
# GULP energy per Si atom -5568.916174 kJ/mol
# Density = 1.906400 g / cm^3
# Si number density = 19.107488 Si / 1000 Ang^3
#
#
#
# Elastic Constant Matrix: (Units=GPa)
#
#
# Indices 1 2 3 4 5 6 
#
# 1 183.8040 52.2517 23.1703 0.0000 0.0000 0.0000
# 2 52.2517 95.1382 25.9631 0.0000 0.0000 0.0000
# 3 23.1703 25.9631 42.6598 0.0000 0.0000 0.0000
# 4 0.0000 0.0000 0.0000 13.4639 0.0000 0.0000
# 5 0.0000 0.0000 0.0000 0.0000 -0.4808 0.0000
# 6 0.0000 0.0000 0.0000 0.0000 0.0000 27.8270
#
#
#
# Elastic Compliance Matrix: (Units=1/GPa)
#
#
# Indices 1 2 3 4 5 6 
#
# 1 0.006541 -0.003145 -0.001639 0.000000 0.000000 0.000000
# 2 -0.003145 0.014117 -0.006883 0.000000 0.000000 0.000000
# 3 -0.001639 -0.006883 0.028520 0.000000 0.000000 0.000000
# 4 0.000000 0.000000 0.000000 0.074273 0.000000 0.000000
# 5 0.000000 0.000000 0.000000 0.000000 -2.079657 0.000000
# 6 0.000000 0.000000 0.000000 0.000000 0.000000 0.035936
#
#
# Mechanical properties :
#
#
# Convention : Reuss Voigt Hill
#
# Bulk Modulus (GPa) = 38.69332 58.26359 48.47845
# Shear Modulus (GPa) = -2.64786 22.84312 10.09763
#
# Velocity S-wave (km/s) = -1.17846 3.46136 2.30133
# Velocity P-wave (km/s) = 4.29449 6.82154 5.69983
#
# Compressibility (1/GPa) = 0.02584425
#
# Stress axis : x y z
#
# Youngs Moduli (GPa) = 152.87433 70.83653 35.06255
#
# Poissons Ratio (x) = 0.22281 0.05745
# Poissons Ratio (y) = 0.48086 0.24135
# Poissons Ratio (z) = 0.25049 0.48759
#
# Static dielectric constant tensor:
#      x y z
#    x 1.744960 0.000000 0.000000 
#    y 0.000000 1.674540 0.000000 
#    z 0.000000 0.000000 1.632800 
# 
# From -- ./inp_files/17799.got.cif
#   From: 2010.05.17/outbox.cif.g08.bks.cpg/sg38_9_cif.got.tgz:17799.got - 2010.06.03 18:07:57.
