data_PCOD9355624
_publ_section_title
;
Structure prediction by ZEFSAII (Michael W. Deem and Ramdas Pophale) SiO2 
 PCOD9355624
Probable space group: C C C 2
;
_chemical_formula_sum "Si O2"
_cell_formula_units_Z 64
_cell_length_a 15.872218
_cell_length_b 13.609284
_cell_length_c 10.680326
_cell_angle_alpha 90.000000
_cell_angle_beta 90.000000
_cell_angle_gamma 90.000000
_cell_volume 2307.052119
_symmetry_space_group_name_H-M "C C C 2"
_symmetry_group_IT_number 37
_symmetry_cell_setting 'orthorhombic'
loop_
_space_group_symop_operation_xyz
x,y,z
-x,-y,z
-x,y,1/2+z
x,-y,1/2+z
1/2+x,1/2+y,z
1/2-x,1/2-y,z
1/2-x,1/2+y,1/2+z
1/2+x,1/2-y,1/2+z
loop_
_atom_site_type_symbol
_atom_site_label
_atom_site_fract_x
_atom_site_fract_y
_atom_site_fract_z
Si Si1 0.187945 0.338655 0.331430
Si Si2 0.498243 0.807874 0.929478
Si Si3 0.237912 0.132467 0.574791
Si Si4 0.098649 0.622297 0.202785
Si Si5 0.619728 0.072875 0.579540
Si Si6 0.452875 0.599257 0.533850
Si Si7 0.282185 0.363475 0.938609
Si Si8 0.413027 0.642345 0.212406
O O1 0.250000 0.250000 0.295116
O O2 0.100234 0.309384 0.400067
O O3 0.236047 0.399978 0.437153
O O4 0.160573 0.397245 0.210766
O O5 0.541892 0.882568 0.827168
O O6 0.546233 0.849230 0.051370
O O7 0.520393 0.691836 0.942260
O O8 0.250000 0.250000 0.563854
O O9 0.299442 0.110151 0.691946
O O10 0.143862 0.101601 0.598604
O O11 0.083661 0.536154 0.101194
O O12 0.089253 0.740030 0.189558
O O13 0.694131 0.087016 0.478956
O O14 0.500000 0.500000 0.485025
O O15 0.351997 0.614592 0.546523
O O16 0.493640 0.612171 0.673096
O O17 0.250000 0.250000 0.926300
O O18 0.349270 0.383945 0.825369
#
# Coordination Sequence:
#
# PCOD9355624 Si02
#       8
#     8   8   8   8   8   8   8   8
#     4  11  27  50  80 117 170 224 282 383 455 540
#     4  12  27  54  82 121 178 231 297 386 462 567
#     4   9  20  44  72 105 152 215 283 341 436 533
#     4  11  25  47  82 122 168 236 290 365 466 562
#     4  12  29  50  85 131 177 236 305 372 476 578
#     4  12  29  52  86 130 169 242 312 378 462 565
#     4  12  25  56  87 123 185 237 309 397 473 555
#     4  11  24  52  84 116 174 238 293 383 462 559
#
# _framework density 27.741029000000001
#
# number of rings (size 3 to 8) (size 9 to 14) (size 15 to 20)
#    0.000    0.750    2.500    4.500    7.000    1.000 
#    4.500    0.000    0.000    0.000    0.000    0.000 
#    0.000    0.000    0.000    0.000    0.000    0.000 
#
# Total GULP energy -178383.351808 kJ/mol
# GULP energy per Si atom -5574.479744 kJ/mol
# Density = 2.767789 g / cm^3
# Si number density = 27.741029 Si / 1000 Ang^3
#
#
#
# Elastic Constant Matrix: (Units=GPa)
#
#
# Indices 1 2 3 4 5 6 
#
# 1 170.3912 12.3965 32.5239 0.0000 0.0000 0.0000
# 2 12.3965 118.7865 17.2396 0.0000 0.0000 0.0000
# 3 32.5239 17.2396 108.3447 0.0000 0.0000 0.0000
# 4 0.0000 0.0000 0.0000 28.1238 0.0000 0.0000
# 5 0.0000 0.0000 0.0000 0.0000 44.3446 0.0000
# 6 0.0000 0.0000 0.0000 0.0000 0.0000 27.6168
#
#
#
# Elastic Compliance Matrix: (Units=1/GPa)
#
#
# Indices 1 2 3 4 5 6 
#
# 1 0.006243 -0.000389 -0.001812 0.000000 0.000000 0.000000
# 2 -0.000389 0.008642 -0.001258 0.000000 0.000000 0.000000
# 3 -0.001812 -0.001258 0.009974 0.000000 0.000000 0.000000
# 4 0.000000 0.000000 0.000000 0.035557 0.000000 0.000000
# 5 0.000000 0.000000 0.000000 0.000000 0.022551 0.000000
# 6 0.000000 0.000000 0.000000 0.000000 0.000000 0.036210
#
#
# Mechanical properties :
#
#
# Convention : Reuss Voigt Hill
#
# Bulk Modulus (GPa) = 55.74026 57.98250 56.86138
# Shear Modulus (GPa) = 37.85731 42.37452 40.11592
#
# Velocity S-wave (km/s) = 3.69815 3.91257 3.80687
# Velocity P-wave (km/s) = 6.19450 6.43099 6.31385
#
# Compressibility (1/GPa) = 0.01794035
#
# Stress axis : x y z
#
# Youngs Moduli (GPa) = 160.17852 115.71869 100.26002
#
# Poissons Ratio (x) = 0.04496 0.18170
# Poissons Ratio (y) = 0.06223 0.12617
# Poissons Ratio (z) = 0.29029 0.14562
#
# Static dielectric constant tensor:
#      x y z
#    x 2.194920 0.000000 0.000000 
#    y 0.000000 2.316830 0.000000 
#    z 0.000000 0.000000 2.470600 
# 
# From -- ./inp_files/8372.got.cif
#   From: 2010.05.17/outbox.cif.g08.bks.cpg/sg37_5_cif.got.tgz:8372.got - 2010.06.03 17:53:42.
