data_PCOD9355084
_publ_section_title
;
Structure prediction by ZEFSAII (Michael W. Deem and Ramdas Pophale) SiO2 
 PCOD9355084
Probable space group: C C C 2
;
_chemical_formula_sum "Si O2"
_cell_formula_units_Z 28
_cell_length_a 7.367760
_cell_length_b 7.141342
_cell_length_c 20.252310
_cell_angle_alpha 90.000000
_cell_angle_beta 90.000000
_cell_angle_gamma 90.000000
_cell_volume 1065.589344
_symmetry_space_group_name_H-M "C C C 2"
_symmetry_group_IT_number 37
_symmetry_cell_setting 'orthorhombic'
loop_
_space_group_symop_operation_xyz
x,y,z
-x,-y,z
-x,y,1/2+z
x,-y,1/2+z
1/2+x,1/2+y,z
1/2-x,1/2-y,z
1/2-x,1/2+y,1/2+z
1/2+x,1/2-y,1/2+z
loop_
_atom_site_type_symbol
_atom_site_label
_atom_site_fract_x
_atom_site_fract_y
_atom_site_fract_z
Si Si1 0.750000 0.250000 0.135571
Si Si2 0.449748 0.723995 0.538517
Si Si3 0.535618 0.279241 0.894855
Si Si4 0.466031 0.721754 0.750512
O O1 0.609484 0.177959 0.077848
O O2 0.593932 0.211802 0.192160
O O3 0.500000 0.500000 0.543624
O O4 0.250000 0.750000 0.567809
O O5 0.447200 0.789192 0.462465
O O6 0.500000 0.500000 0.893557
O O7 0.750000 0.250000 0.900445
O O8 0.477239 0.205122 0.823179
O O9 0.500000 0.500000 0.749982
O O10 0.250000 0.750000 0.741174
#
# Coordination Sequence:
#
# PCOD9355084 Si02
#       4
#     4   8   8   8
#     4  12  24  42  68 100 132 180 222 288 348 414
#     4  11  25  43  66  96 137 178 229 285 347 414
#     4   9  19  42  65  96 132 180 229 285 341 414
#     4  10  23  41  65  95 135 174 228 280 342 411
#
# _framework density 26.276537000000001
#
# number of rings (size 3 to 8) (size 9 to 14) (size 15 to 20)
#    0.000    1.714    1.429    1.714    2.000    4.571 
#    0.000    0.000    0.000    0.000    0.000    0.000 
#    0.000    0.000    0.000    0.000    0.000    0.000 
#
# Total GULP energy -77939.235939 kJ/mol
# GULP energy per Si atom -5567.088281 kJ/mol
# Density = 2.621673 g / cm^3
# Si number density = 26.276537 Si / 1000 Ang^3
#
#
#
# Elastic Constant Matrix: (Units=GPa)
#
#
# Indices 1 2 3 4 5 6 
#
# 1 227.1485 28.3722 70.7030 0.0000 0.0000 0.0000
# 2 28.3722 119.6272 -18.1732 0.0000 0.0000 0.0000
# 3 70.7030 -18.1732 223.1043 0.0000 0.0000 0.0000
# 4 0.0000 0.0000 0.0000 -19.3874 0.0000 0.0000
# 5 0.0000 0.0000 0.0000 0.0000 61.8167 0.0000
# 6 0.0000 0.0000 0.0000 0.0000 0.0000 45.7379
#
#
#
# Elastic Compliance Matrix: (Units=1/GPa)
#
#
# Indices 1 2 3 4 5 6 
#
# 1 0.005131 -0.001482 -0.001747 0.000000 0.000000 0.000000
# 2 -0.001482 0.008892 0.001194 0.000000 0.000000 0.000000
# 3 -0.001747 0.001194 0.005133 0.000000 0.000000 0.000000
# 4 0.000000 0.000000 0.000000 -0.051580 0.000000 0.000000
# 5 0.000000 0.000000 0.000000 0.000000 0.016177 0.000000
# 6 0.000000 0.000000 0.000000 0.000000 0.000000 0.021864
#
#
# Mechanical properties :
#
#
# Convention : Reuss Voigt Hill
#
# Bulk Modulus (GPa) = 66.28516 81.29824 73.79170
# Shear Modulus (GPa) = 339.75325 50.23196 194.99261
#
# Velocity S-wave (km/s) = 11.38331 4.37700 8.62374
# Velocity P-wave (km/s) = 14.07316 7.52003 11.28283
#
# Compressibility (1/GPa) = 0.01508633
#
# Stress axis : x y z
#
# Youngs Moduli (GPa) = 194.88206 112.45706 194.81497
#
# Poissons Ratio (x) = 0.16670 0.34032
# Poissons Ratio (y) = 0.28889 -0.23263
# Poissons Ratio (z) = 0.34044 -0.13429
#
# Static dielectric constant tensor:
#      x y z
#    x 1.985130 0.000000 0.000000 
#    y 0.000000 1.996270 0.000000 
#    z 0.000000 0.000000 2.057340 
# 
# From -- ./inp_files/15420.got.cif
#   From: 2010.05.17/outbox.cif.g08.bks.cpg/sg37_8_cif.got.tgz:15420.got - 2010.06.03 17:53:42.
