data_PCOD9355842
_publ_section_title
;
Structure prediction by ZEFSAII (Michael W. Deem and Ramdas Pophale) SiO2 
 PCOD9355842
Probable space group: A M M 2
;
_chemical_formula_sum "Si O2"
_cell_formula_units_Z 64
_cell_length_a 7.397559
_cell_length_b 15.050995
_cell_length_c 29.248046
_cell_angle_alpha 90.000000
_cell_angle_beta 90.000000
_cell_angle_gamma 90.000000
_cell_volume 3256.495678
_symmetry_space_group_name_H-M "A M M 2"
_symmetry_group_IT_number 38
_symmetry_cell_setting 'orthorhombic'
loop_
_space_group_symop_operation_xyz
x,y,z
-x,-y,z
-x,y,z
x,-y,z
x,1/2+y,1/2+z
-x,1/2-y,1/2+z
-x,1/2+y,1/2+z
x,1/2-y,1/2+z
loop_
_atom_site_type_symbol
_atom_site_label
_atom_site_fract_x
_atom_site_fract_y
_atom_site_fract_z
Si Si1 0.278981 0.899140 0.402060
Si Si2 0.218164 0.897164 0.941163
Si Si3 0.719923 0.601776 0.005885
Si Si4 0.290353 0.773351 0.855689
Si Si5 0.279162 0.100858 0.776383
Si Si6 0.783458 0.399779 0.544163
Si Si7 0.720285 0.398497 0.172008
Si Si8 0.714704 0.720146 0.089046
O O1 0.500000 0.897810 0.402067
O O2 0.222394 0.877927 0.454165
O O3 0.213070 0.822578 0.368467
O O4 0.224631 0.000000 0.391410
O O5 0.284309 0.832834 0.901549
O O6 0.000000 0.893534 0.940428
O O7 0.270510 0.000000 0.932669
O O8 0.279692 0.873930 0.992788
O O9 0.500000 0.604407 0.005597
O O10 0.770498 0.500000 0.016579
O O11 0.786235 0.668838 0.044316
O O12 0.500000 0.758305 0.844001
O O13 0.212511 0.829686 0.813874
O O14 0.500000 0.101187 0.777199
O O15 0.223838 0.119692 0.724207
O O16 0.224274 0.000000 0.787978
O O17 0.718570 0.500000 0.554099
O O18 0.740831 0.324364 0.580777
O O19 0.000000 0.404305 0.541355
O O20 0.500000 0.397867 0.172272
O O21 0.773092 0.500000 0.159948
O O22 0.783680 0.326966 0.134934
O O23 0.500000 0.705204 0.089542
#
# Coordination Sequence:
#
# PCOD9355842 Si02
#       8
#     8   8   8   8   8   8   8   8
#     4   8  14  23  34  53  83 111 133 166 211 249
#     4   9  18  31  44  60  86 117 143 169 210 264
#     4   8  13  21  34  56  85 109 129 161 209 258
#     4  10  17  25  43  67  86 110 149 188 213 240
#     4   8  14  24  38  60  90 117 139 169 213 261
#     4   9  19  34  46  57  82 120 149 168 206 265
#     4   8  14  25  41  63  92 120 140 164 210 268
#     4  10  17  25  44  69  84 101 140 187 216 239
#
# _framework density 19.653027999999999
#
# number of rings (size 3 to 8) (size 9 to 14) (size 15 to 20)
#    0.000    3.250    0.000    3.750    0.000    4.000 
#    0.000    1.250    0.000    3.375    0.000   10.500 
#    0.000    0.000    0.000    0.000    0.000    0.000 
#
# Total GULP energy -178518.851714 kJ/mol
# GULP energy per Si atom -5578.714116 kJ/mol
# Density = 1.960830 g / cm^3
# Si number density = 19.653028 Si / 1000 Ang^3
#
#
#
# Elastic Constant Matrix: (Units=GPa)
#
#
# Indices 1 2 3 4 5 6 
#
# 1 65.6639 0.4901 4.0495 0.0000 0.0000 0.0000
# 2 0.4901 145.5493 117.5453 0.0000 0.0000 0.0000
# 3 4.0495 117.5453 129.2299 0.0000 0.0000 0.0000
# 4 0.0000 0.0000 0.0000 37.4800 0.0000 0.0000
# 5 0.0000 0.0000 0.0000 0.0000 14.0476 0.0000
# 6 0.0000 0.0000 0.0000 0.0000 0.0000 31.7625
#
#
#
# Elastic Compliance Matrix: (Units=1/GPa)
#
#
# Indices 1 2 3 4 5 6 
#
# 1 0.015320 0.001266 -0.001632 0.000000 0.000000 0.000000
# 2 0.001266 0.025990 -0.023680 0.000000 0.000000 0.000000
# 3 -0.001632 -0.023680 0.029328 0.000000 0.000000 0.000000
# 4 0.000000 0.000000 0.000000 0.026681 0.000000 0.000000
# 5 0.000000 0.000000 0.000000 0.000000 0.071186 0.000000
# 6 0.000000 0.000000 0.000000 0.000000 0.000000 0.031484
#
#
# Mechanical properties :
#
#
# Convention : Reuss Voigt Hill
#
# Bulk Modulus (GPa) = 44.35061 64.95698 54.65380
# Shear Modulus (GPa) = 19.56218 31.21524 25.38871
#
# Velocity S-wave (km/s) = 3.15838 3.98969 3.59813
# Velocity P-wave (km/s) = 5.99302 7.37205 6.71802
#
# Compressibility (1/GPa) = 0.02254760
#
# Stress axis : x y z
#
# Youngs Moduli (GPa) = 65.27309 38.47651 34.09725
#
# Poissons Ratio (x) = -0.04872 0.05564
# Poissons Ratio (y) = -0.08266 0.80741
# Poissons Ratio (z) = 0.10652 0.91111
#
# Static dielectric constant tensor:
#      x y z
#    x 1.741420 0.000000 0.000000 
#    y 0.000000 1.693040 0.000000 
#    z 0.000000 0.000000 1.671670 
# 
# From -- ./inp_files/24729.got.cif
#   From: 2010.05.17/outbox.cif.g08.bks.cpg/sg38_13_cif.got.tgz:24729.got - 2010.06.03 18:07:57.
