data_PCOD9355830
_publ_section_title
;
Structure prediction by ZEFSAII (Michael W. Deem and Ramdas Pophale) SiO2 
 PCOD9355830
Probable space group: A M M 2
;
_chemical_formula_sum "Si O2"
_cell_formula_units_Z 40
_cell_length_a 8.234174
_cell_length_b 7.420075
_cell_length_c 33.489784
_cell_angle_alpha 90.000000
_cell_angle_beta 90.000000
_cell_angle_gamma 90.000000
_cell_volume 2046.165140
_symmetry_space_group_name_H-M "A M M 2"
_symmetry_group_IT_number 38
_symmetry_cell_setting 'orthorhombic'
loop_
_space_group_symop_operation_xyz
x,y,z
-x,-y,z
-x,y,z
x,-y,z
x,1/2+y,1/2+z
-x,1/2-y,1/2+z
-x,1/2+y,1/2+z
x,1/2-y,1/2+z
loop_
_atom_site_type_symbol
_atom_site_label
_atom_site_fract_x
_atom_site_fract_y
_atom_site_fract_z
Si Si1 0.672740 0.000000 0.800460
Si Si2 0.312711 0.280708 0.029529
Si Si3 0.500000 0.293124 0.755462
Si Si4 0.820110 0.280129 0.113702
Si Si5 0.190256 0.000000 0.883419
Si Si6 0.196536 0.794852 0.443234
Si Si7 0.500000 0.780977 0.662300
O O1 0.652430 0.176438 0.772760
O O2 0.797216 0.000000 0.835843
O O3 0.500000 0.000000 0.823911
O O4 0.500000 0.230614 0.035759
O O5 0.304305 0.500000 0.028944
O O6 0.209968 0.223443 0.067888
O O7 0.252586 0.221357 0.986186
O O8 0.500000 0.500000 0.768531
O O9 0.500000 0.281970 0.707877
O O10 0.818435 0.500000 0.114303
O O11 0.664594 0.222980 0.139691
O O12 0.000000 0.223339 0.127280
O O13 0.255979 0.825310 0.906427
O O14 0.000000 0.000000 0.892689
O O15 0.000000 0.799872 0.443915
O O16 0.254955 0.000000 0.439177
O O17 0.500000 0.000000 0.662505
#
# Coordination Sequence:
#
# PCOD9355830 Si02
#       7
#     4   8   4   8   4   8   4
#     4   8  20  38  58  86 106 134 182 218 282 344
#     4   9  15  26  43  71 106 146 190 233 271 318
#     4   9  19  38  63  81 105 142 171 218 292 345
#     4   9  16  25  45  77 110 149 191 232 276 322
#     4  10  20  36  56  82 114 146 182 234 282 330
#     4   9  18  31  49  73 107 151 191 227 273 324
#     4  10  16  31  55  78 110 142 182 233 276 342
#
# _framework density 19.548763999999998
#
# number of rings (size 3 to 8) (size 9 to 14) (size 15 to 20)
#    0.600    2.200    2.000    0.600    0.000    4.000 
#    0.000    1.000    2.200    1.800    0.000    0.000 
#    0.000    0.000    0.000    0.000    0.000    0.000 
#
# Total GULP energy -111375.930493 kJ/mol
# GULP energy per Si atom -5568.796525 kJ/mol
# Density = 1.950427 g / cm^3
# Si number density = 19.548764 Si / 1000 Ang^3
#
#
#
# Elastic Constant Matrix: (Units=GPa)
#
#
# Indices 1 2 3 4 5 6 
#
# 1 75.1973 21.1466 37.4666 0.0000 0.0000 0.0000
# 2 21.1466 102.7778 45.0954 0.0000 0.0000 0.0000
# 3 37.4666 45.0954 137.0798 0.0000 0.0000 0.0000
# 4 0.0000 0.0000 0.0000 169.1040 0.0000 0.0000
# 5 0.0000 0.0000 0.0000 0.0000 17.3776 0.0000
# 6 0.0000 0.0000 0.0000 0.0000 0.0000 -4.5138
#
#
#
# Elastic Compliance Matrix: (Units=1/GPa)
#
#
# Indices 1 2 3 4 5 6 
#
# 1 0.015607 -0.001566 -0.003751 0.000000 0.000000 0.000000
# 2 -0.001566 0.011528 -0.003365 0.000000 0.000000 0.000000
# 3 -0.003751 -0.003365 0.009427 0.000000 0.000000 0.000000
# 4 0.000000 0.000000 0.000000 0.005914 0.000000 0.000000
# 5 0.000000 0.000000 0.000000 0.000000 0.057545 0.000000
# 6 0.000000 0.000000 0.000000 0.000000 0.000000 -0.221541
#
#
# Mechanical properties :
#
#
# Convention : Reuss Voigt Hill
#
# Bulk Modulus (GPa) = 52.08109 58.05245 55.06677
# Shear Modulus (GPa) = -51.14674 50.48332 -0.33171
#
# Velocity S-wave (km/s) = -5.12059 5.08728 -0.41237
# Velocity P-wave (km/s) = 2.87422 8.01672 5.29182
#
# Compressibility (1/GPa) = 0.01920083
#
# Stress axis : x y z
#
# Youngs Moduli (GPa) = 64.07212 86.74478 106.07806
#
# Poissons Ratio (x) = 0.13580 0.39788
# Poissons Ratio (y) = 0.10031 0.35690
# Poissons Ratio (z) = 0.24032 0.29185
#
# Static dielectric constant tensor:
#      x y z
#    x 1.751180 0.000000 0.000000 
#    y 0.000000 1.625900 0.000000 
#    z 0.000000 0.000000 1.637180 
# 
# From -- ./inp_files/23290.got.cif
#   From: 2010.05.17/outbox.cif.g08.bks.cpg/sg38_12_cif.got.tgz:23290.got - 2010.06.03 18:07:57.
