data_PCOD9355963
_publ_section_title
;
Structure prediction by ZEFSAII (Michael W. Deem and Ramdas Pophale) SiO2 
 PCOD9355963
Probable space group: A M M 2
;
_chemical_formula_sum "Si O2"
_cell_formula_units_Z 48
_cell_length_a 18.052745
_cell_length_b 7.567476
_cell_length_c 15.824500
_cell_angle_alpha 90.000000
_cell_angle_beta 90.000000
_cell_angle_gamma 90.000000
_cell_volume 2161.843725
_symmetry_space_group_name_H-M "A M M 2"
_symmetry_group_IT_number 38
_symmetry_cell_setting 'orthorhombic'
loop_
_space_group_symop_operation_xyz
x,y,z
-x,-y,z
-x,y,z
x,-y,z
x,1/2+y,1/2+z
-x,1/2-y,1/2+z
-x,1/2+y,1/2+z
x,1/2-y,1/2+z
loop_
_atom_site_type_symbol
_atom_site_label
_atom_site_fract_x
_atom_site_fract_y
_atom_site_fract_z
Si Si1 0.815085 0.288421 0.036190
Si Si2 0.182188 0.210998 0.222982
Si Si3 0.659185 0.216060 0.279905
Si Si4 0.500000 0.300049 0.765297
Si Si5 0.914967 0.783259 0.380285
Si Si6 0.657901 0.212127 0.478082
Si Si7 0.500000 0.800558 0.956447
O O1 0.811183 0.500000 0.026926
O O2 0.844208 0.248482 0.128954
O O3 0.867930 0.224418 0.961442
O O4 0.730742 0.220530 0.025481
O O5 0.266266 0.278445 0.234957
O O6 0.128071 0.275923 0.296287
O O7 0.186523 0.000000 0.233745
O O8 0.580067 0.280839 0.244907
O O9 0.665175 0.263374 0.379116
O O10 0.656598 0.000000 0.276713
O O11 0.500000 0.500000 0.731560
O O12 0.500000 0.309818 0.869048
O O13 0.000000 0.726246 0.382553
O O14 0.915291 0.000000 0.380407
O O15 0.576180 0.270302 0.505913
O O16 0.658007 0.000000 0.481467
O O17 0.500000 0.000000 0.925466
#
# Coordination Sequence:
#
# PCOD9355963 Si02
#       7
#     8   8   8   4   8   8   4
#     4  10  20  35  56  81 108 142 184 224 265 319
#     4  10  19  33  54  80 109 139 177 224 270 318
#     4   8  13  26  49  72  94 131 180 216 246 301
#     4   8  14  26  47  70  95 136 184 218 249 309
#     4   9  18  35  59  82 106 142 184 221 262 324
#     4   9  16  31  52  70  97 142 188 219 254 315
#     4  10  18  26  43  76 109 134 170 224 277 311
#
# _framework density 22.20327
#
# number of rings (size 3 to 8) (size 9 to 14) (size 15 to 20)
#    0.000    2.833    1.667    1.750    0.000    1.333 
#    0.000    5.000    0.000    2.000    0.000    0.000 
#    0.000    0.000    0.000    0.000    0.000    0.000 
#
# Total GULP energy -133952.539350 kJ/mol
# GULP energy per Si atom -5581.355806 kJ/mol
# Density = 2.215273 g / cm^3
# Si number density = 22.203270 Si / 1000 Ang^3
#
#
#
# Elastic Constant Matrix: (Units=GPa)
#
#
# Indices 1 2 3 4 5 6 
#
# 1 201.2330 9.9521 90.2381 0.0000 0.0000 0.0000
# 2 9.9521 56.0861 -1.9750 0.0000 0.0000 0.0000
# 3 90.2381 -1.9750 128.9500 0.0000 0.0000 0.0000
# 4 0.0000 0.0000 0.0000 8.0142 0.0000 0.0000
# 5 0.0000 0.0000 0.0000 0.0000 -5.9002 0.0000
# 6 0.0000 0.0000 0.0000 0.0000 0.0000 -6.2016
#
#
#
# Elastic Compliance Matrix: (Units=1/GPa)
#
#
# Indices 1 2 3 4 5 6 
#
# 1 0.007364 -0.001489 -0.005176 0.000000 0.000000 0.000000
# 2 -0.001489 0.018140 0.001320 0.000000 0.000000 0.000000
# 3 -0.005176 0.001320 0.011397 0.000000 0.000000 0.000000
# 4 0.000000 0.000000 0.000000 0.124779 0.000000 0.000000
# 5 0.000000 0.000000 0.000000 0.000000 -0.169485 0.000000
# 6 0.000000 0.000000 0.000000 0.000000 0.000000 -0.161248
#
#
# Mechanical properties :
#
#
# Convention : Reuss Voigt Hill
#
# Bulk Modulus (GPa) = 38.15153 64.74440 51.44796
# Shear Modulus (GPa) = -33.41702 18.38607 -7.51548
#
# Velocity S-wave (km/s) = -3.88371 2.88076 -1.84179
# Velocity P-wave (km/s) = 1.70022 6.34730 4.32420
#
# Compressibility (1/GPa) = 0.02621127
#
# Stress axis : x y z
#
# Youngs Moduli (GPa) = 135.79349 55.12557 87.73943
#
# Poissons Ratio (x) = 0.08208 0.45415
# Poissons Ratio (y) = 0.20220 -0.11580
# Poissons Ratio (z) = 0.70289 -0.07276
#
# Static dielectric constant tensor:
#      x y z
#    x 1.832290 0.000000 0.000000 
#    y 0.000000 1.837070 0.000000 
#    z 0.000000 0.000000 1.786880 
# 
# From -- ./inp_files/15036.got.cif
#   From: 2010.05.17/outbox.cif.g08.bks.cpg/sg38_8_cif.got.tgz:15036.got - 2010.06.03 18:07:57.
