data_PCOD9355489
_publ_section_title
;
Structure prediction by ZEFSAII (Michael W. Deem and Ramdas Pophale) SiO2 
 PCOD9355489
Probable space group: C C C 2
;
_chemical_formula_sum "Si O2"
_cell_formula_units_Z 48
_cell_length_a 10.587219
_cell_length_b 14.801334
_cell_length_c 14.292346
_cell_angle_alpha 90.000000
_cell_angle_beta 90.000000
_cell_angle_gamma 90.000000
_cell_volume 2239.681573
_symmetry_space_group_name_H-M "C C C 2"
_symmetry_group_IT_number 37
_symmetry_cell_setting 'orthorhombic'
loop_
_space_group_symop_operation_xyz
x,y,z
-x,-y,z
-x,y,1/2+z
x,-y,1/2+z
1/2+x,1/2+y,z
1/2-x,1/2-y,z
1/2-x,1/2+y,1/2+z
1/2+x,1/2-y,1/2+z
loop_
_atom_site_type_symbol
_atom_site_label
_atom_site_fract_x
_atom_site_fract_y
_atom_site_fract_z
Si Si1 0.434647 0.790940 0.994420
Si Si2 0.017766 0.399794 0.838633
Si Si3 0.148320 0.997912 0.589625
Si Si4 0.758112 0.357161 0.729099
Si Si5 0.184691 0.344949 0.677308
Si Si6 0.172530 0.886502 0.927899
O O1 0.536128 0.833516 0.925904
O O2 0.307057 0.839030 0.952928
O O3 0.424652 0.684476 0.975122
O O4 0.425773 0.820082 0.101875
O O5 0.896559 0.378814 0.771842
O O6 0.000000 0.500000 0.876735
O O7 0.132994 0.392079 0.768665
O O8 0.217184 0.086224 0.631517
O O9 0.163698 0.017044 0.478258
O O10 0.217512 0.913502 0.638061
O O11 0.000000 0.000000 0.611317
O O12 0.750000 0.250000 0.713858
O O13 0.665740 0.384293 0.816075
O O14 0.250000 0.250000 0.697369
#
# Coordination Sequence:
#
# PCOD9355489 Si02
#       6
#     8   8   8   8   8   8
#     4   9  17  37  66  85 118 172 214 254 323 402
#     4  11  22  38  63 101 127 165 222 279 326 394
#     4  11  24  39  65  98 132 172 226 275 329 408
#     4  11  22  41  68  96 132 174 222 274 340 400
#     4  11  22  41  66  94 132 173 219 267 338 399
#     4   9  17  39  62  86 120 175 216 252 322 407
#
# _framework density 21.431618
#
# number of rings (size 3 to 8) (size 9 to 14) (size 15 to 20)
#    0.000    1.667    8.333    0.000    2.333    1.333 
#    3.000    0.000    0.000    2.000    0.000    0.000 
#    0.000    0.000    0.000    0.000    0.000    0.000 
#
# Total GULP energy -133852.373244 kJ/mol
# GULP energy per Si atom -5577.182218 kJ/mol
# Density = 2.138284 g / cm^3
# Si number density = 21.431618 Si / 1000 Ang^3
#
#
#
# Elastic Constant Matrix: (Units=GPa)
#
#
# Indices 1 2 3 4 5 6 
#
# 1 28.9499 4.4719 0.8246 0.0000 0.0000 0.0000
# 2 4.4719 109.0636 40.7665 0.0000 0.0000 0.0000
# 3 0.8246 40.7665 92.6332 0.0000 0.0000 0.0000
# 4 0.0000 0.0000 0.0000 106.1962 0.0000 0.0000
# 5 0.0000 0.0000 0.0000 0.0000 12.3975 0.0000
# 6 0.0000 0.0000 0.0000 0.0000 0.0000 14.8292
#
#
#
# Elastic Compliance Matrix: (Units=1/GPa)
#
#
# Indices 1 2 3 4 5 6 
#
# 1 0.034774 -0.001568 0.000381 0.000000 0.000000 0.000000
# 2 -0.001568 0.011045 -0.004847 0.000000 0.000000 0.000000
# 3 0.000381 -0.004847 0.012925 0.000000 0.000000 0.000000
# 4 0.000000 0.000000 0.000000 0.009417 0.000000 0.000000
# 5 0.000000 0.000000 0.000000 0.000000 0.080662 0.000000
# 6 0.000000 0.000000 0.000000 0.000000 0.000000 0.067434
#
#
# Mechanical properties :
#
#
# Convention : Reuss Voigt Hill
#
# Bulk Modulus (GPa) = 21.42475 35.86364 28.64419
# Shear Modulus (GPa) = 20.50164 38.99016 29.74590
#
# Velocity S-wave (km/s) = 3.09626 4.26993 3.72955
# Velocity P-wave (km/s) = 4.77503 6.40937 5.65159
#
# Compressibility (1/GPa) = 0.04667499
#
# Stress axis : x y z
#
# Youngs Moduli (GPa) = 28.75731 90.53944 77.37025
#
# Poissons Ratio (x) = 0.14197 -0.02944
# Poissons Ratio (y) = 0.04509 0.37499
# Poissons Ratio (z) = -0.01094 0.43882
#
# Static dielectric constant tensor:
#      x y z
#    x 1.832610 0.000000 0.000000 
#    y 0.000000 1.729790 0.000000 
#    z 0.000000 0.000000 1.832040 
# 
# From -- ./inp_files/11520.got.cif
#   From: 2010.05.17/outbox.cif.g08.bks.cpg/sg37_6_cif.got.tgz:11520.got - 2010.06.03 17:53:42.
