data_PCOD9355130
_publ_section_title
;
Structure prediction by ZEFSAII (Michael W. Deem and Ramdas Pophale) SiO2 
 PCOD9355130
Probable space group: C C C 2
;
_chemical_formula_sum "Si O2"
_cell_formula_units_Z 40
_cell_length_a 11.850134
_cell_length_b 15.546041
_cell_length_c 8.285936
_cell_angle_alpha 90.000000
_cell_angle_beta 90.000000
_cell_angle_gamma 90.000000
_cell_volume 1526.457245
_symmetry_space_group_name_H-M "C C C 2"
_symmetry_group_IT_number 37
_symmetry_cell_setting 'orthorhombic'
loop_
_space_group_symop_operation_xyz
x,y,z
-x,-y,z
-x,y,1/2+z
x,-y,1/2+z
1/2+x,1/2+y,z
1/2-x,1/2-y,z
1/2-x,1/2+y,1/2+z
1/2+x,1/2-y,1/2+z
loop_
_atom_site_type_symbol
_atom_site_label
_atom_site_fract_x
_atom_site_fract_y
_atom_site_fract_z
Si Si1 0.324888 0.837108 0.660080
Si Si2 0.929400 0.138809 0.963536
Si Si3 0.157426 0.049840 0.974821
Si Si4 0.757498 0.662865 0.709192
Si Si5 0.517728 0.187470 0.351057
O O1 0.250000 0.750000 0.680890
O O2 0.252469 0.917467 0.597509
O O3 0.419124 0.821221 0.521223
O O4 0.397877 0.857709 0.819262
O O5 0.829928 0.184069 0.065770
O O6 0.044625 0.098478 0.035719
O O7 0.978983 0.211527 0.843059
O O8 0.866399 0.048580 0.932568
O O9 0.194828 0.088854 0.804185
O O10 0.750000 0.750000 0.815651
O O11 0.891279 0.650851 0.720882
#
# Coordination Sequence:
#
# PCOD9355130 Si02
#       5
#     8   8   8   8   8
#     4  11  23  43  69 105 148 189 248 301 364 446
#     4  11  23  41  72 107 144 193 244 314 379 425
#     4  10  23  43  68 109 148 184 246 323 371 427
#     4  11  22  43  65 100 153 191 245 305 365 452
#     4  11  23  42  70 102 141 200 240 295 367 450
#
# _framework density 26.204467999999999
#
# number of rings (size 3 to 8) (size 9 to 14) (size 15 to 20)
#    0.000    1.200    4.000    2.400    0.000    7.200 
#    0.000    1.000    0.000    7.200    0.000    0.000 
#    0.000    0.000    0.000    0.000    0.000    0.000 
#
# Total GULP energy -111487.389227 kJ/mol
# GULP energy per Si atom -5574.369461 kJ/mol
# Density = 2.614483 g / cm^3
# Si number density = 26.204468 Si / 1000 Ang^3
#
#
#
# Elastic Constant Matrix: (Units=GPa)
#
#
# Indices 1 2 3 4 5 6 
#
# 1 198.4496 33.3488 66.0635 0.0000 0.0000 0.0000
# 2 33.3488 97.6820 11.5970 0.0000 0.0000 0.0000
# 3 66.0635 11.5970 68.1909 0.0000 0.0000 0.0000
# 4 0.0000 0.0000 0.0000 24.9303 0.0000 0.0000
# 5 0.0000 0.0000 0.0000 0.0000 58.2245 0.0000
# 6 0.0000 0.0000 0.0000 0.0000 0.0000 47.8963
#
#
#
# Elastic Compliance Matrix: (Units=1/GPa)
#
#
# Indices 1 2 3 4 5 6 
#
# 1 0.007732 -0.001786 -0.007187 0.000000 0.000000 0.000000
# 2 -0.001786 0.010861 -0.000116 0.000000 0.000000 0.000000
# 3 -0.007187 -0.000116 0.021647 0.000000 0.000000 0.000000
# 4 0.000000 0.000000 0.000000 0.040112 0.000000 0.000000
# 5 0.000000 0.000000 0.000000 0.000000 0.017175 0.000000
# 6 0.000000 0.000000 0.000000 0.000000 0.000000 0.020878
#
#
# Mechanical properties :
#
#
# Convention : Reuss Voigt Hill
#
# Bulk Modulus (GPa) = 45.32955 65.14902 55.23928
# Shear Modulus (GPa) = 34.73732 43.09776 38.91754
#
# Velocity S-wave (km/s) = 3.64486 4.05986 3.85794
# Velocity P-wave (km/s) = 5.92025 6.84780 6.40085
#
# Compressibility (1/GPa) = 0.02206067
#
# Stress axis : x y z
#
# Youngs Moduli (GPa) = 129.33790 92.07254 46.19588
#
# Poissons Ratio (x) = 0.16448 0.33199
# Poissons Ratio (y) = 0.23105 0.00538
# Poissons Ratio (z) = 0.92951 0.01072
#
# Static dielectric constant tensor:
#      x y z
#    x 2.134300 0.000000 0.000000 
#    y 0.000000 2.044530 0.000000 
#    z 0.000000 0.000000 2.195100 
# 
# From -- ./inp_files/7045.got.cif
#   From: 2010.05.17/outbox.cif.g08.bks.cpg/sg37_4_cif.got.tgz:7045.got - 2010.06.03 17:53:42.
