data_PCOD9355085
_publ_section_title
;
Structure prediction by ZEFSAII (Michael W. Deem and Ramdas Pophale) SiO2 
 PCOD9355085
Probable space group: C C C 2
;
_chemical_formula_sum "Si O2"
_cell_formula_units_Z 56
_cell_length_a 5.165734
_cell_length_b 31.807781
_cell_length_c 15.278030
_cell_angle_alpha 90.000000
_cell_angle_beta 90.000000
_cell_angle_gamma 90.000000
_cell_volume 2510.341295
_symmetry_space_group_name_H-M "C C C 2"
_symmetry_group_IT_number 37
_symmetry_cell_setting 'orthorhombic'
loop_
_space_group_symop_operation_xyz
x,y,z
-x,-y,z
-x,y,1/2+z
x,-y,1/2+z
1/2+x,1/2+y,z
1/2-x,1/2-y,z
1/2-x,1/2+y,1/2+z
1/2+x,1/2-y,1/2+z
loop_
_atom_site_type_symbol
_atom_site_label
_atom_site_fract_x
_atom_site_fract_y
_atom_site_fract_z
Si Si1 0.299034 0.389120 0.280530
Si Si2 0.775307 0.336889 0.252184
Si Si3 0.749887 0.527223 0.604441
Si Si4 0.250000 0.750000 0.339777
Si Si5 0.808464 0.338560 0.050117
Si Si6 0.433703 0.421665 0.459227
Si Si7 0.250000 0.250000 0.455781
Si Si8 0.850088 0.594332 0.095929
O O1 0.515708 0.354001 0.295533
O O2 0.369683 0.421605 0.357016
O O3 0.323961 0.408015 0.182546
O O4 0.016411 0.367016 0.279129
O O5 0.829205 0.290048 0.282923
O O6 0.711103 0.335939 0.149301
O O7 0.500000 0.500000 0.635033
O O8 0.704263 0.538376 0.502959
O O9 0.000000 0.500000 0.622417
O O10 0.878403 0.573030 0.627666
O O11 0.497443 0.740118 0.398861
O O12 0.094009 0.357911 0.067658
O O13 0.675501 0.375795 0.992724
O O14 0.805793 0.292773 0.008936
O O15 0.711439 0.424522 0.509891
#
# Coordination Sequence:
#
# PCOD9355085 Si02
#       8
#     8   8   8   4   8   8   4   8
#     4  11  25  40  69  99 134 175 230 287 334 410
#     4  11  23  42  61  92 134 173 232 288 343 405
#     4  11  23  42  73 101 137 183 219 277 343 411
#     4  12  25  40  57  92 130 178 226 291 352 397
#     4  10  23  41  65  96 128 182 230 281 343 404
#     4  11  22  42  72  98 136 180 231 275 344 408
#     4  12  27  40  63  94 134 178 236 283 344 409
#     4  10  23  44  70 105 136 181 234 279 348 414
#
# _framework density 22.307725000000001
#
# number of rings (size 3 to 8) (size 9 to 14) (size 15 to 20)
#    0.000    1.143    2.857    3.000    8.000    0.000 
#    0.000    2.143    3.143    0.000    0.000    0.000 
#    0.000    0.000    0.000    0.000    0.000    0.000 
#
# Total GULP energy -155882.737488 kJ/mol
# GULP energy per Si atom -5567.240625 kJ/mol
# Density = 2.225695 g / cm^3
# Si number density = 22.307725 Si / 1000 Ang^3
#
#
#
# Elastic Constant Matrix: (Units=GPa)
#
#
# Indices 1 2 3 4 5 6 
#
# 1 123.6043 21.6133 35.5337 0.0000 0.0000 0.0000
# 2 21.6133 81.8873 5.4300 0.0000 0.0000 0.0000
# 3 35.5337 5.4300 71.9719 0.0000 0.0000 0.0000
# 4 0.0000 0.0000 0.0000 34.4108 0.0000 0.0000
# 5 0.0000 0.0000 0.0000 0.0000 21.5693 0.0000
# 6 0.0000 0.0000 0.0000 0.0000 0.0000 32.8709
#
#
#
# Elastic Compliance Matrix: (Units=1/GPa)
#
#
# Indices 1 2 3 4 5 6 
#
# 1 0.009837 -0.002286 -0.004684 0.000000 0.000000 0.000000
# 2 -0.002286 0.012804 0.000162 0.000000 0.000000 0.000000
# 3 -0.004684 0.000162 0.016195 0.000000 0.000000 0.000000
# 4 0.000000 0.000000 0.000000 0.029061 0.000000 0.000000
# 5 0.000000 0.000000 0.000000 0.000000 0.046362 0.000000
# 6 0.000000 0.000000 0.000000 0.000000 0.000000 0.030422
#
#
# Mechanical properties :
#
#
# Convention : Reuss Voigt Hill
#
# Bulk Modulus (GPa) = 39.64937 44.73529 42.19233
# Shear Modulus (GPa) = 29.99363 32.09597 31.04480
#
# Velocity S-wave (km/s) = 3.67078 3.79724 3.73454
# Velocity P-wave (km/s) = 5.98152 6.27078 6.12785
#
# Compressibility (1/GPa) = 0.02522108
#
# Stress axis : x y z
#
# Youngs Moduli (GPa) = 101.66152 78.09807 61.74886
#
# Poissons Ratio (x) = 0.17851 0.28923
# Poissons Ratio (y) = 0.23236 -0.01003
# Poissons Ratio (z) = 0.47619 -0.01268
#
# Static dielectric constant tensor:
#      x y z
#    x 1.928040 0.000000 0.000000 
#    y 0.000000 1.933070 0.000000 
#    z 0.000000 0.000000 1.869690 
# 
# From -- ./inp_files/9959.got.cif
#   From: 2010.05.17/outbox.cif.g08.bks.cpg/sg37_5_cif.got.tgz:9959.got - 2010.06.03 17:53:42.
