data_PCOD9355604
_publ_section_title
;
Structure prediction by ZEFSAII (Michael W. Deem and Ramdas Pophale) SiO2 
 PCOD9355604
Probable space group: C C C 2
;
_chemical_formula_sum "Si O2"
_cell_formula_units_Z 32
_cell_length_a 5.489633
_cell_length_b 8.648400
_cell_length_c 27.276050
_cell_angle_alpha 90.000000
_cell_angle_beta 90.000000
_cell_angle_gamma 90.000000
_cell_volume 1294.972534
_symmetry_space_group_name_H-M "C C C 2"
_symmetry_group_IT_number 37
_symmetry_cell_setting 'orthorhombic'
loop_
_space_group_symop_operation_xyz
x,y,z
-x,-y,z
-x,y,1/2+z
x,-y,1/2+z
1/2+x,1/2+y,z
1/2-x,1/2-y,z
1/2-x,1/2+y,1/2+z
1/2+x,1/2-y,1/2+z
loop_
_atom_site_type_symbol
_atom_site_label
_atom_site_fract_x
_atom_site_fract_y
_atom_site_fract_z
Si Si1 0.976094 0.162856 0.992050
Si Si2 0.750000 0.250000 0.403653
Si Si3 0.000000 0.500000 0.839101
Si Si4 0.000000 0.000000 0.778021
Si Si5 0.250000 0.250000 0.079663
Si Si6 0.500000 0.000000 0.643602
Si Si7 0.750000 0.250000 0.213029
O O1 0.750000 0.250000 0.969518
O O2 0.146358 0.134110 0.944817
O O3 0.000000 0.000000 0.017928
O O4 0.038461 0.270416 0.038494
O O5 0.564472 0.152392 0.370972
O O6 0.749577 0.474972 0.808783
O O7 0.061465 0.152429 0.746188
O O8 0.199620 0.400009 0.113111
O O9 0.625191 0.874640 0.678246
#
# Coordination Sequence:
#
# PCOD9355604 Si02
#       7
#     8   4   4   4   4   4   4
#     4  11  24  44  73 103 165 201 256 320 387 463
#     4  11  27  46  70 120 148 212 260 324 387 465
#     4  12  29  49  86 112 158 204 276 327 397 496
#     4  12  30  56  82 118 160 210 264 344 420 480
#     4  11  26  44  71 118 148 206 259 316 388 463
#     4  12  27  47  82 112 152 200 268 321 391 492
#     4  12  29  54  81 114 158 204 259 338 417 474
#
# _framework density 24.710947999999998
#
# number of rings (size 3 to 8) (size 9 to 14) (size 15 to 20)
#    0.000    0.500    0.000    6.000   10.500   11.000 
#    0.000    0.000    0.000    0.000    0.000    0.000 
#    0.000    0.000    0.000    0.000    0.000    0.000 
#
# Total GULP energy -89211.543475 kJ/mol
# GULP energy per Si atom -5575.721467 kJ/mol
# Density = 2.465471 g / cm^3
# Si number density = 24.710948 Si / 1000 Ang^3
#
#
#
# Elastic Constant Matrix: (Units=GPa)
#
#
# Indices 1 2 3 4 5 6 
#
# 1 117.8119 47.9855 80.9140 0.0000 0.0000 0.0000
# 2 47.9855 145.8779 79.6968 0.0000 0.0000 0.0000
# 3 80.9140 79.6968 174.9581 0.0000 0.0000 0.0000
# 4 0.0000 0.0000 0.0000 53.3160 0.0000 0.0000
# 5 0.0000 0.0000 0.0000 0.0000 41.9118 0.0000
# 6 0.0000 0.0000 0.0000 0.0000 0.0000 58.1160
#
#
#
# Elastic Compliance Matrix: (Units=1/GPa)
#
#
# Indices 1 2 3 4 5 6 
#
# 1 0.012617 -0.001281 -0.005251 0.000000 0.000000 0.000000
# 2 -0.001281 0.009256 -0.003624 0.000000 0.000000 0.000000
# 3 -0.005251 -0.003624 0.009795 0.000000 0.000000 0.000000
# 4 0.000000 0.000000 0.000000 0.018756 0.000000 0.000000
# 5 0.000000 0.000000 0.000000 0.000000 0.023860 0.000000
# 6 0.000000 0.000000 0.000000 0.000000 0.000000 0.017207
#
#
# Mechanical properties :
#
#
# Convention : Reuss Voigt Hill
#
# Bulk Modulus (GPa) = 88.06594 95.09339 91.57967
# Shear Modulus (GPa) = 43.25698 46.00553 44.63126
#
# Velocity S-wave (km/s) = 4.18846 4.31948 4.25447
# Velocity P-wave (km/s) = 7.68809 7.96511 7.82783
#
# Compressibility (1/GPa) = 0.01135513
#
# Stress axis : x y z
#
# Youngs Moduli (GPa) = 79.26106 108.03423 102.09323
#
# Poissons Ratio (x) = 0.13842 0.53611
# Poissons Ratio (y) = 0.10155 0.36997
# Poissons Ratio (z) = 0.41622 0.39150
#
# Static dielectric constant tensor:
#      x y z
#    x 2.800750 0.000000 0.000000 
#    y 0.000000 1.893840 0.000000 
#    z 0.000000 0.000000 1.884420 
# 
# From -- ./inp_files/20064.got.cif
#   From: 2010.05.17/outbox.cif.g08.bks.cpg/sg37_11_cif.got.tgz:20064.got - 2010.06.03 17:53:42.
