data_PCOD9355003
_publ_section_title
;
Structure prediction by ZEFSAII (Michael W. Deem and Ramdas Pophale) SiO2 
 PCOD9355003
Probable space group: C C C 2
;
_chemical_formula_sum "Si O2"
_cell_formula_units_Z 56
_cell_length_a 6.379688
_cell_length_b 13.354157
_cell_length_c 28.620530
_cell_angle_alpha 90.000000
_cell_angle_beta 90.000000
_cell_angle_gamma 90.000000
_cell_volume 2438.336218
_symmetry_space_group_name_H-M "C C C 2"
_symmetry_group_IT_number 37
_symmetry_cell_setting 'orthorhombic'
loop_
_space_group_symop_operation_xyz
x,y,z
-x,-y,z
-x,y,1/2+z
x,-y,1/2+z
1/2+x,1/2+y,z
1/2-x,1/2-y,z
1/2-x,1/2+y,1/2+z
1/2+x,1/2-y,1/2+z
loop_
_atom_site_type_symbol
_atom_site_label
_atom_site_fract_x
_atom_site_fract_y
_atom_site_fract_z
Si Si1 0.410285 0.389726 0.597240
Si Si2 0.181436 0.419601 0.414356
Si Si3 0.618649 0.602915 0.287992
Si Si4 0.250000 0.250000 0.047935
Si Si5 0.000000 0.500000 0.757823
Si Si6 0.488247 0.713967 0.375911
Si Si7 0.372756 0.852849 0.011972
Si Si8 0.169140 0.859951 0.206195
O O1 0.500000 0.500000 0.593061
O O2 0.582364 0.310432 0.578890
O O3 0.212393 0.383357 0.562677
O O4 0.357462 0.370710 0.651021
O O5 0.424529 0.390443 0.399479
O O6 0.181896 0.426941 0.470409
O O7 0.000000 0.500000 0.398118
O O8 0.090675 0.312680 0.397964
O O9 0.500000 0.500000 0.301868
O O10 0.546146 0.689946 0.322161
O O11 0.544318 0.624848 0.235239
O O12 0.862654 0.576143 0.288507
O O13 0.383723 0.174134 0.016316
O O14 0.836363 0.561318 0.726465
O O15 0.250000 0.750000 0.378568
O O16 0.250000 0.750000 0.000464
O O17 0.250000 0.750000 0.216829
#
# Coordination Sequence:
#
# PCOD9355003 Si02
#       8
#     8   8   8   4   4   8   8   8
#     4  11  25  42  68 105 140 185 245 296 371 455
#     4  11  27  45  68 105 144 188 255 305 377 461
#     4  10  24  43  71 106 141 188 246 296 375 451
#     4  10  24  42  70  92 140 184 224 304 364 428
#     4  10  24  46  74 100 148 188 236 312 370 442
#     4  11  26  46  71 102 145 194 240 312 374 446
#     4  10  22  46  66 101 138 186 245 298 370 451
#     4  11  24  44  69 105 142 186 242 298 366 452
#
# _framework density 22.966477999999999
#
# number of rings (size 3 to 8) (size 9 to 14) (size 15 to 20)
#    0.000    1.429    1.429    3.000    6.000   10.857 
#    0.000    0.000    0.000    0.000    0.000    0.000 
#    0.000    0.000    0.000    0.000    0.000    0.000 
#
# Total GULP energy -156307.883519 kJ/mol
# GULP energy per Si atom -5582.424411 kJ/mol
# Density = 2.291421 g / cm^3
# Si number density = 22.966478 Si / 1000 Ang^3
#
#
#
# Elastic Constant Matrix: (Units=GPa)
#
#
# Indices 1 2 3 4 5 6 
#
# 1 126.4384 33.0638 36.6230 0.0000 0.0000 0.0000
# 2 33.0638 118.4120 19.9760 0.0000 0.0000 0.0000
# 3 36.6230 19.9760 123.5685 0.0000 0.0000 0.0000
# 4 0.0000 0.0000 0.0000 29.5803 0.0000 0.0000
# 5 0.0000 0.0000 0.0000 0.0000 19.3317 0.0000
# 6 0.0000 0.0000 0.0000 0.0000 0.0000 42.1097
#
#
#
# Elastic Compliance Matrix: (Units=1/GPa)
#
#
# Indices 1 2 3 4 5 6 
#
# 1 0.009159 -0.002158 -0.002365 0.000000 0.000000 0.000000
# 2 -0.002158 0.009190 -0.000846 0.000000 0.000000 0.000000
# 3 -0.002365 -0.000846 0.008931 0.000000 0.000000 0.000000
# 4 0.000000 0.000000 0.000000 0.033806 0.000000 0.000000
# 5 0.000000 0.000000 0.000000 0.000000 0.051728 0.000000
# 6 0.000000 0.000000 0.000000 0.000000 0.000000 0.023747
#
#
# Mechanical properties :
#
#
# Convention : Reuss Voigt Hill
#
# Bulk Modulus (GPa) = 60.45979 60.86050 60.66015
# Shear Modulus (GPa) = 32.71935 36.78807 34.75371
#
# Velocity S-wave (km/s) = 3.77856 4.00661 3.89425
# Velocity P-wave (km/s) = 6.73937 6.92540 6.83302
#
# Compressibility (1/GPa) = 0.01653992
#
# Stress axis : x y z
#
# Youngs Moduli (GPa) = 109.18767 108.80847 111.97538
#
# Poissons Ratio (x) = 0.23484 0.26488
# Poissons Ratio (y) = 0.23565 0.09474
# Poissons Ratio (z) = 0.25828 0.09206
#
# Static dielectric constant tensor:
#      x y z
#    x 1.940900 0.000000 0.000000 
#    y 0.000000 1.868090 0.000000 
#    z 0.000000 0.000000 1.887360 
# 
# From -- ./inp_files/20201.got.cif
#   From: 2010.05.17/outbox.cif.g08.bks.cpg/sg37_11_cif.got.tgz:20201.got - 2010.06.03 17:53:42.
