data_PCOD9355822
_publ_section_title
;
Structure prediction by ZEFSAII (Michael W. Deem and Ramdas Pophale) SiO2 
 PCOD9355822
Probable space group: A M M 2
;
_chemical_formula_sum "Si O2"
_cell_formula_units_Z 48
_cell_length_a 20.530717
_cell_length_b 8.122051
_cell_length_c 15.801847
_cell_angle_alpha 90.000000
_cell_angle_beta 90.000000
_cell_angle_gamma 90.000000
_cell_volume 2634.982173
_symmetry_space_group_name_H-M "A M M 2"
_symmetry_group_IT_number 38
_symmetry_cell_setting 'orthorhombic'
loop_
_space_group_symop_operation_xyz
x,y,z
-x,-y,z
-x,y,z
x,-y,z
x,1/2+y,1/2+z
-x,1/2-y,1/2+z
-x,1/2+y,1/2+z
x,1/2-y,1/2+z
loop_
_atom_site_type_symbol
_atom_site_label
_atom_site_fract_x
_atom_site_fract_y
_atom_site_fract_z
Si Si1 0.074674 0.500000 0.567600
Si Si2 0.791323 0.192573 0.821119
Si Si3 0.808016 0.500000 0.697342
Si Si4 0.678275 0.000000 0.074483
Si Si5 0.718887 0.323619 0.068778
Si Si6 0.347041 0.819894 0.756900
Si Si7 0.143318 0.190604 0.495329
Si Si8 0.422858 0.500000 0.718806
O O1 0.127622 0.500000 0.641511
O O2 0.091075 0.330642 0.517631
O O3 0.000000 0.500000 0.594489
O O4 0.809154 0.334931 0.754000
O O5 0.712971 0.196811 0.820763
O O6 0.809082 0.000000 0.801718
O O7 0.822907 0.249831 0.908703
O O8 0.741168 0.500000 0.640406
O O9 0.687841 0.166767 0.024227
O O10 0.611999 0.000000 0.126688
O O11 0.702988 0.500000 0.030000
O O12 0.688457 0.321073 0.163474
O O13 0.797030 0.307959 0.063386
O O14 0.394659 0.665749 0.760811
O O15 0.378131 0.000000 0.766337
O O16 0.120763 0.000000 0.489427
O O17 0.500000 0.500000 0.714723
#
# Coordination Sequence:
#
# PCOD9355822 Si02
#       8
#     4   8   4   4   8   8   8   4
#     4  12  26  44  60  84 119 155 187 232 292 354
#     4  11  20  33  59  89 117 142 186 248 291 327
#     4  12  20  38  62  84 113 148 197 239 277 336
#     4  10  16  30  54  74 112 138 189 230 274 318
#     4   9  16  28  49  78 107 134 176 231 277 318
#     4   9  17  30  48  75 111 144 184 235 282 331
#     4  11  21  35  60  91 116 144 188 237 293 340
#     4  10  18  28  46  78 114 149 183 233 291 330
#
# _framework density 18.216442000000001
#
# number of rings (size 3 to 8) (size 9 to 14) (size 15 to 20)
#    0.000    1.667    6.667    0.000    0.000    1.333 
#    0.000    0.833    0.000    0.000    0.000    4.667 
#    0.000    0.000    0.000    0.000    0.000    0.000 
#
# Total GULP energy -133637.879060 kJ/mol
# GULP energy per Si atom -5568.244961 kJ/mol
# Density = 1.817498 g / cm^3
# Si number density = 18.216442 Si / 1000 Ang^3
#
#
#
# Elastic Constant Matrix: (Units=GPa)
#
#
# Indices 1 2 3 4 5 6 
#
# 1 95.8475 56.3081 26.5715 0.0000 0.0000 0.0000
# 2 56.3081 211.9737 26.2508 0.0000 0.0000 0.0000
# 3 26.5715 26.2508 55.9084 0.0000 0.0000 0.0000
# 4 0.0000 0.0000 0.0000 18.5480 0.0000 0.0000
# 5 0.0000 0.0000 0.0000 0.0000 12.5836 0.0000
# 6 0.0000 0.0000 0.0000 0.0000 0.0000 18.8026
#
#
#
# Elastic Compliance Matrix: (Units=1/GPa)
#
#
# Indices 1 2 3 4 5 6 
#
# 1 0.013588 -0.002983 -0.005057 0.000000 0.000000 0.000000
# 2 -0.002983 0.005664 -0.001242 0.000000 0.000000 0.000000
# 3 -0.005057 -0.001242 0.020873 0.000000 0.000000 0.000000
# 4 0.000000 0.000000 0.000000 0.053914 0.000000 0.000000
# 5 0.000000 0.000000 0.000000 0.000000 0.079469 0.000000
# 6 0.000000 0.000000 0.000000 0.000000 0.000000 0.053184
#
#
# Mechanical properties :
#
#
# Convention : Reuss Voigt Hill
#
# Bulk Modulus (GPa) = 46.38066 64.66560 55.52313
# Shear Modulus (GPa) = 19.80654 26.96012 23.38333
#
# Velocity S-wave (km/s) = 3.30098 3.85123 3.58668
# Velocity P-wave (km/s) = 6.32810 7.43986 6.90639
#
# Compressibility (1/GPa) = 0.02156071
#
# Stress axis : x y z
#
# Youngs Moduli (GPa) = 73.59582 176.56159 47.90917
#
# Poissons Ratio (x) = 0.52671 0.24228
# Poissons Ratio (y) = 0.21955 0.05948
# Poissons Ratio (z) = 0.37218 0.21920
#
# Static dielectric constant tensor:
#      x y z
#    x 1.572650 0.000000 0.000000 
#    y 0.000000 1.741170 0.000000 
#    z 0.000000 0.000000 1.652500 
# 
# From -- ./inp_files/15109.got.cif
#   From: 2010.05.17/outbox.cif.g08.bks.cpg/sg38_8_cif.got.tgz:15109.got - 2010.06.03 18:07:57.
