data_PCOD9355925
_publ_section_title
;
Structure prediction by ZEFSAII (Michael W. Deem and Ramdas Pophale) SiO2 
 PCOD9355925
Probable space group: A M M 2
;
_chemical_formula_sum "Si O2"
_cell_formula_units_Z 64
_cell_length_a 7.504020
_cell_length_b 20.635875
_cell_length_c 21.102972
_cell_angle_alpha 90.000000
_cell_angle_beta 90.000000
_cell_angle_gamma 90.000000
_cell_volume 3267.837815
_symmetry_space_group_name_H-M "A M M 2"
_symmetry_group_IT_number 38
_symmetry_cell_setting 'orthorhombic'
loop_
_space_group_symop_operation_xyz
x,y,z
-x,-y,z
-x,y,z
x,-y,z
x,1/2+y,1/2+z
-x,1/2-y,1/2+z
-x,1/2+y,1/2+z
x,1/2-y,1/2+z
loop_
_atom_site_type_symbol
_atom_site_label
_atom_site_fract_x
_atom_site_fract_y
_atom_site_fract_z
Si Si1 0.715539 0.071431 0.625000
Si Si2 0.283529 0.571272 0.499555
Si Si3 0.287078 0.790746 0.955623
Si Si4 0.289531 0.792702 0.192556
Si Si5 0.283263 0.071092 0.148852
Si Si6 0.281417 0.706805 0.074305
Si Si7 0.210681 0.709150 0.314528
Si Si8 0.789748 0.071193 0.774351
O O1 0.500000 0.071665 0.624546
O O2 0.776300 0.132752 0.584362
O O3 0.770181 0.079305 0.698446
O O4 0.775790 0.000000 0.603980
O O5 0.500000 0.570270 0.495491
O O6 0.221090 0.500000 0.477824
O O7 0.218320 0.635562 0.464434
O O8 0.239911 0.578484 0.574205
O O9 0.500000 0.794341 0.963767
O O10 0.250507 0.767432 0.884987
O O11 0.221573 0.743389 0.010987
O O12 0.500000 0.797880 0.180448
O O13 0.218656 0.865788 0.186204
O O14 0.220847 0.747590 0.135638
O O15 0.269060 0.757304 0.259242
O O16 0.500000 0.069524 0.152157
O O17 0.220189 0.000000 0.169848
O O18 0.500000 0.706320 0.073959
O O19 0.287176 0.636325 0.305159
O O20 0.000000 0.703496 0.307203
O O21 0.000000 0.068692 0.788975
O O22 0.714116 0.000000 0.791178
#
# Coordination Sequence:
#
# PCOD9355925 Si02
#       8
#     8   8   8   8   8   8   8   8
#     4   9  16  27  47  74  99 120 149 195 244 287
#     4   8  13  23  42  70  99 122 149 189 235 283
#     4  10  19  32  49  69  95 129 162 195 238 288
#     4  10  17  30  53  76  97 125 160 200 242 287
#     4   8  13  23  45  77 104 122 148 192 242 287
#     4   9  16  28  49  75  97 119 155 199 241 282
#     4  11  23  35  46  67  99 133 167 203 239 282
#     4   9  18  32  47  64  92 130 165 195 233 282
#
# _framework density 19.584814999999999
#
# number of rings (size 3 to 8) (size 9 to 14) (size 15 to 20)
#    0.000    2.750    2.500    1.125    0.000    1.000 
#    0.000    1.250    0.000    1.125    0.000    5.250 
#    0.000    0.000    0.000    0.000    0.000    0.000 
#
# Total GULP energy -178481.799813 kJ/mol
# GULP energy per Si atom -5577.556244 kJ/mol
# Density = 1.954024 g / cm^3
# Si number density = 19.584815 Si / 1000 Ang^3
#
#
#
# Elastic Constant Matrix: (Units=GPa)
#
#
# Indices 1 2 3 4 5 6 
#
# 1 48.2446 4.3221 -16.3954 0.0000 0.0000 0.0000
# 2 4.3221 154.9412 76.0070 0.0000 0.0000 0.0000
# 3 -16.3954 76.0070 90.0244 0.0000 0.0000 0.0000
# 4 0.0000 0.0000 0.0000 46.1340 0.0000 0.0000
# 5 0.0000 0.0000 0.0000 0.0000 17.0749 0.0000
# 6 0.0000 0.0000 0.0000 0.0000 0.0000 0.5705
#
#
#
# Elastic Compliance Matrix: (Units=1/GPa)
#
#
# Indices 1 2 3 4 5 6 
#
# 1 0.024025 -0.004808 0.008435 0.000000 0.000000 0.000000
# 2 -0.004808 0.011979 -0.010990 0.000000 0.000000 0.000000
# 3 0.008435 -0.010990 0.021923 0.000000 0.000000 0.000000
# 4 0.000000 0.000000 0.000000 0.021676 0.000000 0.000000
# 5 0.000000 0.000000 0.000000 0.000000 0.058565 0.000000
# 6 0.000000 0.000000 0.000000 0.000000 0.000000 1.752832
#
#
# Mechanical properties :
#
#
# Convention : Reuss Voigt Hill
#
# Bulk Modulus (GPa) = 23.14750 46.78642 34.96696
# Shear Modulus (GPa) = 2.60400 28.04099 15.32249
#
# Velocity S-wave (km/s) = 1.15433 3.78798 2.80012
# Velocity P-wave (km/s) = 3.69072 6.56298 5.32420
#
# Compressibility (1/GPa) = 0.04320121
#
# Stress axis : x y z
#
# Youngs Moduli (GPa) = 41.62358 83.47858 45.61501
#
# Poissons Ratio (x) = 0.40135 -0.38475
# Poissons Ratio (y) = 0.20012 0.50129
# Poissons Ratio (z) = -0.35108 0.91739
#
# Static dielectric constant tensor:
#      x y z
#    x 1.740780 0.000000 0.000000 
#    y 0.000000 1.713690 0.000000 
#    z 0.000000 0.000000 1.663430 
# 
# From -- ./inp_files/20223.got.cif
#   From: 2010.05.17/outbox.cif.g08.bks.cpg/sg38_11_cif.got.tgz:20223.got - 2010.06.03 18:07:57.
