data_PCOD9355650
_publ_section_title
;
Structure prediction by ZEFSAII (Michael W. Deem and Ramdas Pophale) SiO2 
 PCOD9355650
Probable space group: C C C 2
;
_chemical_formula_sum "Si O2"
_cell_formula_units_Z 52
_cell_length_a 13.857204
_cell_length_b 8.938923
_cell_length_c 19.564729
_cell_angle_alpha 90.000000
_cell_angle_beta 90.000000
_cell_angle_gamma 90.000000
_cell_volume 2423.453234
_symmetry_space_group_name_H-M "C C C 2"
_symmetry_group_IT_number 37
_symmetry_cell_setting 'orthorhombic'
loop_
_space_group_symop_operation_xyz
x,y,z
-x,-y,z
-x,y,1/2+z
x,-y,1/2+z
1/2+x,1/2+y,z
1/2-x,1/2-y,z
1/2-x,1/2+y,1/2+z
1/2+x,1/2-y,1/2+z
loop_
_atom_site_type_symbol
_atom_site_label
_atom_site_fract_x
_atom_site_fract_y
_atom_site_fract_z
Si Si1 0.399098 0.036894 0.403230
Si Si2 0.000000 0.000000 0.803065
Si Si3 0.151068 0.346362 0.133213
Si Si4 0.133987 0.265743 0.278058
Si Si5 0.635416 0.724084 0.887730
Si Si6 0.024129 0.825078 0.528871
Si Si7 0.168623 0.368505 0.535569
O O1 0.398599 0.173599 0.351751
O O2 0.317512 0.055483 0.460709
O O3 0.500000 0.000000 0.440520
O O4 0.391828 0.887430 0.358538
O O5 0.920267 0.905312 0.846560
O O6 0.069001 0.881475 0.764508
O O7 0.250000 0.250000 0.132774
O O8 0.121691 0.370361 0.211882
O O9 0.075457 0.240202 0.095295
O O10 0.159193 0.499890 0.090653
O O11 0.250000 0.250000 0.284785
O O12 0.750000 0.750000 0.889093
O O13 0.594357 0.705261 0.964499
O O14 0.925763 0.732009 0.522930
O O15 0.000000 0.000000 0.532380
O O16 0.250000 0.250000 0.553956
#
# Coordination Sequence:
#
# PCOD9355650 Si02
#       7
#     8   4   8   8   8   8   8
#     4  12  22  43  66 104 142 184 227 296 359 423
#     4  12  24  48  72 110 140 198 242 304 372 446
#     4  11  25  48  69 100 143 189 242 307 364 436
#     4  11  26  47  73 101 148 190 243 300 369 445
#     4  12  25  41  73 107 145 182 242 298 366 436
#     4  12  24  41  68 101 141 188 237 300 366 428
#     4  12  25  43  71 103 141 190 247 297 366 441
#
# _framework density 21.456985
#
# number of rings (size 3 to 8) (size 9 to 14) (size 15 to 20)
#    0.000    0.308    5.385    3.231    3.231    1.231 
#    0.000    0.769    0.000    0.000    0.000    0.000 
#    0.000    0.000    0.000    0.000    0.000    0.000 
#
# Total GULP energy -145017.503276 kJ/mol
# GULP energy per Si atom -5577.596280 kJ/mol
# Density = 2.140815 g / cm^3
# Si number density = 21.456985 Si / 1000 Ang^3
#
#
#
# Elastic Constant Matrix: (Units=GPa)
#
#
# Indices 1 2 3 4 5 6 
#
# 1 125.0605 39.4974 7.6454 0.0000 0.0000 0.0000
# 2 39.4974 139.3923 32.7073 0.0000 0.0000 0.0000
# 3 7.6454 32.7073 89.0921 0.0000 0.0000 0.0000
# 4 0.0000 0.0000 0.0000 28.1283 0.0000 0.0000
# 5 0.0000 0.0000 0.0000 0.0000 27.3858 0.0000
# 6 0.0000 0.0000 0.0000 0.0000 0.0000 28.4739
#
#
#
# Elastic Compliance Matrix: (Units=1/GPa)
#
#
# Indices 1 2 3 4 5 6 
#
# 1 0.008785 -0.002530 0.000175 0.000000 0.000000 0.000000
# 2 -0.002530 0.008579 -0.002932 0.000000 0.000000 0.000000
# 3 0.000175 -0.002932 0.012286 0.000000 0.000000 0.000000
# 4 0.000000 0.000000 0.000000 0.035551 0.000000 0.000000
# 5 0.000000 0.000000 0.000000 0.000000 0.036515 0.000000
# 6 0.000000 0.000000 0.000000 0.000000 0.000000 0.035120
#
#
# Mechanical properties :
#
#
# Convention : Reuss Voigt Hill
#
# Bulk Modulus (GPa) = 52.42655 57.02723 54.72689
# Shear Modulus (GPa) = 32.51628 35.04392 33.78010
#
# Velocity S-wave (km/s) = 3.89706 4.04569 3.97207
# Velocity P-wave (km/s) = 6.68848 6.96123 6.82622
#
# Compressibility (1/GPa) = 0.01907430
#
# Stress axis : x y z
#
# Youngs Moduli (GPa) = 113.83641 116.56373 81.39443
#
# Poissons Ratio (x) = 0.29493 -0.01425
# Poissons Ratio (y) = 0.28803 0.23868
# Poissons Ratio (z) = -0.01993 0.34181
#
# Static dielectric constant tensor:
#      x y z
#    x 1.772860 0.000000 0.000000 
#    y 0.000000 1.987240 0.000000 
#    z 0.000000 0.000000 1.760040 
# 
# From -- ./inp_files/17157.got.cif
#   From: 2010.05.17/outbox.cif.g08.bks.cpg/sg37_9_cif.got.tgz:17157.got - 2010.06.03 17:53:42.
