data_PCOD9355279
_publ_section_title
;
Structure prediction by ZEFSAII (Michael W. Deem and Ramdas Pophale) SiO2 
 PCOD9355279
Probable space group: C C C 2
;
_chemical_formula_sum "Si O2"
_cell_formula_units_Z 40
_cell_length_a 8.730382
_cell_length_b 17.056161
_cell_length_c 11.642985
_cell_angle_alpha 90.000000
_cell_angle_beta 90.000000
_cell_angle_gamma 90.000000
_cell_volume 1733.719650
_symmetry_space_group_name_H-M "C C C 2"
_symmetry_group_IT_number 37
_symmetry_cell_setting 'orthorhombic'
loop_
_space_group_symop_operation_xyz
x,y,z
-x,-y,z
-x,y,1/2+z
x,-y,1/2+z
1/2+x,1/2+y,z
1/2-x,1/2-y,z
1/2-x,1/2+y,1/2+z
1/2+x,1/2-y,1/2+z
loop_
_atom_site_type_symbol
_atom_site_label
_atom_site_fract_x
_atom_site_fract_y
_atom_site_fract_z
Si Si1 0.680593 0.378654 0.034680
Si Si2 0.090842 0.571871 0.219961
Si Si3 0.351180 0.328592 0.052524
Si Si4 0.156446 0.972159 0.395669
Si Si5 0.795523 0.340065 0.781014
O O1 0.807416 0.379207 0.132003
O O2 0.535062 0.325848 0.070163
O O3 0.654383 0.471080 0.006842
O O4 0.733889 0.356414 0.907259
O O5 0.197063 0.527255 0.313456
O O6 0.000000 0.500000 0.160302
O O7 0.969976 0.631712 0.275799
O O8 0.250000 0.250000 0.032829
O O9 0.283081 0.372499 0.164638
O O10 0.345399 0.383880 0.941313
O O11 0.000000 0.000000 0.333025
O O12 0.750000 0.250000 0.765236
#
# Coordination Sequence:
#
# PCOD9355279 Si02
#       5
#     8   8   8   8   8
#     4  11  26  45  75 106 148 195 249 309 372 437
#     4  12  26  43  77 108 154 192 258 304 374 434
#     4  10  25  48  74 105 152 191 250 306 378 446
#     4  10  24  44  75 108 146 193 249 312 370 441
#     4  11  27  46  69 107 153 192 249 304 366 448
#
# _framework density 23.071781999999999
#
# number of rings (size 3 to 8) (size 9 to 14) (size 15 to 20)
#    0.000    1.200    2.000    1.200   14.000    2.400 
#    0.000    1.000    0.000    0.000    0.000    0.000 
#    0.000    0.000    0.000    0.000    0.000    0.000 
#
# Total GULP energy -111517.214592 kJ/mol
# GULP energy per Si atom -5575.860730 kJ/mol
# Density = 2.301927 g / cm^3
# Si number density = 23.071782 Si / 1000 Ang^3
#
#
#
# Elastic Constant Matrix: (Units=GPa)
#
#
# Indices 1 2 3 4 5 6 
#
# 1 188.3376 63.4967 63.5349 0.0000 0.0000 0.0000
# 2 63.4967 113.2857 21.8602 0.0000 0.0000 0.0000
# 3 63.5349 21.8602 66.8306 0.0000 0.0000 0.0000
# 4 0.0000 0.0000 0.0000 25.6857 0.0000 0.0000
# 5 0.0000 0.0000 0.0000 0.0000 44.2003 0.0000
# 6 0.0000 0.0000 0.0000 0.0000 0.0000 47.2341
#
#
#
# Elastic Compliance Matrix: (Units=1/GPa)
#
#
# Indices 1 2 3 4 5 6 
#
# 1 0.009030 -0.003634 -0.007396 0.000000 0.000000 0.000000
# 2 -0.003634 0.010884 -0.000105 0.000000 0.000000 0.000000
# 3 -0.007396 -0.000105 0.022029 0.000000 0.000000 0.000000
# 4 0.000000 0.000000 0.000000 0.038932 0.000000 0.000000
# 5 0.000000 0.000000 0.000000 0.000000 0.022624 0.000000
# 6 0.000000 0.000000 0.000000 0.000000 0.000000 0.021171
#
#
# Mechanical properties :
#
#
# Convention : Reuss Voigt Hill
#
# Bulk Modulus (GPa) = 50.83256 74.02639 62.42947
# Shear Modulus (GPa) = 32.57358 38.06147 35.31752
#
# Velocity S-wave (km/s) = 3.76152 4.06605 3.91675
# Velocity P-wave (km/s) = 6.39887 7.36197 6.89725
#
# Compressibility (1/GPa) = 0.01967243
#
# Stress axis : x y z
#
# Youngs Moduli (GPa) = 110.74525 91.87393 45.39526
#
# Poissons Ratio (x) = 0.33387 0.33573
# Poissons Ratio (y) = 0.40245 0.00479
# Poissons Ratio (z) = 0.81904 0.00969
#
# Static dielectric constant tensor:
#      x y z
#    x 1.970050 0.000000 0.000000 
#    y 0.000000 6.247980 0.000000 
#    z 0.000000 0.000000 1.828580 
# 
# From -- ./inp_files/6120.got.cif
#   From: 2010.05.17/outbox.cif.g08.bks.cpg/sg37_4_cif.got.tgz:6120.got - 2010.06.03 17:53:42.
