data_PCOD9355447
_publ_section_title
;
Structure prediction by ZEFSAII (Michael W. Deem and Ramdas Pophale) SiO2 
 PCOD9355447
Probable space group: C C C 2
;
_chemical_formula_sum "Si O2"
_cell_formula_units_Z 48
_cell_length_a 11.901742
_cell_length_b 22.029755
_cell_length_c 7.730427
_cell_angle_alpha 90.000000
_cell_angle_beta 90.000000
_cell_angle_gamma 90.000000
_cell_volume 2026.859675
_symmetry_space_group_name_H-M "C C C 2"
_symmetry_group_IT_number 37
_symmetry_cell_setting 'orthorhombic'
loop_
_space_group_symop_operation_xyz
x,y,z
-x,-y,z
-x,y,1/2+z
x,-y,1/2+z
1/2+x,1/2+y,z
1/2-x,1/2-y,z
1/2-x,1/2+y,1/2+z
1/2+x,1/2-y,1/2+z
loop_
_atom_site_type_symbol
_atom_site_label
_atom_site_fract_x
_atom_site_fract_y
_atom_site_fract_z
Si Si1 0.371862 0.985982 0.859090
Si Si2 0.251404 0.910377 0.559385
Si Si3 0.599527 0.188668 0.679075
Si Si4 0.168999 0.809433 0.111469
Si Si5 0.125178 0.367851 0.556174
Si Si6 0.577029 0.324178 0.720373
O O1 0.300219 0.946293 0.725812
O O2 0.394881 0.937570 0.013474
O O3 0.500000 0.000000 0.804166
O O4 0.292824 0.041828 0.915452
O O5 0.327043 0.850254 0.548184
O O6 0.130263 0.881407 0.615921
O O7 0.473364 0.164529 0.659153
O O8 0.631913 0.170546 0.875386
O O9 0.612194 0.259192 0.641204
O O10 0.250000 0.750000 0.129355
O O11 0.255972 0.862634 0.147156
O O12 0.123544 0.819612 0.915734
O O13 0.057796 0.817871 0.224281
#
# Coordination Sequence:
#
# PCOD9355447 Si02
#       6
#     8   8   8   8   8   8
#     4  11  22  40  67 101 136 184 236 281 343 407
#     4  11  24  40  66  98 138 180 225 290 336 409
#     4  11  20  39  70 102 136 175 220 293 355 396
#     4  12  23  46  68 100 142 177 223 288 347 419
#     4  11  23  40  68  99 141 176 230 291 342 408
#     4  12  23  45  71 100 137 183 222 287 363 406
#
# _framework density 23.681954999999999
#
# number of rings (size 3 to 8) (size 9 to 14) (size 15 to 20)
#    0.000    0.667    8.333    1.000    2.333    0.000 
#    6.000    1.667    0.000    0.000    0.000    0.000 
#    0.000    0.000    0.000    0.000    0.000    0.000 
#
# Total GULP energy -134043.922052 kJ/mol
# GULP energy per Si atom -5585.163419 kJ/mol
# Density = 2.362805 g / cm^3
# Si number density = 23.681955 Si / 1000 Ang^3
#
#
#
# Elastic Constant Matrix: (Units=GPa)
#
#
# Indices 1 2 3 4 5 6 
#
# 1 182.1769 43.1328 41.4783 0.0000 0.0000 0.0000
# 2 43.1328 135.0913 41.3293 0.0000 0.0000 0.0000
# 3 41.4783 41.3293 64.8447 0.0000 0.0000 0.0000
# 4 0.0000 0.0000 0.0000 581.9384 0.0000 0.0000
# 5 0.0000 0.0000 0.0000 0.0000 39.1229 0.0000
# 6 0.0000 0.0000 0.0000 0.0000 0.0000 48.4290
#
#
#
# Elastic Compliance Matrix: (Units=1/GPa)
#
#
# Indices 1 2 3 4 5 6 
#
# 1 0.006532 -0.001003 -0.003539 0.000000 0.000000 0.000000
# 2 -0.001003 0.009349 -0.005317 0.000000 0.000000 0.000000
# 3 -0.003539 -0.005317 0.021074 0.000000 0.000000 0.000000
# 4 0.000000 0.000000 0.000000 0.001718 0.000000 0.000000
# 5 0.000000 0.000000 0.000000 0.000000 0.025561 0.000000
# 6 0.000000 0.000000 0.000000 0.000000 0.000000 0.020649
#
#
# Mechanical properties :
#
#
# Convention : Reuss Voigt Hill
#
# Bulk Modulus (GPa) = 58.01439 70.44373 64.22906
# Shear Modulus (GPa) = 45.31082 150.97623 98.14352
#
# Velocity S-wave (km/s) = 4.37888 7.99312 6.44456
# Velocity P-wave (km/s) = 7.07931 10.72366 9.08608
#
# Compressibility (1/GPa) = 0.01723710
#
# Stress axis : x y z
#
# Youngs Moduli (GPa) = 153.08172 106.95877 47.45078
#
# Poissons Ratio (x) = 0.10727 0.16794
# Poissons Ratio (y) = 0.15353 0.25231
# Poissons Ratio (z) = 0.54180 0.56874
#
# Static dielectric constant tensor:
#      x y z
#    x 1.910420 0.000000 0.000000 
#    y 0.000000 1.778420 0.000000 
#    z 0.000000 0.000000 2.055700 
# 
# From -- ./inp_files/2937.got.cif
#   From: 2010.05.17/outbox.cif.g08.bks.cpg/sg37_2_cif.got.tgz:2937.got - 2010.06.03 17:53:42.
