data_PCOD9355569
_publ_section_title
;
Structure prediction by ZEFSAII (Michael W. Deem and Ramdas Pophale) SiO2 
 PCOD9355569
Probable space group: C C C 2
;
_chemical_formula_sum "Si O2"
_cell_formula_units_Z 60
_cell_length_a 11.502051
_cell_length_b 8.611900
_cell_length_c 27.352313
_cell_angle_alpha 90.000000
_cell_angle_beta 90.000000
_cell_angle_gamma 90.000000
_cell_volume 2709.370044
_symmetry_space_group_name_H-M "C C C 2"
_symmetry_group_IT_number 37
_symmetry_cell_setting 'orthorhombic'
loop_
_space_group_symop_operation_xyz
x,y,z
-x,-y,z
-x,y,1/2+z
x,-y,1/2+z
1/2+x,1/2+y,z
1/2-x,1/2-y,z
1/2-x,1/2+y,1/2+z
1/2+x,1/2-y,1/2+z
loop_
_atom_site_type_symbol
_atom_site_label
_atom_site_fract_x
_atom_site_fract_y
_atom_site_fract_z
Si Si1 0.334679 0.899577 0.610240
Si Si2 0.000000 0.500000 0.857415
Si Si3 0.519815 0.750008 0.188161
Si Si4 0.368173 0.052676 0.997491
Si Si5 0.335790 0.103877 0.272935
Si Si6 0.572310 0.289244 0.424395
Si Si7 0.692993 0.452072 0.193282
Si Si8 0.812928 0.901893 0.424916
O O1 0.250000 0.750000 0.608625
O O2 0.449251 0.838711 0.638294
O O3 0.350045 0.952790 0.555183
O O4 0.274757 0.022090 0.646572
O O5 0.104054 0.555337 0.822605
O O6 0.050311 0.356980 0.888871
O O7 0.563944 0.845774 0.234668
O O8 0.603753 0.598816 0.189889
O O9 0.388120 0.696757 0.191877
O O10 0.500000 0.000000 0.987639
O O11 0.369660 0.224080 0.973623
O O12 0.274317 0.948802 0.968637
O O13 0.250000 0.250000 0.279766
O O14 0.261847 0.975691 0.243690
O O15 0.442692 0.346259 0.437957
O O16 0.651453 0.428783 0.401896
O O17 0.750000 0.750000 0.401167
#
# Coordination Sequence:
#
# PCOD9355569 Si02
#       8
#     8   4   8   8   8   8   8   8
#     4   9  18  32  58  93 128 174 221 271 325 388
#     4  12  24  46  70 106 132 166 228 288 360 422
#     4   8  15  34  61  89 132 175 225 267 323 399
#     4  12  23  42  65  97 139 178 227 284 342 404
#     4   9  20  39  66  94 134 174 217 282 337 403
#     4  11  25  44  70  98 130 180 224 283 355 413
#     4   8  15  34  60  91 128 181 221 267 329 390
#     4  11  23  46  71  92 131 175 225 279 342 417
#
# _framework density 22.145368999999999
#
# number of rings (size 3 to 8) (size 9 to 14) (size 15 to 20)
#    0.000    2.133    2.000    2.800    0.000    2.667 
#    4.800   14.000    0.000    0.000    0.000    0.000 
#    0.000    0.000    0.000    0.000    0.000    0.000 
#
# Total GULP energy -167549.456042 kJ/mol
# GULP energy per Si atom -5584.981868 kJ/mol
# Density = 2.209497 g / cm^3
# Si number density = 22.145369 Si / 1000 Ang^3
#
#
#
# Elastic Constant Matrix: (Units=GPa)
#
#
# Indices 1 2 3 4 5 6 
#
# 1 155.1441 65.4399 62.0609 0.0000 0.0000 0.0000
# 2 65.4399 128.3484 53.7533 0.0000 0.0000 0.0000
# 3 62.0609 53.7533 131.1945 0.0000 0.0000 0.0000
# 4 0.0000 0.0000 0.0000 4.2797 0.0000 0.0000
# 5 0.0000 0.0000 0.0000 0.0000 8.7919 0.0000
# 6 0.0000 0.0000 0.0000 0.0000 0.0000 53.3460
#
#
#
# Elastic Compliance Matrix: (Units=1/GPa)
#
#
# Indices 1 2 3 4 5 6 
#
# 1 0.009031 -0.003399 -0.002880 0.000000 0.000000 0.000000
# 2 -0.003399 0.010684 -0.002770 0.000000 0.000000 0.000000
# 3 -0.002880 -0.002770 0.010119 0.000000 0.000000 0.000000
# 4 0.000000 0.000000 0.000000 0.233663 0.000000 0.000000
# 5 0.000000 0.000000 0.000000 0.000000 0.113741 0.000000
# 6 0.000000 0.000000 0.000000 0.000000 0.000000 0.018746
#
#
# Mechanical properties :
#
#
# Convention : Reuss Voigt Hill
#
# Bulk Modulus (GPa) = 85.19034 86.35504 85.77269
# Shear Modulus (GPa) = 11.96192 28.84570 20.40381
#
# Velocity S-wave (km/s) = 2.32664 3.61302 3.03868
# Velocity P-wave (km/s) = 6.76535 7.51561 7.15033
#
# Compressibility (1/GPa) = 0.01173842
#
# Stress axis : x y z
#
# Youngs Moduli (GPa) = 110.72910 93.59674 98.82084
#
# Poissons Ratio (x) = 0.31810 0.28457
# Poissons Ratio (y) = 0.37632 0.27372
# Poissons Ratio (z) = 0.31886 0.25925
#
# Static dielectric constant tensor:
#      x y z
#    x 1.839750 0.000000 0.000000 
#    y 0.000000 1.890020 0.000000 
#    z 0.000000 0.000000 1.749730 
# 
# From -- ./inp_files/19789.got.cif
#   From: 2010.05.17/outbox.cif.g08.bks.cpg/sg37_10_cif.got.tgz:19789.got - 2010.06.03 17:53:42.
