data_PCOD9355916
_publ_section_title
;
Structure prediction by ZEFSAII (Michael W. Deem and Ramdas Pophale) SiO2 
 PCOD9355916
Probable space group: A M M 2
;
_chemical_formula_sum "Si O2"
_cell_formula_units_Z 64
_cell_length_a 16.108067
_cell_length_b 7.396530
_cell_length_c 24.604869
_cell_angle_alpha 90.000000
_cell_angle_beta 90.000000
_cell_angle_gamma 90.000000
_cell_volume 2931.517611
_symmetry_space_group_name_H-M "A M M 2"
_symmetry_group_IT_number 38
_symmetry_cell_setting 'orthorhombic'
loop_
_space_group_symop_operation_xyz
x,y,z
-x,-y,z
-x,y,z
x,-y,z
x,1/2+y,1/2+z
-x,1/2-y,1/2+z
-x,1/2+y,1/2+z
x,1/2-y,1/2+z
loop_
_atom_site_type_symbol
_atom_site_label
_atom_site_fract_x
_atom_site_fract_y
_atom_site_fract_z
Si Si1 0.908957 0.713508 0.072990
Si Si2 0.246571 0.714654 0.004170
Si Si3 0.749436 0.221297 0.380583
Si Si4 0.907906 0.720605 0.810321
Si Si5 0.344871 0.279407 0.691647
Si Si6 0.591264 0.217295 0.075037
Si Si7 0.847056 0.782277 0.192795
Si Si8 0.592382 0.779499 0.309369
O O1 0.912215 0.500000 0.061385
O O2 0.891432 0.731361 0.137092
O O3 0.000000 0.789415 0.059929
O O4 0.830447 0.788066 0.039610
O O5 0.233947 0.500000 0.999704
O O6 0.249934 0.783843 0.942724
O O7 0.332892 0.738730 0.035643
O O8 0.832211 0.277871 0.348526
O O9 0.667021 0.279039 0.348336
O O10 0.748753 0.000000 0.380120
O O11 0.907132 0.500000 0.810473
O O12 0.890042 0.778608 0.748366
O O13 0.000000 0.777551 0.827541
O O14 0.345720 0.500000 0.691462
O O15 0.388056 0.219168 0.636145
O O16 0.248752 0.222244 0.691567
O O17 0.388183 0.223426 0.747485
O O18 0.500000 0.281721 0.057734
O O19 0.588355 0.000000 0.077467
O O20 0.846102 0.000000 0.194550
O O21 0.500000 0.722054 0.325712
O O22 0.593169 0.000000 0.309622
#
# Coordination Sequence:
#
# PCOD9355916 Si02
#       8
#     8   8   8   8   8   8   8   8
#     4  10  21  35  49  69 100 137 172 204 244 295
#     4  10  21  35  51  71  99 134 172 210 244 284
#     4   9  17  29  43  65  95 126 161 198 238 285
#     4   9  16  26  44  72 101 124 152 198 252 296
#     4   9  15  26  46  72 100 125 153 194 242 294
#     4  10  20  34  53  76 101 131 165 201 247 301
#     4  10  17  29  52  78 101 125 157 203 255 301
#     4   9  15  24  41  66  96 125 151 188 240 290
#
# _framework density 21.831696000000001
#
# number of rings (size 3 to 8) (size 9 to 14) (size 15 to 20)
#    0.000    2.500    2.500    0.750    0.000    3.500 
#    0.000    3.750    0.000    0.750    0.000    0.000 
#    0.000    1.000    0.000    0.000    0.000    0.000 
#
# Total GULP energy -178780.344545 kJ/mol
# GULP energy per Si atom -5586.885767 kJ/mol
# Density = 2.178201 g / cm^3
# Si number density = 21.831696 Si / 1000 Ang^3
#
#
#
# Elastic Constant Matrix: (Units=GPa)
#
#
# Indices 1 2 3 4 5 6 
#
# 1 242.1084 4.7021 121.5873 0.0000 0.0000 0.0000
# 2 4.7021 73.3183 2.2146 0.0000 0.0000 0.0000
# 3 121.5873 2.2146 187.9363 0.0000 0.0000 0.0000
# 4 0.0000 0.0000 0.0000 14.8745 0.0000 0.0000
# 5 0.0000 0.0000 0.0000 0.0000 -13.3753 0.0000
# 6 0.0000 0.0000 0.0000 0.0000 0.0000 -3.2249
#
#
#
# Elastic Compliance Matrix: (Units=1/GPa)
#
#
# Indices 1 2 3 4 5 6 
#
# 1 0.006124 -0.000273 -0.003959 0.000000 0.000000 0.000000
# 2 -0.000273 0.013656 0.000016 0.000000 0.000000 0.000000
# 3 -0.003959 0.000016 0.007882 0.000000 0.000000 0.000000
# 4 0.000000 0.000000 0.000000 0.067229 0.000000 0.000000
# 5 0.000000 0.000000 0.000000 0.000000 -0.074765 0.000000
# 6 0.000000 0.000000 0.000000 0.000000 0.000000 -0.310090
#
#
# Mechanical properties :
#
#
# Convention : Reuss Voigt Hill
#
# Bulk Modulus (GPa) = 52.00250 84.48566 68.24408
# Shear Modulus (GPa) = -18.17378 24.64547 3.23584
#
# Velocity S-wave (km/s) = -2.88835 3.36353 1.21877
# Velocity P-wave (km/s) = 3.57044 7.33942 5.77127
#
# Compressibility (1/GPa) = 0.01922984
#
# Stress axis : x y z
#
# Youngs Moduli (GPa) = 163.30045 73.22685 126.87465
#
# Poissons Ratio (x) = 0.02000 0.50224
# Poissons Ratio (y) = 0.04461 -0.00201
# Poissons Ratio (z) = 0.64643 -0.00116
#
# Static dielectric constant tensor:
#      x y z
#    x 1.787980 0.000000 0.000000 
#    y 0.000000 1.864750 0.000000 
#    z 0.000000 0.000000 1.742520 
# 
# From -- ./inp_files/22943.got.cif
#   From: 2010.05.17/outbox.cif.g08.bks.cpg/sg38_12_cif.got.tgz:22943.got - 2010.06.03 18:07:57.
