data_PCOD9355848
_publ_section_title
;
Structure prediction by ZEFSAII (Michael W. Deem and Ramdas Pophale) SiO2 
 PCOD9355848
Probable space group: A M M 2
;
_chemical_formula_sum "Si O2"
_cell_formula_units_Z 64
_cell_length_a 8.324943
_cell_length_b 19.062160
_cell_length_c 27.372234
_cell_angle_alpha 90.000000
_cell_angle_beta 90.000000
_cell_angle_gamma 90.000000
_cell_volume 4343.738010
_symmetry_space_group_name_H-M "A M M 2"
_symmetry_group_IT_number 38
_symmetry_cell_setting 'orthorhombic'
loop_
_space_group_symop_operation_xyz
x,y,z
-x,-y,z
-x,y,z
x,-y,z
x,1/2+y,1/2+z
-x,1/2-y,1/2+z
-x,1/2+y,1/2+z
x,1/2-y,1/2+z
loop_
_atom_site_type_symbol
_atom_site_label
_atom_site_fract_x
_atom_site_fract_y
_atom_site_fract_z
Si Si1 0.304358 0.919287 0.408450
Si Si2 0.312611 0.786900 0.169966
Si Si3 0.191698 0.080538 0.215204
Si Si4 0.309226 0.341389 0.812424
Si Si5 0.191538 0.332390 0.110705
Si Si6 0.196209 0.580000 0.206466
Si Si7 0.812676 0.290951 0.264179
Si Si8 0.305852 0.918740 0.518990
O O1 0.500000 0.917991 0.408805
O O2 0.249859 0.869706 0.364533
O O3 0.253686 0.900993 0.463580
O O4 0.257021 0.000000 0.398619
O O5 0.500000 0.777812 0.181779
O O6 0.269336 0.868402 0.174744
O O7 0.270568 0.743014 0.121804
O O8 0.208681 0.749848 0.212590
O O9 0.234810 0.113690 0.268007
O O10 0.000000 0.082480 0.209658
O O11 0.246323 0.000000 0.212673
O O12 0.500000 0.351846 0.809799
O O13 0.272596 0.259701 0.802579
O O14 0.244375 0.384482 0.154989
O O15 0.238371 0.367652 0.059934
O O16 0.000000 0.324985 0.113742
O O17 0.250860 0.500000 0.210145
O O18 0.248487 0.631456 0.250461
O O19 0.000000 0.580112 0.206989
O O20 0.000000 0.294644 0.276564
O O21 0.500000 0.916176 0.520510
O O22 0.258764 0.000000 0.528580
#
# Coordination Sequence:
#
# PCOD9355848 Si02
#       8
#     8   8   8   8   8   8   8   8
#     4   8  15  27  41  57  78 105 137 172 205 235
#     4  10  18  28  42  58  78 105 137 168 197 236
#     4  10  19  29  41  59  84 110 135 167 206 242
#     4  10  17  26  42  59  78 108 143 171 198 240
#     4  10  18  28  42  59  81 107 135 166 202 243
#     4   8  14  24  38  55  75 102 133 160 189 231
#     4   9  16  26  39  56  80 105 130 166 206 240
#     4   9  17  29  43  59  80 105 136 173 207 239
#
# _framework density 14.733853
#
# number of rings (size 3 to 8) (size 9 to 14) (size 15 to 20)
#    0.000    2.750    0.000    6.375    0.000    2.250 
#    0.000    1.250    0.000    9.000    0.000    0.000 
#    0.000    1.000    0.000    8.000    0.000    2.625 
#
# Total GULP energy -178198.016129 kJ/mol
# GULP energy per Si atom -5568.688004 kJ/mol
# Density = 1.470032 g / cm^3
# Si number density = 14.733853 Si / 1000 Ang^3
#
#
#
# Elastic Constant Matrix: (Units=GPa)
#
#
# Indices 1 2 3 4 5 6 
#
# 1 20.0634 13.2769 10.8272 0.0000 0.0000 0.0000
# 2 13.2769 114.7605 59.5034 0.0000 0.0000 0.0000
# 3 10.8272 59.5034 88.5547 0.0000 0.0000 0.0000
# 4 0.0000 0.0000 0.0000 28.0182 0.0000 0.0000
# 5 0.0000 0.0000 0.0000 0.0000 54.6871 0.0000
# 6 0.0000 0.0000 0.0000 0.0000 0.0000 16.0696
#
#
#
# Elastic Compliance Matrix: (Units=1/GPa)
#
#
# Indices 1 2 3 4 5 6 
#
# 1 0.054771 -0.004396 -0.003743 0.000000 0.000000 0.000000
# 2 -0.004396 0.013726 -0.008685 0.000000 0.000000 0.000000
# 3 -0.003743 -0.008685 0.017586 0.000000 0.000000 0.000000
# 4 0.000000 0.000000 0.000000 0.035691 0.000000 0.000000
# 5 0.000000 0.000000 0.000000 0.000000 0.018286 0.000000
# 6 0.000000 0.000000 0.000000 0.000000 0.000000 0.062229
#
#
# Mechanical properties :
#
#
# Convention : Reuss Voigt Hill
#
# Bulk Modulus (GPa) = 19.07141 43.39928 31.23534
# Shear Modulus (GPa) = 19.73044 29.07305 24.40175
#
# Velocity S-wave (km/s) = 3.66337 4.44691 4.07402
# Velocity P-wave (km/s) = 5.55570 7.47570 6.58604
#
# Compressibility (1/GPa) = 0.05243452
#
# Stress axis : x y z
#
# Youngs Moduli (GPa) = 18.25789 72.85566 56.86292
#
# Poissons Ratio (x) = 0.32027 0.21283
# Poissons Ratio (y) = 0.08026 0.49388
# Poissons Ratio (z) = 0.06834 0.63278
#
# Static dielectric constant tensor:
#      x y z
#    x 1.505330 0.000000 0.000000 
#    y 0.000000 1.511810 0.000000 
#    z 0.000000 0.000000 1.480320 
# 
# From -- ./inp_files/23662.got.cif
#   From: 2010.05.17/outbox.cif.g08.bks.cpg/sg38_12_cif.got.tgz:23662.got - 2010.06.03 18:07:57.
