data_PCOD9355843
_publ_section_title
;
Structure prediction by ZEFSAII (Michael W. Deem and Ramdas Pophale) SiO2 
 PCOD9355843
Probable space group: A M M 2
;
_chemical_formula_sum "Si O2"
_cell_formula_units_Z 40
_cell_length_a 8.092077
_cell_length_b 10.070058
_cell_length_c 26.610350
_cell_angle_alpha 90.000000
_cell_angle_beta 90.000000
_cell_angle_gamma 90.000000
_cell_volume 2168.415811
_symmetry_space_group_name_H-M "A M M 2"
_symmetry_group_IT_number 38
_symmetry_cell_setting 'orthorhombic'
loop_
_space_group_symop_operation_xyz
x,y,z
-x,-y,z
-x,y,z
x,-y,z
x,1/2+y,1/2+z
-x,1/2-y,1/2+z
-x,1/2+y,1/2+z
x,1/2-y,1/2+z
loop_
_atom_site_type_symbol
_atom_site_label
_atom_site_fract_x
_atom_site_fract_y
_atom_site_fract_z
Si Si1 0.303374 0.787767 0.550080
Si Si2 0.798522 0.500000 0.692491
Si Si3 0.801964 0.000000 0.746878
Si Si4 0.803072 0.000000 0.469620
Si Si5 0.798151 0.712770 0.774271
Si Si6 0.700397 0.500000 0.131398
Si Si7 0.803540 0.000000 0.078371
Si Si8 0.797917 0.500000 0.855562
O O1 0.500000 0.791013 0.551809
O O2 0.249580 0.871498 0.501593
O O3 0.247753 0.636289 0.551945
O O4 0.244035 0.871571 0.598975
O O5 0.748328 0.628410 0.724996
O O6 0.736215 0.500000 0.635692
O O7 0.000000 0.500000 0.691309
O O8 0.737867 0.136925 0.770496
O O9 0.766940 0.000000 0.687472
O O10 0.000000 0.000000 0.753544
O O11 0.738323 0.000000 0.412667
O O12 0.000000 0.000000 0.467137
O O13 0.747190 0.628460 0.822976
O O14 0.000000 0.714231 0.774272
O O15 0.500000 0.500000 0.133450
O O16 0.000000 0.000000 0.081666
O O17 0.000000 0.500000 0.856198
#
# Coordination Sequence:
#
# PCOD9355843 Si02
#       8
#     8   4   4   4   8   4   4   4
#     4  10  21  36  51  71 102 139 169 201 254 312
#     4   8  14  24  40  64  98 132 158 189 233 280
#     4  10  17  25  45  73  98 125 160 201 241 280
#     4  10  19  34  56  76  92 123 174 225 257 289
#     4   8  14  25  41  67  99 127 154 190 241 295
#     4   9  19  33  48  67  99 142 177 198 232 291
#     4  11  20  31  51  80 107 131 165 210 245 284
#     4   8  15  29  48  68  94 123 154 199 252 296
#
# _framework density 18.446648
#
# number of rings (size 3 to 8) (size 9 to 14) (size 15 to 20)
#    0.000    2.800    0.000    4.200    0.000    4.000 
#    0.000    1.000    0.000    6.000    0.000    5.600 
#    0.000    0.000    0.000    0.000    0.000    0.000 
#
# Total GULP energy -111544.155522 kJ/mol
# GULP energy per Si atom -5577.207776 kJ/mol
# Density = 1.840466 g / cm^3
# Si number density = 18.446648 Si / 1000 Ang^3
#
#
#
# Elastic Constant Matrix: (Units=GPa)
#
#
# Indices 1 2 3 4 5 6 
#
# 1 18.7467 16.3675 7.7526 0.0000 0.0000 0.0000
# 2 16.3675 206.7613 95.0983 0.0000 0.0000 0.0000
# 3 7.7526 95.0983 145.0522 0.0000 0.0000 0.0000
# 4 0.0000 0.0000 0.0000 5.0717 0.0000 0.0000
# 5 0.0000 0.0000 0.0000 0.0000 -3.5534 0.0000
# 6 0.0000 0.0000 0.0000 0.0000 0.0000 10.4550
#
#
#
# Elastic Compliance Matrix: (Units=1/GPa)
#
#
# Indices 1 2 3 4 5 6 
#
# 1 0.057305 -0.004478 -0.000127 0.000000 0.000000 0.000000
# 2 -0.004478 0.007274 -0.004530 0.000000 0.000000 0.000000
# 3 -0.000127 -0.004530 0.009871 0.000000 0.000000 0.000000
# 4 0.000000 0.000000 0.000000 0.197174 0.000000 0.000000
# 5 0.000000 0.000000 0.000000 0.000000 -0.281423 0.000000
# 6 0.000000 0.000000 0.000000 0.000000 0.000000 0.095648
#
#
# Mechanical properties :
#
#
# Convention : Reuss Voigt Hill
#
# Bulk Modulus (GPa) = 17.79984 67.66633 42.73309
# Shear Modulus (GPa) = 40.70162 19.15079 29.92620
#
# Velocity S-wave (km/s) = 4.70238 3.22556 4.03216
# Velocity P-wave (km/s) = 6.25728 7.11577 6.70029
#
# Compressibility (1/GPa) = 0.05618028
#
# Stress axis : x y z
#
# Youngs Moduli (GPa) = 17.45058 137.46707 101.30965
#
# Poissons Ratio (x) = 0.61557 0.01286
# Poissons Ratio (y) = 0.07814 0.45892
# Poissons Ratio (z) = 0.00222 0.62271
#
# Static dielectric constant tensor:
#      x y z
#    x 1.639330 0.000000 0.000000 
#    y 0.000000 1.635180 0.000000 
#    z 0.000000 0.000000 1.619870 
# 
# From -- ./inp_files/23326.got.cif
#   From: 2010.05.17/outbox.cif.g08.bks.cpg/sg38_12_cif.got.tgz:23326.got - 2010.06.03 18:07:57.
