data_PCOD9355154
_publ_section_title
;
Structure prediction by ZEFSAII (Michael W. Deem and Ramdas Pophale) SiO2 
 PCOD9355154
Probable space group: C C C 2
;
_chemical_formula_sum "Si O2"
_cell_formula_units_Z 40
_cell_length_a 8.314244
_cell_length_b 22.114033
_cell_length_c 9.098543
_cell_angle_alpha 90.000000
_cell_angle_beta 90.000000
_cell_angle_gamma 90.000000
_cell_volume 1672.871456
_symmetry_space_group_name_H-M "C C C 2"
_symmetry_group_IT_number 37
_symmetry_cell_setting 'orthorhombic'
loop_
_space_group_symop_operation_xyz
x,y,z
-x,-y,z
-x,y,1/2+z
x,-y,1/2+z
1/2+x,1/2+y,z
1/2-x,1/2-y,z
1/2-x,1/2+y,1/2+z
1/2+x,1/2-y,1/2+z
loop_
_atom_site_type_symbol
_atom_site_label
_atom_site_fract_x
_atom_site_fract_y
_atom_site_fract_z
Si Si1 0.344251 0.960294 0.828530
Si Si2 0.340854 0.670709 0.443698
Si Si3 0.499327 0.750387 0.695412
Si Si4 0.047359 0.665686 0.946056
Si Si5 0.359773 0.456747 0.044544
O O1 0.389483 0.901472 0.923396
O O2 0.254965 0.940469 0.680378
O O3 0.500000 0.000000 0.787793
O O4 0.234917 0.003960 0.925528
O O5 0.399424 0.711058 0.580070
O O6 0.401207 0.705035 0.298788
O O7 0.416325 0.604604 0.466454
O O8 0.148132 0.663750 0.442551
O O9 0.402639 0.792811 0.808730
O O10 0.594024 0.799081 0.593865
O O11 0.500000 0.500000 0.101776
#
# Coordination Sequence:
#
# PCOD9355154 Si02
#       5
#     8   8   8   8   8
#     4  12  27  49  82 111 150 209 261 318 387 463
#     4  11  25  48  73 108 159 195 260 320 390 467
#     4  10  23  44  73 110 150 200 245 322 392 457
#     4  11  24  48  75 110 150 196 264 318 380 470
#     4  12  29  50  76 116 159 204 259 326 394 464
#
# _framework density 23.910981
#
# number of rings (size 3 to 8) (size 9 to 14) (size 15 to 20)
#    0.000    0.800    2.000    4.800    8.400    0.000 
#    3.600    8.000    0.000    0.000    0.000    0.000 
#    0.000    0.000    0.000    0.000    0.000    0.000 
#
# Total GULP energy -112133.785916 kJ/mol
# GULP energy per Si atom -5606.689296 kJ/mol
# Density = 2.385656 g / cm^3
# Si number density = 23.910981 Si / 1000 Ang^3
#
#
#
# Elastic Constant Matrix: (Units=GPa)
#
#
# Indices 1 2 3 4 5 6 
#
# 1 49.4555 21.4597 16.3269 0.0000 0.0000 0.0000
# 2 21.4597 199.4677 55.3556 0.0000 0.0000 0.0000
# 3 16.3269 55.3556 154.2505 0.0000 0.0000 0.0000
# 4 0.0000 0.0000 0.0000 38.6612 0.0000 0.0000
# 5 0.0000 0.0000 0.0000 0.0000 27.6969 0.0000
# 6 0.0000 0.0000 0.0000 0.0000 0.0000 43.5680
#
#
#
# Elastic Compliance Matrix: (Units=1/GPa)
#
#
# Indices 1 2 3 4 5 6 
#
# 1 0.021565 -0.001873 -0.001610 0.000000 0.000000 0.000000
# 2 -0.001873 0.005731 -0.001858 0.000000 0.000000 0.000000
# 3 -0.001610 -0.001858 0.007320 0.000000 0.000000 0.000000
# 4 0.000000 0.000000 0.000000 0.025866 0.000000 0.000000
# 5 0.000000 0.000000 0.000000 0.000000 0.036105 0.000000
# 6 0.000000 0.000000 0.000000 0.000000 0.000000 0.022953
#
#
# Mechanical properties :
#
#
# Convention : Reuss Voigt Hill
#
# Bulk Modulus (GPa) = 41.78500 65.49532 53.64016
# Shear Modulus (GPa) = 36.17952 42.65399 39.41676
#
# Velocity S-wave (km/s) = 3.89407 4.22817 4.06455
# Velocity P-wave (km/s) = 6.14260 7.16152 6.67154
#
# Compressibility (1/GPa) = 0.02393203
#
# Stress axis : x y z
#
# Youngs Moduli (GPa) = 46.37223 174.50307 136.60690
#
# Poissons Ratio (x) = 0.32687 0.21998
# Poissons Ratio (y) = 0.08686 0.25385
# Poissons Ratio (z) = 0.07467 0.32427
#
# Static dielectric constant tensor:
#      x y z
#    x 2.005080 0.000000 0.000000 
#    y 0.000000 1.891440 0.000000 
#    z 0.000000 0.000000 1.866040 
# 
# From -- ./inp_files/2214.got.cif
#   From: 2010.05.17/outbox.cif.g08.bks.cpg/sg37_2_cif.got.tgz:2214.got - 2010.06.03 17:53:42.
