data_PCOD9355872
_publ_section_title
;
Structure prediction by ZEFSAII (Michael W. Deem and Ramdas Pophale) SiO2 
 PCOD9355872
Probable space group: A M M 2
;
_chemical_formula_sum "Si O2"
_cell_formula_units_Z 56
_cell_length_a 7.297177
_cell_length_b 19.834913
_cell_length_c 18.245216
_cell_angle_alpha 90.000000
_cell_angle_beta 90.000000
_cell_angle_gamma 90.000000
_cell_volume 2640.791964
_symmetry_space_group_name_H-M "A M M 2"
_symmetry_group_IT_number 38
_symmetry_cell_setting 'orthorhombic'
loop_
_space_group_symop_operation_xyz
x,y,z
-x,-y,z
-x,y,z
x,-y,z
x,1/2+y,1/2+z
-x,1/2-y,1/2+z
-x,1/2+y,1/2+z
x,1/2-y,1/2+z
loop_
_atom_site_type_symbol
_atom_site_label
_atom_site_fract_x
_atom_site_fract_y
_atom_site_fract_z
Si Si1 0.223479 0.923944 0.821850
Si Si2 0.779809 0.354017 0.174779
Si Si3 0.224124 0.787390 0.902328
Si Si4 0.792159 0.810206 0.520893
Si Si5 0.221338 0.215389 0.255547
Si Si6 0.210179 0.927236 0.237744
Si Si7 0.719907 0.073892 0.409796
O O1 0.283597 0.904742 0.738737
O O2 0.278681 0.862485 0.875984
O O3 0.000000 0.922765 0.821927
O O4 0.280056 0.000000 0.841166
O O5 0.710149 0.347625 0.091803
O O6 0.741483 0.280073 0.206858
O O7 0.000000 0.365475 0.171534
O O8 0.282857 0.736385 0.837059
O O9 0.000000 0.786748 0.903220
O O10 0.286095 0.755794 0.979675
O O11 0.796394 0.866627 0.458197
O O12 0.000000 0.791201 0.542507
O O13 0.292181 0.145869 0.221337
O O14 0.000000 0.208755 0.259849
O O15 0.211283 0.924936 0.326495
O O16 0.000000 0.928008 0.211654
O O17 0.291919 0.000000 0.216906
O O18 0.500000 0.079766 0.407174
O O19 0.766347 0.000000 0.440639
#
# Coordination Sequence:
#
# PCOD9355872 Si02
#       7
#     8   8   8   8   8   8   8
#     4   8  13  22  35  54  82 111 136 165 206 250
#     4   8  15  23  36  59  84 107 133 170 211 243
#     4   8  13  21  36  56  77 104 136 169 203 237
#     4  10  17  27  43  63  83 108 143 176 204 244
#     4   8  12  22  37  56  81 104 130 168 207 240
#     4   9  15  24  42  63  80 105 140 170 198 241
#     4  10  20  30  39  57  87 115 135 164 210 252
#
# _framework density 21.205760999999999
#
# number of rings (size 3 to 8) (size 9 to 14) (size 15 to 20)
#    0.000    3.286    1.429    2.143    0.000    1.429 
#    0.000    1.429    0.000    1.714    0.000    6.000 
#    0.000    0.571    0.000    0.000    0.000    0.000 
#
# Total GULP energy -155881.144621 kJ/mol
# GULP energy per Si atom -5567.183736 kJ/mol
# Density = 2.115750 g / cm^3
# Si number density = 21.205761 Si / 1000 Ang^3
#
#
#
# Elastic Constant Matrix: (Units=GPa)
#
#
# Indices 1 2 3 4 5 6 
#
# 1 89.2004 0.7845 -2.5941 0.0000 0.0000 0.0000
# 2 0.7845 129.1105 -4.1595 0.0000 0.0000 0.0000
# 3 -2.5941 -4.1595 35.9081 0.0000 0.0000 0.0000
# 4 0.0000 0.0000 0.0000 14.4394 0.0000 0.0000
# 5 0.0000 0.0000 0.0000 0.0000 150.7939 0.0000
# 6 0.0000 0.0000 0.0000 0.0000 0.0000 -94.6692
#
#
#
# Elastic Compliance Matrix: (Units=1/GPa)
#
#
# Indices 1 2 3 4 5 6 
#
# 1 0.011235 -0.000042 0.000807 0.000000 0.000000 0.000000
# 2 -0.000042 0.007774 0.000898 0.000000 0.000000 0.000000
# 3 0.000807 0.000898 0.028011 0.000000 0.000000 0.000000
# 4 0.000000 0.000000 0.000000 0.069255 0.000000 0.000000
# 5 0.000000 0.000000 0.000000 0.000000 0.006632 0.000000
# 6 0.000000 0.000000 0.000000 0.000000 0.000000 -0.010563
#
#
# Mechanical properties :
#
#
# Convention : Reuss Voigt Hill
#
# Bulk Modulus (GPa) = 19.86333 26.92010 23.39171
# Shear Modulus (GPa) = 39.74528 31.45868 35.60198
#
# Velocity S-wave (km/s) = 4.33398 3.85580 4.10186
# Velocity P-wave (km/s) = 5.86786 5.70484 5.78692
#
# Compressibility (1/GPa) = 0.05034404
#
# Stress axis : x y z
#
# Youngs Moduli (GPa) = 89.01115 128.62607 35.70013
#
# Poissons Ratio (x) = 0.00544 -0.02880
# Poissons Ratio (y) = 0.00376 -0.03204
# Poissons Ratio (z) = -0.07181 -0.11544
#
# Static dielectric constant tensor:
#      x y z
#    x 1.699620 0.000000 0.000000 
#    y 0.000000 1.808580 0.000000 
#    z 0.000000 0.000000 1.758140 
# 
# From -- ./inp_files/17087.got.cif
#   From: 2010.05.17/outbox.cif.g08.bks.cpg/sg38_9_cif.got.tgz:17087.got - 2010.06.03 18:07:57.
