data_PCOD9355910
_publ_section_title
;
Structure prediction by ZEFSAII (Michael W. Deem and Ramdas Pophale) SiO2 
 PCOD9355910
Probable space group: A M M 2
;
_chemical_formula_sum "Si O2"
_cell_formula_units_Z 38
_cell_length_a 11.219618
_cell_length_b 10.889300
_cell_length_c 14.059890
_cell_angle_alpha 90.000000
_cell_angle_beta 90.000000
_cell_angle_gamma 90.000000
_cell_volume 1717.749996
_symmetry_space_group_name_H-M "A M M 2"
_symmetry_group_IT_number 38
_symmetry_cell_setting 'orthorhombic'
loop_
_space_group_symop_operation_xyz
x,y,z
-x,-y,z
-x,y,z
x,-y,z
x,1/2+y,1/2+z
-x,1/2-y,1/2+z
-x,1/2+y,1/2+z
x,1/2-y,1/2+z
loop_
_atom_site_type_symbol
_atom_site_label
_atom_site_fract_x
_atom_site_fract_y
_atom_site_fract_z
Si Si1 0.360715 0.000000 0.197480
Si Si2 0.788357 0.000000 0.941765
Si Si3 0.360599 0.000000 0.429276
Si Si4 0.000000 0.500000 0.586586
Si Si5 0.857839 0.500000 0.217716
Si Si6 0.756171 0.245681 0.231410
Si Si7 0.638423 0.235653 0.924653
Si Si8 0.000000 0.862093 0.273674
O O1 0.357568 0.000000 0.313731
O O2 0.289911 0.126073 0.174277
O O3 0.500000 0.000000 0.168185
O O4 0.890619 0.000000 0.017615
O O5 0.709567 0.880656 0.957610
O O6 0.837465 0.000000 0.833015
O O7 0.312023 0.132204 0.458488
O O8 0.500000 0.000000 0.456169
O O9 0.000000 0.613648 0.659629
O O10 0.794312 0.373954 0.183646
O O11 0.000000 0.500000 0.198544
O O12 0.654176 0.268736 0.309788
O O13 0.876401 0.206525 0.290065
O O14 0.500000 0.227970 0.949347
O O15 0.000000 0.000000 0.315955
#
# Coordination Sequence:
#
# PCOD9355910 Si02
#       8
#     4   4   4   2   4   8   8   4
#     4   9  15  26  43  65 100 137 163 196 251 318
#     4  10  19  32  51  70 107 140 179 219 265 303
#     4   7  12  23  38  65  97 122 147 183 247 317
#     4  10  22  36  50  72 100 152 198 232 240 282
#     4  10  18  27  47  76 106 128 161 210 286 336
#     4  10  17  29  48  75 104 131 169 217 275 331
#     4   9  17  28  50  78 105 132 163 213 278 333
#     4  10  20  32  50  72  98 138 188 219 255 296
#
# _framework density 22.121960999999999
#
# number of rings (size 3 to 8) (size 9 to 14) (size 15 to 20)
#    0.316    2.316    2.632    2.211    0.000    0.000 
#    0.000    1.579    0.000   10.105    0.000    0.000 
#    0.000    3.368    0.000    0.000    0.000    0.000 
#
# Total GULP energy -105927.664502 kJ/mol
# GULP energy per Si atom -5575.140237 kJ/mol
# Density = 2.207161 g / cm^3
# Si number density = 22.121961 Si / 1000 Ang^3
#
#
#
# Elastic Constant Matrix: (Units=GPa)
#
#
# Indices 1 2 3 4 5 6 
#
# 1 103.7892 70.8962 11.5278 0.0000 0.0000 0.0000
# 2 70.8962 243.2374 6.9151 0.0000 0.0000 0.0000
# 3 11.5278 6.9151 51.4727 0.0000 0.0000 0.0000
# 4 0.0000 0.0000 0.0000 -11.9032 0.0000 0.0000
# 5 0.0000 0.0000 0.0000 0.0000 7.8540 0.0000
# 6 0.0000 0.0000 0.0000 0.0000 0.0000 36.8826
#
#
#
# Elastic Compliance Matrix: (Units=1/GPa)
#
#
# Indices 1 2 3 4 5 6 
#
# 1 0.012291 -0.003518 -0.002280 0.000000 0.000000 0.000000
# 2 -0.003518 0.005134 0.000098 0.000000 0.000000 0.000000
# 3 -0.002280 0.000098 0.019925 0.000000 0.000000 0.000000
# 4 0.000000 0.000000 0.000000 -0.084011 0.000000 0.000000
# 5 0.000000 0.000000 0.000000 0.000000 0.127324 0.000000
# 6 0.000000 0.000000 0.000000 0.000000 0.000000 0.027113
#
#
# Mechanical properties :
#
#
# Convention : Reuss Voigt Hill
#
# Bulk Modulus (GPa) = 38.53462 64.13086 51.33274
# Shear Modulus (GPa) = 39.11574 27.17734 33.14654
#
# Velocity S-wave (km/s) = 4.20954 3.50883 3.87506
# Velocity P-wave (km/s) = 6.40968 6.74303 6.57847
#
# Compressibility (1/GPa) = 0.02595069
#
# Stress axis : x y z
#
# Youngs Moduli (GPa) = 81.36055 194.79140 50.18763
#
# Poissons Ratio (x) = 0.68520 0.11443
# Poissons Ratio (y) = 0.28620 -0.00492
# Poissons Ratio (z) = 0.18551 -0.01911
#
# Static dielectric constant tensor:
#      x y z
#    x 1.776570 0.000000 0.000000 
#    y 0.000000 1.878600 0.000000 
#    z 0.000000 0.000000 1.790870 
# 
# From -- ./inp_files/16367.got.cif
#   From: 2010.05.17/outbox.cif.g08.bks.cpg/sg38_9_cif.got.tgz:16367.got - 2010.06.03 18:07:57.
