data_PCOD9355473
_publ_section_title
;
Structure prediction by ZEFSAII (Michael W. Deem and Ramdas Pophale) SiO2 
 PCOD9355473
Probable space group: C C C 2
;
_chemical_formula_sum "Si O2"
_cell_formula_units_Z 36
_cell_length_a 11.992273
_cell_length_b 9.124643
_cell_length_c 15.846492
_cell_angle_alpha 90.000000
_cell_angle_beta 90.000000
_cell_angle_gamma 90.000000
_cell_volume 1734.005713
_symmetry_space_group_name_H-M "C C C 2"
_symmetry_group_IT_number 37
_symmetry_cell_setting 'orthorhombic'
loop_
_space_group_symop_operation_xyz
x,y,z
-x,-y,z
-x,y,1/2+z
x,-y,1/2+z
1/2+x,1/2+y,z
1/2-x,1/2-y,z
1/2-x,1/2+y,1/2+z
1/2+x,1/2-y,1/2+z
loop_
_atom_site_type_symbol
_atom_site_label
_atom_site_fract_x
_atom_site_fract_y
_atom_site_fract_z
Si Si1 0.056792 0.660271 0.097030
Si Si2 0.657893 0.639564 0.124525
Si Si3 0.750000 0.750000 0.723879
Si Si4 0.384600 0.592879 0.986473
Si Si5 0.634019 0.483987 0.803357
O O1 0.155809 0.671602 0.165535
O O2 0.000000 0.500000 0.090601
O O3 0.960508 0.778366 0.119790
O O4 0.102111 0.737051 0.011481
O O5 0.750000 0.750000 0.091013
O O6 0.674736 0.606819 0.222588
O O7 0.665129 0.493752 0.067209
O O8 0.685698 0.640625 0.784763
O O9 0.500000 0.500000 0.976950
O O10 0.331460 0.574973 0.894734
O O11 0.500000 0.500000 0.797212
#
# Coordination Sequence:
#
# PCOD9355473 Si02
#       5
#     8   8   4   8   8
#     4  11  23  42  67 101 136 177 227 278 344 404
#     4  11  21  42  65  95 135 181 220 281 340 402
#     4  12  22  40  74 102 132 186 224 290 334 408
#     4   9  21  41  68  94 133 181 223 281 340 406
#     4  11  21  42  67  96 135 175 227 277 343 404
#
# _framework density 20.761178000000001
#
# number of rings (size 3 to 8) (size 9 to 14) (size 15 to 20)
#    0.000    1.333    4.444    2.000    1.556    0.000 
#    2.000    1.111    0.000    0.000    0.000    0.000 
#    0.000    0.000    0.000    0.000    0.000    0.000 
#
# Total GULP energy -100425.773044 kJ/mol
# GULP energy per Si atom -5579.209614 kJ/mol
# Density = 2.071392 g / cm^3
# Si number density = 20.761178 Si / 1000 Ang^3
#
#
#
# Elastic Constant Matrix: (Units=GPa)
#
#
# Indices 1 2 3 4 5 6 
#
# 1 76.8208 33.2606 22.4777 0.0000 0.0000 0.0000
# 2 33.2606 143.9915 72.4018 0.0000 0.0000 0.0000
# 3 22.4777 72.4018 166.4412 0.0000 0.0000 0.0000
# 4 0.0000 0.0000 0.0000 12.6003 0.0000 0.0000
# 5 0.0000 0.0000 0.0000 0.0000 3.1018 0.0000
# 6 0.0000 0.0000 0.0000 0.0000 0.0000 47.6035
#
#
#
# Elastic Compliance Matrix: (Units=1/GPa)
#
#
# Indices 1 2 3 4 5 6 
#
# 1 0.014517 -0.003030 -0.000642 0.000000 0.000000 0.000000
# 2 -0.003030 0.009522 -0.003733 0.000000 0.000000 0.000000
# 3 -0.000642 -0.003733 0.007719 0.000000 0.000000 0.000000
# 4 0.000000 0.000000 0.000000 0.079363 0.000000 0.000000
# 5 0.000000 0.000000 0.000000 0.000000 0.322390 0.000000
# 6 0.000000 0.000000 0.000000 0.000000 0.000000 0.021007
#
#
# Mechanical properties :
#
#
# Convention : Reuss Voigt Hill
#
# Bulk Modulus (GPa) = 59.00815 71.50374 65.25594
# Shear Modulus (GPa) = 10.52683 29.93536 20.23109
#
# Velocity S-wave (km/s) = 2.25421 3.80134 3.12503
# Velocity P-wave (km/s) = 5.93796 7.33368 6.67241
#
# Compressibility (1/GPa) = 0.01694681
#
# Stress axis : x y z
#
# Youngs Moduli (GPa) = 68.88331 105.02313 129.55735
#
# Poissons Ratio (x) = 0.31826 0.08322
# Poissons Ratio (y) = 0.20874 0.48360
# Poissons Ratio (z) = 0.04425 0.39202
#
# Static dielectric constant tensor:
#      x y z
#    x 1.776590 0.000000 0.000000 
#    y 0.000000 1.950650 0.000000 
#    z 0.000000 0.000000 1.746660 
# 
# From -- ./inp_files/10250.got.cif
#   From: 2010.05.17/outbox.cif.g08.bks.cpg/sg37_6_cif.got.tgz:10250.got - 2010.06.03 17:53:42.
