data_PCOD9355601
_publ_section_title
;
Structure prediction by ZEFSAII (Michael W. Deem and Ramdas Pophale) SiO2 
 PCOD9355601
Probable space group: C C C 2
;
_chemical_formula_sum "Si O2"
_cell_formula_units_Z 48
_cell_length_a 8.533302
_cell_length_b 16.983542
_cell_length_c 16.702914
_cell_angle_alpha 90.000000
_cell_angle_beta 90.000000
_cell_angle_gamma 90.000000
_cell_volume 2420.681385
_symmetry_space_group_name_H-M "C C C 2"
_symmetry_group_IT_number 37
_symmetry_cell_setting 'orthorhombic'
loop_
_space_group_symop_operation_xyz
x,y,z
-x,-y,z
-x,y,1/2+z
x,-y,1/2+z
1/2+x,1/2+y,z
1/2-x,1/2-y,z
1/2-x,1/2+y,1/2+z
1/2+x,1/2-y,1/2+z
loop_
_atom_site_type_symbol
_atom_site_label
_atom_site_fract_x
_atom_site_fract_y
_atom_site_fract_z
Si Si1 0.314271 0.166424 0.112480
Si Si2 0.184627 0.166529 0.932786
Si Si3 0.575188 0.216911 0.218146
Si Si4 0.332866 0.457743 0.230641
Si Si5 0.116870 0.183548 0.340678
Si Si6 0.379792 0.934170 0.318479
O O1 0.250000 0.250000 0.142706
O O2 0.495158 0.180200 0.138087
O O3 0.230665 0.096551 0.159661
O O4 0.258327 0.160392 0.021050
O O5 0.250000 0.250000 0.900110
O O6 0.253488 0.094290 0.882835
O O7 0.999085 0.172842 0.916503
O O8 0.750000 0.250000 0.204442
O O9 0.486810 0.287470 0.264520
O O10 0.552416 0.146039 0.282191
O O11 0.500000 0.500000 0.219674
O O12 0.327435 0.401767 0.309716
O O13 0.208928 0.526108 0.244912
O O14 0.250000 0.250000 0.353953
O O15 0.500000 0.000000 0.349248
#
# Coordination Sequence:
#
# PCOD9355601 Si02
#       6
#     8   8   8   8   8   8
#     4  11  24  44  66  93 137 176 222 287 338 393
#     4  11  24  44  66  93 137 176 222 287 338 393
#     4  12  20  40  72  94 123 177 232 268 323 414
#     4  12  22  38  67  96 128 170 221 274 334 404
#     4  12  20  40  72  94 123 177 232 268 323 414
#     4  12  22  38  67  96 128 170 221 274 334 404
#
# _framework density 19.829128000000001
#
# number of rings (size 3 to 8) (size 9 to 14) (size 15 to 20)
#    0.000    0.333   10.000    0.000    0.000    0.000 
#    6.000    3.333    0.000    0.000    0.000    0.000 
#    0.000    0.000    0.000    0.000    0.000    0.000 
#
# Total GULP energy -133726.806861 kJ/mol
# GULP energy per Si atom -5571.950286 kJ/mol
# Density = 1.978400 g / cm^3
# Si number density = 19.829128 Si / 1000 Ang^3
#
#
#
# Elastic Constant Matrix: (Units=GPa)
#
#
# Indices 1 2 3 4 5 6 
#
# 1 118.6094 29.9551 36.8411 0.0000 0.0000 0.0000
# 2 29.9551 90.0303 14.3690 0.0000 0.0000 0.0000
# 3 36.8411 14.3690 81.9442 0.0000 0.0000 0.0000
# 4 0.0000 0.0000 0.0000 23.9141 0.0000 0.0000
# 5 0.0000 0.0000 0.0000 0.0000 23.9785 0.0000
# 6 0.0000 0.0000 0.0000 0.0000 0.0000 48.0840
#
#
#
# Elastic Compliance Matrix: (Units=1/GPa)
#
#
# Indices 1 2 3 4 5 6 
#
# 1 0.010445 -0.002804 -0.004204 0.000000 0.000000 0.000000
# 2 -0.002804 0.012180 -0.000875 0.000000 0.000000 0.000000
# 3 -0.004204 -0.000875 0.014247 0.000000 0.000000 0.000000
# 4 0.000000 0.000000 0.000000 0.041816 0.000000 0.000000
# 5 0.000000 0.000000 0.000000 0.000000 0.041704 0.000000
# 6 0.000000 0.000000 0.000000 0.000000 0.000000 0.020797
#
#
# Mechanical properties :
#
#
# Convention : Reuss Voigt Hill
#
# Bulk Modulus (GPa) = 47.38195 50.32382 48.85289
# Shear Modulus (GPa) = 30.48933 33.15657 31.82295
#
# Velocity S-wave (km/s) = 3.92548 4.09359 4.01041
# Velocity P-wave (km/s) = 6.67030 6.91210 6.79227
#
# Compressibility (1/GPa) = 0.02110508
#
# Stress axis : x y z
#
# Youngs Moduli (GPa) = 95.73814 82.10121 70.19003
#
# Poissons Ratio (x) = 0.23024 0.29510
# Poissons Ratio (y) = 0.26848 0.06142
# Poissons Ratio (z) = 0.40251 0.07184
#
# Static dielectric constant tensor:
#      x y z
#    x 1.792170 0.000000 0.000000 
#    y 0.000000 1.693600 0.000000 
#    z 0.000000 0.000000 1.700010 
# 
# From -- ./inp_files/14527.got.cif
#   From: 2010.05.17/outbox.cif.g08.bks.cpg/sg37_8_cif.got.tgz:14527.got - 2010.06.03 17:53:42.
