data_PCOD9355644
_publ_section_title
;
Structure prediction by ZEFSAII (Michael W. Deem and Ramdas Pophale) SiO2 
 PCOD9355644
Probable space group: C C C 2
;
_chemical_formula_sum "Si O2"
_cell_formula_units_Z 60
_cell_length_a 12.308825
_cell_length_b 8.188985
_cell_length_c 26.467112
_cell_angle_alpha 90.000000
_cell_angle_beta 90.000000
_cell_angle_gamma 90.000000
_cell_volume 2667.799753
_symmetry_space_group_name_H-M "C C C 2"
_symmetry_group_IT_number 37
_symmetry_cell_setting 'orthorhombic'
loop_
_space_group_symop_operation_xyz
x,y,z
-x,-y,z
-x,y,1/2+z
x,-y,1/2+z
1/2+x,1/2+y,z
1/2-x,1/2-y,z
1/2-x,1/2+y,1/2+z
1/2+x,1/2-y,1/2+z
loop_
_atom_site_type_symbol
_atom_site_label
_atom_site_fract_x
_atom_site_fract_y
_atom_site_fract_z
Si Si1 0.413529 0.357891 0.581150
Si Si2 0.167480 0.102754 0.343364
Si Si3 0.500000 0.000000 0.323616
Si Si4 0.606981 0.081486 0.158015
Si Si5 0.933569 0.796020 0.883823
Si Si6 0.461966 0.177469 0.991279
Si Si7 0.210773 0.583322 0.567599
Si Si8 0.716002 0.939619 0.760145
O O1 0.500000 0.500000 0.588665
O O2 0.400666 0.261731 0.633919
O O3 0.460162 0.248016 0.535210
O O4 0.302586 0.446129 0.563950
O O5 0.250000 0.250000 0.358937
O O6 0.045152 0.160728 0.353623
O O7 0.161368 0.925856 0.371712
O O8 0.193485 0.054102 0.285756
O O9 0.429596 0.886977 0.363040
O O10 0.396285 0.010631 0.284863
O O11 0.699059 0.060206 0.200029
O O12 0.500000 0.000000 0.180597
O O13 0.624892 0.982200 0.106851
O O14 0.954598 0.794738 0.943461
O O15 0.346191 0.140888 0.016639
O O16 0.500000 0.000000 0.974244
O O17 0.250000 0.750000 0.592289
O O18 0.750000 0.750000 0.772538
#
# Coordination Sequence:
#
# PCOD9355644 Si02
#       8
#     8   8   4   8   8   8   8   8
#     4  12  24  46  72 107 151 191 249 312 373 468
#     4  11  25  47  73 104 150 195 253 315 384 462
#     4  12  22  46  68 100 146 180 236 322 360 444
#     4  12  24  47  75 106 151 196 249 320 384 454
#     4  11  26  48  73 106 151 193 251 320 382 459
#     4  12  25  48  74 106 150 201 251 309 390 454
#     4  12  24  45  71 106 148 195 245 304 372 463
#     4  12  25  45  73 106 139 199 248 310 391 456
#
# _framework density 22.490442999999999
#
# number of rings (size 3 to 8) (size 9 to 14) (size 15 to 20)
#    0.000    0.267    8.000    1.200    1.867    0.533 
#    9.600    2.667    0.000    0.000    0.000    0.000 
#    0.000    0.000    0.000    0.000    0.000    0.000 
#
# Total GULP energy -167084.284003 kJ/mol
# GULP energy per Si atom -5569.476133 kJ/mol
# Density = 2.243925 g / cm^3
# Si number density = 22.490443 Si / 1000 Ang^3
#
#
#
# Elastic Constant Matrix: (Units=GPa)
#
#
# Indices 1 2 3 4 5 6 
#
# 1 108.2148 39.2453 47.1601 0.0000 0.0000 0.0000
# 2 39.2453 100.1001 39.9164 0.0000 0.0000 0.0000
# 3 47.1601 39.9164 144.9658 0.0000 0.0000 0.0000
# 4 0.0000 0.0000 0.0000 30.7760 0.0000 0.0000
# 5 0.0000 0.0000 0.0000 0.0000 54.6198 0.0000
# 6 0.0000 0.0000 0.0000 0.0000 0.0000 47.9958
#
#
#
# Elastic Compliance Matrix: (Units=1/GPa)
#
#
# Indices 1 2 3 4 5 6 
#
# 1 0.011746 -0.003462 -0.002868 0.000000 0.000000 0.000000
# 2 -0.003462 0.012242 -0.002245 0.000000 0.000000 0.000000
# 3 -0.002868 -0.002245 0.008449 0.000000 0.000000 0.000000
# 4 0.000000 0.000000 0.000000 0.032493 0.000000 0.000000
# 5 0.000000 0.000000 0.000000 0.000000 0.018308 0.000000
# 6 0.000000 0.000000 0.000000 0.000000 0.000000 0.020835
#
#
# Mechanical properties :
#
#
# Convention : Reuss Voigt Hill
#
# Bulk Modulus (GPa) = 65.40700 67.32494 66.36597
# Shear Modulus (GPa) = 39.58221 41.80891 40.69556
#
# Velocity S-wave (km/s) = 4.19974 4.31625 4.25839
# Velocity P-wave (km/s) = 7.25688 7.40540 7.33151
#
# Compressibility (1/GPa) = 0.01528888
#
# Stress axis : x y z
#
# Youngs Moduli (GPa) = 85.13421 81.68413 118.35238
#
# Poissons Ratio (x) = 0.28275 0.33945
# Poissons Ratio (y) = 0.29469 0.26568
# Poissons Ratio (z) = 0.24417 0.18337
#
# Static dielectric constant tensor:
#      x y z
#    x 1.909790 0.000000 0.000000 
#    y 0.000000 1.979900 0.000000 
#    z 0.000000 0.000000 1.821460 
# 
# From -- ./inp_files/19772.got.cif
#   From: 2010.05.17/outbox.cif.g08.bks.cpg/sg37_10_cif.got.tgz:19772.got - 2010.06.03 17:53:42.
