data_PCOD9355790
_publ_section_title
;
Structure prediction by ZEFSAII (Michael W. Deem and Ramdas Pophale) SiO2 
 PCOD9355790
Probable space group: A M M 2
;
_chemical_formula_sum "Si O2"
_cell_formula_units_Z 40
_cell_length_a 9.500934
_cell_length_b 26.796440
_cell_length_c 7.161856
_cell_angle_alpha 90.000000
_cell_angle_beta 90.000000
_cell_angle_gamma 90.000000
_cell_volume 1823.345570
_symmetry_space_group_name_H-M "A M M 2"
_symmetry_group_IT_number 38
_symmetry_cell_setting 'orthorhombic'
loop_
_space_group_symop_operation_xyz
x,y,z
-x,-y,z
-x,y,z
x,-y,z
x,1/2+y,1/2+z
-x,1/2-y,1/2+z
-x,1/2+y,1/2+z
x,1/2-y,1/2+z
loop_
_atom_site_type_symbol
_atom_site_label
_atom_site_fract_x
_atom_site_fract_y
_atom_site_fract_z
Si Si1 0.667807 0.500000 0.127921
Si Si2 0.661536 0.186869 0.735051
Si Si3 0.161017 0.405138 0.181026
Si Si4 0.341429 0.201601 0.293503
Si Si5 0.159012 0.610119 0.726844
Si Si6 0.169399 0.500000 0.737474
O O1 0.500000 0.500000 0.131417
O O2 0.735920 0.548916 0.216560
O O3 0.728578 0.500000 0.916648
O O4 0.500000 0.179046 0.802546
O O5 0.771503 0.143301 0.775618
O O6 0.651549 0.187443 0.510170
O O7 0.715071 0.241985 0.787723
O O8 0.000000 0.414965 0.235877
O O9 0.159115 0.397393 0.954314
O O10 0.500000 0.205301 0.218203
O O11 0.258727 0.157301 0.193085
O O12 0.194037 0.554737 0.648224
O O13 0.000000 0.622630 0.672383
O O14 0.000000 0.500000 0.787622
#
# Coordination Sequence:
#
# PCOD9355790 Si02
#       6
#     4   8   8   8   8   4
#     4  10  16  22  36  58  83 110 137 168 208 254
#     4   9  17  29  43  61  84 111 140 173 209 247
#     4   9  16  26  39  57  82 110 138 172 209 247
#     4   9  17  28  42  60  84 110 138 171 208 246
#     4   8  14  24  38  56  80 107 135 167 207 248
#     4   8  14  24  36  54  81 110 137 170 210 250
#
# _framework density 21.937695999999999
#
# number of rings (size 3 to 8) (size 9 to 14) (size 15 to 20)
#    0.000    3.200    0.000    2.700    0.000    5.600 
#    0.000    0.000    0.000    0.000    0.000    1.400 
#    0.000    9.600    0.000    0.000    0.000    0.000 
#
# Total GULP energy -111551.593513 kJ/mol
# GULP energy per Si atom -5577.579676 kJ/mol
# Density = 2.188777 g / cm^3
# Si number density = 21.937696 Si / 1000 Ang^3
#
#
#
# Elastic Constant Matrix: (Units=GPa)
#
#
# Indices 1 2 3 4 5 6 
#
# 1 135.9196 107.3163 3.9322 0.0000 0.0000 0.0000
# 2 107.3163 182.6029 -36.2352 0.0000 0.0000 0.0000
# 3 3.9322 -36.2352 52.2069 0.0000 0.0000 0.0000
# 4 0.0000 0.0000 0.0000 14.3124 0.0000 0.0000
# 5 0.0000 0.0000 0.0000 0.0000 1.9104 0.0000
# 6 0.0000 0.0000 0.0000 0.0000 0.0000 33.9434
#
#
#
# Elastic Compliance Matrix: (Units=1/GPa)
#
#
# Indices 1 2 3 4 5 6 
#
# 1 0.017032 -0.011904 -0.009545 0.000000 0.000000 0.000000
# 2 -0.011904 0.014671 0.011079 0.000000 0.000000 0.000000
# 3 -0.009545 0.011079 0.027563 0.000000 0.000000 0.000000
# 4 0.000000 0.000000 0.000000 0.069869 0.000000 0.000000
# 5 0.000000 0.000000 0.000000 0.000000 0.523463 0.000000
# 6 0.000000 0.000000 0.000000 0.000000 0.000000 0.029461
#
#
# Mechanical properties :
#
#
# Convention : Reuss Voigt Hill
#
# Bulk Modulus (GPa) = 25.95597 57.86179 41.90888
# Shear Modulus (GPa) = 6.98673 29.74763 18.36718
#
# Velocity S-wave (km/s) = 1.78654 3.68639 2.89665
# Velocity P-wave (km/s) = 4.01410 6.67474 5.50750
#
# Compressibility (1/GPa) = 0.03852679
#
# Stress axis : x y z
#
# Youngs Moduli (GPa) = 58.71151 68.16160 36.28008
#
# Poissons Ratio (x) = 0.81141 0.34630
# Poissons Ratio (y) = 0.69891 -0.40196
# Poissons Ratio (z) = 0.56041 -0.75519
#
# Static dielectric constant tensor:
#      x y z
#    x 1.745350 0.000000 0.000000 
#    y 0.000000 1.823760 0.000000 
#    z 0.000000 0.000000 1.903520 
# 
# From -- ./inp_files/8191.got.cif
#   From: 2010.05.17/outbox.cif.g08.bks.cpg/sg38_5_cif.got.tgz:8191.got - 2010.06.03 18:07:57.
