data_PCOD9355600
_publ_section_title
;
Structure prediction by ZEFSAII (Michael W. Deem and Ramdas Pophale) SiO2 
 PCOD9355600
Probable space group: C C C 2
;
_chemical_formula_sum "Si O2"
_cell_formula_units_Z 48
_cell_length_a 13.738274
_cell_length_b 13.186173
_cell_length_c 12.879367
_cell_angle_alpha 90.000000
_cell_angle_beta 90.000000
_cell_angle_gamma 90.000000
_cell_volume 2333.165048
_symmetry_space_group_name_H-M "C C C 2"
_symmetry_group_IT_number 37
_symmetry_cell_setting 'orthorhombic'
loop_
_space_group_symop_operation_xyz
x,y,z
-x,-y,z
-x,y,1/2+z
x,-y,1/2+z
1/2+x,1/2+y,z
1/2-x,1/2-y,z
1/2-x,1/2+y,1/2+z
1/2+x,1/2-y,1/2+z
loop_
_atom_site_type_symbol
_atom_site_label
_atom_site_fract_x
_atom_site_fract_y
_atom_site_fract_z
Si Si1 0.579794 0.752988 0.594360
Si Si2 0.750000 0.750000 0.066146
Si Si3 0.927532 0.734486 0.929100
Si Si4 0.024143 0.117092 0.262220
Si Si5 0.257870 0.889114 0.754557
Si Si6 0.250000 0.250000 0.442921
Si Si7 0.900901 0.430740 0.257745
O O1 0.501056 0.798573 0.517323
O O2 0.528441 0.665163 0.661568
O O3 0.666279 0.713246 0.521040
O O4 0.608700 0.844944 0.669344
O O5 0.711106 0.833798 0.147679
O O6 0.835971 0.782405 0.989167
O O7 0.901459 0.636530 0.861729
O O8 0.981752 0.815658 0.856019
O O9 0.140999 0.121273 0.254898
O O10 0.000000 0.000000 0.275464
O O11 0.290055 0.833198 0.861168
O O12 0.307154 0.997600 0.754829
O O13 0.000000 0.500000 0.249712
#
# Coordination Sequence:
#
# PCOD9355600 Si02
#       7
#     8   4   8   8   8   4   8
#     4  11  24  46  69 100 136 182 228 284 350 410
#     4  11  24  43  72  94 138 181 228 285 348 412
#     4  11  24  46  69 100 136 182 228 284 350 410
#     4  11  26  45  67  97 144 180 228 284 344 416
#     4  11  24  45  68 104 134 181 231 284 347 412
#     4  11  24  43  72  94 138 181 228 285 348 412
#     4  11  26  42  70 101 139 173 231 292 337 412
#
# _framework density 20.572913
#
# number of rings (size 3 to 8) (size 9 to 14) (size 15 to 20)
#    0.000    1.000    3.333    2.000    9.333    6.667 
#    0.000    0.000    0.000    0.000    0.000    0.000 
#    0.000    0.000    0.000    0.000    0.000    0.000 
#
# Total GULP energy -134025.965930 kJ/mol
# GULP energy per Si atom -5584.415247 kJ/mol
# Density = 2.052609 g / cm^3
# Si number density = 20.572913 Si / 1000 Ang^3
#
#
#
# Elastic Constant Matrix: (Units=GPa)
#
#
# Indices 1 2 3 4 5 6 
#
# 1 97.0357 14.4504 24.9241 0.0000 0.0000 0.0000
# 2 14.4504 79.5862 -22.8378 0.0000 0.0000 0.0000
# 3 24.9241 -22.8378 35.3431 0.0000 0.0000 0.0000
# 4 0.0000 0.0000 0.0000 -0.3072 0.0000 0.0000
# 5 0.0000 0.0000 0.0000 0.0000 28.7020 0.0000
# 6 0.0000 0.0000 0.0000 0.0000 0.0000 36.7838
#
#
#
# Elastic Compliance Matrix: (Units=1/GPa)
#
#
# Indices 1 2 3 4 5 6 
#
# 1 0.015371 -0.007245 -0.015521 0.000000 0.000000 0.000000
# 2 -0.007245 0.018840 0.017283 0.000000 0.000000 0.000000
# 3 -0.015521 0.017283 0.050408 0.000000 0.000000 0.000000
# 4 0.000000 0.000000 0.000000 -3.255654 0.000000 0.000000
# 5 0.000000 0.000000 0.000000 0.000000 0.034841 0.000000
# 6 0.000000 0.000000 0.000000 0.000000 0.000000 0.027186
#
#
# Mechanical properties :
#
#
# Convention : Reuss Voigt Hill
#
# Bulk Modulus (GPa) = 13.57727 27.22647 20.40187
# Shear Modulus (GPa) = -1.62681 26.06427 12.21873
#
# Velocity S-wave (km/s) = -0.89021 3.56325 2.43970
# Velocity P-wave (km/s) = 2.35739 5.49471 4.22783
#
# Compressibility (1/GPa) = 0.07365251
#
# Stress axis : x y z
#
# Youngs Moduli (GPa) = 65.05727 53.07877 19.83829
#
# Poissons Ratio (x) = 0.38455 0.30791
# Poissons Ratio (y) = 0.47133 -0.34287
# Poissons Ratio (z) = 1.00977 -0.91736
#
# Static dielectric constant tensor:
#      x y z
#    x 1.789710 0.000000 0.000000 
#    y 0.000000 1.705480 0.000000 
#    z 0.000000 0.000000 1.746770 
# 
# From -- ./inp_files/7808.got.cif
#   From: 2010.05.17/outbox.cif.g08.bks.cpg/sg37_4_cif.got.tgz:7808.got - 2010.06.03 17:53:42.
