data_PCOD9355449
_publ_section_title
;
Structure prediction by ZEFSAII (Michael W. Deem and Ramdas Pophale) SiO2 
 PCOD9355449
Probable space group: C C C 2
;
_chemical_formula_sum "Si O2"
_cell_formula_units_Z 64
_cell_length_a 21.694843
_cell_length_b 9.352308
_cell_length_c 15.534132
_cell_angle_alpha 90.000000
_cell_angle_beta 90.000000
_cell_angle_gamma 90.000000
_cell_volume 3151.826509
_symmetry_space_group_name_H-M "C C C 2"
_symmetry_group_IT_number 37
_symmetry_cell_setting 'orthorhombic'
loop_
_space_group_symop_operation_xyz
x,y,z
-x,-y,z
-x,y,1/2+z
x,-y,1/2+z
1/2+x,1/2+y,z
1/2-x,1/2-y,z
1/2-x,1/2+y,1/2+z
1/2+x,1/2-y,1/2+z
loop_
_atom_site_type_symbol
_atom_site_label
_atom_site_fract_x
_atom_site_fract_y
_atom_site_fract_z
Si Si1 0.267377 0.480075 0.704180
Si Si2 0.199997 0.867686 0.531110
Si Si3 0.155338 0.700585 0.155014
Si Si4 0.989216 0.670454 0.679231
Si Si5 0.570528 0.786489 0.017259
Si Si6 0.983355 0.670209 0.367245
Si Si7 0.371232 0.912736 0.973098
Si Si8 0.253603 0.579792 0.894788
O O1 0.282030 0.590101 0.628165
O O2 0.196753 0.426819 0.693893
O O3 0.311205 0.344597 0.684882
O O4 0.275623 0.537379 0.800061
O O5 0.250000 0.750000 0.501267
O O6 0.131765 0.805112 0.527526
O O7 0.206814 0.003401 0.468532
O O8 0.083852 0.697269 0.179911
O O9 0.156673 0.675952 0.052208
O O10 0.000000 0.500000 0.674333
O O11 0.023540 0.733603 0.596253
O O12 0.016819 0.723083 0.769799
O O13 0.534823 0.759962 0.928052
O O14 0.592165 0.952928 0.013696
O O15 0.918545 0.677407 0.416107
O O16 0.000000 0.500000 0.363348
O O17 0.316503 0.970493 0.913624
O O18 0.250000 0.750000 0.901922
#
# Coordination Sequence:
#
# PCOD9355449 Si02
#       8
#     8   8   8   8   8   8   8   8
#     4  11  27  42  67 101 136 183 231 286 350 414
#     4  12  25  43  70 101 139 178 228 287 350 415
#     4  11  22  42  68  95 140 179 237 283 344 406
#     4  11  21  36  65 100 138 185 229 286 339 406
#     4  11  21  39  63 101 139 170 232 284 340 399
#     4   9  21  33  59 100 133 173 226 280 334 400
#     4  11  20  40  66  95 140 180 227 284 340 403
#     4  12  27  45  70 100 139 184 230 286 354 422
#
# _framework density 20.305686000000001
#
# number of rings (size 3 to 8) (size 9 to 14) (size 15 to 20)
#    0.000    1.000    5.000    1.500    8.750    1.000 
#    0.000    0.625    0.000    0.000    0.000    0.000 
#    0.000    0.000    0.000    0.000    0.000    0.000 
#
# Total GULP energy -178867.627525 kJ/mol
# GULP energy per Si atom -5589.613360 kJ/mol
# Density = 2.025947 g / cm^3
# Si number density = 20.305686 Si / 1000 Ang^3
#
#
#
# Elastic Constant Matrix: (Units=GPa)
#
#
# Indices 1 2 3 4 5 6 
#
# 1 117.4311 20.7932 29.1589 0.0000 0.0000 0.0000
# 2 20.7932 38.1592 27.2672 0.0000 0.0000 0.0000
# 3 29.1589 27.2672 142.7312 0.0000 0.0000 0.0000
# 4 0.0000 0.0000 0.0000 9.5831 0.0000 0.0000
# 5 0.0000 0.0000 0.0000 0.0000 26.1803 0.0000
# 6 0.0000 0.0000 0.0000 0.0000 0.0000 21.4339
#
#
#
# Elastic Compliance Matrix: (Units=1/GPa)
#
#
# Indices 1 2 3 4 5 6 
#
# 1 0.009575 -0.004423 -0.001111 0.000000 0.000000 0.000000
# 2 -0.004423 0.032393 -0.005285 0.000000 0.000000 0.000000
# 3 -0.001111 -0.005285 0.008243 0.000000 0.000000 0.000000
# 4 0.000000 0.000000 0.000000 0.104351 0.000000 0.000000
# 5 0.000000 0.000000 0.000000 0.000000 0.038197 0.000000
# 6 0.000000 0.000000 0.000000 0.000000 0.000000 0.046655
#
#
# Mechanical properties :
#
#
# Convention : Reuss Voigt Hill
#
# Bulk Modulus (GPa) = 34.99938 50.30668 42.65303
# Shear Modulus (GPa) = 18.47920 26.17960 22.32940
#
# Velocity S-wave (km/s) = 3.01998 3.59454 3.31971
# Velocity P-wave (km/s) = 5.42531 6.48507 5.97872
#
# Compressibility (1/GPa) = 0.02857193
#
# Stress axis : x y z
#
# Youngs Moduli (GPa) = 104.44139 30.87134 121.31953
#
# Poissons Ratio (x) = 0.13656 0.13478
# Poissons Ratio (y) = 0.46199 0.64112
# Poissons Ratio (z) = 0.11603 0.16314
#
# Static dielectric constant tensor:
#      x y z
#    x 1.728720 0.000000 0.000000 
#    y 0.000000 1.731880 0.000000 
#    z 0.000000 0.000000 1.716640 
# 
# From -- ./inp_files/13185.got.cif
#   From: 2010.05.17/outbox.cif.g08.bks.cpg/sg37_7_cif.got.tgz:13185.got - 2010.06.03 17:53:42.
