data_PCOD9355827
_publ_section_title
;
Structure prediction by ZEFSAII (Michael W. Deem and Ramdas Pophale) SiO2 
 PCOD9355827
Probable space group: A M M 2
;
_chemical_formula_sum "Si O2"
_cell_formula_units_Z 56
_cell_length_a 8.727902
_cell_length_b 19.988360
_cell_length_c 15.535193
_cell_angle_alpha 90.000000
_cell_angle_beta 90.000000
_cell_angle_gamma 90.000000
_cell_volume 2710.214578
_symmetry_space_group_name_H-M "A M M 2"
_symmetry_group_IT_number 38
_symmetry_cell_setting 'orthorhombic'
loop_
_space_group_symop_operation_xyz
x,y,z
-x,-y,z
-x,y,z
x,-y,z
x,1/2+y,1/2+z
-x,1/2-y,1/2+z
-x,1/2+y,1/2+z
x,1/2-y,1/2+z
loop_
_atom_site_type_symbol
_atom_site_label
_atom_site_fract_x
_atom_site_fract_y
_atom_site_fract_z
Si Si1 0.682998 0.576238 0.021890
Si Si2 0.818250 0.121692 0.697862
Si Si3 0.315269 0.269926 0.691144
Si Si4 0.676408 0.500000 0.787377
Si Si5 0.834293 0.000000 0.122662
Si Si6 0.313144 0.141268 0.352478
Si Si7 0.174653 0.855837 0.035689
Si Si8 0.316865 0.576723 0.378240
O O1 0.500000 0.582849 0.035830
O O2 0.707568 0.500000 0.988183
O O3 0.768333 0.584000 0.111406
O O4 0.729604 0.633669 0.952932
O O5 0.755598 0.196759 0.687812
O O6 0.743070 0.090270 0.782636
O O7 0.000000 0.121087 0.707343
O O8 0.500000 0.266822 0.689953
O O9 0.265736 0.304057 0.782216
O O10 0.260100 0.312462 0.608303
O O11 0.500000 0.500000 0.816020
O O12 0.690746 0.500000 0.685278
O O13 0.743731 0.429853 0.816041
O O14 0.829998 0.068181 0.070495
O O15 0.000000 0.000000 0.170335
O O16 0.500000 0.142732 0.351337
O O17 0.253148 0.866780 0.943209
O O18 0.000000 0.831443 0.026394
O O19 0.500000 0.580105 0.380103
O O20 0.272378 0.500000 0.402120
#
# Coordination Sequence:
#
# PCOD9355827 Si02
#       8
#     8   8   8   4   4   8   8   8
#     4  10  20  39  67  95 122 155 201 257 313 372
#     4  12  27  45  62  85 124 169 212 263 319 373
#     4  11  23  41  64  92 127 169 214 255 302 373
#     4  10  16  30  56  89 122 155 198 245 304 362
#     4  10  20  32  52  87 130 167 196 241 308 374
#     4   9  18  33  61  95 123 153 194 249 305 360
#     4  11  22  38  61  94 132 167 203 251 318 380
#     4  11  24  43  69  97 122 158 212 267 317 375
#
# _framework density 20.662571
#
# number of rings (size 3 to 8) (size 9 to 14) (size 15 to 20)
#    0.000    1.429    2.857    3.000    0.000    4.571 
#    0.000    6.429    0.000    0.000    0.000    0.000 
#    0.000    0.000    0.000    0.000    0.000    0.000 
#
# Total GULP energy -156248.857801 kJ/mol
# GULP energy per Si atom -5580.316350 kJ/mol
# Density = 2.061554 g / cm^3
# Si number density = 20.662571 Si / 1000 Ang^3
#
#
#
# Elastic Constant Matrix: (Units=GPa)
#
#
# Indices 1 2 3 4 5 6 
#
# 1 15.2237 4.8892 14.4437 0.0000 0.0000 0.0000
# 2 4.8892 53.5884 8.4403 0.0000 0.0000 0.0000
# 3 14.4437 8.4403 110.1785 0.0000 0.0000 0.0000
# 4 0.0000 0.0000 0.0000 25.7895 0.0000 0.0000
# 5 0.0000 0.0000 0.0000 0.0000 -12.5182 0.0000
# 6 0.0000 0.0000 0.0000 0.0000 0.0000 8.1121
#
#
#
# Elastic Compliance Matrix: (Units=1/GPa)
#
#
# Indices 1 2 3 4 5 6 
#
# 1 0.076570 -0.005471 -0.009619 0.000000 0.000000 0.000000
# 2 -0.005471 0.019280 -0.000760 0.000000 0.000000 0.000000
# 3 -0.009619 -0.000760 0.010395 0.000000 0.000000 0.000000
# 4 0.000000 0.000000 0.000000 0.038775 0.000000 0.000000
# 5 0.000000 0.000000 0.000000 0.000000 -0.079884 0.000000
# 6 0.000000 0.000000 0.000000 0.000000 0.000000 0.123273
#
#
# Mechanical properties :
#
#
# Convention : Reuss Voigt Hill
#
# Bulk Modulus (GPa) = 13.41450 26.05966 19.73708
# Shear Modulus (GPa) = 20.41169 14.35784 17.38477
#
# Velocity S-wave (km/s) = 3.14643 2.63890 2.90378
# Velocity P-wave (km/s) = 4.43918 4.68236 4.56239
#
# Compressibility (1/GPa) = 0.07454619
#
# Stress axis : x y z
#
# Youngs Moduli (GPa) = 13.05992 51.86840 96.19706
#
# Poissons Ratio (x) = 0.28377 0.92529
# Poissons Ratio (y) = 0.07145 0.07308
# Poissons Ratio (z) = 0.12562 0.03941
#
# Static dielectric constant tensor:
#      x y z
#    x 1.735300 0.000000 0.000000 
#    y 0.000000 1.729120 0.000000 
#    z 0.000000 0.000000 1.764590 
# 
# From -- ./inp_files/12509.got.cif
#   From: 2010.05.17/outbox.cif.g08.bks.cpg/sg38_7_cif.got.tgz:12509.got - 2010.06.03 18:07:57.
