data_PCOD9355160
_publ_section_title
;
Structure prediction by ZEFSAII (Michael W. Deem and Ramdas Pophale) SiO2 
 PCOD9355160
Probable space group: C C C 2
;
_chemical_formula_sum "Si O2"
_cell_formula_units_Z 32
_cell_length_a 11.738361
_cell_length_b 22.720373
_cell_length_c 5.473773
_cell_angle_alpha 90.000000
_cell_angle_beta 90.000000
_cell_angle_gamma 90.000000
_cell_volume 1459.854932
_symmetry_space_group_name_H-M "C C C 2"
_symmetry_group_IT_number 37
_symmetry_cell_setting 'orthorhombic'
loop_
_space_group_symop_operation_xyz
x,y,z
-x,-y,z
-x,y,1/2+z
x,-y,1/2+z
1/2+x,1/2+y,z
1/2-x,1/2-y,z
1/2-x,1/2+y,1/2+z
1/2+x,1/2-y,1/2+z
loop_
_atom_site_type_symbol
_atom_site_label
_atom_site_fract_x
_atom_site_fract_y
_atom_site_fract_z
Si Si1 0.955205 0.433057 0.971420
Si Si2 0.308468 0.158050 0.310767
Si Si3 0.127884 0.281193 0.812767
Si Si4 0.538893 0.331521 0.814192
O O1 0.833517 0.411305 0.865982
O O2 0.000000 0.500000 0.996658
O O3 0.032456 0.410238 0.747298
O O4 0.365956 0.188786 0.545767
O O5 0.175176 0.174025 0.305818
O O6 0.366738 0.179302 0.059246
O O7 0.250000 0.250000 0.826955
O O8 0.033181 0.229760 0.819157
O O9 0.496918 0.361963 0.566389
#
# Coordination Sequence:
#
# PCOD9355160 Si02
#       4
#     8   8   8   8
#     4  10  23  45  69  96 121 154 223 290 339 380
#     4  12  24  41  61  90 127 179 210 270 323 368
#     4  12  23  38  57  89 138 181 214 247 306 402
#     4  12  23  37  55  84 131 174 213 246 299 385
#
# _framework density 21.919986000000002
#
# number of rings (size 3 to 8) (size 9 to 14) (size 15 to 20)
#    0.000    0.500    5.000    3.750    0.000    6.000 
#    0.000    0.000    0.000    0.000    0.000   21.000 
#    0.000    0.000    0.000    0.000    0.000    0.000 
#
# Total GULP energy -89152.999795 kJ/mol
# GULP energy per Si atom -5572.062487 kJ/mol
# Density = 2.187010 g / cm^3
# Si number density = 21.919986 Si / 1000 Ang^3
#
#
#
# Elastic Constant Matrix: (Units=GPa)
#
#
# Indices 1 2 3 4 5 6 
#
# 1 142.9903 46.9261 21.4088 0.0000 0.0000 0.0000
# 2 46.9261 63.8919 31.2148 0.0000 0.0000 0.0000
# 3 21.4088 31.2148 229.3527 0.0000 0.0000 0.0000
# 4 0.0000 0.0000 0.0000 17.6041 0.0000 0.0000
# 5 0.0000 0.0000 0.0000 0.0000 39.8243 0.0000
# 6 0.0000 0.0000 0.0000 0.0000 0.0000 20.3473
#
#
#
# Elastic Compliance Matrix: (Units=1/GPa)
#
#
# Indices 1 2 3 4 5 6 
#
# 1 0.009215 -0.006800 0.000065 0.000000 0.000000 0.000000
# 2 -0.006800 0.021784 -0.002330 0.000000 0.000000 0.000000
# 3 0.000065 -0.002330 0.004671 0.000000 0.000000 0.000000
# 4 0.000000 0.000000 0.000000 0.056805 0.000000 0.000000
# 5 0.000000 0.000000 0.000000 0.000000 0.025110 0.000000
# 6 0.000000 0.000000 0.000000 0.000000 0.000000 0.049147
#
#
# Mechanical properties :
#
#
# Convention : Reuss Voigt Hill
#
# Bulk Modulus (GPa) = 57.00989 70.59268 63.80128
# Shear Modulus (GPa) = 26.21785 38.00082 32.10933
#
# Velocity S-wave (km/s) = 3.46218 4.16819 3.83148
# Velocity P-wave (km/s) = 6.48436 7.44578 6.98164
#
# Compressibility (1/GPa) = 0.01754082
#
# Stress axis : x y z
#
# Youngs Moduli (GPa) = 108.51414 45.90454 214.08133
#
# Poissons Ratio (x) = 0.31216 -0.01398
# Poissons Ratio (y) = 0.73792 0.49883
# Poissons Ratio (z) = -0.00709 0.10696
#
# Static dielectric constant tensor:
#      x y z
#    x 1.799130 0.000000 0.000000 
#    y 0.000000 2.069830 0.000000 
#    z 0.000000 0.000000 1.925590 
# 
# From -- ./inp_files/288.got.cif
#   From: 2010.05.17/outbox.cif.g08.bks.cpg/sg37_1_cif.got.tgz:288.got - 2010.06.03 17:53:42.
