data_PCOD9355833
_publ_section_title
;
Structure prediction by ZEFSAII (Michael W. Deem and Ramdas Pophale) SiO2 
 PCOD9355833
Probable space group: A M M 2
;
_chemical_formula_sum "Si O2"
_cell_formula_units_Z 40
_cell_length_a 7.826419
_cell_length_b 28.404452
_cell_length_c 7.324432
_cell_angle_alpha 90.000000
_cell_angle_beta 90.000000
_cell_angle_gamma 90.000000
_cell_volume 1628.258902
_symmetry_space_group_name_H-M "A M M 2"
_symmetry_group_IT_number 38
_symmetry_cell_setting 'orthorhombic'
loop_
_space_group_symop_operation_xyz
x,y,z
-x,-y,z
-x,y,z
x,-y,z
x,1/2+y,1/2+z
-x,1/2-y,1/2+z
-x,1/2+y,1/2+z
x,1/2-y,1/2+z
loop_
_atom_site_type_symbol
_atom_site_label
_atom_site_fract_x
_atom_site_fract_y
_atom_site_fract_z
Si Si1 0.702816 0.500000 0.150520
Si Si2 0.694418 0.195616 0.686242
Si Si3 0.194323 0.401784 0.116811
Si Si4 0.301819 0.202486 0.251242
Si Si5 0.302692 0.601687 0.706165
Si Si6 0.290795 0.500000 0.719267
O O1 0.500000 0.500000 0.168937
O O2 0.770310 0.549715 0.220637
O O3 0.751823 0.500000 0.935250
O O4 0.500000 0.196300 0.756985
O O5 0.771855 0.145083 0.732842
O O6 0.691647 0.195322 0.467259
O O7 0.778530 0.245899 0.729122
O O8 0.000000 0.400573 0.053393
O O9 0.303911 0.401843 0.929665
O O10 0.500000 0.206386 0.185737
O O11 0.227299 0.153897 0.169958
O O12 0.500000 0.603352 0.644575
O O13 0.229696 0.550893 0.647222
O O14 0.500000 0.500000 0.705002
#
# Coordination Sequence:
#
# PCOD9355833 Si02
#       6
#     4   8   8   8   8   4
#     4   9  15  25  39  55  78 109 136 164 202 248
#     4   9  16  28  42  58  79 109 142 174 207 244
#     4  10  17  24  36  58  83 106 132 169 208 247
#     4   8  14  24  41  59  77 103 142 178 205 239
#     4   8  13  23  37  55  78 107 136 165 202 248
#     4   7  10  17  33  53  74  97 124 154 192 234
#
# _framework density 24.566117999999999
#
# number of rings (size 3 to 8) (size 9 to 14) (size 15 to 20)
#    0.000    3.400    0.000    4.500    0.000    0.000 
#    0.000    4.000    0.000    0.000    0.000    1.400 
#    0.000    8.000    0.000   17.200    0.000   18.400 
#
# Total GULP energy -111384.435749 kJ/mol
# GULP energy per Si atom -5569.221787 kJ/mol
# Density = 2.451020 g / cm^3
# Si number density = 24.566118 Si / 1000 Ang^3
#
#
#
# Elastic Constant Matrix: (Units=GPa)
#
#
# Indices 1 2 3 4 5 6 
#
# 1 49.0703 19.6557 -6.5263 0.0000 0.0000 0.0000
# 2 19.6557 327.5553 -6.5256 0.0000 0.0000 0.0000
# 3 -6.5263 -6.5256 65.9737 0.0000 0.0000 0.0000
# 4 0.0000 0.0000 0.0000 7.4288 0.0000 0.0000
# 5 0.0000 0.0000 0.0000 0.0000 -6.9340 0.0000
# 6 0.0000 0.0000 0.0000 0.0000 0.0000 -34.3231
#
#
#
# Elastic Compliance Matrix: (Units=1/GPa)
#
#
# Indices 1 2 3 4 5 6 
#
# 1 0.021133 -0.001229 0.001969 0.000000 0.000000 0.000000
# 2 -0.001229 0.003130 0.000188 0.000000 0.000000 0.000000
# 3 0.001969 0.000188 0.015371 0.000000 0.000000 0.000000
# 4 0.000000 0.000000 0.000000 0.134611 0.000000 0.000000
# 5 0.000000 0.000000 0.000000 0.000000 -0.144216 0.000000
# 6 0.000000 0.000000 0.000000 0.000000 0.000000 -0.029135
#
#
# Mechanical properties :
#
#
# Convention : Reuss Voigt Hill
#
# Bulk Modulus (GPa) = 24.10180 50.64522 37.37351
# Shear Modulus (GPa) = 388.54203 22.30070 205.42136
#
# Velocity S-wave (km/s) = 12.58988 3.01621 9.15431
# Velocity P-wave (km/s) = 14.87187 5.72631 11.26861
#
# Compressibility (1/GPa) = 0.04149068
#
# Stress axis : x y z
#
# Youngs Moduli (GPa) = 47.31927 319.44704 65.05789
#
# Poissons Ratio (x) = 0.39257 -0.12810
# Poissons Ratio (y) = 0.05815 -0.01224
# Poissons Ratio (z) = -0.09317 -0.06008
#
# Static dielectric constant tensor:
#      x y z
#    x 2.125800 0.000000 0.000000 
#    y 0.000000 2.110280 0.000000 
#    z 0.000000 0.000000 1.986370 
# 
# From -- ./inp_files/8197.got.cif
#   From: 2010.05.17/outbox.cif.g08.bks.cpg/sg38_5_cif.got.tgz:8197.got - 2010.06.03 18:07:57.
