data_PCOD9355149
_publ_section_title
;
Structure prediction by ZEFSAII (Michael W. Deem and Ramdas Pophale) SiO2 
 PCOD9355149
Probable space group: C C C 2
;
_chemical_formula_sum "Si O2"
_cell_formula_units_Z 56
_cell_length_a 21.582782
_cell_length_b 14.363823
_cell_length_c 8.505464
_cell_angle_alpha 90.000000
_cell_angle_beta 90.000000
_cell_angle_gamma 90.000000
_cell_volume 2636.789616
_symmetry_space_group_name_H-M "C C C 2"
_symmetry_group_IT_number 37
_symmetry_cell_setting 'orthorhombic'
loop_
_space_group_symop_operation_xyz
x,y,z
-x,-y,z
-x,y,1/2+z
x,-y,1/2+z
1/2+x,1/2+y,z
1/2-x,1/2-y,z
1/2-x,1/2+y,1/2+z
1/2+x,1/2-y,1/2+z
loop_
_atom_site_type_symbol
_atom_site_label
_atom_site_fract_x
_atom_site_fract_y
_atom_site_fract_z
Si Si1 0.500000 0.500000 0.813190
Si Si2 0.182118 0.563763 0.978572
Si Si3 0.926972 0.884312 0.559412
Si Si4 0.652116 0.875659 0.129164
Si Si5 0.929589 0.678190 0.570080
Si Si6 0.215602 0.154716 0.648557
Si Si7 0.250000 0.750000 0.457087
Si Si8 0.519589 0.104178 0.770369
O O1 0.467460 0.422249 0.704703
O O2 0.553811 0.454269 0.920449
O O3 0.181437 0.590192 0.795630
O O4 0.154880 0.461779 0.008373
O O5 0.139585 0.640695 0.067263
O O6 0.247089 0.572093 0.065751
O O7 0.943174 0.779986 0.506894
O O8 0.855634 0.866655 0.609319
O O9 0.580190 0.860135 0.175595
O O10 0.693731 0.792445 0.059316
O O11 0.962739 0.608318 0.451247
O O12 0.960742 0.668250 0.737464
O O13 0.250000 0.250000 0.583743
O O14 0.225549 0.170392 0.835399
O O15 0.500000 0.000000 0.731135
#
# Coordination Sequence:
#
# PCOD9355149 Si02
#       8
#     4   8   8   8   8   8   4   8
#     4  10  26  44  72 104 140 172 234 290 356 420
#     4  11  23  41  63  98 130 183 220 289 345 410
#     4  11  23  47  69 102 134 181 230 288 351 416
#     4  11  25  40  65  94 142 177 236 282 348 416
#     4  11  22  38  64  92 136 178 230 278 347 413
#     4  10  23  44  71  92 136 175 231 288 343 414
#     4  10  24  42  64 100 130 186 232 290 344 422
#     4  11  23  37  61  98 135 182 227 285 340 410
#
# _framework density 21.237950000000001
#
# number of rings (size 3 to 8) (size 9 to 14) (size 15 to 20)
#    0.429    0.857    2.857    2.143    3.000    5.714 
#    0.000    4.286    0.000    0.000    0.000    0.000 
#    0.000    0.000    0.000    0.000    0.000    0.000 
#
# Total GULP energy -156101.904758 kJ/mol
# GULP energy per Si atom -5575.068027 kJ/mol
# Density = 2.118961 g / cm^3
# Si number density = 21.237950 Si / 1000 Ang^3
#
#
#
# Elastic Constant Matrix: (Units=GPa)
#
#
# Indices 1 2 3 4 5 6 
#
# 1 93.6496 19.5422 49.3651 0.0000 0.0000 0.0000
# 2 19.5422 58.9313 7.9352 0.0000 0.0000 0.0000
# 3 49.3651 7.9352 75.2017 0.0000 0.0000 0.0000
# 4 0.0000 0.0000 0.0000 22.4312 0.0000 0.0000
# 5 0.0000 0.0000 0.0000 0.0000 29.0631 0.0000
# 6 0.0000 0.0000 0.0000 0.0000 0.0000 41.8092
#
#
#
# Elastic Compliance Matrix: (Units=1/GPa)
#
#
# Indices 1 2 3 4 5 6 
#
# 1 0.017329 -0.004275 -0.010924 0.000000 0.000000 0.000000
# 2 -0.004275 0.018268 0.000879 0.000000 0.000000 0.000000
# 3 -0.010924 0.000879 0.020376 0.000000 0.000000 0.000000
# 4 0.000000 0.000000 0.000000 0.044581 0.000000 0.000000
# 5 0.000000 0.000000 0.000000 0.000000 0.034408 0.000000
# 6 0.000000 0.000000 0.000000 0.000000 0.000000 0.023918
#
#
# Mechanical properties :
#
#
# Convention : Reuss Voigt Hill
#
# Bulk Modulus (GPa) = 36.58762 42.38528 39.48645
# Shear Modulus (GPa) = 25.42833 28.72336 27.07585
#
# Velocity S-wave (km/s) = 3.46397 3.68156 3.57442
# Velocity P-wave (km/s) = 5.76746 6.17029 5.97228
#
# Compressibility (1/GPa) = 0.02733165
#
# Stress axis : x y z
#
# Youngs Moduli (GPa) = 57.70818 54.73953 49.07807
#
# Poissons Ratio (x) = 0.23403 0.53613
# Poissons Ratio (y) = 0.24673 -0.04313
# Poissons Ratio (z) = 0.63040 -0.04811
#
# Static dielectric constant tensor:
#      x y z
#    x 1.848170 0.000000 0.000000 
#    y 0.000000 1.811290 0.000000 
#    z 0.000000 0.000000 1.761980 
# 
# From -- ./inp_files/4392.got.cif
#   From: 2010.05.17/outbox.cif.g08.bks.cpg/sg37_3_cif.got.tgz:4392.got - 2010.06.03 17:53:42.
