data_PCOD9355246
_publ_section_title
;
Structure prediction by ZEFSAII (Michael W. Deem and Ramdas Pophale) SiO2 
 PCOD9355246
Probable space group: C C C 2
;
_chemical_formula_sum "Si O2"
_cell_formula_units_Z 36
_cell_length_a 5.297435
_cell_length_b 23.393886
_cell_length_c 10.449735
_cell_angle_alpha 90.000000
_cell_angle_beta 90.000000
_cell_angle_gamma 90.000000
_cell_volume 1295.010480
_symmetry_space_group_name_H-M "C C C 2"
_symmetry_group_IT_number 37
_symmetry_cell_setting 'orthorhombic'
loop_
_space_group_symop_operation_xyz
x,y,z
-x,-y,z
-x,y,1/2+z
x,-y,1/2+z
1/2+x,1/2+y,z
1/2-x,1/2-y,z
1/2-x,1/2+y,1/2+z
1/2+x,1/2-y,1/2+z
loop_
_atom_site_type_symbol
_atom_site_label
_atom_site_fract_x
_atom_site_fract_y
_atom_site_fract_z
Si Si1 0.290333 0.049470 0.484840
Si Si2 0.123453 0.812279 0.350602
Si Si3 0.250000 0.750000 0.700777
Si Si4 0.012385 0.922116 0.235041
Si Si5 0.120292 0.646067 0.581190
O O1 0.082462 0.054088 0.371901
O O2 0.427752 0.111177 0.494469
O O3 0.166047 0.043581 0.626635
O O4 0.500000 0.000000 0.461526
O O5 0.250000 0.750000 0.344922
O O6 0.141475 0.834346 0.493216
O O7 0.854647 0.797961 0.293724
O O8 0.195156 0.867311 0.265016
O O9 0.048737 0.710739 0.624745
O O10 0.751031 0.900333 0.172196
#
# Coordination Sequence:
#
# PCOD9355246 Si02
#       5
#     8   8   4   8   8
#     4  12  30  57  89 119 168 229 288 363 434 503
#     4  11  23  43  76 118 171 222 272 341 424 508
#     4  10  24  42  74 120 174 222 272 350 414 516
#     4  11  27  54  81 126 165 215 292 352 422 523
#     4  11  25  47  79 123 166 221 280 348 429 508
#
# _framework density 27.798999999999999
#
# number of rings (size 3 to 8) (size 9 to 14) (size 15 to 20)
#    0.000    0.889    3.333    1.333    9.333    1.778 
#   16.000    1.111    0.000    0.000    0.000    0.000 
#    0.000    0.000    0.000    0.000    0.000    0.000 
#
# Total GULP energy -100467.765334 kJ/mol
# GULP energy per Si atom -5581.542519 kJ/mol
# Density = 2.773573 g / cm^3
# Si number density = 27.799000 Si / 1000 Ang^3
#
#
#
# Elastic Constant Matrix: (Units=GPa)
#
#
# Indices 1 2 3 4 5 6 
#
# 1 68.9444 55.9946 19.8214 0.0000 0.0000 0.0000
# 2 55.9946 183.3091 57.5074 0.0000 0.0000 0.0000
# 3 19.8214 57.5074 129.0144 0.0000 0.0000 0.0000
# 4 0.0000 0.0000 0.0000 -60.7962 0.0000 0.0000
# 5 0.0000 0.0000 0.0000 0.0000 43.0073 0.0000
# 6 0.0000 0.0000 0.0000 0.0000 0.0000 67.4208
#
#
#
# Elastic Compliance Matrix: (Units=1/GPa)
#
#
# Indices 1 2 3 4 5 6 
#
# 1 0.019307 -0.005775 -0.000392 0.000000 0.000000 0.000000
# 2 -0.005775 0.008069 -0.002710 0.000000 0.000000 0.000000
# 3 -0.000392 -0.002710 0.009019 0.000000 0.000000 0.000000
# 4 0.000000 0.000000 0.000000 -0.016448 0.000000 0.000000
# 5 0.000000 0.000000 0.000000 0.000000 0.023252 0.000000
# 6 0.000000 0.000000 0.000000 0.000000 0.000000 0.014832
#
#
# Mechanical properties :
#
#
# Convention : Reuss Voigt Hill
#
# Bulk Modulus (GPa) = 53.64084 71.99053 62.81568
# Shear Modulus (GPa) = 60.97665 26.45600 43.71632
#
# Velocity S-wave (km/s) = 4.68854 3.08829 3.96989
# Velocity P-wave (km/s) = 6.97480 6.21850 6.60748
#
# Compressibility (1/GPa) = 0.01864251
#
# Stress axis : x y z
#
# Youngs Moduli (GPa) = 51.79414 123.92686 110.87520
#
# Poissons Ratio (x) = 0.71563 0.04350
# Poissons Ratio (y) = 0.29909 0.30043
# Poissons Ratio (z) = 0.02032 0.33580
#
# Static dielectric constant tensor:
#      x y z
#    x 2.239670 0.000000 0.000000 
#    y 0.000000 2.338530 0.000000 
#    z 0.000000 0.000000 2.207430 
# 
# From -- ./inp_files/5474.got.cif
#   From: 2010.05.17/outbox.cif.g08.bks.cpg/sg37_3_cif.got.tgz:5474.got - 2010.06.03 17:53:42.
