data_PCOD9355798
_publ_section_title
;
Structure prediction by ZEFSAII (Michael W. Deem and Ramdas Pophale) SiO2 
 PCOD9355798
Probable space group: A M M 2
;
_chemical_formula_sum "Si O2"
_cell_formula_units_Z 36
_cell_length_a 5.698465
_cell_length_b 19.703008
_cell_length_c 13.460291
_cell_angle_alpha 90.000000
_cell_angle_beta 90.000000
_cell_angle_gamma 90.000000
_cell_volume 1511.279767
_symmetry_space_group_name_H-M "A M M 2"
_symmetry_group_IT_number 38
_symmetry_cell_setting 'orthorhombic'
loop_
_space_group_symop_operation_xyz
x,y,z
-x,-y,z
-x,y,z
x,-y,z
x,1/2+y,1/2+z
-x,1/2-y,1/2+z
-x,1/2+y,1/2+z
x,1/2-y,1/2+z
loop_
_atom_site_type_symbol
_atom_site_label
_atom_site_fract_x
_atom_site_fract_y
_atom_site_fract_z
Si Si1 0.500000 0.610392 0.695631
Si Si2 0.500000 0.765947 0.859562
Si Si3 0.251573 0.418963 0.888512
Si Si4 0.000000 0.258409 0.588775
Si Si5 0.500000 0.269851 0.137843
Si Si6 0.500000 0.403571 0.471051
Si Si7 0.000000 0.755878 0.318161
Si Si8 0.000000 0.620245 0.424916
O O1 0.712394 0.590752 0.769100
O O2 0.500000 0.689801 0.668945
O O3 0.500000 0.578780 0.587012
O O4 0.500000 0.801417 0.749421
O O5 0.254250 0.726306 0.862340
O O6 0.500000 0.822507 0.944429
O O7 0.500000 0.395182 0.933402
O O8 0.245993 0.500000 0.905062
O O9 0.000000 0.391654 0.920535
O O10 0.251058 0.219606 0.583146
O O11 0.000000 0.277520 0.705055
O O12 0.000000 0.325381 0.518862
O O13 0.757523 0.420998 0.429048
O O14 0.000000 0.673494 0.333377
#
# Coordination Sequence:
#
# PCOD9355798 Si02
#       8
#     4   4   8   4   4   4   4   4
#     4  10  17  22  38  54  60  82 114 148 157 202
#     4   8  16  28  30  44  64  88  98 130 174 208
#     4   8  16  26  34  46  66  84  98 132 176 203
#     4  10  16  26  32  48  62  82 104 142 170 204
#     4  10  18  23  36  47  66  81 109 137 175 191
#     4  10  18  23  36  47  66  81 109 137 175 191
#     4   8  16  24  36  40  60  84 104 124 180 202
#     4  10  16  26  32  48  62  82 104 142 170 204
#
# _framework density 23.820872000000001
#
# number of rings (size 3 to 8) (size 9 to 14) (size 15 to 20)
#    0.667    2.222    2.222    0.000    3.111    0.000 
#    0.000    0.000    0.000    0.000    0.000    0.000 
#    0.000    0.000    0.000    0.000    0.000    0.000 
#
# Total GULP energy -100216.341449 kJ/mol
# GULP energy per Si atom -5567.574525 kJ/mol
# Density = 2.376665 g / cm^3
# Si number density = 23.820872 Si / 1000 Ang^3
#
#
#
# Elastic Constant Matrix: (Units=GPa)
#
#
# Indices 1 2 3 4 5 6 
#
# 1 306.7299 33.8686 12.3488 0.0000 0.0000 0.0000
# 2 33.8686 55.0240 9.9635 0.0000 0.0000 0.0000
# 3 12.3488 9.9635 80.1292 0.0000 0.0000 0.0000
# 4 0.0000 0.0000 0.0000 2.0569 0.0000 0.0000
# 5 0.0000 0.0000 0.0000 0.0000 24.8845 0.0000
# 6 0.0000 0.0000 0.0000 0.0000 0.0000 3.1296
#
#
#
# Elastic Compliance Matrix: (Units=1/GPa)
#
#
# Indices 1 2 3 4 5 6 
#
# 1 0.003504 -0.002106 -0.000278 0.000000 0.000000 0.000000
# 2 -0.002106 0.019859 -0.002145 0.000000 0.000000 0.000000
# 3 -0.000278 -0.002145 0.012789 0.000000 0.000000 0.000000
# 4 0.000000 0.000000 0.000000 0.486163 0.000000 0.000000
# 5 0.000000 0.000000 0.000000 0.000000 0.040186 0.000000
# 6 0.000000 0.000000 0.000000 0.000000 0.000000 0.319532
#
#
# Mechanical properties :
#
#
# Convention : Reuss Voigt Hill
#
# Bulk Modulus (GPa) = 36.90887 61.58276 49.24581
# Shear Modulus (GPa) = 5.55480 31.72769 18.64125
#
# Velocity S-wave (km/s) = 1.52871 3.65352 2.80046
# Velocity P-wave (km/s) = 4.31786 6.61106 5.58346
#
# Compressibility (1/GPa) = 0.02709376
#
# Stress axis : x y z
#
# Youngs Moduli (GPa) = 285.38971 50.35554 78.18986
#
# Poissons Ratio (x) = 0.10607 0.02174
# Poissons Ratio (y) = 0.60115 0.16769
# Poissons Ratio (z) = 0.07936 0.10800
#
# Static dielectric constant tensor:
#      x y z
#    x 2.062490 0.000000 0.000000 
#    y 0.000000 1.925450 0.000000 
#    z 0.000000 0.000000 1.908710 
# 
# From -- ./inp_files/16014.got.cif
#   From: 2010.05.17/outbox.cif.g08.bks.cpg/sg38_9_cif.got.tgz:16014.got - 2010.06.03 18:07:57.
