data_PCOD9355665
_publ_section_title
;
Structure prediction by ZEFSAII (Michael W. Deem and Ramdas Pophale) SiO2 
 PCOD9355665
Probable space group: C C C 2
;
_chemical_formula_sum "Si O2"
_cell_formula_units_Z 40
_cell_length_a 12.078661
_cell_length_b 8.011083
_cell_length_c 16.877571
_cell_angle_alpha 90.000000
_cell_angle_beta 90.000000
_cell_angle_gamma 90.000000
_cell_volume 1633.127032
_symmetry_space_group_name_H-M "C C C 2"
_symmetry_group_IT_number 37
_symmetry_cell_setting 'orthorhombic'
loop_
_space_group_symop_operation_xyz
x,y,z
-x,-y,z
-x,y,1/2+z
x,-y,1/2+z
1/2+x,1/2+y,z
1/2-x,1/2-y,z
1/2-x,1/2+y,1/2+z
1/2+x,1/2-y,1/2+z
loop_
_atom_site_type_symbol
_atom_site_label
_atom_site_fract_x
_atom_site_fract_y
_atom_site_fract_z
Si Si1 0.438738 0.342595 0.750000
Si Si2 0.157674 0.406553 0.623142
Si Si3 0.643249 0.867843 0.265727
Si Si4 0.772713 0.065379 0.386678
Si Si5 0.615073 0.395780 0.031827
O O1 0.500000 0.500000 0.709629
O O2 0.534631 0.231691 0.786204
O O3 0.362104 0.409640 0.818133
O O4 0.367253 0.229562 0.691957
O O5 0.123919 0.566509 0.675188
O O6 0.326471 0.438628 0.448656
O O7 0.281729 0.442450 0.591177
O O8 0.099633 0.303557 0.550690
O O9 0.750000 0.750000 0.262710
O O10 0.669275 0.997314 0.336132
O O11 0.750000 0.250000 0.422380
O O12 0.500000 0.500000 0.036174
#
# Coordination Sequence:
#
# PCOD9355665 Si02
#       5
#     8   8   8   8   8
#     4  12  25  48  85 117 154 207 275 339 400 467
#     4  11  26  50  75 112 157 204 269 326 390 491
#     4  12  27  46  86 116 151 210 271 336 397 465
#     4  12  26  50  76 118 162 205 268 331 406 489
#     4  11  27  47  77 109 162 213 256 328 408 482
#
# _framework density 24.492888000000001
#
# number of rings (size 3 to 8) (size 9 to 14) (size 15 to 20)
#    0.000    0.400    4.000    4.200    5.600    0.800 
#    3.600    0.000    0.000    0.000    0.000    0.000 
#    0.000    0.000    0.000    0.000    0.000    0.000 
#
# Total GULP energy -111581.841711 kJ/mol
# GULP energy per Si atom -5579.092086 kJ/mol
# Density = 2.443714 g / cm^3
# Si number density = 24.492888 Si / 1000 Ang^3
#
#
#
# Elastic Constant Matrix: (Units=GPa)
#
#
# Indices 1 2 3 4 5 6 
#
# 1 149.9722 33.6076 22.0410 0.0000 0.0000 0.0000
# 2 33.6076 85.1539 18.0845 0.0000 0.0000 0.0000
# 3 22.0410 18.0845 98.6937 0.0000 0.0000 0.0000
# 4 0.0000 0.0000 0.0000 245.4004 0.0000 0.0000
# 5 0.0000 0.0000 0.0000 0.0000 -29.8106 0.0000
# 6 0.0000 0.0000 0.0000 0.0000 0.0000 59.7935
#
#
#
# Elastic Compliance Matrix: (Units=1/GPa)
#
#
# Indices 1 2 3 4 5 6 
#
# 1 0.007442 -0.002689 -0.001169 0.000000 0.000000 0.000000
# 2 -0.002689 0.013190 -0.001816 0.000000 0.000000 0.000000
# 3 -0.001169 -0.001816 0.010726 0.000000 0.000000 0.000000
# 4 0.000000 0.000000 0.000000 0.004075 0.000000 0.000000
# 5 0.000000 0.000000 0.000000 0.000000 -0.033545 0.000000
# 6 0.000000 0.000000 0.000000 0.000000 0.000000 0.016724
#
#
# Mechanical properties :
#
#
# Convention : Reuss Voigt Hill
#
# Bulk Modulus (GPa) = 49.97600 53.47621 51.72610
# Shear Modulus (GPa) = 136.49055 72.41578 104.45316
#
# Velocity S-wave (km/s) = 7.47312 5.44337 6.53750
# Velocity P-wave (km/s) = 9.74228 7.83503 8.84024
#
# Compressibility (1/GPa) = 0.02000961
#
# Stress axis : x y z
#
# Youngs Moduli (GPa) = 134.36667 75.81247 93.22825
#
# Poissons Ratio (x) = 0.20385 0.10902
# Poissons Ratio (y) = 0.36130 0.16935
# Poissons Ratio (z) = 0.15712 0.13771
#
# Static dielectric constant tensor:
#      x y z
#    x 1.970860 0.000000 0.000000 
#    y 0.000000 2.067490 0.000000 
#    z 0.000000 0.000000 2.000920 
# 
# From -- ./inp_files/14867.got.cif
#   From: 2010.05.17/outbox.cif.g08.bks.cpg/sg37_8_cif.got.tgz:14867.got - 2010.06.03 17:53:42.
