data_PCOD9355702
_publ_section_title
;
Structure prediction by ZEFSAII (Michael W. Deem and Ramdas Pophale) SiO2 
 PCOD9355702
Probable space group: C C C 2
;
_chemical_formula_sum "Si O2"
_cell_formula_units_Z 32
_cell_length_a 4.691887
_cell_length_b 28.568261
_cell_length_c 9.254701
_cell_angle_alpha 90.000000
_cell_angle_beta 90.000000
_cell_angle_gamma 90.000000
_cell_volume 1240.491352
_symmetry_space_group_name_H-M "C C C 2"
_symmetry_group_IT_number 37
_symmetry_cell_setting 'orthorhombic'
loop_
_space_group_symop_operation_xyz
x,y,z
-x,-y,z
-x,y,1/2+z
x,-y,1/2+z
1/2+x,1/2+y,z
1/2-x,1/2-y,z
1/2-x,1/2+y,1/2+z
1/2+x,1/2-y,1/2+z
loop_
_atom_site_type_symbol
_atom_site_label
_atom_site_fract_x
_atom_site_fract_y
_atom_site_fract_z
Si Si1 0.018797 0.782676 0.204690
Si Si2 0.682325 0.347229 0.457664
Si Si3 0.772367 0.467006 0.259807
Si Si4 0.693420 0.911380 0.475685
O O1 0.750000 0.750000 0.239401
O O2 0.250000 0.750000 0.127450
O O3 0.166568 0.805883 0.342736
O O4 0.928934 0.825338 0.104839
O O5 0.481900 0.390752 0.405981
O O6 0.993938 0.366221 0.489000
O O7 0.500000 0.500000 0.303875
O O8 0.014279 0.554888 0.381680
O O9 0.000000 0.500000 0.179276
O O10 0.705770 0.431631 0.129157
#
# Coordination Sequence:
#
# PCOD9355702 Si02
#       4
#     8   8   8   8
#     4  12  24  42  66  98 135 178 227 284 345 412
#     4  12  24  43  67  98 135 180 229 284 345 417
#     4  12  26  46  70 102 138 180 232 292 355 426
#     4  12  25  45  70 100 137 182 231 288 352 423
#
# _framework density 25.796229
#
# number of rings (size 3 to 8) (size 9 to 14) (size 15 to 20)
#    0.000    0.000    0.000   11.250    0.000    2.000 
#    0.000    0.000    0.000    0.000    0.000    0.000 
#    0.000    0.000    0.000    0.000    0.000    0.000 
#
# Total GULP energy -89524.995556 kJ/mol
# GULP energy per Si atom -5595.312222 kJ/mol
# Density = 2.573752 g / cm^3
# Si number density = 25.796229 Si / 1000 Ang^3
#
#
#
# Elastic Constant Matrix: (Units=GPa)
#
#
# Indices 1 2 3 4 5 6 
#
# 1 152.1819 36.4150 7.6667 0.0000 0.0000 0.0000
# 2 36.4150 79.9550 36.0893 0.0000 0.0000 0.0000
# 3 7.6667 36.0893 97.6601 0.0000 0.0000 0.0000
# 4 0.0000 0.0000 0.0000 28.0844 0.0000 0.0000
# 5 0.0000 0.0000 0.0000 0.0000 27.3304 0.0000
# 6 0.0000 0.0000 0.0000 0.0000 0.0000 64.1405
#
#
#
# Elastic Compliance Matrix: (Units=1/GPa)
#
#
# Indices 1 2 3 4 5 6 
#
# 1 0.007427 -0.003744 0.000800 0.000000 0.000000 0.000000
# 2 -0.003744 0.016898 -0.005951 0.000000 0.000000 0.000000
# 3 0.000800 -0.005951 0.012376 0.000000 0.000000 0.000000
# 4 0.000000 0.000000 0.000000 0.035607 0.000000 0.000000
# 5 0.000000 0.000000 0.000000 0.000000 0.036589 0.000000
# 6 0.000000 0.000000 0.000000 0.000000 0.000000 0.015591
#
#
# Mechanical properties :
#
#
# Convention : Reuss Voigt Hill
#
# Bulk Modulus (GPa) = 52.87475 54.45989 53.66732
# Shear Modulus (GPa) = 33.65208 40.55279 37.10243
#
# Velocity S-wave (km/s) = 3.61575 3.96920 3.79659
# Velocity P-wave (km/s) = 6.16224 6.49334 6.32995
#
# Compressibility (1/GPa) = 0.01891262
#
# Stress axis : x y z
#
# Youngs Moduli (GPa) = 134.65173 59.17867 80.80324
#
# Poissons Ratio (x) = 0.22155 -0.06468
# Poissons Ratio (y) = 0.50409 0.48083
# Poissons Ratio (z) = -0.10778 0.35215
#
# Static dielectric constant tensor:
#      x y z
#    x 1.977890 0.000000 0.000000 
#    y 0.000000 2.014430 0.000000 
#    z 0.000000 0.000000 1.926130 
# 
# From -- ./inp_files/1713.got.cif
#   From: 2010.05.17/outbox.cif.g08.bks.cpg/sg37_1_cif.got.tgz:1713.got - 2010.06.03 17:53:42.
