data_PCOD9355965
_publ_section_title
;
Structure prediction by ZEFSAII (Michael W. Deem and Ramdas Pophale) SiO2 
 PCOD9355965
Probable space group: A M M 2
;
_chemical_formula_sum "Si O2"
_cell_formula_units_Z 64
_cell_length_a 7.933976
_cell_length_b 27.354713
_cell_length_c 19.223567
_cell_angle_alpha 90.000000
_cell_angle_beta 90.000000
_cell_angle_gamma 90.000000
_cell_volume 4172.122204
_symmetry_space_group_name_H-M "A M M 2"
_symmetry_group_IT_number 38
_symmetry_cell_setting 'orthorhombic'
loop_
_space_group_symop_operation_xyz
x,y,z
-x,-y,z
-x,y,z
x,-y,z
x,1/2+y,1/2+z
-x,1/2-y,1/2+z
-x,1/2+y,1/2+z
x,1/2-y,1/2+z
loop_
_atom_site_type_symbol
_atom_site_label
_atom_site_fract_x
_atom_site_fract_y
_atom_site_fract_z
Si Si1 0.798637 0.944580 0.455390
Si Si2 0.700260 0.648345 0.869326
Si Si3 0.702334 0.055111 0.612750
Si Si4 0.806324 0.211205 0.250964
Si Si5 0.693205 0.696572 0.333518
Si Si6 0.293048 0.242617 0.458057
Si Si7 0.292979 0.146368 0.700487
Si Si8 0.703359 0.256311 0.116814
O O1 0.743256 0.904119 0.400463
O O2 0.739295 0.930661 0.533033
O O3 0.000000 0.945844 0.456144
O O4 0.736174 0.000000 0.441585
O O5 0.500000 0.652427 0.863981
O O6 0.774671 0.662036 0.794077
O O7 0.758614 0.691101 0.922936
O O8 0.500000 0.053421 0.619981
O O9 0.764914 0.096117 0.665889
O O10 0.768582 0.000000 0.623574
O O11 0.695761 0.252971 0.288797
O O12 0.763661 0.214390 0.169783
O O13 0.000000 0.225602 0.260360
O O14 0.500000 0.681999 0.346558
O O15 0.767095 0.713820 0.407073
O O16 0.767175 0.657767 0.278972
O O17 0.500000 0.243166 0.457312
O O18 0.237759 0.247229 0.537511
O O19 0.500000 0.146368 0.702166
O O20 0.243781 0.192054 0.651470
O O21 0.500000 0.255740 0.116116
#
# Coordination Sequence:
#
# PCOD9355965 Si02
#       8
#     8   8   8   8   8   8   8   8
#     4  10  20  31  41  57  82 107 131 165 205 236
#     4  10  18  30  46  60  76 104 139 167 195 233
#     4   9  16  26  40  57  77 105 141 174 201 233
#     4  10  18  27  38  56  80 102 126 158 196 235
#     4   8  14  26  40  54  74 102 133 163 197 236
#     4   8  14  24  41  60  75  97 132 168 195 228
#     4   8  13  22  37  54  74 101 132 167 201 233
#     4   9  15  25  39  54  74 100 130 160 192 233
#
# _framework density 15.339916000000001
#
# number of rings (size 3 to 8) (size 9 to 14) (size 15 to 20)
#    0.000    3.000    0.000    4.125    0.000    2.750 
#    0.000    8.125    0.000    0.000    0.000    0.000 
#    0.000    1.000    0.000    7.000    0.000    1.375 
#
# Total GULP energy -178144.353381 kJ/mol
# GULP energy per Si atom -5567.011043 kJ/mol
# Density = 1.530500 g / cm^3
# Si number density = 15.339916 Si / 1000 Ang^3
#
#
#
# Elastic Constant Matrix: (Units=GPa)
#
#
# Indices 1 2 3 4 5 6 
#
# 1 24.8301 5.3260 7.7218 0.0000 0.0000 0.0000
# 2 5.3260 74.2720 53.1777 0.0000 0.0000 0.0000
# 3 7.7218 53.1777 118.6303 0.0000 0.0000 0.0000
# 4 0.0000 0.0000 0.0000 24.6147 0.0000 0.0000
# 5 0.0000 0.0000 0.0000 0.0000 -13.2550 0.0000
# 6 0.0000 0.0000 0.0000 0.0000 0.0000 7.8002
#
#
#
# Elastic Compliance Matrix: (Units=1/GPa)
#
#
# Indices 1 2 3 4 5 6 
#
# 1 0.041223 -0.001524 -0.002000 0.000000 0.000000 0.000000
# 2 -0.001524 0.019884 -0.008814 0.000000 0.000000 0.000000
# 3 -0.002000 -0.008814 0.012511 0.000000 0.000000 0.000000
# 4 0.000000 0.000000 0.000000 0.040626 0.000000 0.000000
# 5 0.000000 0.000000 0.000000 0.000000 -0.075443 0.000000
# 6 0.000000 0.000000 0.000000 0.000000 0.000000 0.128202
#
#
# Mechanical properties :
#
#
# Convention : Reuss Voigt Hill
#
# Bulk Modulus (GPa) = 20.43274 38.90927 29.67100
# Shear Modulus (GPa) = 24.03930 13.93243 18.98587
#
# Velocity S-wave (km/s) = 3.96297 3.01698 3.52188
# Velocity P-wave (km/s) = 5.85568 6.12830 5.99354
#
# Compressibility (1/GPa) = 0.04894106
#
# Stress axis : x y z
#
# Youngs Moduli (GPa) = 24.25854 50.29143 79.93095
#
# Poissons Ratio (x) = 0.07665 0.15987
# Poissons Ratio (y) = 0.03697 0.70452
# Poissons Ratio (z) = 0.04852 0.44328
#
# Static dielectric constant tensor:
#      x y z
#    x 1.550020 0.000000 0.000000 
#    y 0.000000 1.524740 0.000000 
#    z 0.000000 0.000000 1.530650 
# 
# From -- ./inp_files/17343.got.cif
#   From: 2010.05.17/outbox.cif.g08.bks.cpg/sg38_9_cif.got.tgz:17343.got - 2010.06.03 18:07:57.
