data_PCOD9355567
_publ_section_title
;
Structure prediction by ZEFSAII (Michael W. Deem and Ramdas Pophale) SiO2 
 PCOD9355567
Probable space group: C C C 2
;
_chemical_formula_sum "Si O2"
_cell_formula_units_Z 32
_cell_length_a 15.504077
_cell_length_b 10.493974
_cell_length_c 9.750970
_cell_angle_alpha 90.000000
_cell_angle_beta 90.000000
_cell_angle_gamma 90.000000
_cell_volume 1586.476782
_symmetry_space_group_name_H-M "C C C 2"
_symmetry_group_IT_number 37
_symmetry_cell_setting 'orthorhombic'
loop_
_space_group_symop_operation_xyz
x,y,z
-x,-y,z
-x,y,1/2+z
x,-y,1/2+z
1/2+x,1/2+y,z
1/2-x,1/2-y,z
1/2-x,1/2+y,1/2+z
1/2+x,1/2-y,1/2+z
loop_
_atom_site_type_symbol
_atom_site_label
_atom_site_fract_x
_atom_site_fract_y
_atom_site_fract_z
Si Si1 0.557502 0.378578 0.165640
Si Si2 0.752544 0.400109 0.122094
Si Si3 0.507912 0.206761 0.912026
Si Si4 0.140277 0.512588 0.382043
O O1 0.500000 0.500000 0.133684
O O2 0.655606 0.426979 0.170747
O O3 0.524518 0.311021 0.303688
O O4 0.545221 0.275283 0.045452
O O5 0.750000 0.250000 0.090833
O O6 0.818499 0.430965 0.244657
O O7 0.785642 0.476160 0.989937
O O8 0.426081 0.116280 0.943275
O O9 0.582322 0.113067 0.854357
#
# Coordination Sequence:
#
# PCOD9355567 Si02
#       4
#     8   8   8   8
#     4  12  27  43  67  99 143 176 223 288 343 403
#     4  12  25  45  67 105 138 172 234 281 338 407
#     4  11  23  46  68 100 133 187 228 264 356 407
#     4  11  24  44  75  96 138 182 227 288 328 417
#
# _framework density 20.170483000000001
#
# number of rings (size 3 to 8) (size 9 to 14) (size 15 to 20)
#    0.000    0.500    5.000    2.250    7.000    4.000 
#    0.000    3.750    0.000    0.000    0.000    0.000 
#    0.000    0.000    0.000    0.000    0.000    0.000 
#
# Total GULP energy -89486.679567 kJ/mol
# GULP energy per Si atom -5592.917473 kJ/mol
# Density = 2.012457 g / cm^3
# Si number density = 20.170483 Si / 1000 Ang^3
#
#
#
# Elastic Constant Matrix: (Units=GPa)
#
#
# Indices 1 2 3 4 5 6 
#
# 1 98.0217 13.2489 1.6703 0.0000 0.0000 0.0000
# 2 13.2489 69.0267 5.7029 0.0000 0.0000 0.0000
# 3 1.6703 5.7029 74.0120 0.0000 0.0000 0.0000
# 4 0.0000 0.0000 0.0000 24.8158 0.0000 0.0000
# 5 0.0000 0.0000 0.0000 0.0000 23.9064 0.0000
# 6 0.0000 0.0000 0.0000 0.0000 0.0000 36.2599
#
#
#
# Elastic Compliance Matrix: (Units=1/GPa)
#
#
# Indices 1 2 3 4 5 6 
#
# 1 0.010474 -0.002004 -0.000082 0.000000 0.000000 0.000000
# 2 -0.002004 0.014963 -0.001108 0.000000 0.000000 0.000000
# 3 -0.000082 -0.001108 0.013599 0.000000 0.000000 0.000000
# 4 0.000000 0.000000 0.000000 0.040297 0.000000 0.000000
# 5 0.000000 0.000000 0.000000 0.000000 0.041830 0.000000
# 6 0.000000 0.000000 0.000000 0.000000 0.000000 0.027579
#
#
# Mechanical properties :
#
#
# Convention : Reuss Voigt Hill
#
# Bulk Modulus (GPa) = 30.62871 31.36717 30.99794
# Shear Modulus (GPa) = 30.11850 31.69230 30.90540
#
# Velocity S-wave (km/s) = 3.86838 3.96816 3.91859
# Velocity P-wave (km/s) = 5.93046 6.04813 5.98959
#
# Compressibility (1/GPa) = 0.03264911
#
# Stress axis : x y z
#
# Youngs Moduli (GPa) = 95.47421 66.83040 73.53735
#
# Poissons Ratio (x) = 0.13390 0.00603
# Poissons Ratio (y) = 0.19129 0.08146
# Poissons Ratio (z) = 0.00783 0.07403
#
# Static dielectric constant tensor:
#      x y z
#    x 1.746550 0.000000 0.000000 
#    y 0.000000 1.688300 0.000000 
#    z 0.000000 0.000000 1.669100 
# 
# From -- ./inp_files/2566.got.cif
#   From: 2010.05.17/outbox.cif.g08.bks.cpg/sg37_2_cif.got.tgz:2566.got - 2010.06.03 17:53:42.
