data_PCOD9355907
_publ_section_title
;
Structure prediction by ZEFSAII (Michael W. Deem and Ramdas Pophale) SiO2 
 PCOD9355907
Probable space group: A M M 2
;
_chemical_formula_sum "Si O2"
_cell_formula_units_Z 64
_cell_length_a 9.688286
_cell_length_b 14.848221
_cell_length_c 24.417318
_cell_angle_alpha 90.000000
_cell_angle_beta 90.000000
_cell_angle_gamma 90.000000
_cell_volume 3512.524264
_symmetry_space_group_name_H-M "A M M 2"
_symmetry_group_IT_number 38
_symmetry_cell_setting 'orthorhombic'
loop_
_space_group_symop_operation_xyz
x,y,z
-x,-y,z
-x,y,z
x,-y,z
x,1/2+y,1/2+z
-x,1/2-y,1/2+z
-x,1/2+y,1/2+z
x,1/2-y,1/2+z
loop_
_atom_site_type_symbol
_atom_site_label
_atom_site_fract_x
_atom_site_fract_y
_atom_site_fract_z
Si Si1 0.337838 0.402894 0.002150
Si Si2 0.665121 0.228737 0.937454
Si Si3 0.836059 0.392963 0.511965
Si Si4 0.156967 0.196367 0.123677
Si Si5 0.234847 0.899478 0.623677
Si Si6 0.662162 0.402894 0.245205
Si Si7 0.836059 0.392963 0.735389
Si Si8 0.665121 0.728737 0.809900
O O1 0.500000 0.404901 0.989359
O O2 0.277107 0.500000 0.985359
O O3 0.320199 0.396092 0.067431
O O4 0.282654 0.315743 0.971580
O O5 0.500000 0.216142 0.946464
O O6 0.749525 0.144960 0.961103
O O7 0.685193 0.250000 0.873677
O O8 0.821254 0.500000 0.518360
O O9 0.783066 0.342789 0.567245
O O10 0.000000 0.373038 0.504926
O O11 0.155072 0.304792 0.123677
O O12 0.216934 0.157211 0.180110
O O13 0.000000 0.161920 0.123677
O O14 0.320199 0.896092 0.679924
O O15 0.166747 0.000000 0.623677
O O16 0.500000 0.404901 0.257995
O O17 0.722893 0.500000 0.261996
O O18 0.717346 0.315743 0.275775
O O19 0.821254 0.500000 0.728994
O O20 0.749525 0.355040 0.786251
O O21 0.000000 0.373038 0.742428
O O22 0.500000 0.716141 0.800891
#
# Coordination Sequence:
#
# PCOD9355907 Si02
#       8
#     8   8   8   8   8   8   8   8
#     4   9  17  30  49  74 104 137 172 212 265 328
#     4  10  21  36  56  82 110 143 183 228 275 322
#     4  10  21  38  59  81 109 148 190 229 275 332
#     4  10  19  34  55  79 109 144 181 226 279 338
#     4  10  17  28  51  78 102 133 173 218 273 330
#     4   9  17  30  49  74 104 137 172 212 265 328
#     4  10  21  38  59  81 109 148 190 229 275 332
#     4  10  21  36  56  82 110 143 183 228 275 322
#
# _framework density 18.220514000000001
#
# number of rings (size 3 to 8) (size 9 to 14) (size 15 to 20)
#    0.000    2.250    2.500    0.750    0.000    5.250 
#    0.000    3.125    0.000    2.250    0.000    0.000 
#    0.000    0.000    0.000    0.000    0.000    0.000 
#
# Total GULP energy -178154.772642 kJ/mol
# GULP energy per Si atom -5567.336645 kJ/mol
# Density = 1.817904 g / cm^3
# Si number density = 18.220514 Si / 1000 Ang^3
#
#
#
# Elastic Constant Matrix: (Units=GPa)
#
#
# Indices 1 2 3 4 5 6 
#
# 1 31.2480 29.0285 23.9110 0.0000 0.0000 0.0000
# 2 29.0285 113.0675 47.1467 0.0000 0.0000 0.0000
# 3 23.9110 47.1467 85.2547 0.0000 0.0000 0.0000
# 4 0.0000 0.0000 0.0000 17.7912 0.0000 0.0000
# 5 0.0000 0.0000 0.0000 0.0000 21.5430 0.0000
# 6 0.0000 0.0000 0.0000 0.0000 0.0000 24.1524
#
#
#
# Elastic Compliance Matrix: (Units=1/GPa)
#
#
# Indices 1 2 3 4 5 6 
#
# 1 0.046146 -0.008384 -0.008306 0.000000 0.000000 0.000000
# 2 -0.008384 0.013018 -0.004848 0.000000 0.000000 0.000000
# 3 -0.008306 -0.004848 0.016740 0.000000 0.000000 0.000000
# 4 0.000000 0.000000 0.000000 0.056208 0.000000 0.000000
# 5 0.000000 0.000000 0.000000 0.000000 0.046419 0.000000
# 6 0.000000 0.000000 0.000000 0.000000 0.000000 0.041404
#
#
# Mechanical properties :
#
#
# Convention : Reuss Voigt Hill
#
# Bulk Modulus (GPa) = 30.46097 47.74918 39.10508
# Shear Modulus (GPa) = 18.25131 21.32959 19.79045
#
# Velocity S-wave (km/s) = 3.16838 3.42517 3.29927
# Velocity P-wave (km/s) = 5.48991 6.47345 6.00186
#
# Compressibility (1/GPa) = 0.03282889
#
# Stress axis : x y z
#
# Youngs Moduli (GPa) = 21.67023 76.81584 59.73721
#
# Poissons Ratio (x) = 0.64402 0.49618
# Poissons Ratio (y) = 0.18168 0.28959
# Poissons Ratio (z) = 0.17999 0.37238
#
# Static dielectric constant tensor:
#      x y z
#    x 1.608480 0.000000 0.000000 
#    y 0.000000 1.665180 0.000000 
#    z 0.000000 0.000000 1.627010 
# 
# From -- ./inp_files/22585.got.cif
#   From: 2010.05.17/outbox.cif.g08.bks.cpg/sg38_12_cif.got.tgz:22585.got - 2010.06.03 18:07:57.
