data_PCOD9355390
_publ_section_title
;
Structure prediction by ZEFSAII (Michael W. Deem and Ramdas Pophale) SiO2 
 PCOD9355390
Probable space group: C C C 2
;
_chemical_formula_sum "Si O2"
_cell_formula_units_Z 60
_cell_length_a 18.327469
_cell_length_b 15.596623
_cell_length_c 9.258513
_cell_angle_alpha 90.000000
_cell_angle_beta 90.000000
_cell_angle_gamma 90.000000
_cell_volume 2646.514689
_symmetry_space_group_name_H-M "C C C 2"
_symmetry_group_IT_number 37
_symmetry_cell_setting 'orthorhombic'
loop_
_space_group_symop_operation_xyz
x,y,z
-x,-y,z
-x,y,1/2+z
x,-y,1/2+z
1/2+x,1/2+y,z
1/2-x,1/2-y,z
1/2-x,1/2+y,1/2+z
1/2+x,1/2-y,1/2+z
loop_
_atom_site_type_symbol
_atom_site_label
_atom_site_fract_x
_atom_site_fract_y
_atom_site_fract_z
Si Si1 0.696027 0.821340 0.422920
Si Si2 0.034472 0.696402 0.860392
Si Si3 0.584885 0.876970 0.057132
Si Si4 0.715116 0.377368 0.665977
Si Si5 0.714200 0.168013 0.379218
Si Si6 0.193935 0.468698 0.636499
Si Si7 0.500000 0.500000 0.032033
Si Si8 0.558583 0.617753 0.288560
O O1 0.750000 0.750000 0.482001
O O2 0.611679 0.800315 0.443853
O O3 0.719461 0.833480 0.256543
O O4 0.708886 0.911984 0.497138
O O5 0.052190 0.657943 0.704638
O O6 0.014135 0.796388 0.833716
O O7 0.980909 0.631778 0.943080
O O8 0.627797 0.965877 0.095442
O O9 0.644982 0.815880 0.982028
O O10 0.724509 0.359429 0.496556
O O11 0.734577 0.477210 0.676006
O O12 0.640897 0.355442 0.746797
O O13 0.750000 0.250000 0.305410
O O14 0.684954 0.096807 0.268808
O O15 0.531468 0.570889 0.142645
O O16 0.446414 0.550437 0.921198
#
# Coordination Sequence:
#
# PCOD9355390 Si02
#       8
#     8   8   8   8   8   8   4   8
#     4  12  24  46  72 105 141 192 249 314 381 452
#     4  12  25  48  74 103 148 202 247 308 381 462
#     4  11  27  47  71 105 150 199 249 310 379 465
#     4  11  22  42  74 100 141 191 244 312 372 450
#     4  11  23  46  72 106 142 192 257 323 381 454
#     4  11  26  45  67 109 146 187 258 314 380 452
#     4  10  26  46  66 110 154 188 242 312 378 464
#     4  11  24  45  73 106 147 196 247 304 384 453
#
# _framework density 22.671325
#
# number of rings (size 3 to 8) (size 9 to 14) (size 15 to 20)
#    0.000    0.800    4.000    4.000    5.600    0.533 
#    2.400    0.000    0.000    0.000    0.000    0.000 
#    0.000    0.000    0.000    0.000    0.000    0.000 
#
# Total GULP energy -167414.908100 kJ/mol
# GULP energy per Si atom -5580.496937 kJ/mol
# Density = 2.261972 g / cm^3
# Si number density = 22.671325 Si / 1000 Ang^3
#
#
#
# Elastic Constant Matrix: (Units=GPa)
#
#
# Indices 1 2 3 4 5 6 
#
# 1 82.9405 30.3093 31.7586 0.0000 0.0000 0.0000
# 2 30.3093 119.3140 46.8485 0.0000 0.0000 0.0000
# 3 31.7586 46.8485 123.7462 0.0000 0.0000 0.0000
# 4 0.0000 0.0000 0.0000 -2.7205 0.0000 0.0000
# 5 0.0000 0.0000 0.0000 0.0000 13.8277 0.0000
# 6 0.0000 0.0000 0.0000 0.0000 0.0000 28.4026
#
#
#
# Elastic Compliance Matrix: (Units=1/GPa)
#
#
# Indices 1 2 3 4 5 6 
#
# 1 0.013986 -0.002518 -0.002636 0.000000 0.000000 0.000000
# 2 -0.002518 0.010298 -0.003252 0.000000 0.000000 0.000000
# 3 -0.002636 -0.003252 0.009989 0.000000 0.000000 0.000000
# 4 0.000000 0.000000 0.000000 -0.367574 0.000000 0.000000
# 5 0.000000 0.000000 0.000000 0.000000 0.072319 0.000000
# 6 0.000000 0.000000 0.000000 0.000000 0.000000 0.035208
#
#
# Mechanical properties :
#
#
# Convention : Reuss Voigt Hill
#
# Bulk Modulus (GPa) = 57.27333 60.42593 58.84963
# Shear Modulus (GPa) = -24.61349 22.37424 -1.11963
#
# Velocity S-wave (km/s) = -3.29852 3.14490 -0.70351
# Velocity P-wave (km/s) = 3.28791 6.31649 5.03529
#
# Compressibility (1/GPa) = 0.01746013
#
# Stress axis : x y z
#
# Youngs Moduli (GPa) = 71.49809 97.10694 100.11038
#
# Poissons Ratio (x) = 0.24450 0.26392
# Poissons Ratio (y) = 0.18002 0.32561
# Poissons Ratio (z) = 0.18849 0.31584
#
# Static dielectric constant tensor:
#      x y z
#    x 1.880290 0.000000 0.000000 
#    y 0.000000 1.852830 0.000000 
#    z 0.000000 0.000000 1.865690 
# 
# From -- ./inp_files/4084.got.cif
#   From: 2010.05.17/outbox.cif.g08.bks.cpg/sg37_3_cif.got.tgz:4084.got - 2010.06.03 17:53:42.
