data_PCOD9355981
_publ_section_title
;
Structure prediction by ZEFSAII (Michael W. Deem and Ramdas Pophale) SiO2 
 PCOD9355981
Probable space group: A M M 2
;
_chemical_formula_sum "Si O2"
_cell_formula_units_Z 48
_cell_length_a 7.334061
_cell_length_b 19.465246
_cell_length_c 13.916007
_cell_angle_alpha 90.000000
_cell_angle_beta 90.000000
_cell_angle_gamma 90.000000
_cell_volume 1986.639440
_symmetry_space_group_name_H-M "A M M 2"
_symmetry_group_IT_number 38
_symmetry_cell_setting 'orthorhombic'
loop_
_space_group_symop_operation_xyz
x,y,z
-x,-y,z
-x,y,z
x,-y,z
x,1/2+y,1/2+z
-x,1/2-y,1/2+z
-x,1/2+y,1/2+z
x,1/2-y,1/2+z
loop_
_atom_site_type_symbol
_atom_site_label
_atom_site_fract_x
_atom_site_fract_y
_atom_site_fract_z
Si Si1 0.297948 0.879070 0.750000
Si Si2 0.722536 0.215978 0.587011
Si Si3 0.277134 0.000000 0.885372
Si Si4 0.722681 0.148594 0.177913
Si Si5 0.721917 0.500000 0.607892
Si Si6 0.209149 0.000000 0.623344
Si Si7 0.207194 0.500000 0.896391
Si Si8 0.293500 0.155639 0.384998
O O1 0.500000 0.857034 0.783235
O O2 0.211620 0.818277 0.687415
O O3 0.218185 0.928909 0.832826
O O4 0.308588 0.934393 0.663977
O O5 0.500000 0.209273 0.589916
O O6 0.769097 0.296256 0.595784
O O7 0.785888 0.180120 0.487595
O O8 0.500000 0.000000 0.876116
O O9 0.227843 0.000000 0.996012
O O10 0.500000 0.147079 0.182276
O O11 0.788099 0.175150 0.282076
O O12 0.783149 0.071214 0.155442
O O13 0.500000 0.500000 0.612480
O O14 0.203152 0.000000 0.510986
O O15 0.000000 0.000000 0.658322
O O16 0.296574 0.572783 0.874526
O O17 0.000000 0.500000 0.859604
O O18 0.500000 0.182296 0.386785
#
# Coordination Sequence:
#
# PCOD9355981 Si02
#       8
#     8   8   4   8   4   4   4   8
#     4   9  16  28  45  69  98 127 161 197 242 298
#     4   9  17  28  45  69  98 125 157 206 249 290
#     4   8  15  24  40  62  87 125 158 187 233 284
#     4   9  18  30  46  72 100 128 166 206 249 302
#     4   9  16  28  41  62  99 130 157 201 250 294
#     4  10  18  27  43  70 101 129 157 197 244 290
#     4  11  21  31  49  76 105 134 168 211 251 296
#     4  10  19  32  52  75 101 137 171 205 255 303
#
# _framework density 24.161407000000001
#
# number of rings (size 3 to 8) (size 9 to 14) (size 15 to 20)
#    0.000    2.667    1.667    1.500    0.000    3.333 
#    0.000    6.667    0.000    2.000    0.000    9.333 
#    0.000    0.000    0.000    0.000    0.000    0.000 
#
# Total GULP energy -133758.915914 kJ/mol
# GULP energy per Si atom -5573.288163 kJ/mol
# Density = 2.410641 g / cm^3
# Si number density = 24.161407 Si / 1000 Ang^3
#
#
#
# Elastic Constant Matrix: (Units=GPa)
#
#
# Indices 1 2 3 4 5 6 
#
# 1 99.1727 -2.9531 4.3637 0.0000 0.0000 0.0000
# 2 -2.9531 152.6972 67.5114 0.0000 0.0000 0.0000
# 3 4.3637 67.5114 169.9688 0.0000 0.0000 0.0000
# 4 0.0000 0.0000 0.0000 -0.0494 0.0000 0.0000
# 5 0.0000 0.0000 0.0000 0.0000 -14.1365 0.0000
# 6 0.0000 0.0000 0.0000 0.0000 0.0000 -36.3866
#
#
#
# Elastic Compliance Matrix: (Units=1/GPa)
#
#
# Indices 1 2 3 4 5 6 
#
# 1 0.010113 0.000376 -0.000409 0.000000 0.000000 0.000000
# 2 0.000376 0.007958 -0.003171 0.000000 0.000000 0.000000
# 3 -0.000409 -0.003171 0.007153 0.000000 0.000000 0.000000
# 4 0.000000 0.000000 0.000000-20.223063 0.000000 0.000000
# 5 0.000000 0.000000 0.000000 0.000000 -0.070739 0.000000
# 6 0.000000 0.000000 0.000000 0.000000 0.000000 -0.027483
#
#
# Mechanical properties :
#
#
# Convention : Reuss Voigt Hill
#
# Bulk Modulus (GPa) = 53.14233 62.18696 57.66464
# Shear Modulus (GPa) = -0.24651 13.41329 6.58339
#
# Velocity S-wave (km/s) = -0.31976 2.35873 1.65247
# Velocity P-wave (km/s) = 4.68040 5.76300 5.24968
#
# Compressibility (1/GPa) = 0.01881739
#
# Stress axis : x y z
#
# Youngs Moduli (GPa) = 98.88625 125.66007 139.79597
#
# Poissons Ratio (x) = -0.04731 0.05720
# Poissons Ratio (y) = -0.03723 0.44323
# Poissons Ratio (z) = 0.04046 0.39841
#
# Static dielectric constant tensor:
#      x y z
#    x 1.979350 0.000000 0.000000 
#    y 0.000000 1.965520 0.000000 
#    z 0.000000 0.000000 1.903290 
# 
# From -- ./inp_files/12159.got.cif
#   From: 2010.05.17/outbox.cif.g08.bks.cpg/sg38_7_cif.got.tgz:12159.got - 2010.06.03 18:07:57.
