data_PCOD9355109
_publ_section_title
;
Structure prediction by ZEFSAII (Michael W. Deem and Ramdas Pophale) SiO2 
 PCOD9355109
Probable space group: C C C 2
;
_chemical_formula_sum "Si O2"
_cell_formula_units_Z 36
_cell_length_a 14.821591
_cell_length_b 7.528990
_cell_length_c 14.320708
_cell_angle_alpha 90.000000
_cell_angle_beta 90.000000
_cell_angle_gamma 90.000000
_cell_volume 1598.070868
_symmetry_space_group_name_H-M "C C C 2"
_symmetry_group_IT_number 37
_symmetry_cell_setting 'orthorhombic'
loop_
_space_group_symop_operation_xyz
x,y,z
-x,-y,z
-x,y,1/2+z
x,-y,1/2+z
1/2+x,1/2+y,z
1/2-x,1/2-y,z
1/2-x,1/2+y,1/2+z
1/2+x,1/2-y,1/2+z
loop_
_atom_site_type_symbol
_atom_site_label
_atom_site_fract_x
_atom_site_fract_y
_atom_site_fract_z
Si Si1 0.667428 0.501823 0.317600
Si Si2 0.000000 0.500000 0.932563
Si Si3 0.922994 0.688064 0.089911
Si Si4 0.250000 0.750000 0.473143
Si Si5 0.000000 0.000000 0.705370
Si Si6 0.138355 0.578813 0.780162
O O1 0.698170 0.399022 0.410938
O O2 0.578127 0.416727 0.271397
O O3 0.762505 0.500418 0.263103
O O4 0.645518 0.714549 0.316379
O O5 0.915320 0.511808 0.864147
O O6 0.996470 0.656800 0.008833
O O7 0.913007 0.568000 0.182367
O O8 0.944517 0.873236 0.137818
O O9 0.827425 0.672393 0.039084
#
# Coordination Sequence:
#
# PCOD9355109 Si02
#       6
#     8   4   8   4   4   8
#     4  10  23  42  69  95 138 184 218 288 342 413
#     4  12  24  42  72  98 134 186 226 286 336 426
#     4  11  25  41  68 101 135 176 229 283 338 417
#     4  12  24  40  68 106 132 180 228 278 346 412
#     4  10  24  44  70 102 138 178 228 290 344 408
#     4  10  23  48  63  95 145 178 226 285 348 402
#
# _framework density 22.527159999999999
#
# number of rings (size 3 to 8) (size 9 to 14) (size 15 to 20)
#    0.000    1.333    2.222    3.333    9.333    1.778 
#    0.000    0.000    0.000    0.000    0.000    0.000 
#    0.000    0.000    0.000    0.000    0.000    0.000 
#
# Total GULP energy -100281.385146 kJ/mol
# GULP energy per Si atom -5571.188064 kJ/mol
# Density = 2.247589 g / cm^3
# Si number density = 22.527160 Si / 1000 Ang^3
#
#
#
# Elastic Constant Matrix: (Units=GPa)
#
#
# Indices 1 2 3 4 5 6 
#
# 1 112.7807 25.2536 73.0621 0.0000 0.0000 0.0000
# 2 25.2536 29.8301 40.6989 0.0000 0.0000 0.0000
# 3 73.0621 40.6989 177.2351 0.0000 0.0000 0.0000
# 4 0.0000 0.0000 0.0000 34.6932 0.0000 0.0000
# 5 0.0000 0.0000 0.0000 0.0000 38.6015 0.0000
# 6 0.0000 0.0000 0.0000 0.0000 0.0000 26.4217
#
#
#
# Elastic Compliance Matrix: (Units=1/GPa)
#
#
# Indices 1 2 3 4 5 6 
#
# 1 0.012633 -0.005228 -0.004008 0.000000 0.000000 0.000000
# 2 -0.005228 0.050981 -0.009552 0.000000 0.000000 0.000000
# 3 -0.004008 -0.009552 0.009488 0.000000 0.000000 0.000000
# 4 0.000000 0.000000 0.000000 0.028824 0.000000 0.000000
# 5 0.000000 0.000000 0.000000 0.000000 0.025906 0.000000
# 6 0.000000 0.000000 0.000000 0.000000 0.000000 0.037848
#
#
# Mechanical properties :
#
#
# Convention : Reuss Voigt Hill
#
# Bulk Modulus (GPa) = 28.14667 66.43053 47.28860
# Shear Modulus (GPa) = 23.24539 31.99869 27.62204
#
# Velocity S-wave (km/s) = 3.21578 3.77297 3.50546
# Velocity P-wave (km/s) = 5.12933 6.96660 6.11733
#
# Compressibility (1/GPa) = 0.03552818
#
# Stress axis : x y z
#
# Youngs Moduli (GPa) = 79.15476 19.61514 105.39993
#
# Poissons Ratio (x) = 0.10254 0.42239
# Poissons Ratio (y) = 0.41379 1.00677
# Poissons Ratio (z) = 0.31721 0.18736
#
# Static dielectric constant tensor:
#      x y z
#    x 1.896150 0.000000 0.000000 
#    y 0.000000 1.977200 0.000000 
#    z 0.000000 0.000000 1.786930 
# 
# From -- ./inp_files/7639.got.cif
#   From: 2010.05.17/outbox.cif.g08.bks.cpg/sg37_4_cif.got.tgz:7639.got - 2010.06.03 17:53:42.
