data_PCOD9355182
_publ_section_title
;
Structure prediction by ZEFSAII (Michael W. Deem and Ramdas Pophale) SiO2 
 PCOD9355182
Probable space group: C C C 2
;
_chemical_formula_sum "Si O2"
_cell_formula_units_Z 48
_cell_length_a 14.078117
_cell_length_b 5.396132
_cell_length_c 27.012893
_cell_angle_alpha 90.000000
_cell_angle_beta 90.000000
_cell_angle_gamma 90.000000
_cell_volume 2052.098644
_symmetry_space_group_name_H-M "C C C 2"
_symmetry_group_IT_number 37
_symmetry_cell_setting 'orthorhombic'
loop_
_space_group_symop_operation_xyz
x,y,z
-x,-y,z
-x,y,1/2+z
x,-y,1/2+z
1/2+x,1/2+y,z
1/2-x,1/2-y,z
1/2-x,1/2+y,1/2+z
1/2+x,1/2-y,1/2+z
loop_
_atom_site_type_symbol
_atom_site_label
_atom_site_fract_x
_atom_site_fract_y
_atom_site_fract_z
Si Si1 0.897100 0.903440 0.213740
Si Si2 0.611755 0.988753 0.007168
Si Si3 0.250000 0.750000 0.245138
Si Si4 0.385353 0.510854 0.069178
Si Si5 0.308268 0.002615 0.397796
Si Si6 0.750000 0.750000 0.145747
Si Si7 0.101752 0.414766 0.300691
O O1 0.841760 0.692848 0.181983
O O2 0.892293 0.847090 0.272877
O O3 0.825142 0.125328 0.209615
O O4 0.000000 0.000000 0.199398
O O5 0.664430 0.009099 0.955167
O O6 0.500000 0.000000 0.996184
O O7 0.628112 0.720424 0.031562
O O8 0.631279 0.223012 0.043249
O O9 0.190197 0.566132 0.279494
O O10 0.500000 0.500000 0.083622
O O11 0.305514 0.445468 0.110181
O O12 0.250000 0.750000 0.388798
O O13 0.250000 0.250000 0.386450
O O14 0.393696 0.036992 0.358880
O O15 0.000000 0.500000 0.280626
#
# Coordination Sequence:
#
# PCOD9355182 Si02
#       7
#     8   8   4   8   8   4   8
#     4  12  26  46  73 109 148 198 248 312 378 446
#     4  10  23  47  71 103 146 187 244 304 378 445
#     4  12  22  46  71 100 146 193 242 298 368 438
#     4  10  24  46  71 105 143 191 245 315 375 446
#     4  12  26  42  73 112 147 195 250 300 371 462
#     4  12  26  44  75 102 146 191 260 308 380 448
#     4  12  25  46  72 106 152 198 244 308 370 447
#
# _framework density 23.390688000000001
#
# number of rings (size 3 to 8) (size 9 to 14) (size 15 to 20)
#    0.000    0.667    4.167    3.000    3.500    1.333 
#    0.000    5.000    0.000    0.000    0.000    0.000 
#    0.000    0.000    0.000    0.000    0.000    0.000 
#
# Total GULP energy -133867.415680 kJ/mol
# GULP energy per Si atom -5577.808987 kJ/mol
# Density = 2.333745 g / cm^3
# Si number density = 23.390688 Si / 1000 Ang^3
#
#
#
# Elastic Constant Matrix: (Units=GPa)
#
#
# Indices 1 2 3 4 5 6 
#
# 1 186.2347 43.0243 39.1706 0.0000 0.0000 0.0000
# 2 43.0243 117.9729 30.5806 0.0000 0.0000 0.0000
# 3 39.1706 30.5806 113.7854 0.0000 0.0000 0.0000
# 4 0.0000 0.0000 0.0000 24.0977 0.0000 0.0000
# 5 0.0000 0.0000 0.0000 0.0000 19.2461 0.0000
# 6 0.0000 0.0000 0.0000 0.0000 0.0000 32.6008
#
#
#
# Elastic Compliance Matrix: (Units=1/GPa)
#
#
# Indices 1 2 3 4 5 6 
#
# 1 0.006130 -0.001815 -0.001622 0.000000 0.000000 0.000000
# 2 -0.001815 0.009649 -0.001968 0.000000 0.000000 0.000000
# 3 -0.001622 -0.001968 0.009876 0.000000 0.000000 0.000000
# 4 0.000000 0.000000 0.000000 0.041498 0.000000 0.000000
# 5 0.000000 0.000000 0.000000 0.000000 0.051959 0.000000
# 6 0.000000 0.000000 0.000000 0.000000 0.000000 0.030674
#
#
# Mechanical properties :
#
#
# Convention : Reuss Voigt Hill
#
# Bulk Modulus (GPa) = 67.37131 71.50488 69.43809
# Shear Modulus (GPa) = 30.20330 35.53674 32.87002
#
# Velocity S-wave (km/s) = 3.59730 3.90201 3.75275
# Velocity P-wave (km/s) = 6.79111 7.13702 6.96621
#
# Compressibility (1/GPa) = 0.01484311
#
# Stress axis : x y z
#
# Youngs Moduli (GPa) = 163.12828 103.64096 101.25540
#
# Poissons Ratio (x) = 0.18812 0.16429
# Poissons Ratio (y) = 0.29609 0.19930
# Poissons Ratio (z) = 0.26467 0.20400
#
# Static dielectric constant tensor:
#      x y z
#    x 1.960500 0.000000 0.000000 
#    y 0.000000 2.024450 0.000000 
#    z 0.000000 0.000000 1.958910 
# 
# From -- ./inp_files/19894.got.cif
#   From: 2010.05.17/outbox.cif.g08.bks.cpg/sg37_10_cif.got.tgz:19894.got - 2010.06.03 17:53:42.
