data_PCOD9355044
_publ_section_title
;
Structure prediction by ZEFSAII (Michael W. Deem and Ramdas Pophale) SiO2 
 PCOD9355044
Probable space group: C C C 2
;
_chemical_formula_sum "Si O2"
_cell_formula_units_Z 32
_cell_length_a 20.674819
_cell_length_b 12.012214
_cell_length_c 5.500882
_cell_angle_alpha 90.000000
_cell_angle_beta 90.000000
_cell_angle_gamma 90.000000
_cell_volume 1366.145971
_symmetry_space_group_name_H-M "C C C 2"
_symmetry_group_IT_number 37
_symmetry_cell_setting 'orthorhombic'
loop_
_space_group_symop_operation_xyz
x,y,z
-x,-y,z
-x,y,1/2+z
x,-y,1/2+z
1/2+x,1/2+y,z
1/2-x,1/2-y,z
1/2-x,1/2+y,1/2+z
1/2+x,1/2-y,1/2+z
loop_
_atom_site_type_symbol
_atom_site_label
_atom_site_fract_x
_atom_site_fract_y
_atom_site_fract_z
Si Si1 0.304022 0.652887 0.713660
Si Si2 0.975988 0.370118 0.105846
Si Si3 0.303877 0.032577 0.710745
Si Si4 0.154023 0.240169 0.713700
O O1 0.250000 0.750000 0.714873
O O2 0.261476 0.540876 0.708725
O O3 0.344110 0.673081 0.466067
O O4 0.342248 0.669426 0.966223
O O5 0.906984 0.324933 0.198994
O O6 0.000000 0.500000 0.084850
O O7 0.019736 0.326726 0.329421
O O8 0.290999 0.162594 0.715591
O O9 0.338447 0.001443 0.459746
#
# Coordination Sequence:
#
# PCOD9355044 Si02
#       4
#     8   8   8   8
#     4  12  23  37  57  87 121 172 202 229 292 370
#     4  10  23  37  59  84 113 160 201 235 296 365
#     4  12  23  35  60  82 124 172 196 232 294 355
#     4  12  24  40  58  86 132 163 188 253 295 340
#
# _framework density 23.423559000000001
#
# number of rings (size 3 to 8) (size 9 to 14) (size 15 to 20)
#    0.000    0.500    5.000    3.750    7.000    0.000 
#    0.000    0.000    0.000    0.000    0.000    0.000 
#    0.000   70.000    0.000    0.000    0.000    0.000 
#
# Total GULP energy -89268.787333 kJ/mol
# GULP energy per Si atom -5579.299208 kJ/mol
# Density = 2.337025 g / cm^3
# Si number density = 23.423559 Si / 1000 Ang^3
#
#
#
# Elastic Constant Matrix: (Units=GPa)
#
#
# Indices 1 2 3 4 5 6 
#
# 1 47.0350 23.4830 -0.5613 0.0000 0.0000 0.0000
# 2 23.4830 76.6455 -1.5719 0.0000 0.0000 0.0000
# 3 -0.5613 -1.5719 199.7555 0.0000 0.0000 0.0000
# 4 0.0000 0.0000 0.0000 32.2476 0.0000 0.0000
# 5 0.0000 0.0000 0.0000 0.0000 19.3423 0.0000
# 6 0.0000 0.0000 0.0000 0.0000 0.0000 36.7666
#
#
#
# Elastic Compliance Matrix: (Units=1/GPa)
#
#
# Indices 1 2 3 4 5 6 
#
# 1 0.025100 -0.007690 0.000010 0.000000 0.000000 0.000000
# 2 -0.007690 0.015405 0.000100 0.000000 0.000000 0.000000
# 3 0.000010 0.000100 0.005007 0.000000 0.000000 0.000000
# 4 0.000000 0.000000 0.000000 0.031010 0.000000 0.000000
# 5 0.000000 0.000000 0.000000 0.000000 0.051700 0.000000
# 6 0.000000 0.000000 0.000000 0.000000 0.000000 0.027199
#
#
# Mechanical properties :
#
#
# Convention : Reuss Voigt Hill
#
# Bulk Modulus (GPa) = 32.94733 40.68174 36.81453
# Shear Modulus (GPa) = 27.67027 37.81039 32.74033
#
# Velocity S-wave (km/s) = 3.44073 4.02207 3.74271
# Velocity P-wave (km/s) = 5.46638 6.24300 5.86755
#
# Compressibility (1/GPa) = 0.03035148
#
# Stress axis : x y z
#
# Youngs Moduli (GPa) = 39.84019 64.91295 199.72308
#
# Poissons Ratio (x) = 0.49919 -0.00200
# Poissons Ratio (y) = 0.30638 -0.01990
# Poissons Ratio (z) = -0.00040 -0.00647
#
# Static dielectric constant tensor:
#      x y z
#    x 2.028860 0.000000 0.000000 
#    y 0.000000 1.911170 0.000000 
#    z 0.000000 0.000000 2.013380 
# 
# From -- ./inp_files/434.got.cif
#   From: 2010.05.17/outbox.cif.g08.bks.cpg/sg37_1_cif.got.tgz:434.got - 2010.06.03 17:53:42.
