data_PCOD9355826
_publ_section_title
;
Structure prediction by ZEFSAII (Michael W. Deem and Ramdas Pophale) SiO2 
 PCOD9355826
Probable space group: A M M 2
;
_chemical_formula_sum "Si O2"
_cell_formula_units_Z 44
_cell_length_a 12.103365
_cell_length_b 14.186884
_cell_length_c 13.962319
_cell_angle_alpha 90.000000
_cell_angle_beta 90.000000
_cell_angle_gamma 90.000000
_cell_volume 2397.456326
_symmetry_space_group_name_H-M "A M M 2"
_symmetry_group_IT_number 38
_symmetry_cell_setting 'orthorhombic'
loop_
_space_group_symop_operation_xyz
x,y,z
-x,-y,z
-x,y,z
x,-y,z
x,1/2+y,1/2+z
-x,1/2-y,1/2+z
-x,1/2+y,1/2+z
x,1/2-y,1/2+z
loop_
_atom_site_type_symbol
_atom_site_label
_atom_site_fract_x
_atom_site_fract_y
_atom_site_fract_z
Si Si1 0.742893 0.611905 0.789550
Si Si2 0.131198 0.235359 0.141768
Si Si3 0.500000 0.888945 0.682606
Si Si4 0.257353 0.725650 0.445147
Si Si5 0.500000 0.889036 0.300049
Si Si6 0.258145 0.110278 0.760446
Si Si7 0.500000 0.234211 0.491415
O O1 0.754808 0.500000 0.806419
O O2 0.827182 0.651642 0.711490
O O3 0.752309 0.675083 0.886120
O O4 0.617364 0.631521 0.751328
O O5 0.188240 0.328485 0.185999
O O6 0.000000 0.242416 0.143278
O O7 0.177353 0.222780 0.035210
O O8 0.611581 0.870690 0.741621
O O9 0.500000 0.825576 0.588453
O O10 0.500000 0.000000 0.656178
O O11 0.231329 0.647177 0.366096
O O12 0.383483 0.712777 0.481694
O O13 0.500000 0.835130 0.400114
O O14 0.500000 0.000000 0.319789
O O15 0.238548 0.000000 0.749108
#
# Coordination Sequence:
#
# PCOD9355826 Si02
#       7
#     8   8   4   8   4   8   4
#     4   9  20  38  61  88 118 148 185 238 294 351
#     4  11  24  40  57  82 115 156 206 246 283 339
#     4  10  18  32  60  92 119 147 186 235 296 363
#     4  10  21  36  59  88 118 153 191 236 291 352
#     4   8  15  30  55  89 120 142 176 224 286 355
#     4  10  22  40  61  88 120 153 191 242 297 352
#     4  10  16  30  56  89 117 153 180 225 290 352
#
# _framework density 18.352785999999998
#
# number of rings (size 3 to 8) (size 9 to 14) (size 15 to 20)
#    0.000    2.182    1.818    0.818    0.000    8.727 
#    0.000    0.000    0.000    3.273    0.000    0.000 
#    0.000    0.000    0.000    0.000    0.000    0.000 
#
# Total GULP energy -122755.324455 kJ/mol
# GULP energy per Si atom -5579.787475 kJ/mol
# Density = 1.831101 g / cm^3
# Si number density = 18.352786 Si / 1000 Ang^3
#
#
#
# Elastic Constant Matrix: (Units=GPa)
#
#
# Indices 1 2 3 4 5 6 
#
# 1 122.2196 8.8078 40.5411 0.0000 0.0000 0.0000
# 2 8.8078 51.8518 -0.8793 0.0000 0.0000 0.0000
# 3 40.5411 -0.8793 76.8696 0.0000 0.0000 0.0000
# 4 0.0000 0.0000 0.0000 6.4077 0.0000 0.0000
# 5 0.0000 0.0000 0.0000 0.0000 -15.2698 0.0000
# 6 0.0000 0.0000 0.0000 0.0000 0.0000 -0.8102
#
#
#
# Elastic Compliance Matrix: (Units=1/GPa)
#
#
# Indices 1 2 3 4 5 6 
#
# 1 0.010083 -0.001803 -0.005338 0.000000 0.000000 0.000000
# 2 -0.001803 0.019612 0.001175 0.000000 0.000000 0.000000
# 3 -0.005338 0.001175 0.015838 0.000000 0.000000 0.000000
# 4 0.000000 0.000000 0.000000 0.156063 0.000000 0.000000
# 5 0.000000 0.000000 0.000000 0.000000 -0.065489 0.000000
# 6 0.000000 0.000000 0.000000 0.000000 0.000000 -1.234220
#
#
# Mechanical properties :
#
#
# Convention : Reuss Voigt Hill
#
# Bulk Modulus (GPa) = 29.76162 38.65337 34.20750
# Shear Modulus (GPa) = -4.65125 11.56361 3.45618
#
# Velocity S-wave (km/s) = -1.59369 2.51285 1.37378
# Velocity P-wave (km/s) = 3.58680 5.43381 4.60388
#
# Compressibility (1/GPa) = 0.03360032
#
# Stress axis : x y z
#
# Youngs Moduli (GPa) = 99.17998 50.98923 63.13970
#
# Poissons Ratio (x) = 0.09195 0.33706
# Poissons Ratio (y) = 0.17884 -0.07421
# Poissons Ratio (z) = 0.52945 -0.05993
#
# Static dielectric constant tensor:
#      x y z
#    x 1.645200 0.000000 0.000000 
#    y 0.000000 1.636300 0.000000 
#    z 0.000000 0.000000 1.602280 
# 
# From -- ./inp_files/13658.got.cif
#   From: 2010.05.17/outbox.cif.g08.bks.cpg/sg38_7_cif.got.tgz:13658.got - 2010.06.03 18:07:57.
