data_PCOD9355720
_publ_section_title
;
Structure prediction by ZEFSAII (Michael W. Deem and Ramdas Pophale) SiO2 
 PCOD9355720
Probable space group: C C C 2
;
_chemical_formula_sum "Si O2"
_cell_formula_units_Z 40
_cell_length_a 16.988907
_cell_length_b 10.658464
_cell_length_c 9.118046
_cell_angle_alpha 90.000000
_cell_angle_beta 90.000000
_cell_angle_gamma 90.000000
_cell_volume 1651.056140
_symmetry_space_group_name_H-M "C C C 2"
_symmetry_group_IT_number 37
_symmetry_cell_setting 'orthorhombic'
loop_
_space_group_symop_operation_xyz
x,y,z
-x,-y,z
-x,y,1/2+z
x,-y,1/2+z
1/2+x,1/2+y,z
1/2-x,1/2-y,z
1/2-x,1/2+y,1/2+z
1/2+x,1/2-y,1/2+z
loop_
_atom_site_type_symbol
_atom_site_label
_atom_site_fract_x
_atom_site_fract_y
_atom_site_fract_z
Si Si1 0.750000 0.750000 0.465680
Si Si2 0.329564 0.181671 0.955641
Si Si3 0.029168 0.140285 0.059350
Si Si4 0.000000 0.500000 0.202234
Si Si5 0.334221 0.041010 0.652648
Si Si6 0.421186 0.244227 0.349862
O O1 0.726198 0.867401 0.569891
O O2 0.672066 0.740278 0.367651
O O3 0.250000 0.250000 0.917067
O O4 0.341181 0.083470 0.821905
O O5 0.398172 0.285481 0.978728
O O6 0.314438 0.099812 0.102185
O O7 0.049113 0.155621 0.229529
O O8 0.000000 0.000000 0.027048
O O9 0.954814 0.218889 0.006989
O O10 0.074026 0.543687 0.105967
O O11 0.037972 0.384167 0.292356
#
# Coordination Sequence:
#
# PCOD9355720 Si02
#       6
#     4   8   8   4   8   8
#     4  12  30  48  82 128 168 226 282 370 432 512
#     4  12  29  53  84 130 174 232 288 372 441 520
#     4  12  29  53  82 118 174 223 285 358 440 525
#     4  12  24  54  88 122 158 224 290 366 420 534
#     4  12  27  53  86 120 174 221 299 356 438 521
#     4  12  28  52  84 120 168 223 288 352 440 513
#
# _framework density 24.226917
#
# number of rings (size 3 to 8) (size 9 to 14) (size 15 to 20)
#    0.000    0.000    5.000    3.000    4.200    1.600 
#    0.000    0.000    0.000    0.000    0.000    0.000 
#    0.000    0.000    0.000    0.000    0.000    0.000 
#
# Total GULP energy -111670.233152 kJ/mol
# GULP energy per Si atom -5583.511658 kJ/mol
# Density = 2.417178 g / cm^3
# Si number density = 24.226917 Si / 1000 Ang^3
#
#
#
# Elastic Constant Matrix: (Units=GPa)
#
#
# Indices 1 2 3 4 5 6 
#
# 1 153.3986 46.8064 15.6506 0.0000 0.0000 0.0000
# 2 46.8064 156.8706 23.3622 0.0000 0.0000 0.0000
# 3 15.6506 23.3622 91.6728 0.0000 0.0000 0.0000
# 4 0.0000 0.0000 0.0000 42.2262 0.0000 0.0000
# 5 0.0000 0.0000 0.0000 0.0000 48.2447 0.0000
# 6 0.0000 0.0000 0.0000 0.0000 0.0000 51.5881
#
#
#
# Elastic Compliance Matrix: (Units=1/GPa)
#
#
# Indices 1 2 3 4 5 6 
#
# 1 0.007216 -0.002047 -0.000710 0.000000 0.000000 0.000000
# 2 -0.002047 0.007207 -0.001487 0.000000 0.000000 0.000000
# 3 -0.000710 -0.001487 0.011409 0.000000 0.000000 0.000000
# 4 0.000000 0.000000 0.000000 0.023682 0.000000 0.000000
# 5 0.000000 0.000000 0.000000 0.000000 0.020728 0.000000
# 6 0.000000 0.000000 0.000000 0.000000 0.000000 0.019384
#
#
# Mechanical properties :
#
#
# Convention : Reuss Voigt Hill
#
# Bulk Modulus (GPa) = 57.66219 63.73114 60.69666
# Shear Modulus (GPa) = 48.12510 49.48666 48.80588
#
# Velocity S-wave (km/s) = 4.46177 4.52445 4.49322
# Velocity P-wave (km/s) = 7.09900 7.32511 7.21294
#
# Compressibility (1/GPa) = 0.01734239
#
# Stress axis : x y z
#
# Youngs Moduli (GPa) = 138.57842 138.75331 87.65324
#
# Poissons Ratio (x) = 0.28408 0.06225
# Poissons Ratio (y) = 0.28372 0.13035
# Poissons Ratio (z) = 0.09842 0.20635
#
# Static dielectric constant tensor:
#      x y z
#    x 1.739810 0.000000 0.000000 
#    y 0.000000 2.020440 0.000000 
#    z 0.000000 0.000000 1.965310 
# 
# From -- ./inp_files/3907.got.cif
#   From: 2010.05.17/outbox.cif.g08.bks.cpg/sg37_2_cif.got.tgz:3907.got - 2010.06.03 17:53:42.
