data_PCOD9355389
_publ_section_title
;
Structure prediction by ZEFSAII (Michael W. Deem and Ramdas Pophale) SiO2 
 PCOD9355389
Probable space group: C C C 2
;
_chemical_formula_sum "Si O2"
_cell_formula_units_Z 40
_cell_length_a 17.362741
_cell_length_b 8.061444
_cell_length_c 12.191687
_cell_angle_alpha 90.000000
_cell_angle_beta 90.000000
_cell_angle_gamma 90.000000
_cell_volume 1706.455364
_symmetry_space_group_name_H-M "C C C 2"
_symmetry_group_IT_number 37
_symmetry_cell_setting 'orthorhombic'
loop_
_space_group_symop_operation_xyz
x,y,z
-x,-y,z
-x,y,1/2+z
x,-y,1/2+z
1/2+x,1/2+y,z
1/2-x,1/2-y,z
1/2-x,1/2+y,1/2+z
1/2+x,1/2-y,1/2+z
loop_
_atom_site_type_symbol
_atom_site_label
_atom_site_fract_x
_atom_site_fract_y
_atom_site_fract_z
Si Si1 0.338755 0.815195 0.435580
Si Si2 0.169470 0.295756 0.473016
Si Si3 0.926025 0.875610 0.302770
Si Si4 0.622134 0.679747 0.696808
Si Si5 0.965650 0.316755 0.613184
O O1 0.250000 0.750000 0.451086
O O2 0.366187 0.773233 0.312264
O O3 0.404828 0.756399 0.522202
O O4 0.341507 0.011152 0.455009
O O5 0.250000 0.250000 0.418684
O O6 0.105773 0.179175 0.418677
O O7 0.172554 0.255022 0.601300
O O8 0.929784 0.703030 0.234647
O O9 0.868371 0.989849 0.231725
O O10 0.000000 0.000000 0.317168
O O11 0.538478 0.700598 0.639792
O O12 0.000000 0.500000 0.590101
#
# Coordination Sequence:
#
# PCOD9355389 Si02
#       5
#     8   8   8   8   8
#     4  12  28  50  78 113 163 205 263 331 401 470
#     4  12  27  47  75 111 154 207 258 321 402 471
#     4  10  26  45  77 109 155 201 264 319 389 464
#     4  11  26  48  77 108 152 202 262 319 388 471
#     4  11  24  47  79 110 148 203 262 326 385 466
#
# _framework density 23.4404
#
# number of rings (size 3 to 8) (size 9 to 14) (size 15 to 20)
#    0.000    0.800    2.000    3.000   11.200    2.400 
#    0.000    0.000    0.000    0.000    0.000    0.000 
#    0.000    0.000    0.000    0.000    0.000    0.000 
#
# Total GULP energy -111515.713051 kJ/mol
# GULP energy per Si atom -5575.785653 kJ/mol
# Density = 2.338705 g / cm^3
# Si number density = 23.440400 Si / 1000 Ang^3
#
#
#
# Elastic Constant Matrix: (Units=GPa)
#
#
# Indices 1 2 3 4 5 6 
#
# 1 129.7632 43.2386 84.1924 0.0000 0.0000 0.0000
# 2 43.2386 109.6477 53.8693 0.0000 0.0000 0.0000
# 3 84.1924 53.8693 185.9512 0.0000 0.0000 0.0000
# 4 0.0000 0.0000 0.0000 180.0211 0.0000 0.0000
# 5 0.0000 0.0000 0.0000 0.0000 15.4317 0.0000
# 6 0.0000 0.0000 0.0000 0.0000 0.0000 37.7753
#
#
#
# Elastic Compliance Matrix: (Units=1/GPa)
#
#
# Indices 1 2 3 4 5 6 
#
# 1 0.011381 -0.002281 -0.004492 0.000000 0.000000 0.000000
# 2 -0.002281 0.011091 -0.002180 0.000000 0.000000 0.000000
# 3 -0.004492 -0.002180 0.008043 0.000000 0.000000 0.000000
# 4 0.000000 0.000000 0.000000 0.005555 0.000000 0.000000
# 5 0.000000 0.000000 0.000000 0.000000 0.064802 0.000000
# 6 0.000000 0.000000 0.000000 0.000000 0.000000 0.026472
#
#
# Mechanical properties :
#
#
# Convention : Reuss Voigt Hill
#
# Bulk Modulus (GPa) = 79.31289 87.55141 83.43215
# Shear Modulus (GPa) = 33.45533 62.91643 48.18588
#
# Velocity S-wave (km/s) = 3.78200 5.18645 4.53888
# Velocity P-wave (km/s) = 7.27879 8.56139 7.94601
#
# Compressibility (1/GPa) = 0.01260829
#
# Stress axis : x y z
#
# Youngs Moduli (GPa) = 87.86607 90.16545 124.32848
#
# Poissons Ratio (x) = 0.20567 0.55850
# Poissons Ratio (y) = 0.20043 0.27106
# Poissons Ratio (z) = 0.39470 0.19657
#
# Static dielectric constant tensor:
#      x y z
#    x 2.279710 0.000000 0.000000 
#    y 0.000000 1.768180 0.000000 
#    z 0.000000 0.000000 1.900080 
# 
# From -- ./inp_files/8159.got.cif
#   From: 2010.05.17/outbox.cif.g08.bks.cpg/sg37_5_cif.got.tgz:8159.got - 2010.06.03 17:53:42.
