data_PCOD9355298
_publ_section_title
;
Structure prediction by ZEFSAII (Michael W. Deem and Ramdas Pophale) SiO2 
 PCOD9355298
Probable space group: C C C 2
;
_chemical_formula_sum "Si O2"
_cell_formula_units_Z 60
_cell_length_a 11.684600
_cell_length_b 20.632828
_cell_length_c 11.232002
_cell_angle_alpha 90.000000
_cell_angle_beta 90.000000
_cell_angle_gamma 90.000000
_cell_volume 2707.882276
_symmetry_space_group_name_H-M "C C C 2"
_symmetry_group_IT_number 37
_symmetry_cell_setting 'orthorhombic'
loop_
_space_group_symop_operation_xyz
x,y,z
-x,-y,z
-x,y,1/2+z
x,-y,1/2+z
1/2+x,1/2+y,z
1/2-x,1/2-y,z
1/2-x,1/2+y,1/2+z
1/2+x,1/2-y,1/2+z
loop_
_atom_site_type_symbol
_atom_site_label
_atom_site_fract_x
_atom_site_fract_y
_atom_site_fract_z
Si Si1 0.730638 0.903566 0.979300
Si Si2 0.381247 0.272389 0.597854
Si Si3 0.250000 0.250000 0.275689
Si Si4 0.573472 0.819483 0.142495
Si Si5 0.062235 0.431710 0.761325
Si Si6 0.916468 0.116456 0.279783
Si Si7 0.229796 0.961367 0.094341
Si Si8 0.851840 0.869178 0.396287
O O1 0.634172 0.921899 0.881489
O O2 0.841604 0.886943 0.900459
O O3 0.670396 0.848255 0.056853
O O4 0.760064 0.962900 0.067108
O O5 0.250000 0.250000 0.589732
O O6 0.461156 0.210466 0.582934
O O7 0.395919 0.313423 0.718943
O O8 0.411049 0.323511 0.495387
O O9 0.366537 0.241445 0.204497
O O10 0.237441 0.181262 0.340795
O O11 0.526359 0.874647 0.231147
O O12 0.153279 0.435878 0.653340
O O13 0.000000 0.500000 0.767907
O O14 0.866655 0.062992 0.187477
O O15 0.049761 0.107205 0.308021
O O16 0.206402 0.927006 0.968127
#
# Coordination Sequence:
#
# PCOD9355298 Si02
#       8
#     8   8   4   8   8   8   8   8
#     4  11  26  44  74 105 144 190 243 296 368 427
#     4  11  23  44  70 101 147 187 243 289 364 440
#     4  12  28  44  68 108 144 188 242 308 352 444
#     4  12  27  44  70 109 143 186 235 307 359 437
#     4  11  25  45  72 107 145 184 237 302 362 437
#     4  10  24  46  68 104 142 194 240 296 355 437
#     4  10  24  48  70 106 144 188 248 295 357 435
#     4  11  24  44  72  99 143 197 239 290 366 425
#
# _framework density 22.157537000000001
#
# number of rings (size 3 to 8) (size 9 to 14) (size 15 to 20)
#    0.000    1.067    3.333    2.400    7.467    1.600 
#    0.000    4.000    0.000    0.000    0.000    0.000 
#    0.000    0.000    0.000    0.000    0.000    0.000 
#
# Total GULP energy -167727.811084 kJ/mol
# GULP energy per Si atom -5590.927036 kJ/mol
# Density = 2.210711 g / cm^3
# Si number density = 22.157537 Si / 1000 Ang^3
#
#
#
# Elastic Constant Matrix: (Units=GPa)
#
#
# Indices 1 2 3 4 5 6 
#
# 1 68.9390 7.6253 23.8015 0.0000 0.0000 0.0000
# 2 7.6253 67.4263 11.0099 0.0000 0.0000 0.0000
# 3 23.8015 11.0099 50.2068 0.0000 0.0000 0.0000
# 4 0.0000 0.0000 0.0000 21.8342 0.0000 0.0000
# 5 0.0000 0.0000 0.0000 0.0000 18.4653 0.0000
# 6 0.0000 0.0000 0.0000 0.0000 0.0000 39.9021
#
#
#
# Elastic Compliance Matrix: (Units=1/GPa)
#
#
# Indices 1 2 3 4 5 6 
#
# 1 0.017371 -0.000643 -0.008094 0.000000 0.000000 0.000000
# 2 -0.000643 0.015406 -0.003074 0.000000 0.000000 0.000000
# 3 -0.008094 -0.003074 0.024429 0.000000 0.000000 0.000000
# 4 0.000000 0.000000 0.000000 0.045800 0.000000 0.000000
# 5 0.000000 0.000000 0.000000 0.000000 0.054155 0.000000
# 6 0.000000 0.000000 0.000000 0.000000 0.000000 0.025061
#
#
# Mechanical properties :
#
#
# Convention : Reuss Voigt Hill
#
# Bulk Modulus (GPa) = 29.77566 30.16059 29.96813
# Shear Modulus (GPa) = 23.03741 25.64935 24.34338
#
# Velocity S-wave (km/s) = 3.22795 3.40603 3.31818
# Velocity P-wave (km/s) = 5.23070 5.39532 5.31365
#
# Compressibility (1/GPa) = 0.03358448
#
# Stress axis : x y z
#
# Youngs Moduli (GPa) = 57.56634 64.91158 40.93521
#
# Poissons Ratio (x) = 0.04173 0.33134
# Poissons Ratio (y) = 0.03701 0.12582
# Poissons Ratio (z) = 0.46595 0.19951
#
# Static dielectric constant tensor:
#      x y z
#    x 1.798030 0.000000 0.000000 
#    y 0.000000 1.783290 0.000000 
#    z 0.000000 0.000000 1.876290 
# 
# From -- ./inp_files/7338.got.cif
#   From: 2010.05.17/outbox.cif.g08.bks.cpg/sg37_4_cif.got.tgz:7338.got - 2010.06.03 17:53:42.
