data_PCOD9355281
_publ_section_title
;
Structure prediction by ZEFSAII (Michael W. Deem and Ramdas Pophale) SiO2 
 PCOD9355281
Probable space group: C C C 2
;
_chemical_formula_sum "Si O2"
_cell_formula_units_Z 60
_cell_length_a 11.932435
_cell_length_b 20.056945
_cell_length_c 10.717576
_cell_angle_alpha 90.000000
_cell_angle_beta 90.000000
_cell_angle_gamma 90.000000
_cell_volume 2565.018092
_symmetry_space_group_name_H-M "C C C 2"
_symmetry_group_IT_number 37
_symmetry_cell_setting 'orthorhombic'
loop_
_space_group_symop_operation_xyz
x,y,z
-x,-y,z
-x,y,1/2+z
x,-y,1/2+z
1/2+x,1/2+y,z
1/2-x,1/2-y,z
1/2-x,1/2+y,1/2+z
1/2+x,1/2-y,1/2+z
loop_
_atom_site_type_symbol
_atom_site_label
_atom_site_fract_x
_atom_site_fract_y
_atom_site_fract_z
Si Si1 0.250000 0.250000 0.633121
Si Si2 0.343779 0.299890 0.235835
Si Si3 0.236261 0.526399 0.532787
Si Si4 0.431327 0.068250 0.226140
Si Si5 0.702282 0.379853 0.971650
Si Si6 0.546134 0.120800 0.463939
Si Si7 0.932287 0.244355 0.341447
Si Si8 0.437865 0.620297 0.505683
O O1 0.259785 0.316811 0.552902
O O2 0.141623 0.255409 0.720427
O O3 0.250000 0.250000 0.185884
O O4 0.290129 0.352520 0.331088
O O5 0.435892 0.258342 0.312233
O O6 0.409875 0.339273 0.130740
O O7 0.189905 0.546058 0.670643
O O8 0.237055 0.448329 0.506635
O O9 0.146536 0.566770 0.448280
O O10 0.358204 0.556502 0.507153
O O11 0.454678 0.102686 0.358726
O O12 0.500000 0.000000 0.226711
O O13 0.480907 0.112390 0.110566
O O14 0.569488 0.392532 0.995411
O O15 0.587222 0.195286 0.436674
O O16 0.904278 0.171929 0.396906
#
# Coordination Sequence:
#
# PCOD9355281 Si02
#       8
#     4   8   8   8   8   8   8   8
#     4  12  24  48  74 106 148 194 244 314 378 454
#     4  11  26  43  75 106 148 191 251 316 372 445
#     4  10  26  47  77 104 152 202 244 317 376 463
#     4  10  24  45  66 109 151 196 254 298 381 443
#     4  11  25  52  75 110 146 194 254 312 380 452
#     4  10  25  43  71 111 148 206 244 315 366 456
#     4  11  26  44  74 105 150 197 250 309 375 449
#     4  11  25  51  70 114 141 200 252 307 377 447
#
# _framework density 23.391649999999998
#
# number of rings (size 3 to 8) (size 9 to 14) (size 15 to 20)
#    0.800    0.533    2.000    1.600    8.400    2.133 
#    2.400    1.333    0.000    0.000    0.000    0.000 
#    0.000    0.000    0.000    0.000    0.000    0.000 
#
# Total GULP energy -167862.291522 kJ/mol
# GULP energy per Si atom -5595.409717 kJ/mol
# Density = 2.333841 g / cm^3
# Si number density = 23.391650 Si / 1000 Ang^3
#
#
#
# Elastic Constant Matrix: (Units=GPa)
#
#
# Indices 1 2 3 4 5 6 
#
# 1 84.8996 47.7935 18.6504 0.0000 0.0000 0.0000
# 2 47.7935 147.1576 25.0906 0.0000 0.0000 0.0000
# 3 18.6504 25.0906 73.4027 0.0000 0.0000 0.0000
# 4 0.0000 0.0000 0.0000 25.8601 0.0000 0.0000
# 5 0.0000 0.0000 0.0000 0.0000 -18.2228 0.0000
# 6 0.0000 0.0000 0.0000 0.0000 0.0000 42.3474
#
#
#
# Elastic Compliance Matrix: (Units=1/GPa)
#
#
# Indices 1 2 3 4 5 6 
#
# 1 0.014753 -0.004409 -0.002241 0.000000 0.000000 0.000000
# 2 -0.004409 0.008534 -0.001797 0.000000 0.000000 0.000000
# 3 -0.002241 -0.001797 0.014807 0.000000 0.000000 0.000000
# 4 0.000000 0.000000 0.000000 0.038670 0.000000 0.000000
# 5 0.000000 0.000000 0.000000 0.000000 -0.054876 0.000000
# 6 0.000000 0.000000 0.000000 0.000000 0.000000 0.023614
#
#
# Mechanical properties :
#
#
# Convention : Reuss Voigt Hill
#
# Bulk Modulus (GPa) = 47.17122 54.28100 50.72611
# Shear Modulus (GPa) = 71.98071 24.25861 48.11966
#
# Velocity S-wave (km/s) = 5.55327 3.22384 4.54048
# Velocity P-wave (km/s) = 7.83122 6.09206 7.01574
#
# Compressibility (1/GPa) = 0.02119937
#
# Stress axis : x y z
#
# Youngs Moduli (GPa) = 67.78192 117.18062 67.53507
#
# Poissons Ratio (x) = 0.51669 0.15137
# Poissons Ratio (y) = 0.29887 0.12134
# Poissons Ratio (z) = 0.15192 0.21054
#
# Static dielectric constant tensor:
#      x y z
#    x 1.988670 0.000000 0.000000 
#    y 0.000000 1.857520 0.000000 
#    z 0.000000 0.000000 1.892630 
# 
# From -- ./inp_files/7332.got.cif
#   From: 2010.05.17/outbox.cif.g08.bks.cpg/sg37_4_cif.got.tgz:7332.got - 2010.06.03 17:53:42.
