data_PCOD9355742
_publ_section_title
;
Structure prediction by ZEFSAII (Michael W. Deem and Ramdas Pophale) SiO2 
 PCOD9355742
Probable space group: C C C 2
;
_chemical_formula_sum "Si O2"
_cell_formula_units_Z 36
_cell_length_a 4.753488
_cell_length_b 23.479275
_cell_length_c 11.450026
_cell_angle_alpha 90.000000
_cell_angle_beta 90.000000
_cell_angle_gamma 90.000000
_cell_volume 1277.919677
_symmetry_space_group_name_H-M "C C C 2"
_symmetry_group_IT_number 37
_symmetry_cell_setting 'orthorhombic'
loop_
_space_group_symop_operation_xyz
x,y,z
-x,-y,z
-x,y,1/2+z
x,-y,1/2+z
1/2+x,1/2+y,z
1/2-x,1/2-y,z
1/2-x,1/2+y,1/2+z
1/2+x,1/2-y,1/2+z
loop_
_atom_site_type_symbol
_atom_site_label
_atom_site_fract_x
_atom_site_fract_y
_atom_site_fract_z
Si Si1 0.663834 0.380844 0.516600
Si Si2 0.650195 0.346236 0.814737
Si Si3 0.122167 0.309858 0.664727
Si Si4 0.550779 0.946261 0.819119
Si Si5 0.500000 0.500000 0.640878
O O1 0.404203 0.339050 0.716792
O O2 0.785572 0.401384 0.393667
O O3 0.569919 0.441983 0.569372
O O4 0.913757 0.347331 0.582944
O O5 0.572601 0.341109 0.952808
O O6 0.907350 0.304597 0.775970
O O7 0.775568 0.409811 0.793170
O O8 0.250000 0.250000 0.624748
O O9 0.742777 0.976292 0.721195
O O10 0.500000 0.000000 0.903122
#
# Coordination Sequence:
#
# PCOD9355742 Si02
#       5
#     8   8   8   8   4
#     4  12  28  54  92 133 182 248 315 382 483 591
#     4  12  28  55  89 129 185 233 314 401 467 561
#     4  12  30  59  94 131 181 247 321 400 475 558
#     4  12  26  50  81 130 184 235 303 377 473 565
#     4  12  28  52  92 136 194 256 302 392 488 598
#
# _framework density 28.170783
#
# number of rings (size 3 to 8) (size 9 to 14) (size 15 to 20)
#    0.000    0.000    2.222    6.667    3.111    4.444 
#    4.000    0.000    4.889    0.000    0.000    0.000 
#    0.000    0.000    0.000    0.000    0.000    0.000 
#
# Total GULP energy -100452.957336 kJ/mol
# GULP energy per Si atom -5580.719852 kJ/mol
# Density = 2.810666 g / cm^3
# Si number density = 28.170783 Si / 1000 Ang^3
#
#
#
# Elastic Constant Matrix: (Units=GPa)
#
#
# Indices 1 2 3 4 5 6 
#
# 1 242.2035 88.2581 80.7088 0.0000 0.0000 0.0000
# 2 88.2581 211.8747 63.8918 0.0000 0.0000 0.0000
# 3 80.7088 63.8918 100.9080 0.0000 0.0000 0.0000
# 4 0.0000 0.0000 0.0000 42.0272 0.0000 0.0000
# 5 0.0000 0.0000 0.0000 0.0000 36.7774 0.0000
# 6 0.0000 0.0000 0.0000 0.0000 0.0000 68.6929
#
#
#
# Elastic Compliance Matrix: (Units=1/GPa)
#
#
# Indices 1 2 3 4 5 6 
#
# 1 0.005896 -0.001278 -0.003907 0.000000 0.000000 0.000000
# 2 -0.001278 0.006111 -0.002847 0.000000 0.000000 0.000000
# 3 -0.003907 -0.002847 0.014837 0.000000 0.000000 0.000000
# 4 0.000000 0.000000 0.000000 0.023794 0.000000 0.000000
# 5 0.000000 0.000000 0.000000 0.000000 0.027191 0.000000
# 6 0.000000 0.000000 0.000000 0.000000 0.000000 0.014558
#
#
# Mechanical properties :
#
#
# Convention : Reuss Voigt Hill
#
# Bulk Modulus (GPa) = 92.75694 113.41153 103.08423
# Shear Modulus (GPa) = 44.62548 50.97467 47.80007
#
# Velocity S-wave (km/s) = 3.98440 4.25842 4.12369
# Velocity P-wave (km/s) = 7.35971 8.03274 7.70358
#
# Compressibility (1/GPa) = 0.01078086
#
# Stress axis : x y z
#
# Youngs Moduli (GPa) = 169.59688 163.64927 67.39756
#
# Poissons Ratio (x) = 0.20915 0.26331
# Poissons Ratio (y) = 0.21675 0.19187
# Poissons Ratio (z) = 0.66259 0.46588
#
# Static dielectric constant tensor:
#      x y z
#    x 2.804080 0.000000 0.000000 
#    y 0.000000 2.304820 0.000000 
#    z 0.000000 0.000000 2.409520 
# 
# From -- ./inp_files/5476.got.cif
#   From: 2010.05.17/outbox.cif.g08.bks.cpg/sg37_3_cif.got.tgz:5476.got - 2010.06.03 17:53:42.
