data_PCOD9355766
_publ_section_title
;
Structure prediction by ZEFSAII (Michael W. Deem and Ramdas Pophale) SiO2 
 PCOD9355766
Probable space group: C C C 2
;
_chemical_formula_sum "Si O2"
_cell_formula_units_Z 28
_cell_length_a 6.000000
_cell_length_b 30.000000
_cell_length_c 15.000000
_cell_angle_alpha 90.000000
_cell_angle_beta 90.000000
_cell_angle_gamma 90.000000
_cell_volume 2700.000000
_symmetry_space_group_name_H-M "C C C 2"
_symmetry_group_IT_number 37
_symmetry_cell_setting 'orthorhombic'
loop_
_space_group_symop_operation_xyz
x,y,z
-x,-y,z
-x,y,1/2+z
x,-y,1/2+z
1/2+x,1/2+y,z
1/2-x,1/2-y,z
1/2-x,1/2+y,1/2+z
1/2+x,1/2-y,1/2+z
loop_
_atom_site_type_symbol
_atom_site_label
_atom_site_fract_x
_atom_site_fract_y
_atom_site_fract_z
Si Si1 0.059942 0.162627 0.492540
Si Si2 0.441306 0.173387 0.081846
Si Si3 0.881475 0.041677 0.259905
Si Si4 0.000000 0.500000 0.887123
Si Si5 0.399634 0.124778 0.750615
Si Si6 0.752591 0.583073 0.388904
Si Si7 0.909707 0.793109 0.814951
Si Si8 0.750000 0.750000 0.182636
O O1 0.307394 0.171884 0.537455
O O2 0.109205 0.113449 0.454131
O O3 0.807293 0.164321 0.537053
O O4 0.026414 0.195216 0.408191
O O5 0.458643 0.141043 0.166856
O O6 0.416189 0.222872 0.120459
O O7 0.751297 0.083157 0.217615
O O8 0.077723 0.063389 0.318236
O O9 0.693314 0.020613 0.324706
O O10 0.000000 0.000000 0.209831
O O11 0.116363 0.541865 0.934897
O O12 0.561709 0.110591 0.832358
O O13 0.239485 0.164852 0.783568
O O14 0.750000 0.750000 0.822796
O O15 0.102551 0.782229 0.744055
#
# Coordination Sequence:
#
# PCOD9355766 Si02
#       8
#     8   8   8   4   8   8   8   4
#     4  12  28  45  68 106 143 187 231 294 364 421
#     4  12  29  46  67 103 147 188 225 292 365 429
#     4   9  18  35  70 107 128 169 238 299 333 402
#     4   8  18  34  66 110 128 168 232 308 328 404
#     4  11  22  44  69 101 136 187 238 288 349 425
#     4  10  20  40  71 101 135 178 245 281 350 413
#     4  12  26  46  73  99 135 185 249 294 337 422
#     4  12  28  48  72  96 138 188 250 284 356 408
#
# _framework density 10.370369999999999
#
# number of rings (size 3 to 8) (size 9 to 14) (size 15 to 20)
#    0.000    1.143    2.857    2.571    7.000    0.000 
#    0.000    0.000    0.000    7.714    0.000    0.000 
#    0.000    0.000    0.000    0.000    0.000    0.000 
#
# Total GULP energy -156102.325374 kJ/mol
# GULP energy per Si atom -5575.083049 kJ/mol
# Density = 1.034677 g / cm^3
# Si number density = 10.370370 Si / 1000 Ang^3
#
#
#
# Elastic Constant Matrix: (Units=GPa)
#
#
# Indices 1 2 3 4 5 6 
#
# 1 155.8597 52.7067 45.8492 0.0000 0.0000 0.0000
# 2 52.7067 116.8902 38.1641 0.0000 0.0000 0.0000
# 3 45.8492 38.1641 63.7879 0.0000 0.0000 0.0000
# 4 0.0000 0.0000 0.0000 -3.2081 0.0000 0.0000
# 5 0.0000 0.0000 0.0000 0.0000 38.2742 0.0000
# 6 0.0000 0.0000 0.0000 0.0000 0.0000 70.8485
#
#
#
# Elastic Compliance Matrix: (Units=1/GPa)
#
#
# Indices 1 2 3 4 5 6 
#
# 1 0.008612 -0.002314 -0.004806 0.000000 0.000000 0.000000
# 2 -0.002314 0.011254 -0.005070 0.000000 0.000000 0.000000
# 3 -0.004806 -0.005070 0.022164 0.000000 0.000000 0.000000
# 4 0.000000 0.000000 0.000000 -0.311707 0.000000 0.000000
# 5 0.000000 0.000000 0.000000 0.000000 0.026127 0.000000
# 6 0.000000 0.000000 0.000000 0.000000 0.000000 0.014115
#
#
# Mechanical properties :
#
#
# Convention : Reuss Voigt Hill
#
# Bulk Modulus (GPa) = 56.65355 67.77533 62.21444
# Shear Modulus (GPa) = -25.10403 34.50409 4.70003
#
# Velocity S-wave (km/s) = -3.48282 4.08314 1.50699
# Velocity P-wave (km/s) = 3.34680 7.41469 5.75234
#
# Compressibility (1/GPa) = 0.01765115
#
# Stress axis : x y z
#
# Youngs Moduli (GPa) = 116.11230 88.85889 45.11759
#
# Poissons Ratio (x) = 0.20565 0.21682
# Poissons Ratio (y) = 0.26872 0.22873
# Poissons Ratio (z) = 0.55800 0.45048
#
# Static dielectric constant tensor:
#      x y z
#    x 1.750690 0.000000 0.000000 
#    y 0.000000 1.820560 0.000000 
#    z 0.000000 0.000000 1.753110 
# 
# From -- ./inp_files/9931.got.cif
#   From: 2010.05.17/outbox.ucp.g08.bks.cvg/sg37_5_cif.got.tgz:9931.got - 2010.06.11 10:38:43.
