data_PCOD9355685
_publ_section_title
;
Structure prediction by ZEFSAII (Michael W. Deem and Ramdas Pophale) SiO2 
 PCOD9355685
Probable space group: C C C 2
;
_chemical_formula_sum "Si O2"
_cell_formula_units_Z 40
_cell_length_a 10.105083
_cell_length_b 16.666106
_cell_length_c 8.941712
_cell_angle_alpha 90.000000
_cell_angle_beta 90.000000
_cell_angle_gamma 90.000000
_cell_volume 1505.895039
_symmetry_space_group_name_H-M "C C C 2"
_symmetry_group_IT_number 37
_symmetry_cell_setting 'orthorhombic'
loop_
_space_group_symop_operation_xyz
x,y,z
-x,-y,z
-x,y,1/2+z
x,-y,1/2+z
1/2+x,1/2+y,z
1/2-x,1/2-y,z
1/2-x,1/2+y,1/2+z
1/2+x,1/2-y,1/2+z
loop_
_atom_site_type_symbol
_atom_site_label
_atom_site_fract_x
_atom_site_fract_y
_atom_site_fract_z
Si Si1 0.250000 0.250000 0.071820
Si Si2 0.891254 0.139626 0.069631
Si Si3 0.773976 0.510030 0.709364
Si Si4 0.533919 0.748896 0.310952
Si Si5 0.365205 0.112045 0.966947
Si Si6 0.000000 0.000000 0.892054
O O1 0.369460 0.225834 0.177977
O O2 0.236264 0.171132 0.973576
O O3 0.762899 0.086155 0.103972
O O4 0.938332 0.188747 0.215544
O O5 0.882073 0.200174 0.932438
O O6 0.996301 0.075087 0.004824
O O7 0.860350 0.544737 0.841507
O O8 0.846730 0.440733 0.617570
O O9 0.631518 0.491498 0.789927
O O10 0.469662 0.822646 0.401193
#
# Coordination Sequence:
#
# PCOD9355685 Si02
#       6
#     4   8   8   8   8   4
#     4  12  26  52  84 118 170 230 278 360 424 520
#     4  12  24  44  77 121 160 215 283 344 417 494
#     4  12  26  45  80 122 167 219 274 361 416 500
#     4  12  27  50  81 117 168 225 280 355 419 525
#     4  12  28  53  80 124 169 218 289 346 429 502
#     4  12  22  40  80 126 166 218 288 362 414 504
#
# _framework density 26.562275
#
# number of rings (size 3 to 8) (size 9 to 14) (size 15 to 20)
#    0.000    0.000    6.000    4.200    0.000    1.600 
#    0.000    3.000    0.000    0.000    0.000    0.000 
#    0.000    0.000    0.000    0.000    0.000    0.000 
#
# Total GULP energy -111763.231063 kJ/mol
# GULP energy per Si atom -5588.161553 kJ/mol
# Density = 2.650182 g / cm^3
# Si number density = 26.562275 Si / 1000 Ang^3
#
#
#
# Elastic Constant Matrix: (Units=GPa)
#
#
# Indices 1 2 3 4 5 6 
#
# 1 71.2445 55.9612 43.3631 0.0000 0.0000 0.0000
# 2 55.9612 166.6027 65.0228 0.0000 0.0000 0.0000
# 3 43.3631 65.0228 150.1422 0.0000 0.0000 0.0000
# 4 0.0000 0.0000 0.0000 23.8005 0.0000 0.0000
# 5 0.0000 0.0000 0.0000 0.0000 33.2025 0.0000
# 6 0.0000 0.0000 0.0000 0.0000 0.0000 40.0333
#
#
#
# Elastic Compliance Matrix: (Units=1/GPa)
#
#
# Indices 1 2 3 4 5 6 
#
# 1 0.020519 -0.005511 -0.003540 0.000000 0.000000 0.000000
# 2 -0.005511 0.008703 -0.002178 0.000000 0.000000 0.000000
# 3 -0.003540 -0.002178 0.008626 0.000000 0.000000 0.000000
# 4 0.000000 0.000000 0.000000 0.042016 0.000000 0.000000
# 5 0.000000 0.000000 0.000000 0.000000 0.030118 0.000000
# 6 0.000000 0.000000 0.000000 0.000000 0.000000 0.024979
#
#
# Mechanical properties :
#
#
# Convention : Reuss Voigt Hill
#
# Bulk Modulus (GPa) = 64.96834 79.63152 72.29993
# Shear Modulus (GPa) = 30.76009 34.31675 32.53842
#
# Velocity S-wave (km/s) = 3.40669 3.59825 3.50378
# Velocity P-wave (km/s) = 6.32345 6.87804 6.60657
#
# Compressibility (1/GPa) = 0.01539211
#
# Stress axis : x y z
#
# Youngs Moduli (GPa) = 48.73474 114.89955 115.93289
#
# Poissons Ratio (x) = 0.63320 0.41036
# Poissons Ratio (y) = 0.26857 0.25245
# Poissons Ratio (z) = 0.17250 0.25020
#
# Static dielectric constant tensor:
#      x y z
#    x 2.221920 0.000000 0.000000 
#    y 0.000000 2.074640 0.000000 
#    z 0.000000 0.000000 2.119270 
# 
# From -- ./inp_files/2767.got.cif
#   From: 2010.05.17/outbox.cif.g08.bks.cpg/sg37_2_cif.got.tgz:2767.got - 2010.06.03 17:53:42.
