data_PCOD9355717
_publ_section_title
;
Structure prediction by ZEFSAII (Michael W. Deem and Ramdas Pophale) SiO2 
 PCOD9355717
Probable space group: C C C 2
;
_chemical_formula_sum "Si O2"
_cell_formula_units_Z 28
_cell_length_a 19.423193
_cell_length_b 6.090195
_cell_length_c 10.245005
_cell_angle_alpha 90.000000
_cell_angle_beta 90.000000
_cell_angle_gamma 90.000000
_cell_volume 1211.892223
_symmetry_space_group_name_H-M "C C C 2"
_symmetry_group_IT_number 37
_symmetry_cell_setting 'orthorhombic'
loop_
_space_group_symop_operation_xyz
x,y,z
-x,-y,z
-x,y,1/2+z
x,-y,1/2+z
1/2+x,1/2+y,z
1/2-x,1/2-y,z
1/2-x,1/2+y,1/2+z
1/2+x,1/2-y,1/2+z
loop_
_atom_site_type_symbol
_atom_site_label
_atom_site_fract_x
_atom_site_fract_y
_atom_site_fract_z
Si Si1 0.927773 0.900676 0.808520
Si Si2 0.000000 0.500000 0.966035
Si Si3 0.828848 0.284996 0.854547
Si Si4 0.369803 0.099186 0.622596
O O1 0.957753 0.687355 0.886541
O O2 0.870387 0.821595 0.705295
O O3 0.882489 0.085096 0.882735
O O4 0.000000 0.000000 0.756373
O O5 0.945466 0.398320 0.063053
O O6 0.750000 0.250000 0.818314
O O7 0.859799 0.411098 0.729695
O O8 0.824266 0.413812 0.993136
#
# Coordination Sequence:
#
# PCOD9355717 Si02
#       4
#     8   4   8   8
#     4  12  25  47  76 113 151 202 260 330 401 470
#     4  12  24  48  78 118 152 198 272 336 404 478
#     4  12  31  49  79 112 160 219 263 331 406 490
#     4  12  27  50  73 115 154 199 270 327 395 485
#
# _framework density 23.104364
#
# number of rings (size 3 to 8) (size 9 to 14) (size 15 to 20)
#    0.000    0.000    5.714    2.571   12.000    0.000 
#    0.000    0.000    0.000    0.000    0.000    0.000 
#    0.000    0.000    0.000    0.000    0.000    0.000 
#
# Total GULP energy -77993.236751 kJ/mol
# GULP energy per Si atom -5570.945482 kJ/mol
# Density = 2.305178 g / cm^3
# Si number density = 23.104364 Si / 1000 Ang^3
#
#
#
# Elastic Constant Matrix: (Units=GPa)
#
#
# Indices 1 2 3 4 5 6 
#
# 1 109.8315 31.7822 16.0952 0.0000 0.0000 0.0000
# 2 31.7822 92.0093 58.8168 0.0000 0.0000 0.0000
# 3 16.0952 58.8168 138.2912 0.0000 0.0000 0.0000
# 4 0.0000 0.0000 0.0000 -6.6403 0.0000 0.0000
# 5 0.0000 0.0000 0.0000 0.0000 20.9266 0.0000
# 6 0.0000 0.0000 0.0000 0.0000 0.0000 11.9218
#
#
#
# Elastic Compliance Matrix: (Units=1/GPa)
#
#
# Indices 1 2 3 4 5 6 
#
# 1 0.010134 -0.003772 0.000425 0.000000 0.000000 0.000000
# 2 -0.003772 0.016331 -0.006507 0.000000 0.000000 0.000000
# 3 0.000425 -0.006507 0.009949 0.000000 0.000000 0.000000
# 4 0.000000 0.000000 0.000000 -0.150596 0.000000 0.000000
# 5 0.000000 0.000000 0.000000 0.000000 0.047786 0.000000
# 6 0.000000 0.000000 0.000000 0.000000 0.000000 0.083880
#
#
# Mechanical properties :
#
#
# Convention : Reuss Voigt Hill
#
# Bulk Modulus (GPa) = 59.85842 61.50227 60.68035
# Shear Modulus (GPa) = 116.92993 20.80414 68.86703
#
# Velocity S-wave (km/s) = 7.12175 3.00399 5.46550
# Velocity P-wave (km/s) = 9.67418 6.22166 8.13323
#
# Compressibility (1/GPa) = 0.01670609
#
# Stress axis : x y z
#
# Youngs Moduli (GPa) = 98.67617 61.23383 100.51238
#
# Poissons Ratio (x) = 0.23099 -0.04270
# Poissons Ratio (y) = 0.37222 0.65400
# Poissons Ratio (z) = -0.04192 0.39843
#
# Static dielectric constant tensor:
#      x y z
#    x 1.884530 0.000000 0.000000 
#    y 0.000000 2.026370 0.000000 
#    z 0.000000 0.000000 1.927440 
# 
# From -- ./inp_files/5251.got.cif
#   From: 2010.05.17/outbox.cif.g08.bks.cpg/sg37_3_cif.got.tgz:5251.got - 2010.06.03 17:53:42.
