data_PCOD9355033
_publ_section_title
;
Structure prediction by ZEFSAII (Michael W. Deem and Ramdas Pophale) SiO2 
 PCOD9355033
Probable space group: C C C 2
;
_chemical_formula_sum "Si O2"
_cell_formula_units_Z 56
_cell_length_a 9.077400
_cell_length_b 21.749707
_cell_length_c 13.708300
_cell_angle_alpha 90.000000
_cell_angle_beta 90.000000
_cell_angle_gamma 90.000000
_cell_volume 2706.440503
_symmetry_space_group_name_H-M "C C C 2"
_symmetry_group_IT_number 37
_symmetry_cell_setting 'orthorhombic'
loop_
_space_group_symop_operation_xyz
x,y,z
-x,-y,z
-x,y,1/2+z
x,-y,1/2+z
1/2+x,1/2+y,z
1/2-x,1/2-y,z
1/2-x,1/2+y,1/2+z
1/2+x,1/2-y,1/2+z
loop_
_atom_site_type_symbol
_atom_site_label
_atom_site_fract_x
_atom_site_fract_y
_atom_site_fract_z
Si Si1 0.252439 0.567314 0.910660
Si Si2 0.659943 0.509916 0.225205
Si Si3 0.754174 0.441428 0.532821
Si Si4 0.454762 0.363518 0.558600
Si Si5 0.324362 0.370605 0.773221
Si Si6 0.956619 0.362802 0.390280
Si Si7 0.419684 0.270325 0.927801
O O1 0.345746 0.558912 0.811990
O O2 0.093581 0.592114 0.879103
O O3 0.243391 0.502008 0.965830
O O4 0.328559 0.612902 0.986167
O O5 0.500000 0.500000 0.177255
O O6 0.774480 0.531850 0.142956
O O7 0.682773 0.444849 0.278412
O O8 0.595529 0.408187 0.541539
O O9 0.862996 0.392074 0.481533
O O10 0.389542 0.360465 0.666376
O O11 0.513606 0.298137 0.524976
O O12 0.154299 0.356710 0.798802
O O13 0.412689 0.325987 0.848171
O O14 0.004997 0.292466 0.405315
O O15 0.250000 0.250000 0.940048
#
# Coordination Sequence:
#
# PCOD9355033 Si02
#       7
#     8   8   8   8   8   8   8
#     4  12  25  42  67 102 148 177 233 297 362 435
#     4  12  22  38  67 103 134 178 231 292 352 420
#     4  12  22  42  71 102 139 180 237 296 361 428
#     4  12  23  43  75 106 131 188 244 295 354 434
#     4  11  22  42  72  99 136 180 242 292 356 421
#     4  11  26  48  66  99 145 194 224 298 365 422
#     4  10  22  48  72  94 140 190 238 292 359 415
#
# _framework density 20.691383999999999
#
# number of rings (size 3 to 8) (size 9 to 14) (size 15 to 20)
#    0.000    0.571    7.143    2.571    0.000    1.714 
#   12.857    0.000    0.000    0.000    0.000    0.000 
#    0.000    0.000    0.000    0.000    0.000    0.000 
#
# Total GULP energy -156095.144529 kJ/mol
# GULP energy per Si atom -5574.826590 kJ/mol
# Density = 2.064429 g / cm^3
# Si number density = 20.691384 Si / 1000 Ang^3
#
#
#
# Elastic Constant Matrix: (Units=GPa)
#
#
# Indices 1 2 3 4 5 6 
#
# 1 59.7362 25.0139 33.2929 0.0000 0.0000 0.0000
# 2 25.0139 96.3681 39.9832 0.0000 0.0000 0.0000
# 3 33.2929 39.9832 121.9375 0.0000 0.0000 0.0000
# 4 0.0000 0.0000 0.0000 25.3795 0.0000 0.0000
# 5 0.0000 0.0000 0.0000 0.0000 24.5741 0.0000
# 6 0.0000 0.0000 0.0000 0.0000 0.0000 19.2645
#
#
#
# Elastic Compliance Matrix: (Units=1/GPa)
#
#
# Indices 1 2 3 4 5 6 
#
# 1 0.020721 -0.003509 -0.004507 0.000000 0.000000 0.000000
# 2 -0.003509 0.012605 -0.003175 0.000000 0.000000 0.000000
# 3 -0.004507 -0.003175 0.010473 0.000000 0.000000 0.000000
# 4 0.000000 0.000000 0.000000 0.039402 0.000000 0.000000
# 5 0.000000 0.000000 0.000000 0.000000 0.040693 0.000000
# 6 0.000000 0.000000 0.000000 0.000000 0.000000 0.051909
#
#
# Mechanical properties :
#
#
# Convention : Reuss Voigt Hill
#
# Bulk Modulus (GPa) = 46.69141 52.73574 49.71357
# Shear Modulus (GPa) = 24.35173 25.82706 25.08939
#
# Velocity S-wave (km/s) = 3.43432 3.53683 3.48595
# Velocity P-wave (km/s) = 6.19199 6.49777 6.34672
#
# Compressibility (1/GPa) = 0.02141722
#
# Stress axis : x y z
#
# Youngs Moduli (GPa) = 48.25920 79.33375 95.48655
#
# Poissons Ratio (x) = 0.27835 0.43037
# Poissons Ratio (y) = 0.16932 0.30319
# Poissons Ratio (z) = 0.21751 0.25190
#
# Static dielectric constant tensor:
#      x y z
#    x 1.741690 0.000000 0.000000 
#    y 0.000000 1.797700 0.000000 
#    z 0.000000 0.000000 1.745200 
# 
# From -- ./inp_files/10826.got.cif
#   From: 2010.05.17/outbox.cif.g08.bks.cpg/sg37_6_cif.got.tgz:10826.got - 2010.06.03 17:53:42.
