data_PCOD9355179
_publ_section_title
;
Structure prediction by ZEFSAII (Michael W. Deem and Ramdas Pophale) SiO2 
 PCOD9355179
Probable space group: C C C 2
;
_chemical_formula_sum "Si O2"
_cell_formula_units_Z 40
_cell_length_a 8.425909
_cell_length_b 21.339195
_cell_length_c 9.482921
_cell_angle_alpha 90.000000
_cell_angle_beta 90.000000
_cell_angle_gamma 90.000000
_cell_volume 1705.049254
_symmetry_space_group_name_H-M "C C C 2"
_symmetry_group_IT_number 37
_symmetry_cell_setting 'orthorhombic'
loop_
_space_group_symop_operation_xyz
x,y,z
-x,-y,z
-x,y,1/2+z
x,-y,1/2+z
1/2+x,1/2+y,z
1/2-x,1/2-y,z
1/2-x,1/2+y,1/2+z
1/2+x,1/2-y,1/2+z
loop_
_atom_site_type_symbol
_atom_site_label
_atom_site_fract_x
_atom_site_fract_y
_atom_site_fract_z
Si Si1 0.159880 0.348844 0.257030
Si Si2 0.668804 0.015355 0.732790
Si Si3 0.486935 0.333370 0.101532
Si Si4 0.694592 0.431561 0.987302
Si Si5 0.925372 0.241171 0.342371
O O1 0.131969 0.414509 0.175831
O O2 0.315796 0.324880 0.175372
O O3 0.207772 0.373980 0.414196
O O4 0.019097 0.299262 0.273699
O O5 0.719727 0.967147 0.613966
O O6 0.500000 0.000000 0.804209
O O7 0.804125 0.022755 0.851680
O O8 0.530905 0.401901 0.043300
O O9 0.599366 0.314056 0.228971
O O10 0.518011 0.285528 0.975460
O O11 0.750000 0.250000 0.398466
#
# Coordination Sequence:
#
# PCOD9355179 Si02
#       5
#     8   8   8   8   8
#     4  10  26  50  70 107 161 186 268 313 379 475
#     4  10  23  46  77 109 154 204 259 322 384 450
#     4  12  26  49  72 111 152 202 246 324 386 459
#     4  10  25  46  73 110 152 201 263 310 386 457
#     4  12  27  44  78 110 148 202 251 315 397 459
#
# _framework density 23.459733
#
# number of rings (size 3 to 8) (size 9 to 14) (size 15 to 20)
#    1.200    0.000    2.000    2.400    5.600    4.000 
#    3.600    0.000    0.000    0.000    0.000    0.000 
#    0.000    0.000    0.000    0.000    0.000    0.000 
#
# Total GULP energy -111411.722194 kJ/mol
# GULP energy per Si atom -5570.586110 kJ/mol
# Density = 2.340634 g / cm^3
# Si number density = 23.459733 Si / 1000 Ang^3
#
#
#
# Elastic Constant Matrix: (Units=GPa)
#
#
# Indices 1 2 3 4 5 6 
#
# 1 69.5194 61.7063 28.9459 0.0000 0.0000 0.0000
# 2 61.7063 82.9580 40.6623 0.0000 0.0000 0.0000
# 3 28.9459 40.6623 126.1735 0.0000 0.0000 0.0000
# 4 0.0000 0.0000 0.0000 47.5208 0.0000 0.0000
# 5 0.0000 0.0000 0.0000 0.0000 13.4611 0.0000
# 6 0.0000 0.0000 0.0000 0.0000 0.0000 37.2414
#
#
#
# Elastic Compliance Matrix: (Units=1/GPa)
#
#
# Indices 1 2 3 4 5 6 
#
# 1 0.042364 -0.031766 0.000518 0.000000 0.000000 0.000000
# 2 -0.031766 0.038134 -0.005002 0.000000 0.000000 0.000000
# 3 0.000518 -0.005002 0.009419 0.000000 0.000000 0.000000
# 4 0.000000 0.000000 0.000000 0.021043 0.000000 0.000000
# 5 0.000000 0.000000 0.000000 0.000000 0.074288 0.000000
# 6 0.000000 0.000000 0.000000 0.000000 0.000000 0.026852
#
#
# Mechanical properties :
#
#
# Convention : Reuss Voigt Hill
#
# Bulk Modulus (GPa) = 57.41131 60.14222 58.77676
# Shear Modulus (GPa) = 17.21725 29.46706 23.34215
#
# Velocity S-wave (km/s) = 2.71201 3.54795 3.15777
# Velocity P-wave (km/s) = 5.85936 6.51736 6.19710
#
# Compressibility (1/GPa) = 0.01741817
#
# Stress axis : x y z
#
# Youngs Moduli (GPa) = 23.60473 26.22308 106.17107
#
# Poissons Ratio (x) = 0.83300 -0.05503
# Poissons Ratio (y) = 0.74982 0.53109
# Poissons Ratio (z) = -0.01223 0.13117
#
# Static dielectric constant tensor:
#      x y z
#    x 2.091360 0.000000 0.000000 
#    y 0.000000 1.975320 0.000000 
#    z 0.000000 0.000000 1.847840 
# 
# From -- ./inp_files/2207.got.cif
#   From: 2010.05.17/outbox.cif.g08.bks.cpg/sg37_2_cif.got.tgz:2207.got - 2010.06.03 17:53:42.
