data_PCOD9355093
_publ_section_title
;
Structure prediction by ZEFSAII (Michael W. Deem and Ramdas Pophale) SiO2 
 PCOD9355093
Probable space group: C C C 2
;
_chemical_formula_sum "Si O2"
_cell_formula_units_Z 64
_cell_length_a 11.823465
_cell_length_b 8.829659
_cell_length_c 28.083707
_cell_angle_alpha 90.000000
_cell_angle_beta 90.000000
_cell_angle_gamma 90.000000
_cell_volume 2931.859370
_symmetry_space_group_name_H-M "C C C 2"
_symmetry_group_IT_number 37
_symmetry_cell_setting 'orthorhombic'
loop_
_space_group_symop_operation_xyz
x,y,z
-x,-y,z
-x,y,1/2+z
x,-y,1/2+z
1/2+x,1/2+y,z
1/2-x,1/2-y,z
1/2-x,1/2+y,1/2+z
1/2+x,1/2-y,1/2+z
loop_
_atom_site_type_symbol
_atom_site_label
_atom_site_fract_x
_atom_site_fract_y
_atom_site_fract_z
Si Si1 0.880222 0.710180 0.871090
Si Si2 0.070451 0.655982 0.229237
Si Si3 0.904164 0.877018 0.531927
Si Si4 0.873913 0.676426 0.619987
Si Si5 0.706802 0.011740 0.803890
Si Si6 0.304621 0.091887 0.058128
Si Si7 0.569597 0.317999 0.799899
Si Si8 0.968965 0.333558 0.470430
O O1 0.750000 0.750000 0.859672
O O2 0.866220 0.541058 0.850043
O O3 0.903512 0.738799 0.926417
O O4 0.982204 0.790097 0.842957
O O5 0.084241 0.682084 0.173492
O O6 0.178257 0.607171 0.261656
O O7 0.000000 0.500000 0.233383
O O8 0.008902 0.800108 0.253163
O O9 0.930957 0.782056 0.579936
O O10 0.921793 0.758621 0.488927
O O11 0.788455 0.971321 0.537911
O O12 0.000000 0.000000 0.524265
O O13 0.750000 0.750000 0.621821
O O14 0.865582 0.505935 0.599131
O O15 0.648806 0.171742 0.793633
O O16 0.840920 0.046551 0.807835
O O17 0.250000 0.250000 0.075430
O O18 0.387694 0.140048 0.015637
O O19 0.000000 0.500000 0.453051
#
# Coordination Sequence:
#
# PCOD9355093 Si02
#       8
#     8   8   8   8   8   8   8   8
#     4  11  24  39  61  95 129 163 215 271 327 401
#     4   9  19  35  63  94 127 166 218 269 323 399
#     4  11  24  42  65  92 129 170 222 275 332 402
#     4  10  23  42  60  92 132 170 218 274 330 399
#     4   9  19  41  65  91 128 169 217 266 327 394
#     4  11  23  42  63  92 128 170 220 278 336 399
#     4   9  19  41  65  92 128 171 215 269 326 391
#     4  12  24  42  68  92 125 177 218 266 342 396
#
# _framework density 21.829149999999998
#
# number of rings (size 3 to 8) (size 9 to 14) (size 15 to 20)
#    0.000    1.750    2.500    2.250    1.750    3.500 
#    9.000    0.000    0.000    0.000    0.000    0.000 
#    0.000    0.000    0.000    0.000    0.000    0.000 
#
# Total GULP energy -178384.855124 kJ/mol
# GULP energy per Si atom -5574.526723 kJ/mol
# Density = 2.177947 g / cm^3
# Si number density = 21.829150 Si / 1000 Ang^3
#
#
#
# Elastic Constant Matrix: (Units=GPa)
#
#
# Indices 1 2 3 4 5 6 
#
# 1 115.9124 35.2686 48.0479 0.0000 0.0000 0.0000
# 2 35.2686 84.5431 19.6248 0.0000 0.0000 0.0000
# 3 48.0479 19.6248 133.6153 0.0000 0.0000 0.0000
# 4 0.0000 0.0000 0.0000 -20.9043 0.0000 0.0000
# 5 0.0000 0.0000 0.0000 0.0000 70.3856 0.0000
# 6 0.0000 0.0000 0.0000 0.0000 0.0000 34.2307
#
#
#
# Elastic Compliance Matrix: (Units=1/GPa)
#
#
# Indices 1 2 3 4 5 6 
#
# 1 0.011250 -0.003887 -0.003475 0.000000 0.000000 0.000000
# 2 -0.003887 0.013589 -0.000598 0.000000 0.000000 0.000000
# 3 -0.003475 -0.000598 0.008822 0.000000 0.000000 0.000000
# 4 0.000000 0.000000 0.000000 -0.047837 0.000000 0.000000
# 5 0.000000 0.000000 0.000000 0.000000 0.014207 0.000000
# 6 0.000000 0.000000 0.000000 0.000000 0.000000 0.029214
#
#
# Mechanical properties :
#
#
# Convention : Reuss Voigt Hill
#
# Bulk Modulus (GPa) = 56.36606 59.99483 58.18044
# Shear Modulus (GPa) = 97.89168 32.15103 65.02135
#
# Velocity S-wave (km/s) = 6.70387 3.84193 5.46362
# Velocity P-wave (km/s) = 9.26283 6.87198 8.15549
#
# Compressibility (1/GPa) = 0.01774117
#
# Stress axis : x y z
#
# Youngs Moduli (GPa) = 88.88808 73.59156 113.35907
#
# Poissons Ratio (x) = 0.28602 0.39389
# Poissons Ratio (y) = 0.34547 0.06781
# Poissons Ratio (z) = 0.30886 0.04402
#
# Static dielectric constant tensor:
#      x y z
#    x 1.882270 0.000000 0.000000 
#    y 0.000000 2.020800 0.000000 
#    z 0.000000 0.000000 1.792520 
# 
# From -- ./inp_files/20479.got.cif
#   From: 2010.05.17/outbox.cif.g08.bks.cpg/sg37_11_cif.got.tgz:20479.got - 2010.06.03 17:53:42.
