data_PCOD9355895
_publ_section_title
;
Structure prediction by ZEFSAII (Michael W. Deem and Ramdas Pophale) SiO2 
 PCOD9355895
Probable space group: A M M 2
;
_chemical_formula_sum "Si O2"
_cell_formula_units_Z 64
_cell_length_a 14.918984
_cell_length_b 7.529808
_cell_length_c 32.328800
_cell_angle_alpha 90.000000
_cell_angle_beta 90.000000
_cell_angle_gamma 90.000000
_cell_volume 3631.723156
_symmetry_space_group_name_H-M "A M M 2"
_symmetry_group_IT_number 38
_symmetry_cell_setting 'orthorhombic'
loop_
_space_group_symop_operation_xyz
x,y,z
-x,-y,z
-x,y,z
x,-y,z
x,1/2+y,1/2+z
-x,1/2-y,1/2+z
-x,1/2+y,1/2+z
x,1/2-y,1/2+z
loop_
_atom_site_type_symbol
_atom_site_label
_atom_site_fract_x
_atom_site_fract_y
_atom_site_fract_z
Si Si1 0.397330 0.712119 0.693480
Si Si2 0.286863 0.712318 0.110163
Si Si3 0.602154 0.289241 0.350148
Si Si4 0.604527 0.217069 0.531069
Si Si5 0.717128 0.291502 0.274549
Si Si6 0.099419 0.783363 0.642532
Si Si7 0.099430 0.716835 0.238894
Si Si8 0.396298 0.713371 0.940602
O O1 0.500000 0.778407 0.692855
O O2 0.400036 0.500000 0.696726
O O3 0.345626 0.757231 0.651269
O O4 0.342850 0.778792 0.733227
O O5 0.279902 0.500000 0.105175
O O6 0.337223 0.781413 0.069556
O O7 0.186142 0.780138 0.117758
O O8 0.500000 0.216328 0.349109
O O9 0.594383 0.500000 0.343212
O O10 0.663257 0.214921 0.313464
O O11 0.641908 0.266042 0.396182
O O12 0.500000 0.269186 0.535405
O O13 0.638877 0.272203 0.485447
O O14 0.604873 0.000000 0.531771
O O15 0.730837 0.500000 0.283319
O O16 0.815430 0.217171 0.264416
O O17 0.110262 0.732471 0.690713
O O18 0.000000 0.726785 0.628710
O O19 0.100024 0.000000 0.641679
O O20 0.100814 0.500000 0.239365
O O21 0.000000 0.772152 0.252671
O O22 0.500000 0.774754 0.939637
O O23 0.396549 0.500000 0.941234
#
# Coordination Sequence:
#
# PCOD9355895 Si02
#       8
#     8   8   8   8   8   8   8   8
#     4  11  23  33  39  55  88 121 144 169 204 247
#     4  10  17  28  47  65  81 110 147 177 207 243
#     4   9  17  27  40  61  85 105 133 174 209 242
#     4   8  14  24  40  63  84 102 135 178 206 236
#     4  10  18  30  47  64  81 109 146 177 207 245
#     4   8  13  22  39  64  87 104 131 175 217 245
#     4   8  13  23  41  64  85 103 131 175 217 245
#     4   8  14  26  42  58  79 107 136 168 208 249
#
# _framework density 17.622489000000002
#
# number of rings (size 3 to 8) (size 9 to 14) (size 15 to 20)
#    0.000    3.000    1.250    2.625    0.000    2.500 
#    0.000    1.875    0.000    3.750    0.000    0.875 
#    0.000    1.000    0.000    0.000    0.000    0.000 
#
# Total GULP energy -178306.822198 kJ/mol
# GULP energy per Si atom -5572.088194 kJ/mol
# Density = 1.758238 g / cm^3
# Si number density = 17.622489 Si / 1000 Ang^3
#
#
#
# Elastic Constant Matrix: (Units=GPa)
#
#
# Indices 1 2 3 4 5 6 
#
# 1 142.9814 2.7875 83.3636 0.0000 0.0000 0.0000
# 2 2.7875 42.8880 -3.2201 0.0000 0.0000 0.0000
# 3 83.3636 -3.2201 150.1650 0.0000 0.0000 0.0000
# 4 0.0000 0.0000 0.0000 11.1414 0.0000 0.0000
# 5 0.0000 0.0000 0.0000 0.0000 1.6375 0.0000
# 6 0.0000 0.0000 0.0000 0.0000 0.0000 -7.6029
#
#
#
# Elastic Compliance Matrix: (Units=1/GPa)
#
#
# Indices 1 2 3 4 5 6 
#
# 1 0.010394 -0.001111 -0.005794 0.000000 0.000000 0.000000
# 2 -0.001111 0.023473 0.001120 0.000000 0.000000 0.000000
# 3 -0.005794 0.001120 0.009900 0.000000 0.000000 0.000000
# 4 0.000000 0.000000 0.000000 0.089755 0.000000 0.000000
# 5 0.000000 0.000000 0.000000 0.000000 0.610694 0.000000
# 6 0.000000 0.000000 0.000000 0.000000 0.000000 -0.131529
#
#
# Mechanical properties :
#
#
# Convention : Reuss Voigt Hill
#
# Bulk Modulus (GPa) = 31.05860 55.76629 43.41244
# Shear Modulus (GPa) = 7.87418 17.90877 12.89148
#
# Velocity S-wave (km/s) = 2.11612 3.19132 2.70763
# Velocity P-wave (km/s) = 4.86141 6.73001 5.87053
#
# Compressibility (1/GPa) = 0.03219720
#
# Stress axis : x y z
#
# Youngs Moduli (GPa) = 96.21354 42.60251 101.01276
#
# Poissons Ratio (x) = 0.04731 0.58524
# Poissons Ratio (y) = 0.10685 -0.11312
# Poissons Ratio (z) = 0.55744 -0.04771
#
# Static dielectric constant tensor:
#      x y z
#    x 1.610390 0.000000 0.000000 
#    y 0.000000 1.676430 0.000000 
#    z 0.000000 0.000000 1.607630 
# 
# From -- ./inp_files/25060.got.cif
#   From: 2010.05.17/outbox.cif.g08.bks.cpg/sg38_13_cif.got.tgz:25060.got - 2010.06.03 18:07:57.
