data_PCOD9355992
_publ_section_title
;
Structure prediction by ZEFSAII (Michael W. Deem and Ramdas Pophale) SiO2 
 PCOD9355992
Probable space group: A M M 2
;
_chemical_formula_sum "Si O2"
_cell_formula_units_Z 64
_cell_length_a 8.934762
_cell_length_b 18.842879
_cell_length_c 27.342361
_cell_angle_alpha 90.000000
_cell_angle_beta 90.000000
_cell_angle_gamma 90.000000
_cell_volume 4603.268007
_symmetry_space_group_name_H-M "A M M 2"
_symmetry_group_IT_number 38
_symmetry_cell_setting 'orthorhombic'
loop_
_space_group_symop_operation_xyz
x,y,z
-x,-y,z
-x,y,z
x,-y,z
x,1/2+y,1/2+z
-x,1/2-y,1/2+z
-x,1/2+y,1/2+z
x,1/2-y,1/2+z
loop_
_atom_site_type_symbol
_atom_site_label
_atom_site_fract_x
_atom_site_fract_y
_atom_site_fract_z
Si Si1 0.319734 0.583493 0.767920
Si Si2 0.820991 0.083104 0.569609
Si Si3 0.317847 0.339546 0.976083
Si Si4 0.681898 0.918802 0.379032
Si Si5 0.179406 0.832064 0.179291
Si Si6 0.820326 0.419390 0.582101
Si Si7 0.327796 0.797678 0.027299
Si Si8 0.326940 0.795265 0.627413
O O1 0.500000 0.590575 0.764430
O O2 0.284588 0.500000 0.759291
O O3 0.273400 0.600512 0.823808
O O4 0.242406 0.633105 0.728321
O O5 0.749606 0.111758 0.519024
O O6 0.755142 0.132134 0.612826
O O7 0.000000 0.092098 0.567451
O O8 0.786691 0.000000 0.575852
O O9 0.500000 0.342449 0.980017
O O10 0.271154 0.368478 0.923263
O O11 0.272981 0.258097 0.986724
O O12 0.500000 0.919115 0.378957
O O13 0.729787 0.000000 0.388690
O O14 0.223530 0.883708 0.133885
O O15 0.246723 0.754894 0.166832
O O16 0.000000 0.828136 0.180498
O O17 0.764978 0.500000 0.578693
O O18 0.762903 0.368085 0.539355
O O19 0.000000 0.420311 0.581051
O O20 0.500000 0.816194 0.017366
O O21 0.323791 0.750779 0.077103
O O22 0.500000 0.807530 0.640067
#
# Coordination Sequence:
#
# PCOD9355992 Si02
#       8
#     8   8   8   8   8   8   8   8
#     4   9  17  28  41  58  80 106 138 173 204 237
#     4  10  19  28  39  59  86 111 135 165 201 239
#     4   9  16  27  43  59  77 106 142 172 200 239
#     4   8  14  25  41  59  78 103 137 174 205 232
#     4  10  18  28  42  58  79 106 134 166 205 244
#     4   9  17  27  38  53  74 102 133 159 187 230
#     4   8  15  25  37  56  77  97 125 162 199 231
#     4   9  17  29  43  58  77 103 136 168 197 235
#
# _framework density 13.903167
#
# number of rings (size 3 to 8) (size 9 to 14) (size 15 to 20)
#    0.000    3.000    0.000    3.375    0.000    6.000 
#    0.000    0.625    0.000    0.750    0.000    0.000 
#    0.000    1.000    0.000    9.250    0.000    3.125 
#
# Total GULP energy -178156.306001 kJ/mol
# GULP energy per Si atom -5567.384563 kJ/mol
# Density = 1.387152 g / cm^3
# Si number density = 13.903167 Si / 1000 Ang^3
#
#
#
# Elastic Constant Matrix: (Units=GPa)
#
#
# Indices 1 2 3 4 5 6 
#
# 1 31.1653 38.3159 26.8733 0.0000 0.0000 0.0000
# 2 38.3159 111.1632 62.6354 0.0000 0.0000 0.0000
# 3 26.8733 62.6354 94.6706 0.0000 0.0000 0.0000
# 4 0.0000 0.0000 0.0000 27.4935 0.0000 0.0000
# 5 0.0000 0.0000 0.0000 0.0000 10.9756 0.0000
# 6 0.0000 0.0000 0.0000 0.0000 0.0000 22.4322
#
#
#
# Elastic Compliance Matrix: (Units=1/GPa)
#
#
# Indices 1 2 3 4 5 6 
#
# 1 0.057181 -0.016842 -0.005089 0.000000 0.000000 0.000000
# 2 -0.016842 0.019303 -0.007990 0.000000 0.000000 0.000000
# 3 -0.005089 -0.007990 0.017294 0.000000 0.000000 0.000000
# 4 0.000000 0.000000 0.000000 0.036372 0.000000 0.000000
# 5 0.000000 0.000000 0.000000 0.000000 0.091111 0.000000
# 6 0.000000 0.000000 0.000000 0.000000 0.000000 0.044579
#
#
# Mechanical properties :
#
#
# Convention : Reuss Voigt Hill
#
# Bulk Modulus (GPa) = 29.46709 54.73869 42.10289
# Shear Modulus (GPa) = 14.83701 19.45855 17.14778
#
# Velocity S-wave (km/s) = 3.27030 3.74515 3.51575
# Velocity P-wave (km/s) = 5.95821 7.62616 6.84320
#
# Compressibility (1/GPa) = 0.03393616
#
# Stress axis : x y z
#
# Youngs Moduli (GPa) = 17.48826 51.80485 57.82368
#
# Poissons Ratio (x) = 0.87251 0.29424
# Poissons Ratio (y) = 0.29454 0.46204
# Poissons Ratio (z) = 0.08899 0.41394
#
# Static dielectric constant tensor:
#      x y z
#    x 1.469040 0.000000 0.000000 
#    y 0.000000 1.456530 0.000000 
#    z 0.000000 0.000000 1.446410 
# 
# From -- ./inp_files/23634.got.cif
#   From: 2010.05.17/outbox.cif.g08.bks.cpg/sg38_12_cif.got.tgz:23634.got - 2010.06.03 18:07:57.
