data_PCOD9355892
_publ_section_title
;
Structure prediction by ZEFSAII (Michael W. Deem and Ramdas Pophale) SiO2 
 PCOD9355892
Probable space group: A M M 2
;
_chemical_formula_sum "Si O2"
_cell_formula_units_Z 56
_cell_length_a 8.356499
_cell_length_b 23.096071
_cell_length_c 18.428052
_cell_angle_alpha 90.000000
_cell_angle_beta 90.000000
_cell_angle_gamma 90.000000
_cell_volume 3556.656314
_symmetry_space_group_name_H-M "A M M 2"
_symmetry_group_IT_number 38
_symmetry_cell_setting 'orthorhombic'
loop_
_space_group_symop_operation_xyz
x,y,z
-x,-y,z
-x,y,z
x,-y,z
x,1/2+y,1/2+z
-x,1/2-y,1/2+z
-x,1/2+y,1/2+z
x,1/2-y,1/2+z
loop_
_atom_site_type_symbol
_atom_site_label
_atom_site_fract_x
_atom_site_fract_y
_atom_site_fract_z
Si Si1 0.304298 0.933651 0.010970
Si Si2 0.304914 0.348115 0.636806
Si Si3 0.187128 0.306069 0.240822
Si Si4 0.309225 0.151061 0.883152
Si Si5 0.811759 0.223940 0.435448
Si Si6 0.687314 0.816881 0.290232
Si Si7 0.691476 0.217537 0.592292
O O1 0.500000 0.933358 0.011627
O O2 0.251841 0.897779 0.081893
O O3 0.251447 0.000000 0.010912
O O4 0.255603 0.897907 0.939590
O O5 0.500000 0.348104 0.637934
O O6 0.252889 0.353238 0.720771
O O7 0.257730 0.284794 0.606267
O O8 0.228570 0.351106 0.304116
O O9 0.289602 0.249194 0.262137
O O10 0.233824 0.319074 0.158210
O O11 0.000000 0.291333 0.245309
O O12 0.500000 0.147315 0.874479
O O13 0.269421 0.213949 0.917745
O O14 0.773973 0.182370 0.367324
O O15 0.747326 0.201564 0.512031
O O16 0.000000 0.233634 0.439714
O O17 0.500000 0.828108 0.301601
O O18 0.500000 0.215036 0.596784
#
# Coordination Sequence:
#
# PCOD9355892 Si02
#       7
#     8   8   8   8   8   8   8
#     4   9  16  26  43  66  86 108 147 192 221 244
#     4   8  14  25  40  58  79 107 141 176 211 246
#     4  10  18  27  39  59  83 108 140 176 213 254
#     4  10  17  28  43  58  81 115 148 178 216 256
#     4  11  19  26  39  61  86 111 141 176 213 254
#     4   9  16  26  40  56  79 112 145 173 206 256
#     4  10  17  28  43  60  83 112 143 171 207 260
#
# _framework density 15.745126000000001
#
# number of rings (size 3 to 8) (size 9 to 14) (size 15 to 20)
#    0.000    2.429    1.429    6.429    0.000    0.000 
#    0.000    0.000    0.000    1.714    0.000    0.000 
#    0.000    1.143    0.000    9.714    0.000    2.714 
#
# Total GULP energy -155960.829930 kJ/mol
# GULP energy per Si atom -5570.029640 kJ/mol
# Density = 1.570929 g / cm^3
# Si number density = 15.745126 Si / 1000 Ang^3
#
#
#
# Elastic Constant Matrix: (Units=GPa)
#
#
# Indices 1 2 3 4 5 6 
#
# 1 27.0888 2.7916 15.3402 0.0000 0.0000 0.0000
# 2 2.7916 49.2338 45.1204 0.0000 0.0000 0.0000
# 3 15.3402 45.1204 165.2142 0.0000 0.0000 0.0000
# 4 0.0000 0.0000 0.0000 14.0585 0.0000 0.0000
# 5 0.0000 0.0000 0.0000 0.0000 -0.3399 0.0000
# 6 0.0000 0.0000 0.0000 0.0000 0.0000 -3.2254
#
#
#
# Elastic Compliance Matrix: (Units=1/GPa)
#
#
# Indices 1 2 3 4 5 6 
#
# 1 0.039045 0.001479 -0.004029 0.000000 0.000000 0.000000
# 2 0.001479 0.027148 -0.007551 0.000000 0.000000 0.000000
# 3 -0.004029 -0.007551 0.008489 0.000000 0.000000 0.000000
# 4 0.000000 0.000000 0.000000 0.071131 0.000000 0.000000
# 5 0.000000 0.000000 0.000000 0.000000 -2.941658 0.000000
# 6 0.000000 0.000000 0.000000 0.000000 0.000000 -0.310036
#
#
# Mechanical properties :
#
#
# Convention : Reuss Voigt Hill
#
# Bulk Modulus (GPa) = 18.35600 40.89345 29.62473
# Shear Modulus (GPa) = -1.62998 13.98428 6.17715
#
# Velocity S-wave (km/s) = -1.01857 2.98344 1.98286
# Velocity P-wave (km/s) = 3.20940 6.15601 4.90900
#
# Compressibility (1/GPa) = 0.05447809
#
# Stress axis : x y z
#
# Youngs Moduli (GPa) = 25.61156 36.83519 117.79708
#
# Poissons Ratio (x) = -0.05447 0.47462
# Poissons Ratio (y) = -0.03787 0.88954
# Poissons Ratio (z) = 0.10319 0.27816
#
# Static dielectric constant tensor:
#      x y z
#    x 1.527620 0.000000 0.000000 
#    y 0.000000 1.491040 0.000000 
#    z 0.000000 0.000000 1.584110 
# 
# From -- ./inp_files/17248.got.cif
#   From: 2010.05.17/outbox.cif.g08.bks.cpg/sg38_9_cif.got.tgz:17248.got - 2010.06.03 18:07:57.
