data_PCOD9355329
_publ_section_title
;
Structure prediction by ZEFSAII (Michael W. Deem and Ramdas Pophale) SiO2 
 PCOD9355329
Probable space group: C C C 2
;
_chemical_formula_sum "Si O2"
_cell_formula_units_Z 40
_cell_length_a 9.013416
_cell_length_b 16.759810
_cell_length_c 10.146204
_cell_angle_alpha 90.000000
_cell_angle_beta 90.000000
_cell_angle_gamma 90.000000
_cell_volume 1532.717431
_symmetry_space_group_name_H-M "C C C 2"
_symmetry_group_IT_number 37
_symmetry_cell_setting 'orthorhombic'
loop_
_space_group_symop_operation_xyz
x,y,z
-x,-y,z
-x,y,1/2+z
x,-y,1/2+z
1/2+x,1/2+y,z
1/2-x,1/2-y,z
1/2-x,1/2+y,1/2+z
1/2+x,1/2-y,1/2+z
loop_
_atom_site_type_symbol
_atom_site_label
_atom_site_fract_x
_atom_site_fract_y
_atom_site_fract_z
Si Si1 0.879947 0.313134 0.073160
Si Si2 0.025196 0.834670 0.605533
Si Si3 0.833601 0.532604 0.747467
Si Si4 0.920420 0.076189 0.852335
Si Si5 0.814876 0.329559 0.445334
O O1 0.750000 0.250000 0.041894
O O2 0.829309 0.399087 0.129642
O O3 0.981070 0.252545 0.161403
O O4 0.008544 0.325859 0.965987
O O5 0.942541 0.860288 0.469448
O O6 0.992557 0.894710 0.722923
O O7 0.199568 0.833934 0.567636
O O8 0.731077 0.456108 0.784997
O O9 0.798304 0.589064 0.869778
O O10 0.000000 0.500000 0.739634
O O11 0.000000 0.000000 0.913240
O O12 0.750000 0.250000 0.375869
#
# Coordination Sequence:
#
# PCOD9355329 Si02
#       5
#     8   8   8   8   8
#     4  11  26  47  77 107 152 211 266 324 397 482
#     4  11  26  48  79 113 156 214 267 323 402 494
#     4  12  27  46  76 113 163 202 264 340 413 474
#     4  12  25  46  78 116 159 204 265 329 405 473
#     4  10  24  48  72 109 154 206 264 327 395 490
#
# _framework density 26.097439000000001
#
# number of rings (size 3 to 8) (size 9 to 14) (size 15 to 20)
#    0.000    0.800    2.000    3.600    8.400    2.400 
#    0.000    0.000    0.000    0.000    0.000    0.000 
#    0.000    0.000    0.000    0.000    0.000    0.000 
#
# Total GULP energy -111343.094463 kJ/mol
# GULP energy per Si atom -5567.154723 kJ/mol
# Density = 2.603804 g / cm^3
# Si number density = 26.097439 Si / 1000 Ang^3
#
#
#
# Elastic Constant Matrix: (Units=GPa)
#
#
# Indices 1 2 3 4 5 6 
#
# 1 180.1483 47.1920 53.1623 0.0000 0.0000 0.0000
# 2 47.1920 115.5371 48.5131 0.0000 0.0000 0.0000
# 3 53.1623 48.5131 102.2939 0.0000 0.0000 0.0000
# 4 0.0000 0.0000 0.0000 67.9119 0.0000 0.0000
# 5 0.0000 0.0000 0.0000 0.0000 35.3353 0.0000
# 6 0.0000 0.0000 0.0000 0.0000 0.0000 75.0013
#
#
#
# Elastic Compliance Matrix: (Units=1/GPa)
#
#
# Indices 1 2 3 4 5 6 
#
# 1 0.006789 -0.001613 -0.002763 0.000000 0.000000 0.000000
# 2 -0.001613 0.011190 -0.004469 0.000000 0.000000 0.000000
# 3 -0.002763 -0.004469 0.013331 0.000000 0.000000 0.000000
# 4 0.000000 0.000000 0.000000 0.014725 0.000000 0.000000
# 5 0.000000 0.000000 0.000000 0.000000 0.028300 0.000000
# 6 0.000000 0.000000 0.000000 0.000000 0.000000 0.013333
#
#
# Mechanical properties :
#
#
# Convention : Reuss Voigt Hill
#
# Bulk Modulus (GPa) = 73.41831 77.30157 75.35994
# Shear Modulus (GPa) = 45.49617 52.25716 48.87667
#
# Velocity S-wave (km/s) = 4.17984 4.47966 4.33234
# Velocity P-wave (km/s) = 7.17553 7.51273 7.34606
#
# Compressibility (1/GPa) = 0.01362058
#
# Stress axis : x y z
#
# Youngs Moduli (GPa) = 147.29868 89.36215 75.01122
#
# Poissons Ratio (x) = 0.14411 0.20729
# Poissons Ratio (y) = 0.23754 0.33522
# Poissons Ratio (z) = 0.40705 0.39936
#
# Static dielectric constant tensor:
#      x y z
#    x 2.261950 0.000000 0.000000 
#    y 0.000000 1.834560 0.000000 
#    z 0.000000 0.000000 2.074540 
# 
# From -- ./inp_files/6122.got.cif
#   From: 2010.05.17/outbox.cif.g08.bks.cpg/sg37_4_cif.got.tgz:6122.got - 2010.06.03 17:53:42.
