data_PCOD9355944
_publ_section_title
;
Structure prediction by ZEFSAII (Michael W. Deem and Ramdas Pophale) SiO2 
 PCOD9355944
Probable space group: A M M 2
;
_chemical_formula_sum "Si O2"
_cell_formula_units_Z 56
_cell_length_a 21.940840
_cell_length_b 7.808717
_cell_length_c 16.030404
_cell_angle_alpha 90.000000
_cell_angle_beta 90.000000
_cell_angle_gamma 90.000000
_cell_volume 2746.486076
_symmetry_space_group_name_H-M "A M M 2"
_symmetry_group_IT_number 38
_symmetry_cell_setting 'orthorhombic'
loop_
_space_group_symop_operation_xyz
x,y,z
-x,-y,z
-x,y,z
x,-y,z
x,1/2+y,1/2+z
-x,1/2-y,1/2+z
-x,1/2+y,1/2+z
x,1/2-y,1/2+z
loop_
_atom_site_type_symbol
_atom_site_label
_atom_site_fract_x
_atom_site_fract_y
_atom_site_fract_z
Si Si1 0.353151 0.294832 0.657930
Si Si2 0.430212 0.293833 0.814611
Si Si3 0.000000 0.793357 0.560631
Si Si4 0.000000 0.795027 0.255551
Si Si5 0.569816 0.206140 0.001250
Si Si6 0.868670 0.793466 0.314847
Si Si7 0.132224 0.290177 0.999981
Si Si8 0.787956 0.703441 0.155530
O O1 0.361062 0.500000 0.658024
O O2 0.386873 0.228955 0.741059
O O3 0.386812 0.228889 0.574763
O O4 0.281610 0.261277 0.657878
O O5 0.500000 0.230842 0.804721
O O6 0.432209 0.500000 0.809138
O O7 0.409296 0.250240 0.907954
O O8 0.000000 0.740605 0.657120
O O9 0.062643 0.735750 0.518046
O O10 0.000000 0.000000 0.557346
O O11 0.936939 0.728783 0.294234
O O12 0.000000 0.000000 0.268303
O O13 0.500000 0.268994 0.011228
O O14 0.567823 0.000000 0.006664
O O15 0.849262 0.735593 0.407079
O O16 0.823831 0.747447 0.239952
O O17 0.871571 0.000000 0.317094
O O18 0.132741 0.500000 0.001640
O O19 0.175262 0.228464 0.074906
O O20 0.787787 0.500000 0.148020
#
# Coordination Sequence:
#
# PCOD9355944 Si02
#       8
#     8   8   4   4   8   8   8   8
#     4  10  21  37  56  77 107 148 184 216 264 323
#     4   9  18  34  57  83 109 139 178 221 265 318
#     4  10  17  33  59  80 106 140 175 215 269 324
#     4  10  19  31  55  86 110 132 169 223 271 316
#     4   9  18  34  57  84 112 141 176 220 270 320
#     4  10  20  37  58  80 107 141 180 219 267 325
#     4   9  19  35  57  79 102 139 180 217 262 322
#     4  11  23  38  54  78 108 142 184 228 269 312
#
# _framework density 20.389690999999999
#
# number of rings (size 3 to 8) (size 9 to 14) (size 15 to 20)
#    0.000    2.286    1.429    1.286    0.000    5.714 
#    0.000    6.429    0.000    5.143    0.000    0.000 
#    0.000    0.000    0.000    0.000    0.000    0.000 
#
# Total GULP energy -156336.914780 kJ/mol
# GULP energy per Si atom -5583.461242 kJ/mol
# Density = 2.034328 g / cm^3
# Si number density = 20.389691 Si / 1000 Ang^3
#
#
#
# Elastic Constant Matrix: (Units=GPa)
#
#
# Indices 1 2 3 4 5 6 
#
# 1 145.7278 4.2478 123.0062 0.0000 0.0000 0.0000
# 2 4.2478 24.6500 5.8918 0.0000 0.0000 0.0000
# 3 123.0062 5.8918 218.1359 0.0000 0.0000 0.0000
# 4 0.0000 0.0000 0.0000 24.2741 0.0000 0.0000
# 5 0.0000 0.0000 0.0000 0.0000 -3.4127 0.0000
# 6 0.0000 0.0000 0.0000 0.0000 0.0000 8.4112
#
#
#
# Elastic Compliance Matrix: (Units=1/GPa)
#
#
# Indices 1 2 3 4 5 6 
#
# 1 0.013101 -0.000495 -0.007374 0.000000 0.000000 0.000000
# 2 -0.000495 0.040850 -0.000824 0.000000 0.000000 0.000000
# 3 -0.007374 -0.000824 0.008765 0.000000 0.000000 0.000000
# 4 0.000000 0.000000 0.000000 0.041196 0.000000 0.000000
# 5 0.000000 0.000000 0.000000 0.000000 -0.293021 0.000000
# 6 0.000000 0.000000 0.000000 0.000000 0.000000 0.118889
#
#
# Mechanical properties :
#
#
# Convention : Reuss Voigt Hill
#
# Bulk Modulus (GPa) = 22.06089 72.75616 47.40852
# Shear Modulus (GPa) = -132.54261 22.87905 -54.83178
#
# Velocity S-wave (km/s) = -8.07130 3.35339 -5.19137
# Velocity P-wave (km/s) = 8.71883 7.12418 3.55416
#
# Compressibility (1/GPa) = 0.04532908
#
# Stress axis : x y z
#
# Youngs Moduli (GPa) = 76.32993 24.47969 114.09169
#
# Poissons Ratio (x) = 0.01212 0.84134
# Poissons Ratio (y) = 0.03779 0.09403
# Poissons Ratio (z) = 0.56288 0.02018
#
# Static dielectric constant tensor:
#      x y z
#    x 1.712150 0.000000 0.000000 
#    y 0.000000 1.757120 0.000000 
#    z 0.000000 0.000000 1.717450 
# 
# From -- ./inp_files/15548.got.cif
#   From: 2010.05.17/outbox.cif.g08.bks.cpg/sg38_8_cif.got.tgz:15548.got - 2010.06.03 18:07:57.
