data_PCOD9355663
_publ_section_title
;
Structure prediction by ZEFSAII (Michael W. Deem and Ramdas Pophale) SiO2 
 PCOD9355663
Probable space group: C C C 2
;
_chemical_formula_sum "Si O2"
_cell_formula_units_Z 48
_cell_length_a 15.178479
_cell_length_b 8.995202
_cell_length_c 13.296669
_cell_angle_alpha 90.000000
_cell_angle_beta 90.000000
_cell_angle_gamma 90.000000
_cell_volume 1815.440553
_symmetry_space_group_name_H-M "C C C 2"
_symmetry_group_IT_number 37
_symmetry_cell_setting 'orthorhombic'
loop_
_space_group_symop_operation_xyz
x,y,z
-x,-y,z
-x,y,1/2+z
x,-y,1/2+z
1/2+x,1/2+y,z
1/2-x,1/2-y,z
1/2-x,1/2+y,1/2+z
1/2+x,1/2-y,1/2+z
loop_
_atom_site_type_symbol
_atom_site_label
_atom_site_fract_x
_atom_site_fract_y
_atom_site_fract_z
Si Si1 0.022079 0.671220 0.360110
Si Si2 0.091118 0.411588 0.074502
Si Si3 0.268145 0.412027 0.531336
Si Si4 0.266179 0.576623 0.339178
Si Si5 0.086447 0.904833 0.199536
Si Si6 0.652662 0.814593 0.283002
O O1 0.178780 0.485142 0.313038
O O2 0.063527 0.761168 0.267459
O O3 0.000000 0.500000 0.336983
O O4 0.921650 0.735899 0.362892
O O5 0.174969 0.523616 0.072443
O O6 0.074242 0.328774 0.966685
O O7 0.110906 0.310268 0.171064
O O8 0.000000 0.500000 0.089324
O O9 0.250000 0.250000 0.485088
O O10 0.291431 0.538728 0.452282
O O11 0.348778 0.382391 0.606063
O O12 0.250000 0.750000 0.321148
O O13 0.154060 0.986900 0.273814
O O14 0.000000 0.000000 0.176958
O O15 0.750000 0.750000 0.276962
#
# Coordination Sequence:
#
# PCOD9355663 Si02
#       6
#     8   8   8   8   8   8
#     4  11  26  51  82 121 167 225 287 348 421 512
#     4  11  26  48  82 122 163 224 291 347 417 514
#     4  12  29  52  81 125 166 224 287 349 425 506
#     4  12  26  53  85 115 167 222 277 350 431 509
#     4  12  28  53  79 119 173 220 275 359 434 498
#     4  12  26  49  85 125 168 222 286 356 426 508
#
# _framework density 26.439862000000002
#
# number of rings (size 3 to 8) (size 9 to 14) (size 15 to 20)
#    0.000    0.333    1.667    6.500    4.667    5.333 
#    0.000    1.667    0.000    0.000    0.000    0.000 
#    0.000    0.000    0.000    0.000    0.000    0.000 
#
# Total GULP energy -134327.799648 kJ/mol
# GULP energy per Si atom -5596.991652 kJ/mol
# Density = 2.637968 g / cm^3
# Si number density = 26.439862 Si / 1000 Ang^3
#
#
#
# Elastic Constant Matrix: (Units=GPa)
#
#
# Indices 1 2 3 4 5 6 
#
# 1 213.9014 51.8731 86.8410 0.0000 0.0000 0.0000
# 2 51.8731 85.1216 34.2721 0.0000 0.0000 0.0000
# 3 86.8410 34.2721 168.6199 0.0000 0.0000 0.0000
# 4 0.0000 0.0000 0.0000 40.0567 0.0000 0.0000
# 5 0.0000 0.0000 0.0000 0.0000 62.1015 0.0000
# 6 0.0000 0.0000 0.0000 0.0000 0.0000 49.3624
#
#
#
# Elastic Compliance Matrix: (Units=1/GPa)
#
#
# Indices 1 2 3 4 5 6 
#
# 1 0.006485 -0.002840 -0.002763 0.000000 0.000000 0.000000
# 2 -0.002840 0.014038 -0.001391 0.000000 0.000000 0.000000
# 3 -0.002763 -0.001391 0.007636 0.000000 0.000000 0.000000
# 4 0.000000 0.000000 0.000000 0.024965 0.000000 0.000000
# 5 0.000000 0.000000 0.000000 0.000000 0.016103 0.000000
# 6 0.000000 0.000000 0.000000 0.000000 0.000000 0.020258
#
#
# Mechanical properties :
#
#
# Convention : Reuss Voigt Hill
#
# Bulk Modulus (GPa) = 70.55664 90.40171 80.47918
# Shear Modulus (GPa) = 46.21207 49.94790 48.07999
#
# Velocity S-wave (km/s) = 4.18523 4.35111 4.26897
# Velocity P-wave (km/s) = 7.07803 7.71418 7.40294
#
# Compressibility (1/GPa) = 0.01417301
#
# Stress axis : x y z
#
# Youngs Moduli (GPa) = 154.19205 71.23294 130.95726
#
# Poissons Ratio (x) = 0.20229 0.36182
# Poissons Ratio (y) = 0.43788 0.18213
# Poissons Ratio (z) = 0.42601 0.09907
#
# Static dielectric constant tensor:
#      x y z
#    x 2.166440 0.000000 0.000000 
#    y 0.000000 2.286700 0.000000 
#    z 0.000000 0.000000 2.109950 
# 
# From -- ./inp_files/15233.got.cif
#   From: 2010.05.17/outbox.cif.g08.bks.cpg/sg37_8_cif.got.tgz:15233.got - 2010.06.03 17:53:42.
