data_PCOD9355064
_publ_section_title
;
Structure prediction by ZEFSAII (Michael W. Deem and Ramdas Pophale) SiO2 
 PCOD9355064
Probable space group: C C C 2
;
_chemical_formula_sum "Si O2"
_cell_formula_units_Z 64
_cell_length_a 10.384868
_cell_length_b 10.384865
_cell_length_c 31.153344
_cell_angle_alpha 90.000000
_cell_angle_beta 90.000000
_cell_angle_gamma 90.000000
_cell_volume 3359.746472
_symmetry_space_group_name_H-M "C C C 2"
_symmetry_group_IT_number 37
_symmetry_cell_setting 'orthorhombic'
loop_
_space_group_symop_operation_xyz
x,y,z
-x,-y,z
-x,y,1/2+z
x,-y,1/2+z
1/2+x,1/2+y,z
1/2-x,1/2-y,z
1/2-x,1/2+y,1/2+z
1/2+x,1/2-y,1/2+z
loop_
_atom_site_type_symbol
_atom_site_label
_atom_site_fract_x
_atom_site_fract_y
_atom_site_fract_z
Si Si1 0.446778 0.196481 0.293600
Si Si2 0.623334 0.410737 0.725628
Si Si3 0.111211 0.108561 0.949718
Si Si4 0.893504 0.393653 0.589277
Si Si5 0.893653 0.393504 0.486036
Si Si6 0.589262 0.376666 0.349686
Si Si7 0.391439 0.388789 0.125596
Si Si8 0.803519 0.553222 0.781714
O O1 0.386546 0.297442 0.260518
O O2 0.497125 0.259543 0.337093
O O3 0.576579 0.142930 0.271889
O O4 0.357069 0.076579 0.303425
O O5 0.500000 0.500000 0.732188
O O6 0.625663 0.367910 0.676690
O O7 0.740457 0.502874 0.738221
O O8 0.075687 0.249311 0.968796
O O9 0.249697 0.072421 0.969765
O O10 0.132090 0.125663 0.898624
O O11 0.000000 0.000000 0.956337
O O12 0.889566 0.389566 0.537657
O O13 0.749311 0.424313 0.606518
O O14 0.927579 0.249697 0.605549
O O15 0.000000 0.500000 0.602270
O O16 0.000000 0.500000 0.473044
O O17 0.500000 0.500000 0.343126
O O18 0.702558 0.386545 0.314795
O O19 0.500000 0.500000 0.118976
#
# Coordination Sequence:
#
# PCOD9355064 Si02
#       8
#     8   8   8   8   8   8   8   8
#     4  11  23  36  56  82 111 157 204 250 304 355
#     4  11  22  40  59  82 122 161 203 258 302 354
#     4  10  23  40  64  93 126 171 209 256 317 382
#     4  10  23  43  66  97 131 162 207 267 324 387
#     4  10  23  43  66  97 131 162 207 267 324 387
#     4  11  22  40  59  82 122 161 203 258 302 354
#     4  10  23  40  64  93 126 171 209 256 317 382
#     4  11  23  36  56  82 111 157 204 250 304 355
#
# _framework density 19.049057000000001
#
# number of rings (size 3 to 8) (size 9 to 14) (size 15 to 20)
#    0.000    1.500    2.500    2.250    7.000    5.000 
#    0.000    7.500    0.000    0.000    0.000    0.000 
#    0.000    0.000    0.000    0.000    0.000    0.000 
#
# Total GULP energy -178610.170588 kJ/mol
# GULP energy per Si atom -5581.567831 kJ/mol
# Density = 1.900570 g / cm^3
# Si number density = 19.049057 Si / 1000 Ang^3
#
#
#
# Elastic Constant Matrix: (Units=GPa)
#
#
# Indices 1 2 3 4 5 6 
#
# 1 112.0979 78.8098 38.2252 0.0000 0.0000 0.0000
# 2 78.8098 112.0986 38.2252 0.0000 0.0000 0.0000
# 3 38.2252 38.2252 87.6683 0.0000 0.0000 0.0000
# 4 0.0000 0.0000 0.0000 46.4665 0.0000 0.0000
# 5 0.0000 0.0000 0.0000 0.0000 46.4720 0.0000
# 6 0.0000 0.0000 0.0000 0.0000 0.0000 45.0069
#
#
#
# Elastic Compliance Matrix: (Units=1/GPa)
#
#
# Indices 1 2 3 4 5 6 
#
# 1 0.018193 -0.011847 -0.002767 0.000000 0.000000 0.000000
# 2 -0.011847 0.018193 -0.002767 0.000000 0.000000 0.000000
# 3 -0.002767 -0.002767 0.013820 0.000000 0.000000 0.000000
# 4 0.000000 0.000000 0.000000 0.021521 0.000000 0.000000
# 5 0.000000 0.000000 0.000000 0.000000 0.021518 0.000000
# 6 0.000000 0.000000 0.000000 0.000000 0.000000 0.022219
#
#
# Mechanical properties :
#
#
# Convention : Reuss Voigt Hill
#
# Bulk Modulus (GPa) = 64.75111 69.15389 66.95250
# Shear Modulus (GPa) = 32.18025 38.02939 35.10482
#
# Velocity S-wave (km/s) = 4.11461 4.47295 4.29752
# Velocity P-wave (km/s) = 7.52588 7.94092 7.73619
#
# Compressibility (1/GPa) = 0.01544375
#
# Stress axis : x y z
#
# Youngs Moduli (GPa) = 54.96497 54.96538 72.36080
#
# Poissons Ratio (x) = 0.65118 0.20023
# Poissons Ratio (y) = 0.65118 0.20023
# Poissons Ratio (z) = 0.15209 0.15209
#
# Static dielectric constant tensor:
#      x y z
#    x 1.673890 0.000000 0.000000 
#    y 0.000000 1.673890 0.000000 
#    z 0.000000 0.000000 1.643380 
# 
# From -- ./inp_files/20421.got.cif
#   From: 2010.05.17/outbox.cif.g08.bks.cpg/sg37_11_cif.got.tgz:20421.got - 2010.06.03 17:53:42.
