data_PCOD9355469
_publ_section_title
;
Structure prediction by ZEFSAII (Michael W. Deem and Ramdas Pophale) SiO2 
 PCOD9355469
Probable space group: C C C 2
;
_chemical_formula_sum "Si O2"
_cell_formula_units_Z 64
_cell_length_a 15.068318
_cell_length_b 8.366427
_cell_length_c 24.159380
_cell_angle_alpha 90.000000
_cell_angle_beta 90.000000
_cell_angle_gamma 90.000000
_cell_volume 3045.724296
_symmetry_space_group_name_H-M "C C C 2"
_symmetry_group_IT_number 37
_symmetry_cell_setting 'orthorhombic'
loop_
_space_group_symop_operation_xyz
x,y,z
-x,-y,z
-x,y,1/2+z
x,-y,1/2+z
1/2+x,1/2+y,z
1/2-x,1/2-y,z
1/2-x,1/2+y,1/2+z
1/2+x,1/2-y,1/2+z
loop_
_atom_site_type_symbol
_atom_site_label
_atom_site_fract_x
_atom_site_fract_y
_atom_site_fract_z
Si Si1 0.909658 0.098649 0.214000
Si Si2 0.682291 0.390143 0.898373
Si Si3 0.576985 0.129049 0.302642
Si Si4 0.499517 0.305669 0.402549
Si Si5 0.236679 0.061542 0.004364
Si Si6 0.244243 0.942746 0.785368
Si Si7 0.901765 0.080773 0.085916
Si Si8 0.073466 0.382592 0.509393
O O1 0.933370 0.247597 0.252640
O O2 0.886285 0.124064 0.149828
O O3 0.827761 0.007815 0.242697
O O4 0.000000 0.000000 0.213824
O O5 0.750000 0.250000 0.912742
O O6 0.596794 0.299653 0.873970
O O7 0.714972 0.490706 0.847284
O O8 0.677481 0.495501 0.953320
O O9 0.571286 0.229729 0.361038
O O10 0.500000 0.000000 0.308468
O O11 0.662515 0.030155 0.283446
O O12 0.500000 0.500000 0.412317
O O13 0.478255 0.199823 0.456951
O O14 0.250000 0.250000 0.999654
O O15 0.178643 0.022052 0.059087
O O16 0.333561 0.976165 0.999347
O O17 0.250000 0.750000 0.782104
O O18 0.903429 0.240337 0.050055
O O19 0.000000 0.000000 0.080422
O O20 0.000000 0.500000 0.534233
#
# Coordination Sequence:
#
# PCOD9355469 Si02
#       8
#     8   8   8   8   8   8   8   8
#     4  11  25  48  75 103 139 187 241 296 358 417
#     4  11  21  41  63  94 143 183 227 287 354 414
#     4  12  25  43  68 107 143 186 238 287 356 425
#     4  12  25  41  69  98 143 183 228 294 356 423
#     4  12  26  43  70 106 142 187 236 290 357 428
#     4  11  25  43  70 104 144 186 236 292 352 421
#     4  11  25  50  74 101 141 186 240 300 353 421
#     4  12  26  43  69 104 142 186 238 289 357 420
#
# _framework density 21.013062999999999
#
# number of rings (size 3 to 8) (size 9 to 14) (size 15 to 20)
#    0.000    0.500    2.500    6.375    3.500    4.000 
#    0.000    0.000    0.000    0.000    0.000    0.000 
#    0.000    0.000    0.000    0.000    0.000    0.000 
#
# Total GULP energy -178570.784028 kJ/mol
# GULP energy per Si atom -5580.337001 kJ/mol
# Density = 2.096524 g / cm^3
# Si number density = 21.013063 Si / 1000 Ang^3
#
#
#
# Elastic Constant Matrix: (Units=GPa)
#
#
# Indices 1 2 3 4 5 6 
#
# 1 85.3577 45.1074 26.1335 0.0000 0.0000 0.0000
# 2 45.1074 128.1578 60.8053 0.0000 0.0000 0.0000
# 3 26.1335 60.8053 135.1733 0.0000 0.0000 0.0000
# 4 0.0000 0.0000 0.0000 6.2593 0.0000 0.0000
# 5 0.0000 0.0000 0.0000 0.0000 27.5488 0.0000
# 6 0.0000 0.0000 0.0000 0.0000 0.0000 30.0606
#
#
#
# Elastic Compliance Matrix: (Units=1/GPa)
#
#
# Indices 1 2 3 4 5 6 
#
# 1 0.014436 -0.004776 -0.000642 0.000000 0.000000 0.000000
# 2 -0.004776 0.011500 -0.004250 0.000000 0.000000 0.000000
# 3 -0.000642 -0.004250 0.009434 0.000000 0.000000 0.000000
# 4 0.000000 0.000000 0.000000 0.159761 0.000000 0.000000
# 5 0.000000 0.000000 0.000000 0.000000 0.036299 0.000000
# 6 0.000000 0.000000 0.000000 0.000000 0.000000 0.033266
#
#
# Mechanical properties :
#
#
# Convention : Reuss Voigt Hill
#
# Bulk Modulus (GPa) = 62.37046 68.08679 65.22862
# Shear Modulus (GPa) = 17.27844 27.21661 22.24752
#
# Velocity S-wave (km/s) = 2.87064 3.60283 3.25737
# Velocity P-wave (km/s) = 6.38229 7.05547 6.72730
#
# Compressibility (1/GPa) = 0.01603323
#
# Stress axis : x y z
#
# Youngs Moduli (GPa) = 69.27072 86.95430 106.00162
#
# Poissons Ratio (x) = 0.41531 0.06811
# Poissons Ratio (y) = 0.33085 0.45049
# Poissons Ratio (z) = 0.04451 0.36954
#
# Static dielectric constant tensor:
#      x y z
#    x 1.865050 0.000000 0.000000 
#    y 0.000000 1.720640 0.000000 
#    z 0.000000 0.000000 1.745580 
# 
# From -- ./inp_files/18897.got.cif
#   From: 2010.05.17/outbox.cif.g08.bks.cpg/sg37_10_cif.got.tgz:18897.got - 2010.06.03 17:53:42.
