data_PCOD9355933
_publ_section_title
;
Structure prediction by ZEFSAII (Michael W. Deem and Ramdas Pophale) SiO2 
 PCOD9355933
Probable space group: A M M 2
;
_chemical_formula_sum "Si O2"
_cell_formula_units_Z 48
_cell_length_a 19.866258
_cell_length_b 7.428138
_cell_length_c 15.351515
_cell_angle_alpha 90.000000
_cell_angle_beta 90.000000
_cell_angle_gamma 90.000000
_cell_volume 2265.412414
_symmetry_space_group_name_H-M "A M M 2"
_symmetry_group_IT_number 38
_symmetry_cell_setting 'orthorhombic'
loop_
_space_group_symop_operation_xyz
x,y,z
-x,-y,z
-x,y,z
x,-y,z
x,1/2+y,1/2+z
-x,1/2-y,1/2+z
-x,1/2+y,1/2+z
x,1/2-y,1/2+z
loop_
_atom_site_type_symbol
_atom_site_label
_atom_site_fract_x
_atom_site_fract_y
_atom_site_fract_z
Si Si1 0.500000 0.206466 0.323840
Si Si2 0.351981 0.781976 0.367467
Si Si3 0.000000 0.215022 0.872252
Si Si4 0.255636 0.291015 0.209121
Si Si5 0.104421 0.720360 0.226588
Si Si6 0.000000 0.714766 0.080249
Si Si7 0.500000 0.218580 0.621280
Si Si8 0.353517 0.280457 0.060262
O O1 0.571568 0.284433 0.352435
O O2 0.500000 0.212478 0.219682
O O3 0.500000 0.000000 0.356768
O O4 0.300494 0.717030 0.295424
O O5 0.330940 0.730389 0.464150
O O6 0.353613 0.000000 0.360908
O O7 0.064035 0.277746 0.813929
O O8 0.000000 0.249722 0.976310
O O9 0.000000 0.000000 0.865854
O O10 0.245261 0.500000 0.185544
O O11 0.181218 0.215637 0.223072
O O12 0.302460 0.212627 0.133190
O O13 0.104322 0.500000 0.228500
O O14 0.063815 0.775671 0.139088
O O15 0.000000 0.500000 0.086422
O O16 0.569457 0.276444 0.576801
O O17 0.500000 0.000000 0.623950
O O18 0.355131 0.500000 0.064690
#
# Coordination Sequence:
#
# PCOD9355933 Si02
#       8
#     4   8   4   8   8   4   4   8
#     4  10  19  31  49  70  98 130 161 205 263 306
#     4  10  20  34  50  72 101 133 165 206 260 306
#     4   9  17  33  54  76 102 135 167 199 244 298
#     4  10  19  34  53  74  99 132 171 208 243 294
#     4   8  17  33  52  73 104 138 164 196 250 303
#     4   9  17  33  56  80 102 131 169 207 240 286
#     4  10  17  31  53  72  90 124 173 213 243 290
#     4   9  18  31  50  71  94 126 166 206 247 295
#
# _framework density 21.188196000000001
#
# number of rings (size 3 to 8) (size 9 to 14) (size 15 to 20)
#    0.000    2.667    1.667    1.500    0.000    3.333 
#    0.000    6.667    0.000    1.000    0.000    0.000 
#    0.000    0.000    0.000    0.000    0.000    0.000 
#
# Total GULP energy -133901.697377 kJ/mol
# GULP energy per Si atom -5579.237391 kJ/mol
# Density = 2.113997 g / cm^3
# Si number density = 21.188196 Si / 1000 Ang^3
#
#
#
# Elastic Constant Matrix: (Units=GPa)
#
#
# Indices 1 2 3 4 5 6 
#
# 1 200.1975 3.2558 98.2693 0.0000 0.0000 0.0000
# 2 3.2558 64.7512 -10.0235 0.0000 0.0000 0.0000
# 3 98.2693 -10.0235 184.7924 0.0000 0.0000 0.0000
# 4 0.0000 0.0000 0.0000 20.0582 0.0000 0.0000
# 5 0.0000 0.0000 0.0000 0.0000 -33.0274 0.0000
# 6 0.0000 0.0000 0.0000 0.0000 0.0000 -0.4973
#
#
#
# Elastic Compliance Matrix: (Units=1/GPa)
#
#
# Indices 1 2 3 4 5 6 
#
# 1 0.006812 -0.000911 -0.003672 0.000000 0.000000 0.000000
# 2 -0.000911 0.015696 0.001336 0.000000 0.000000 0.000000
# 3 -0.003672 0.001336 0.007437 0.000000 0.000000 0.000000
# 4 0.000000 0.000000 0.000000 0.049855 0.000000 0.000000
# 5 0.000000 0.000000 0.000000 0.000000 -0.030278 0.000000
# 6 0.000000 0.000000 0.000000 0.000000 0.000000 -2.010836
#
#
# Mechanical properties :
#
#
# Convention : Reuss Voigt Hill
#
# Bulk Modulus (GPa) = 42.64230 70.30494 56.47362
# Shear Modulus (GPa) = -2.56805 21.18932 9.31063
#
# Velocity S-wave (km/s) = -1.10211 3.16579 2.09852
# Velocity P-wave (km/s) = 4.30693 6.82761 5.70815
#
# Compressibility (1/GPa) = 0.02345089
#
# Stress axis : x y z
#
# Youngs Moduli (GPa) = 146.79146 63.70917 134.46813
#
# Poissons Ratio (x) = 0.05804 0.49378
# Poissons Ratio (y) = 0.13373 -0.17963
# Poissons Ratio (z) = 0.53904 -0.08511
#
# Static dielectric constant tensor:
#      x y z
#    x 1.752660 0.000000 0.000000 
#    y 0.000000 1.998850 0.000000 
#    z 0.000000 0.000000 1.729560 
# 
# From -- ./inp_files/15110.got.cif
#   From: 2010.05.17/outbox.cif.g08.bks.cpg/sg38_8_cif.got.tgz:15110.got - 2010.06.03 18:07:57.
