data_PCOD9355531
_publ_section_title
;
Structure prediction by ZEFSAII (Michael W. Deem and Ramdas Pophale) SiO2 
 PCOD9355531
Probable space group: C C C 2
;
_chemical_formula_sum "Si O2"
_cell_formula_units_Z 64
_cell_length_a 8.843124
_cell_length_b 16.267378
_cell_length_c 21.161882
_cell_angle_alpha 90.000000
_cell_angle_beta 90.000000
_cell_angle_gamma 90.000000
_cell_volume 3044.230702
_symmetry_space_group_name_H-M "C C C 2"
_symmetry_group_IT_number 37
_symmetry_cell_setting 'orthorhombic'
loop_
_space_group_symop_operation_xyz
x,y,z
-x,-y,z
-x,y,1/2+z
x,-y,1/2+z
1/2+x,1/2+y,z
1/2-x,1/2-y,z
1/2-x,1/2+y,1/2+z
1/2+x,1/2-y,1/2+z
loop_
_atom_site_type_symbol
_atom_site_label
_atom_site_fract_x
_atom_site_fract_y
_atom_site_fract_z
Si Si1 0.913434 0.348613 0.788550
Si Si2 0.568305 0.090095 0.409154
Si Si3 0.915197 0.588255 0.529128
Si Si4 0.432300 0.843592 0.649815
Si Si5 0.578282 0.353994 0.649979
Si Si6 0.863080 0.168232 0.414216
Si Si7 0.057486 0.909516 0.019148
Si Si8 0.073174 0.152888 0.291679
O O1 0.967218 0.377161 0.719782
O O2 0.906099 0.250545 0.782619
O O3 0.743792 0.379489 0.805211
O O4 0.027559 0.367578 0.843885
O O5 0.489921 0.133276 0.469021
O O6 0.744502 0.093970 0.420953
O O7 0.500000 0.000000 0.403678
O O8 0.738145 0.588327 0.516782
O O9 0.000000 0.500000 0.530120
O O10 0.957495 0.626516 0.595752
O O11 0.438697 0.744752 0.648162
O O12 0.257466 0.869510 0.639309
O O13 0.489989 0.392194 0.591613
O O14 0.531678 0.380276 0.721487
O O15 0.750000 0.250000 0.413432
O O16 0.978441 0.157687 0.472919
O O17 0.956485 0.150416 0.349709
O O18 0.000000 0.000000 0.001213
#
# Coordination Sequence:
#
# PCOD9355531 Si02
#       8
#     8   8   8   8   8   8   8   8
#     4   9  18  37  63  91 127 165 212 265 322 384
#     4  11  23  40  60  87 128 169 208 265 327 388
#     4  11  24  42  62  88 127 171 217 269 325 395
#     4   9  19  37  64  93 127 165 212 265 320 382
#     4   9  20  39  65  92 129 169 211 266 324 390
#     4  12  25  42  69 100 133 178 224 279 330 400
#     4  12  26  44  65  95 133 174 216 275 338 398
#     4   9  19  39  63  95 124 168 216 270 319 381
#
# _framework density 21.023374
#
# number of rings (size 3 to 8) (size 9 to 14) (size 15 to 20)
#    0.000    1.750    1.250    5.250    3.500    2.000 
#    0.000    3.125    0.000    0.000    0.000    0.000 
#    0.000    0.000    0.000    0.000    0.000    0.000 
#
# Total GULP energy -178440.425076 kJ/mol
# GULP energy per Si atom -5576.263284 kJ/mol
# Density = 2.097552 g / cm^3
# Si number density = 21.023374 Si / 1000 Ang^3
#
#
#
# Elastic Constant Matrix: (Units=GPa)
#
#
# Indices 1 2 3 4 5 6 
#
# 1 134.8952 25.5231 90.4826 0.0000 0.0000 0.0000
# 2 25.5231 32.3632 12.6731 0.0000 0.0000 0.0000
# 3 90.4826 12.6731 148.1927 0.0000 0.0000 0.0000
# 4 0.0000 0.0000 0.0000 14.4408 0.0000 0.0000
# 5 0.0000 0.0000 0.0000 0.0000 27.2717 0.0000
# 6 0.0000 0.0000 0.0000 0.0000 0.0000 25.6932
#
#
#
# Elastic Compliance Matrix: (Units=1/GPa)
#
#
# Indices 1 2 3 4 5 6 
#
# 1 0.014381 -0.008177 -0.008081 0.000000 0.000000 0.000000
# 2 -0.008177 0.036619 0.001861 0.000000 0.000000 0.000000
# 3 -0.008081 0.001861 0.011523 0.000000 0.000000 0.000000
# 4 0.000000 0.000000 0.000000 0.069248 0.000000 0.000000
# 5 0.000000 0.000000 0.000000 0.000000 0.036668 0.000000
# 6 0.000000 0.000000 0.000000 0.000000 0.000000 0.038921
#
#
# Mechanical properties :
#
#
# Convention : Reuss Voigt Hill
#
# Bulk Modulus (GPa) = 29.64830 63.64542 46.64686
# Shear Modulus (GPa) = 20.21034 25.93261 23.07148
#
# Velocity S-wave (km/s) = 3.10389 3.51595 3.31633
# Velocity P-wave (km/s) = 5.19410 6.84265 6.07456
#
# Compressibility (1/GPa) = 0.03372875
#
# Stress axis : x y z
#
# Youngs Moduli (GPa) = 69.53632 27.30805 86.78224
#
# Poissons Ratio (x) = 0.22330 0.70132
# Poissons Ratio (y) = 0.56859 -0.16150
# Poissons Ratio (z) = 0.56195 -0.05082
#
# Static dielectric constant tensor:
#      x y z
#    x 1.850040 0.000000 0.000000 
#    y 0.000000 1.853990 0.000000 
#    z 0.000000 0.000000 1.817290 
# 
# From -- ./inp_files/14754.got.cif
#   From: 2010.05.17/outbox.cif.g08.bks.cpg/sg37_8_cif.got.tgz:14754.got - 2010.06.03 17:53:42.
