data_PCOD9355268
_publ_section_title
;
Structure prediction by ZEFSAII (Michael W. Deem and Ramdas Pophale) SiO2 
 PCOD9355268
Probable space group: C C C 2
;
_chemical_formula_sum "Si O2"
_cell_formula_units_Z 48
_cell_length_a 16.451603
_cell_length_b 15.206162
_cell_length_c 8.505210
_cell_angle_alpha 90.000000
_cell_angle_beta 90.000000
_cell_angle_gamma 90.000000
_cell_volume 2127.712157
_symmetry_space_group_name_H-M "C C C 2"
_symmetry_group_IT_number 37
_symmetry_cell_setting 'orthorhombic'
loop_
_space_group_symop_operation_xyz
x,y,z
-x,-y,z
-x,y,1/2+z
x,-y,1/2+z
1/2+x,1/2+y,z
1/2-x,1/2-y,z
1/2-x,1/2+y,1/2+z
1/2+x,1/2-y,1/2+z
loop_
_atom_site_type_symbol
_atom_site_label
_atom_site_fract_x
_atom_site_fract_y
_atom_site_fract_z
Si Si1 0.902015 0.745076 0.288350
Si Si2 0.250000 0.250000 0.523872
Si Si3 0.155350 0.905693 0.207570
Si Si4 0.943669 0.623305 0.788204
Si Si5 0.844835 0.243226 0.437454
Si Si6 0.500000 0.000000 0.524532
Si Si7 0.582336 0.444441 0.874297
O O1 0.826135 0.729169 0.406077
O O2 0.925065 0.847399 0.303059
O O3 0.977012 0.681628 0.326951
O O4 0.884089 0.732543 0.103512
O O5 0.220442 0.163024 0.624411
O O6 0.129176 0.848425 0.359992
O O7 0.157705 0.002489 0.291375
O O8 0.098643 0.927238 0.058653
O O9 0.869806 0.687658 0.804339
O O10 0.958320 0.573419 0.628695
O O11 0.934892 0.546624 0.915072
O O12 0.750000 0.250000 0.465207
O O13 0.500000 0.500000 0.853054
#
# Coordination Sequence:
#
# PCOD9355268 Si02
#       7
#     8   4   8   8   8   4   8
#     4  11  24  46  76 103 150 193 250 302 375 440
#     4  10  24  44  70 104 140 202 240 300 370 438
#     4  11  24  44  68 101 150 190 242 291 364 442
#     4  11  24  45  73 106 140 192 246 309 365 440
#     4  12  25  46  75 107 149 196 246 300 377 437
#     4  10  24  44  70 106 142 186 262 306 362 430
#     4  11  24  42  72 112 145 190 246 305 369 442
#
# _framework density 22.559442000000001
#
# number of rings (size 3 to 8) (size 9 to 14) (size 15 to 20)
#    0.000    1.000    3.333    2.500    4.667    4.000 
#    0.000   17.500    0.000    0.000    0.000    0.000 
#    0.000    0.000    0.000    0.000    0.000    0.000 
#
# Total GULP energy -133880.137955 kJ/mol
# GULP energy per Si atom -5578.339081 kJ/mol
# Density = 2.250810 g / cm^3
# Si number density = 22.559442 Si / 1000 Ang^3
#
#
#
# Elastic Constant Matrix: (Units=GPa)
#
#
# Indices 1 2 3 4 5 6 
#
# 1 92.5280 34.3360 27.1374 0.0000 0.0000 0.0000
# 2 34.3360 124.6628 24.9973 0.0000 0.0000 0.0000
# 3 27.1374 24.9973 107.6621 0.0000 0.0000 0.0000
# 4 0.0000 0.0000 0.0000 32.4148 0.0000 0.0000
# 5 0.0000 0.0000 0.0000 0.0000 15.8282 0.0000
# 6 0.0000 0.0000 0.0000 0.0000 0.0000 18.2964
#
#
#
# Elastic Compliance Matrix: (Units=1/GPa)
#
#
# Indices 1 2 3 4 5 6 
#
# 1 0.012646 -0.002983 -0.002495 0.000000 0.000000 0.000000
# 2 -0.002983 0.009117 -0.001365 0.000000 0.000000 0.000000
# 3 -0.002495 -0.001365 0.010234 0.000000 0.000000 0.000000
# 4 0.000000 0.000000 0.000000 0.030850 0.000000 0.000000
# 5 0.000000 0.000000 0.000000 0.000000 0.063179 0.000000
# 6 0.000000 0.000000 0.000000 0.000000 0.000000 0.054656
#
#
# Mechanical properties :
#
#
# Convention : Reuss Voigt Hill
#
# Bulk Modulus (GPa) = 54.61021 55.31047 54.96034
# Shear Modulus (GPa) = 24.94125 29.20000 27.07063
#
# Velocity S-wave (km/s) = 3.32863 3.60162 3.46781
# Velocity P-wave (km/s) = 6.24763 6.47043 6.36000
#
# Compressibility (1/GPa) = 0.01831159
#
# Stress axis : x y z
#
# Youngs Moduli (GPa) = 79.07505 109.68632 97.71215
#
# Poissons Ratio (x) = 0.32718 0.24380
# Poissons Ratio (y) = 0.23587 0.13337
# Poissons Ratio (z) = 0.19730 0.14971
#
# Static dielectric constant tensor:
#      x y z
#    x 1.865460 0.000000 0.000000 
#    y 0.000000 1.706670 0.000000 
#    z 0.000000 0.000000 1.862260 
# 
# From -- ./inp_files/3982.got.cif
#   From: 2010.05.17/outbox.cif.g08.bks.cpg/sg37_2_cif.got.tgz:3982.got - 2010.06.03 17:53:42.
