data_PCOD9355699
_publ_section_title
;
Structure prediction by ZEFSAII (Michael W. Deem and Ramdas Pophale) SiO2 
 PCOD9355699
Probable space group: C C C 2
;
_chemical_formula_sum "Si O2"
_cell_formula_units_Z 60
_cell_length_a 18.914759
_cell_length_b 10.793431
_cell_length_c 14.202999
_cell_angle_alpha 90.000000
_cell_angle_beta 90.000000
_cell_angle_gamma 90.000000
_cell_volume 2899.615337
_symmetry_space_group_name_H-M "C C C 2"
_symmetry_group_IT_number 37
_symmetry_cell_setting 'orthorhombic'
loop_
_space_group_symop_operation_xyz
x,y,z
-x,-y,z
-x,y,1/2+z
x,-y,1/2+z
1/2+x,1/2+y,z
1/2-x,1/2-y,z
1/2-x,1/2+y,1/2+z
1/2+x,1/2-y,1/2+z
loop_
_atom_site_type_symbol
_atom_site_label
_atom_site_fract_x
_atom_site_fract_y
_atom_site_fract_z
Si Si1 0.505908 0.649745 0.516170
Si Si2 0.750000 0.250000 0.646017
Si Si3 0.330923 0.103188 0.811286
Si Si4 0.447344 0.335872 0.309248
Si Si5 0.070164 0.423457 0.204791
Si Si6 0.188639 0.983047 0.754334
Si Si7 0.410051 0.325166 0.700091
Si Si8 0.620182 0.831727 0.019901
O O1 0.500000 0.500000 0.524593
O O2 0.540482 0.689479 0.418360
O O3 0.550631 0.704746 0.603000
O O4 0.429029 0.711125 0.513297
O O5 0.774208 0.134705 0.708717
O O6 0.688386 0.205546 0.578256
O O7 0.365105 0.218494 0.752757
O O8 0.366664 0.988265 0.759254
O O9 0.246833 0.071435 0.805340
O O10 0.357976 0.118221 0.918014
O O11 0.432004 0.215357 0.245478
O O12 0.379282 0.425837 0.308141
O O13 0.525032 0.371188 0.267035
O O14 0.080595 0.423808 0.092284
O O15 0.000000 0.500000 0.229218
O O16 0.147360 0.068674 0.679634
#
# Coordination Sequence:
#
# PCOD9355699 Si02
#       8
#     8   4   8   8   8   8   8   8
#     4  12  24  43  72 109 140 185 249 307 368 439
#     4  12  24  46  72  96 142 196 238 292 378 438
#     4  12  27  45  71 107 147 193 245 298 377 443
#     4  12  24  44  74 106 141 190 245 301 370 434
#     4  12  23  48  73 101 145 187 236 302 360 438
#     4  12  25  46  71 102 148 191 238 310 369 447
#     4  12  24  45  69 105 146 187 243 310 365 432
#     4  12  25  44  73 104 139 194 245 294 371 445
#
# _framework density 20.692399999999999
#
# number of rings (size 3 to 8) (size 9 to 14) (size 15 to 20)
#    0.000    0.000    6.667    3.200    1.867    3.733 
#    0.000    0.000    2.933    0.000    0.000    0.000 
#    0.000    0.000    0.000    0.000    0.000    0.000 
#
# Total GULP energy -167432.711323 kJ/mol
# GULP energy per Si atom -5581.090377 kJ/mol
# Density = 2.064530 g / cm^3
# Si number density = 20.692400 Si / 1000 Ang^3
#
#
#
# Elastic Constant Matrix: (Units=GPa)
#
#
# Indices 1 2 3 4 5 6 
#
# 1 132.4247 46.2713 35.1156 0.0000 0.0000 0.0000
# 2 46.2713 78.1769 28.3805 0.0000 0.0000 0.0000
# 3 35.1156 28.3805 144.5741 0.0000 0.0000 0.0000
# 4 0.0000 0.0000 0.0000 32.7717 0.0000 0.0000
# 5 0.0000 0.0000 0.0000 0.0000 46.1367 0.0000
# 6 0.0000 0.0000 0.0000 0.0000 0.0000 56.8508
#
#
#
# Elastic Compliance Matrix: (Units=1/GPa)
#
#
# Indices 1 2 3 4 5 6 
#
# 1 0.009752 -0.005289 -0.001330 0.000000 0.000000 0.000000
# 2 -0.005289 0.016642 -0.001982 0.000000 0.000000 0.000000
# 3 -0.001330 -0.001982 0.007629 0.000000 0.000000 0.000000
# 4 0.000000 0.000000 0.000000 0.030514 0.000000 0.000000
# 5 0.000000 0.000000 0.000000 0.000000 0.021675 0.000000
# 6 0.000000 0.000000 0.000000 0.000000 0.000000 0.017590
#
#
# Mechanical properties :
#
#
# Convention : Reuss Voigt Hill
#
# Bulk Modulus (GPa) = 59.45466 63.85670 61.65568
# Shear Modulus (GPa) = 39.49069 43.51241 41.50155
#
# Velocity S-wave (km/s) = 4.37334 4.59063 4.48330
# Velocity P-wave (km/s) = 7.36861 7.68280 7.52735
#
# Compressibility (1/GPa) = 0.01681954
#
# Stress axis : x y z
#
# Youngs Moduli (GPa) = 102.53874 60.09008 131.07671
#
# Poissons Ratio (x) = 0.31783 0.17439
# Poissons Ratio (y) = 0.54235 0.25981
# Poissons Ratio (z) = 0.13642 0.11911
#
# Static dielectric constant tensor:
#      x y z
#    x 1.774320 0.000000 0.000000 
#    y 0.000000 1.777960 0.000000 
#    z 0.000000 0.000000 1.701870 
# 
# From -- ./inp_files/12663.got.cif
#   From: 2010.05.17/outbox.cif.g08.bks.cpg/sg37_7_cif.got.tgz:12663.got - 2010.06.03 17:53:42.
