data_PCOD9355500
_publ_section_title
;
Structure prediction by ZEFSAII (Michael W. Deem and Ramdas Pophale) SiO2 
 PCOD9355500
Probable space group: C C C 2
;
_chemical_formula_sum "Si O2"
_cell_formula_units_Z 56
_cell_length_a 12.288868
_cell_length_b 14.760407
_cell_length_c 13.424853
_cell_angle_alpha 90.000000
_cell_angle_beta 90.000000
_cell_angle_gamma 90.000000
_cell_volume 2435.116543
_symmetry_space_group_name_H-M "C C C 2"
_symmetry_group_IT_number 37
_symmetry_cell_setting 'orthorhombic'
loop_
_space_group_symop_operation_xyz
x,y,z
-x,-y,z
-x,y,1/2+z
x,-y,1/2+z
1/2+x,1/2+y,z
1/2-x,1/2-y,z
1/2-x,1/2+y,1/2+z
1/2+x,1/2-y,1/2+z
loop_
_atom_site_type_symbol
_atom_site_label
_atom_site_fract_x
_atom_site_fract_y
_atom_site_fract_z
Si Si1 0.576867 0.842633 0.665920
Si Si2 0.122185 0.035019 0.862107
Si Si3 0.778848 0.503773 0.694398
Si Si4 0.400833 0.561336 0.064560
Si Si5 0.663217 0.176146 0.585427
Si Si6 0.407273 0.751402 0.369488
Si Si7 0.127093 0.747765 0.966648
O O1 0.607358 0.944787 0.695417
O O2 0.451814 0.819283 0.642563
O O3 0.621558 0.787759 0.760465
O O4 0.629978 0.821886 0.558554
O O5 0.219817 0.989705 0.799399
O O6 0.119457 0.144263 0.867841
O O7 0.138352 0.998378 0.972615
O O8 0.000000 0.000000 0.833006
O O9 0.689291 0.571181 0.647465
O O10 0.788692 0.419113 0.621454
O O11 0.500000 0.500000 0.104767
O O12 0.419356 0.659925 0.018203
O O13 0.750000 0.250000 0.618803
O O14 0.642436 0.197052 0.467074
O O15 0.536449 0.770307 0.384108
O O16 0.250000 0.750000 0.927488
#
# Coordination Sequence:
#
# PCOD9355500 Si02
#       7
#     8   8   8   8   8   8   8
#     4  11  27  46  70 106 142 196 246 305 370 462
#     4  11  24  42  72 114 142 189 254 321 386 455
#     4  12  26  45  72 103 150 196 252 304 388 452
#     4  11  22  41  67 104 147 182 240 310 377 437
#     4  11  28  48  74 104 147 199 249 309 382 458
#     4  11  25  46  74 105 150 188 253 309 381 455
#     4  11  22  44  69 106 145 189 239 305 379 444
#
# _framework density 22.996846000000001
#
# number of rings (size 3 to 8) (size 9 to 14) (size 15 to 20)
#    0.000    0.857    4.286    2.571    8.000    1.714 
#    0.000    2.857    0.000    0.000    0.000    0.000 
#    0.000    0.000    0.000    0.000    0.000    0.000 
#
# Total GULP energy -156296.236000 kJ/mol
# GULP energy per Si atom -5582.008429 kJ/mol
# Density = 2.294450 g / cm^3
# Si number density = 22.996846 Si / 1000 Ang^3
#
#
#
# Elastic Constant Matrix: (Units=GPa)
#
#
# Indices 1 2 3 4 5 6 
#
# 1 128.2222 21.0159 19.7238 0.0000 0.0000 0.0000
# 2 21.0159 67.6849 8.4982 0.0000 0.0000 0.0000
# 3 19.7238 8.4982 90.0481 0.0000 0.0000 0.0000
# 4 0.0000 0.0000 0.0000 46.0020 0.0000 0.0000
# 5 0.0000 0.0000 0.0000 0.0000 2.1005 0.0000
# 6 0.0000 0.0000 0.0000 0.0000 0.0000 42.7806
#
#
#
# Elastic Compliance Matrix: (Units=1/GPa)
#
#
# Indices 1 2 3 4 5 6 
#
# 1 0.008445 -0.002418 -0.001621 0.000000 0.000000 0.000000
# 2 -0.002418 0.015644 -0.000947 0.000000 0.000000 0.000000
# 3 -0.001621 -0.000947 0.011550 0.000000 0.000000 0.000000
# 4 0.000000 0.000000 0.000000 0.021738 0.000000 0.000000
# 5 0.000000 0.000000 0.000000 0.000000 0.476066 0.000000
# 6 0.000000 0.000000 0.000000 0.000000 0.000000 0.023375
#
#
# Mechanical properties :
#
#
# Convention : Reuss Voigt Hill
#
# Bulk Modulus (GPa) = 38.96303 42.71455 40.83879
# Shear Modulus (GPa) = 8.69041 33.95779 21.32410
#
# Velocity S-wave (km/s) = 1.94606 3.84686 3.04840
# Velocity P-wave (km/s) = 4.69352 6.19238 5.49430
#
# Compressibility (1/GPa) = 0.02566535
#
# Stress axis : x y z
#
# Youngs Moduli (GPa) = 118.41641 63.92171 86.58254
#
# Poissons Ratio (x) = 0.15459 0.14039
# Poissons Ratio (y) = 0.28639 0.08196
# Poissons Ratio (z) = 0.19201 0.06051
#
# Static dielectric constant tensor:
#      x y z
#    x 1.936110 0.000000 0.000000 
#    y 0.000000 1.860540 0.000000 
#    z 0.000000 0.000000 1.835090 
# 
# From -- ./inp_files/11607.got.cif
#   From: 2010.05.17/outbox.cif.g08.bks.cpg/sg37_6_cif.got.tgz:11607.got - 2010.06.03 17:53:42.
