data_PCOD9355988
_publ_section_title
;
Structure prediction by ZEFSAII (Michael W. Deem and Ramdas Pophale) SiO2 
 PCOD9355988
Probable space group: A M M 2
;
_chemical_formula_sum "Si O2"
_cell_formula_units_Z 64
_cell_length_a 8.207044
_cell_length_b 15.028049
_cell_length_c 29.116222
_cell_angle_alpha 90.000000
_cell_angle_beta 90.000000
_cell_angle_gamma 90.000000
_cell_volume 3591.074262
_symmetry_space_group_name_H-M "A M M 2"
_symmetry_group_IT_number 38
_symmetry_cell_setting 'orthorhombic'
loop_
_space_group_symop_operation_xyz
x,y,z
-x,-y,z
-x,y,z
x,-y,z
x,1/2+y,1/2+z
-x,1/2-y,1/2+z
-x,1/2+y,1/2+z
x,1/2-y,1/2+z
loop_
_atom_site_type_symbol
_atom_site_label
_atom_site_fract_x
_atom_site_fract_y
_atom_site_fract_z
Si Si1 0.800970 0.398441 0.238530
Si Si2 0.196539 0.278175 0.050011
Si Si3 0.803547 0.102006 0.465473
Si Si4 0.198791 0.601703 0.133755
Si Si5 0.696457 0.399040 0.508641
Si Si6 0.303351 0.102839 0.904122
Si Si7 0.806593 0.724709 0.320490
Si Si8 0.693945 0.600381 0.863262
O O1 0.752119 0.500000 0.249988
O O2 0.750258 0.379294 0.186121
O O3 0.741551 0.328630 0.276247
O O4 0.000000 0.397455 0.238978
O O5 0.254943 0.327989 0.095877
O O6 0.000000 0.282679 0.050130
O O7 0.256170 0.333185 0.005424
O O8 0.245799 0.176418 0.043165
O O9 0.750995 0.127849 0.414315
O O10 0.000000 0.102206 0.466728
O O11 0.748877 0.000000 0.473397
O O12 0.246825 0.500000 0.122113
O O13 0.000000 0.602544 0.133482
O O14 0.500000 0.399464 0.508049
O O15 0.750536 0.500000 0.518969
O O16 0.750830 0.376787 0.456336
O O17 0.500000 0.108064 0.903332
O O18 0.236404 0.168142 0.865802
O O19 0.257797 0.000000 0.894397
O O20 0.745349 0.824582 0.327596
O O21 0.000000 0.728270 0.316428
O O22 0.500000 0.596615 0.864062
O O23 0.757556 0.500000 0.854600
#
# Coordination Sequence:
#
# PCOD9355988 Si02
#       8
#     8   8   8   8   8   8   8   8
#     4   8  15  28  46  70  98 123 146 176 220 275
#     4  10  18  27  46  74  95 116 151 190 226 264
#     4   9  17  29  45  69 100 125 147 182 227 272
#     4   8  14  27  47  70  97 124 146 174 219 275
#     4   9  19  34  47  60  86 126 163 190 222 267
#     4   9  18  32  48  67  94 128 161 189 222 271
#     4  11  20  29  47  73  96 119 152 194 236 275
#     4  10  21  35  48  63  88 125 164 195 226 271
#
# _framework density 17.821966
#
# number of rings (size 3 to 8) (size 9 to 14) (size 15 to 20)
#    0.000    2.750    0.000    3.750    0.000    6.250 
#    0.000    1.250    0.000    3.375    0.000    8.750 
#    0.000    0.000    0.000    0.000    0.000    0.000 
#
# Total GULP energy -178473.119538 kJ/mol
# GULP energy per Si atom -5577.284986 kJ/mol
# Density = 1.778140 g / cm^3
# Si number density = 17.821966 Si / 1000 Ang^3
#
#
#
# Elastic Constant Matrix: (Units=GPa)
#
#
# Indices 1 2 3 4 5 6 
#
# 1 7.2264 9.7749 9.5764 0.0000 0.0000 0.0000
# 2 9.7749 126.8752 101.6453 0.0000 0.0000 0.0000
# 3 9.5764 101.6453 114.4796 0.0000 0.0000 0.0000
# 4 0.0000 0.0000 0.0000 33.4822 0.0000 0.0000
# 5 0.0000 0.0000 0.0000 0.0000 -22.9131 0.0000
# 6 0.0000 0.0000 0.0000 0.0000 0.0000 22.1056
#
#
#
# Elastic Compliance Matrix: (Units=1/GPa)
#
#
# Indices 1 2 3 4 5 6 
#
# 1 0.156712 -0.005443 -0.008276 0.000000 0.000000 0.000000
# 2 -0.005443 0.027493 -0.023955 0.000000 0.000000 0.000000
# 3 -0.008276 -0.023955 0.030697 0.000000 0.000000 0.000000
# 4 0.000000 0.000000 0.000000 0.029867 0.000000 0.000000
# 5 0.000000 0.000000 0.000000 0.000000 -0.043643 0.000000
# 6 0.000000 0.000000 0.000000 0.000000 0.000000 0.045237
#
#
# Mechanical properties :
#
#
# Convention : Reuss Voigt Hill
#
# Bulk Modulus (GPa) = 7.16575 54.50827 30.83701
# Shear Modulus (GPa) = 13.57851 15.04058 14.30955
#
# Velocity S-wave (km/s) = 2.76324 2.90821 2.83665
# Velocity P-wave (km/s) = 3.76964 6.47520 5.29803
#
# Compressibility (1/GPa) = 0.13955265
#
# Stress axis : x y z
#
# Youngs Moduli (GPa) = 6.38113 36.37343 32.57654
#
# Poissons Ratio (x) = 0.19799 0.26960
# Poissons Ratio (y) = 0.03473 0.78037
# Poissons Ratio (z) = 0.05281 0.87133
#
# Static dielectric constant tensor:
#      x y z
#    x 1.625080 0.000000 0.000000 
#    y 0.000000 1.621790 0.000000 
#    z 0.000000 0.000000 1.600950 
# 
# From -- ./inp_files/24781.got.cif
#   From: 2010.05.17/outbox.cif.g08.bks.cpg/sg38_13_cif.got.tgz:24781.got - 2010.06.03 18:07:57.
