data_PCOD9355340
_publ_section_title
;
Structure prediction by ZEFSAII (Michael W. Deem and Ramdas Pophale) SiO2 
 PCOD9355340
Probable space group: C C C 2
;
_chemical_formula_sum "Si O2"
_cell_formula_units_Z 40
_cell_length_a 10.848923
_cell_length_b 7.610761
_cell_length_c 18.351045
_cell_angle_alpha 90.000000
_cell_angle_beta 90.000000
_cell_angle_gamma 90.000000
_cell_volume 1515.219361
_symmetry_space_group_name_H-M "C C C 2"
_symmetry_group_IT_number 37
_symmetry_cell_setting 'orthorhombic'
loop_
_space_group_symop_operation_xyz
x,y,z
-x,-y,z
-x,y,1/2+z
x,-y,1/2+z
1/2+x,1/2+y,z
1/2-x,1/2-y,z
1/2-x,1/2+y,1/2+z
1/2+x,1/2-y,1/2+z
loop_
_atom_site_type_symbol
_atom_site_label
_atom_site_fract_x
_atom_site_fract_y
_atom_site_fract_z
Si Si1 0.500000 0.500000 0.000000
Si Si2 0.096703 0.655169 0.580525
Si Si3 0.236249 0.456482 0.458571
Si Si4 0.732850 0.923194 0.229019
Si Si5 0.000000 0.000000 0.775958
Si Si6 0.618024 0.835622 0.839543
O O1 0.619464 0.497161 0.948376
O O2 0.471912 0.329959 0.051213
O O3 0.200072 0.577755 0.526612
O O4 0.158995 0.649167 0.659523
O O5 0.000000 0.500000 0.580142
O O6 0.250000 0.250000 0.474706
O O7 0.130018 0.508398 0.400223
O O8 0.750000 0.750000 0.279143
O O9 0.644045 0.065026 0.264294
O O10 0.873380 0.994966 0.227963
O O11 0.021138 0.181492 0.822085
O O12 0.750000 0.750000 0.858214
#
# Coordination Sequence:
#
# PCOD9355340 Si02
#       6
#     4   8   8   8   4   8
#     4  12  26  54  82 116 172 214 266 350 416 490
#     4  12  28  51  78 122 163 215 275 340 411 497
#     4  12  26  50  82 123 158 215 273 338 417 493
#     4  11  26  47  74 113 154 208 272 333 411 487
#     4  10  26  52  76 112 158 220 266 352 404 502
#     4  10  24  49  77 116 157 207 274 331 417 490
#
# _framework density 26.398817999999999
#
# number of rings (size 3 to 8) (size 9 to 14) (size 15 to 20)
#    0.000    0.800    2.000    3.600    2.800   12.800 
#   10.800    2.000    0.000    0.000    0.000    0.000 
#    0.000    0.000    0.000    0.000    0.000    0.000 
#
# Total GULP energy -111547.590151 kJ/mol
# GULP energy per Si atom -5577.379508 kJ/mol
# Density = 2.633873 g / cm^3
# Si number density = 26.398818 Si / 1000 Ang^3
#
#
#
# Elastic Constant Matrix: (Units=GPa)
#
#
# Indices 1 2 3 4 5 6 
#
# 1 190.4789 66.5048 38.0512 0.0000 0.0000 0.0000
# 2 66.5048 227.1502 61.8563 0.0000 0.0000 0.0000
# 3 38.0512 61.8563 84.9756 0.0000 0.0000 0.0000
# 4 0.0000 0.0000 0.0000 36.1966 0.0000 0.0000
# 5 0.0000 0.0000 0.0000 0.0000 41.7461 0.0000
# 6 0.0000 0.0000 0.0000 0.0000 0.0000 56.2339
#
#
#
# Elastic Compliance Matrix: (Units=1/GPa)
#
#
# Indices 1 2 3 4 5 6 
#
# 1 0.006054 -0.001290 -0.001772 0.000000 0.000000 0.000000
# 2 -0.001290 0.005766 -0.003619 0.000000 0.000000 0.000000
# 3 -0.001772 -0.003619 0.015196 0.000000 0.000000 0.000000
# 4 0.000000 0.000000 0.000000 0.027627 0.000000 0.000000
# 5 0.000000 0.000000 0.000000 0.000000 0.023954 0.000000
# 6 0.000000 0.000000 0.000000 0.000000 0.000000 0.017783
#
#
# Mechanical properties :
#
#
# Convention : Reuss Voigt Hill
#
# Bulk Modulus (GPa) = 73.24171 92.82548 83.03360
# Shear Modulus (GPa) = 43.74676 49.24815 46.49746
#
# Velocity S-wave (km/s) = 4.07523 4.32388 4.20139
# Velocity P-wave (km/s) = 7.06738 7.75674 7.42007
#
# Compressibility (1/GPa) = 0.01365342
#
# Stress axis : x y z
#
# Youngs Moduli (GPa) = 165.17126 173.44040 65.80595
#
# Poissons Ratio (x) = 0.22374 0.11661
# Poissons Ratio (y) = 0.21308 0.23817
# Poissons Ratio (z) = 0.29268 0.62774
#
# Static dielectric constant tensor:
#      x y z
#    x 2.307110 0.000000 0.000000 
#    y 0.000000 2.119170 0.000000 
#    z 0.000000 0.000000 2.142000 
# 
# From -- ./inp_files/14884.got.cif
#   From: 2010.05.17/outbox.cif.g08.bks.cpg/sg37_8_cif.got.tgz:14884.got - 2010.06.03 17:53:42.
