data_PCOD9355433
_publ_section_title
;
Structure prediction by ZEFSAII (Michael W. Deem and Ramdas Pophale) SiO2 
 PCOD9355433
Probable space group: C C C 2
;
_chemical_formula_sum "Si O2"
_cell_formula_units_Z 64
_cell_length_a 13.330326
_cell_length_b 17.514515
_cell_length_c 13.261357
_cell_angle_alpha 90.000000
_cell_angle_beta 90.000000
_cell_angle_gamma 90.000000
_cell_volume 3096.184646
_symmetry_space_group_name_H-M "C C C 2"
_symmetry_group_IT_number 37
_symmetry_cell_setting 'orthorhombic'
loop_
_space_group_symop_operation_xyz
x,y,z
-x,-y,z
-x,y,1/2+z
x,-y,1/2+z
1/2+x,1/2+y,z
1/2-x,1/2-y,z
1/2-x,1/2+y,1/2+z
1/2+x,1/2-y,1/2+z
loop_
_atom_site_type_symbol
_atom_site_label
_atom_site_fract_x
_atom_site_fract_y
_atom_site_fract_z
Si Si1 0.098767 0.149869 0.753120
Si Si2 0.866566 0.275300 0.649406
Si Si3 0.901235 0.850133 0.316809
Si Si4 0.790728 0.573064 0.229038
Si Si5 0.843723 0.961466 0.034964
Si Si6 0.790728 0.426936 0.340890
Si Si7 0.950730 0.126149 0.034965
Si Si8 0.633434 0.224699 0.420525
O O1 0.204802 0.109193 0.768851
O O2 0.083694 0.167887 0.636208
O O3 0.095387 0.218760 0.833523
O O4 0.000002 0.100577 0.784964
O O5 0.750000 0.250000 0.639952
O O6 0.904614 0.218759 0.736407
O O7 0.865512 0.361092 0.692285
O O8 0.908757 0.271825 0.534966
O O9 0.795201 0.890810 0.301076
O O10 0.916306 0.832115 0.433720
O O11 0.725965 0.548846 0.131739
O O12 0.835534 0.500000 0.284964
O O13 0.931249 0.896950 0.034966
O O14 0.895851 0.043623 0.034966
O O15 0.774039 0.951154 0.938187
O O16 0.865512 0.361092 0.377647
O O17 0.750000 0.250000 0.429979
#
# Coordination Sequence:
#
# PCOD9355433 Si02
#       8
#     8   8   8   8   8   8   8   8
#     4  11  22  33  52  82 113 146 181 228 275 331
#     4   9  20  36  55  77 106 149 191 225 269 329
#     4  11  22  33  52  82 113 146 181 228 275 331
#     4  11  20  35  56  82 110 143 189 227 273 337
#     4  11  20  32  51  81 117 152 177 218 283 339
#     4  11  20  35  56  82 110 143 189 227 273 337
#     4  11  22  32  49  83 125 148 173 228 283 347
#     4   9  20  36  55  77 106 149 191 225 269 329
#
# _framework density 20.670601999999999
#
# number of rings (size 3 to 8) (size 9 to 14) (size 15 to 20)
#    0.000    1.500    6.250    0.000    3.500    0.500 
#    0.000    6.875    0.000    0.750    0.000    1.750 
#    0.000    0.000    0.000    0.000    0.000    0.000 
#
# Total GULP energy -178606.287656 kJ/mol
# GULP energy per Si atom -5581.446489 kJ/mol
# Density = 2.062355 g / cm^3
# Si number density = 20.670602 Si / 1000 Ang^3
#
#
#
# Elastic Constant Matrix: (Units=GPa)
#
#
# Indices 1 2 3 4 5 6 
#
# 1 14.2495 4.8271 18.9629 0.0000 0.0000 0.0000
# 2 4.8271 129.2066 57.8731 0.0000 0.0000 0.0000
# 3 18.9629 57.8731 197.8834 0.0000 0.0000 0.0000
# 4 0.0000 0.0000 0.0000 28.4803 0.0000 0.0000
# 5 0.0000 0.0000 0.0000 0.0000 15.9951 0.0000
# 6 0.0000 0.0000 0.0000 0.0000 0.0000 17.9933
#
#
#
# Elastic Compliance Matrix: (Units=1/GPa)
#
#
# Indices 1 2 3 4 5 6 
#
# 1 0.080465 0.000515 -0.007862 0.000000 0.000000 0.000000
# 2 0.000515 0.008910 -0.002655 0.000000 0.000000 0.000000
# 3 -0.007862 -0.002655 0.006583 0.000000 0.000000 0.000000
# 4 0.000000 0.000000 0.000000 0.035112 0.000000 0.000000
# 5 0.000000 0.000000 0.000000 0.000000 0.062519 0.000000
# 6 0.000000 0.000000 0.000000 0.000000 0.000000 0.055576
#
#
# Mechanical properties :
#
#
# Convention : Reuss Voigt Hill
#
# Bulk Modulus (GPa) = 13.16569 56.07398 34.61984
# Shear Modulus (GPa) = 16.97870 29.80549 23.39210
#
# Velocity S-wave (km/s) = 2.86911 3.80139 3.36767
# Velocity P-wave (km/s) = 4.16639 6.81570 5.64856
#
# Compressibility (1/GPa) = 0.07595499
#
# Stress axis : x y z
#
# Youngs Moduli (GPa) = 12.42776 112.23940 151.89870
#
# Poissons Ratio (x) = -0.05781 1.19415
# Poissons Ratio (y) = -0.00640 0.40330
# Poissons Ratio (z) = 0.09770 0.29800
#
# Static dielectric constant tensor:
#      x y z
#    x 1.742090 0.000000 0.000000 
#    y 0.000000 1.798320 0.000000 
#    z 0.000000 0.000000 1.761280 
# 
# From -- ./inp_files/8410.got.cif
#   From: 2010.05.17/outbox.cif.g08.bks.cpg/sg37_5_cif.got.tgz:8410.got - 2010.06.03 17:53:42.
