data_PCOD9355755
_publ_section_title
;
Structure prediction by ZEFSAII (Michael W. Deem and Ramdas Pophale) SiO2 
 PCOD9355755
Probable space group: C C C 2
;
_chemical_formula_sum "Si O2"
_cell_formula_units_Z 30
_cell_length_a 24.000000
_cell_length_b 9.000000
_cell_length_c 15.000000
_cell_angle_alpha 90.000000
_cell_angle_beta 90.000000
_cell_angle_gamma 90.000000
_cell_volume 3240.000000
_symmetry_space_group_name_H-M "C C C 2"
_symmetry_group_IT_number 37
_symmetry_cell_setting 'orthorhombic'
loop_
_space_group_symop_operation_xyz
x,y,z
-x,-y,z
-x,y,1/2+z
x,-y,1/2+z
1/2+x,1/2+y,z
1/2-x,1/2-y,z
1/2-x,1/2+y,1/2+z
1/2+x,1/2-y,1/2+z
loop_
_atom_site_type_symbol
_atom_site_label
_atom_site_fract_x
_atom_site_fract_y
_atom_site_fract_z
Si Si1 0.313198 0.701815 0.269240
Si Si2 0.195132 0.836002 0.061735
Si Si3 0.000000 0.000000 0.786108
Si Si4 0.007798 0.326829 0.886795
Si Si5 0.386570 0.200609 0.428473
Si Si6 0.877350 0.098854 0.754739
Si Si7 0.691572 0.681413 0.085864
Si Si8 0.632044 0.861528 0.928760
O O1 0.250000 0.750000 0.293024
O O2 0.317134 0.718808 0.162507
O O3 0.334315 0.532419 0.283854
O O4 0.351632 0.803342 0.330774
O O5 0.250000 0.750000 0.029889
O O6 0.204439 0.011478 0.060768
O O7 0.143165 0.801346 0.000343
O O8 0.939249 0.028370 0.741143
O O9 0.008339 0.164939 0.834460
O O10 0.066134 0.332293 0.937898
O O11 0.000000 0.500000 0.845123
O O12 0.952304 0.314481 0.945428
O O13 0.380626 0.278725 0.332408
O O14 0.359578 0.037865 0.432501
O O15 0.853160 0.171306 0.665282
O O16 0.750000 0.750000 0.116973
O O17 0.667252 0.773564 0.002693
#
# Coordination Sequence:
#
# PCOD9355755 Si02
#       8
#     8   8   4   8   8   8   8   8
#     4  10  21  38  60  88 119 158 205 252 308 372
#     4  10  22  39  59  88 121 160 207 255 313 378
#     4  10  18  40  68  90 130 164 206 270 312 382
#     4   9  20  37  61  94 126 160 211 259 314 381
#     4  10  22  38  61  88 123 163 202 257 317 376
#     4  10  22  40  63  93 124 164 214 256 320 380
#     4  11  24  40  59  89 126 162 210 264 309 382
#     4  11  21  39  61  88 122 167 204 257 318 369
#
# _framework density 9.2592590000000001
#
# number of rings (size 3 to 8) (size 9 to 14) (size 15 to 20)
#    0.000    1.867    1.333    2.000    1.867    5.867 
#    4.800    0.000    0.000    4.800    0.000    0.000 
#    0.000    0.000    0.000    0.000    0.000    0.000 
#
# Total GULP energy -167046.775236 kJ/mol
# GULP energy per Si atom -5568.225841 kJ/mol
# Density = 0.923818 g / cm^3
# Si number density = 9.259259 Si / 1000 Ang^3
#
#
#
# Elastic Constant Matrix: (Units=GPa)
#
#
# Indices 1 2 3 4 5 6 
#
# 1 120.9207 42.9755 41.8567 0.0000 0.0000 0.0000
# 2 42.9755 97.2233 31.5331 0.0000 0.0000 0.0000
# 3 41.8567 31.5331 32.9129 0.0000 0.0000 0.0000
# 4 0.0000 0.0000 0.0000 22.3233 0.0000 0.0000
# 5 0.0000 0.0000 0.0000 0.0000 19.9155 0.0000
# 6 0.0000 0.0000 0.0000 0.0000 0.0000 40.9862
#
#
#
# Elastic Compliance Matrix: (Units=1/GPa)
#
#
# Indices 1 2 3 4 5 6 
#
# 1 0.014800 -0.000635 -0.018214 0.000000 0.000000 0.000000
# 2 -0.000635 0.014950 -0.013516 0.000000 0.000000 0.000000
# 3 -0.018214 -0.013516 0.066496 0.000000 0.000000 0.000000
# 4 0.000000 0.000000 0.000000 0.044796 0.000000 0.000000
# 5 0.000000 0.000000 0.000000 0.000000 0.050212 0.000000
# 6 0.000000 0.000000 0.000000 0.000000 0.000000 0.024398
#
#
# Mechanical properties :
#
#
# Convention : Reuss Voigt Hill
#
# Bulk Modulus (GPa) = 31.72898 53.75415 42.74157
# Shear Modulus (GPa) = 17.18871 25.62443 21.40657
#
# Velocity S-wave (km/s) = 3.04993 3.72387 3.40362
# Velocity P-wave (km/s) = 5.43816 6.89782 6.21102
#
# Compressibility (1/GPa) = 0.03151693
#
# Stress axis : x y z
#
# Youngs Moduli (GPa) = 67.56638 66.89017 15.03841
#
# Poissons Ratio (x) = 0.04245 0.27391
# Poissons Ratio (y) = 0.04288 0.20326
# Poissons Ratio (z) = 1.23066 0.90409
#
# Static dielectric constant tensor:
#      x y z
#    x 1.653760 0.000000 0.000000 
#    y 0.000000 1.660780 0.000000 
#    z 0.000000 0.000000 1.624470 
# 
# From -- ./inp_files/13122.got.cif
#   From: 2010.05.17/outbox.ucp.g08.bks.cvg/sg37_7_cif.got.tgz:13122.got - 2010.06.11 10:38:43.
