data_PCOD9355811
_publ_section_title
;
Structure prediction by ZEFSAII (Michael W. Deem and Ramdas Pophale) SiO2 
 PCOD9355811
Probable space group: A M M 2
;
_chemical_formula_sum "Si O2"
_cell_formula_units_Z 64
_cell_length_a 7.513619
_cell_length_b 32.030113
_cell_length_c 14.781852
_cell_angle_alpha 90.000000
_cell_angle_beta 90.000000
_cell_angle_gamma 90.000000
_cell_volume 3557.431036
_symmetry_space_group_name_H-M "A M M 2"
_symmetry_group_IT_number 38
_symmetry_cell_setting 'orthorhombic'
loop_
_space_group_symop_operation_xyz
x,y,z
-x,-y,z
-x,y,z
x,-y,z
x,1/2+y,1/2+z
-x,1/2-y,1/2+z
-x,1/2+y,1/2+z
x,1/2-y,1/2+z
loop_
_atom_site_type_symbol
_atom_site_label
_atom_site_fract_x
_atom_site_fract_y
_atom_site_fract_z
Si Si1 0.784083 0.631653 0.436520
Si Si2 0.207347 0.207783 0.416577
Si Si3 0.792653 0.207784 0.822938
Si Si4 0.217266 0.952970 0.014747
Si Si5 0.700567 0.224051 0.619757
Si Si6 0.784083 0.131653 0.302994
Si Si7 0.782734 0.047030 0.224766
Si Si8 0.786452 0.680353 0.619757
O O1 0.718826 0.663932 0.360327
O O2 0.720793 0.584166 0.449355
O O3 0.741784 0.654772 0.530558
O O4 0.000000 0.628648 0.428799
O O5 0.284151 0.250000 0.369757
O O6 0.216428 0.210753 0.524473
O O7 0.281174 0.163932 0.379187
O O8 0.000000 0.207606 0.388778
O O9 0.783573 0.210754 0.715042
O O10 0.000000 0.207606 0.850737
O O11 0.000000 0.952759 0.014253
O O12 0.274051 0.000000 0.991310
O O13 0.267939 0.944710 0.119757
O O14 0.500000 0.208359 0.619758
O O15 0.703622 0.274200 0.619757
O O16 0.720793 0.084166 0.290159
O O17 0.741783 0.154773 0.208956
O O18 0.000000 0.128648 0.310714
O O19 0.000000 0.047241 0.225260
O O20 0.725949 0.000000 0.248203
O O21 0.000000 0.686605 0.619757
#
# Coordination Sequence:
#
# PCOD9355811 Si02
#       8
#     8   8   8   8   8   8   8   8
#     4   9  15  24  42  65  89 121 156 183 210 257
#     4  10  19  32  50  67  85 118 159 192 219 260
#     4  10  19  32  50  67  85 118 159 192 219 260
#     4   8  12  18  32  60  97 125 140 167 217 269
#     4  12  24  34  44  63  94 122 148 191 238 271
#     4   9  15  24  42  65  89 121 156 183 210 257
#     4   8  12  18  32  60  97 125 140 167 217 269
#     4  10  16  28  47  66  90 121 159 186 210 258
#
# _framework density 17.99051
#
# number of rings (size 3 to 8) (size 9 to 14) (size 15 to 20)
#    0.000    2.500    3.750    1.875    0.000    0.500 
#    0.000    0.000    0.000    0.000    0.000    0.875 
#    0.000   12.000    0.000    0.000    0.000    0.000 
#
# Total GULP energy -178346.057438 kJ/mol
# GULP energy per Si atom -5573.314295 kJ/mol
# Density = 1.794956 g / cm^3
# Si number density = 17.990510 Si / 1000 Ang^3
#
#
#
# Elastic Constant Matrix: (Units=GPa)
#
#
# Indices 1 2 3 4 5 6 
#
# 1 38.1841 7.7560 -5.4061 0.0000 0.0000 0.0000
# 2 7.7560 182.5020 70.1066 0.0000 0.0000 0.0000
# 3 -5.4061 70.1066 86.0864 0.0000 0.0000 0.0000
# 4 0.0000 0.0000 0.0000 4.1059 0.0000 0.0000
# 5 0.0000 0.0000 0.0000 0.0000 116.0230 0.0000
# 6 0.0000 0.0000 0.0000 0.0000 0.0000 -21.7876
#
#
#
# Elastic Compliance Matrix: (Units=1/GPa)
#
#
# Indices 1 2 3 4 5 6 
#
# 1 0.027273 -0.002644 0.003866 0.000000 0.000000 0.000000
# 2 -0.002644 0.008230 -0.006869 0.000000 0.000000 0.000000
# 3 0.003866 -0.006869 0.017453 0.000000 0.000000 0.000000
# 4 0.000000 0.000000 0.000000 0.243551 0.000000 0.000000
# 5 0.000000 0.000000 0.000000 0.000000 0.008619 0.000000
# 6 0.000000 0.000000 0.000000 0.000000 0.000000 -0.045898
#
#
# Mechanical properties :
#
#
# Convention : Reuss Voigt Hill
#
# Bulk Modulus (GPa) = 24.00216 50.18727 37.09471
# Shear Modulus (GPa) = 17.58027 35.28934 26.43480
#
# Velocity S-wave (km/s) = 3.12941 4.43375 3.83740
# Velocity P-wave (km/s) = 5.14083 7.35988 6.34807
#
# Compressibility (1/GPa) = 0.04166292
#
# Stress axis : x y z
#
# Youngs Moduli (GPa) = 36.66578 121.50269 57.29802
#
# Poissons Ratio (x) = 0.32128 -0.22152
# Poissons Ratio (y) = 0.09695 0.39356
# Poissons Ratio (z) = -0.14175 0.83455
#
# Static dielectric constant tensor:
#      x y z
#    x 1.670100 0.000000 0.000000 
#    y 0.000000 1.647850 0.000000 
#    z 0.000000 0.000000 1.590010 
# 
# From -- ./inp_files/13119.got.cif
#   From: 2010.05.17/outbox.cif.g08.bks.cpg/sg38_7_cif.got.tgz:13119.got - 2010.06.03 18:07:57.
