data_PCOD9355972
_publ_section_title
;
Structure prediction by ZEFSAII (Michael W. Deem and Ramdas Pophale) SiO2 
 PCOD9355972
Probable space group: A M M 2
;
_chemical_formula_sum "Si O2"
_cell_formula_units_Z 56
_cell_length_a 7.569602
_cell_length_b 19.193721
_cell_length_c 21.741831
_cell_angle_alpha 90.000000
_cell_angle_beta 90.000000
_cell_angle_gamma 90.000000
_cell_volume 3158.845163
_symmetry_space_group_name_H-M "A M M 2"
_symmetry_group_IT_number 38
_symmetry_cell_setting 'orthorhombic'
loop_
_space_group_symop_operation_xyz
x,y,z
-x,-y,z
-x,y,z
x,-y,z
x,1/2+y,1/2+z
-x,1/2-y,1/2+z
-x,1/2+y,1/2+z
x,1/2-y,1/2+z
loop_
_atom_site_type_symbol
_atom_site_label
_atom_site_fract_x
_atom_site_fract_y
_atom_site_fract_z
Si Si1 0.787349 0.921755 0.197340
Si Si2 0.212015 0.653231 0.319489
Si Si3 0.216750 0.151879 0.070726
Si Si4 0.800868 0.208598 0.623127
Si Si5 0.783790 0.919440 0.944032
Si Si6 0.783200 0.579561 0.193151
Si Si7 0.297160 0.280441 0.746492
O O1 0.728420 0.892998 0.130419
O O2 0.737289 0.862594 0.246556
O O3 0.000000 0.924060 0.195539
O O4 0.722609 0.000000 0.208515
O O5 0.276530 0.621658 0.383412
O O6 0.272866 0.608916 0.259959
O O7 0.257702 0.733530 0.305611
O O8 0.000000 0.647912 0.320217
O O9 0.279046 0.231586 0.080110
O O10 0.000000 0.153400 0.071706
O O11 0.272194 0.116939 0.007304
O O12 0.721002 0.134137 0.641165
O O13 0.810045 0.247553 0.689597
O O14 0.000000 0.195585 0.600660
O O15 0.000000 0.918917 0.944002
O O16 0.729451 0.000000 0.941824
O O17 0.729033 0.500000 0.184623
O O18 0.000000 0.581526 0.192643
O O19 0.500000 0.269522 0.729972
#
# Coordination Sequence:
#
# PCOD9355972 Si02
#       7
#     8   8   8   8   8   8   8
#     4   9  16  27  44  64  86 110 133 162 204 248
#     4   9  16  26  39  55  77 105 136 168 203 242
#     4   8  13  22  37  60  87 110 133 163 199 240
#     4   8  14  25  40  57  79 106 135 167 206 250
#     4   9  15  22  37  62  85 106 138 175 202 231
#     4   8  12  19  34  55  75  96 127 167 204 236
#     4  10  18  27  40  57  79 106 136 169 203 241
#
# _framework density 17.727997999999999
#
# number of rings (size 3 to 8) (size 9 to 14) (size 15 to 20)
#    0.000    3.286    0.000    3.857    0.000    3.714 
#    0.000    0.000    0.000   14.143    0.000    1.000 
#    0.000    5.714    0.000    0.286    0.000    0.571 
#
# Total GULP energy -155927.682168 kJ/mol
# GULP energy per Si atom -5568.845792 kJ/mol
# Density = 1.768765 g / cm^3
# Si number density = 17.727998 Si / 1000 Ang^3
#
#
#
# Elastic Constant Matrix: (Units=GPa)
#
#
# Indices 1 2 3 4 5 6 
#
# 1 47.5080 3.1955 3.0612 0.0000 0.0000 0.0000
# 2 3.1955 197.9162 83.5572 0.0000 0.0000 0.0000
# 3 3.0612 83.5572 89.7917 0.0000 0.0000 0.0000
# 4 0.0000 0.0000 0.0000 30.2375 0.0000 0.0000
# 5 0.0000 0.0000 0.0000 0.0000 -11.9460 0.0000
# 6 0.0000 0.0000 0.0000 0.0000 0.0000 -13.8133
#
#
#
# Elastic Compliance Matrix: (Units=1/GPa)
#
#
# Indices 1 2 3 4 5 6 
#
# 1 0.021096 -0.000061 -0.000663 0.000000 0.000000 0.000000
# 2 -0.000061 0.008322 -0.007742 0.000000 0.000000 0.000000
# 3 -0.000663 -0.007742 0.018364 0.000000 0.000000 0.000000
# 4 0.000000 0.000000 0.000000 0.033072 0.000000 0.000000
# 5 0.000000 0.000000 0.000000 0.000000 -0.083710 0.000000
# 6 0.000000 0.000000 0.000000 0.000000 0.000000 -0.072394
#
#
# Mechanical properties :
#
#
# Convention : Reuss Voigt Hill
#
# Bulk Modulus (GPa) = 32.41402 57.20485 44.80944
# Shear Modulus (GPa) = -104.09213 17.25577 -43.41818
#
# Velocity S-wave (km/s) = -7.67097 3.12326 -4.95424
# Velocity P-wave (km/s) = 7.75464 6.73383 2.71938
#
# Compressibility (1/GPa) = 0.03085085
#
# Stress axis : x y z
#
# Youngs Moduli (GPa) = 47.40260 120.15815 54.45340
#
# Poissons Ratio (x) = 0.00732 0.03608
# Poissons Ratio (y) = 0.00289 0.42160
# Poissons Ratio (z) = 0.03141 0.93032
#
# Static dielectric constant tensor:
#      x y z
#    x 1.656180 0.000000 0.000000 
#    y 0.000000 1.640780 0.000000 
#    z 0.000000 0.000000 1.575840 
# 
# From -- ./inp_files/19991.got.cif
#   From: 2010.05.17/outbox.cif.g08.bks.cpg/sg38_10_cif.got.tgz:19991.got - 2010.06.03 18:07:57.
