data_PCOD9355495
_publ_section_title
;
Structure prediction by ZEFSAII (Michael W. Deem and Ramdas Pophale) SiO2 
 PCOD9355495
Probable space group: C C C 2
;
_chemical_formula_sum "Si O2"
_cell_formula_units_Z 32
_cell_length_a 10.140707
_cell_length_b 15.481766
_cell_length_c 8.553312
_cell_angle_alpha 90.000000
_cell_angle_beta 90.000000
_cell_angle_gamma 90.000000
_cell_volume 1342.836223
_symmetry_space_group_name_H-M "C C C 2"
_symmetry_group_IT_number 37
_symmetry_cell_setting 'orthorhombic'
loop_
_space_group_symop_operation_xyz
x,y,z
-x,-y,z
-x,y,1/2+z
x,-y,1/2+z
1/2+x,1/2+y,z
1/2-x,1/2-y,z
1/2-x,1/2+y,1/2+z
1/2+x,1/2-y,1/2+z
loop_
_atom_site_type_symbol
_atom_site_label
_atom_site_fract_x
_atom_site_fract_y
_atom_site_fract_z
Si Si1 0.059253 0.902199 0.409630
Si Si2 0.167072 0.820767 0.098582
Si Si3 0.398873 0.894959 0.903444
Si Si4 0.158956 0.415646 0.041656
O O1 0.111481 0.884330 0.234009
O O2 0.189720 0.895230 0.515192
O O3 0.952864 0.833100 0.473488
O O4 0.000000 0.000000 0.417115
O O5 0.250000 0.750000 0.200805
O O6 0.292620 0.836209 0.985488
O O7 0.547332 0.866974 0.942029
O O8 0.379068 0.904768 0.720862
O O9 0.364450 0.986372 0.984770
#
# Coordination Sequence:
#
# PCOD9355495 Si02
#       4
#     8   8   8   8
#     4  12  25  47  79 109 144 200 255 311 366 455
#     4  12  28  47  72 111 152 194 247 313 384 442
#     4  11  22  41  68 109 147 188 237 303 371 432
#     4  11  22  40  73 106 144 187 246 304 356 436
#
# _framework density 23.830158999999998
#
# number of rings (size 3 to 8) (size 9 to 14) (size 15 to 20)
#    0.000    0.500    2.500    8.250    0.000    4.000 
#    0.000    2.500    0.000    0.000    0.000    0.000 
#    0.000    0.000    0.000    0.000    0.000    0.000 
#
# Total GULP energy -89210.949809 kJ/mol
# GULP energy per Si atom -5575.684363 kJ/mol
# Density = 2.377592 g / cm^3
# Si number density = 23.830159 Si / 1000 Ang^3
#
#
#
# Elastic Constant Matrix: (Units=GPa)
#
#
# Indices 1 2 3 4 5 6 
#
# 1 195.5413 45.0384 1.1544 0.0000 0.0000 0.0000
# 2 45.0384 58.0825 -2.6448 0.0000 0.0000 0.0000
# 3 1.1544 -2.6448 115.2178 0.0000 0.0000 0.0000
# 4 0.0000 0.0000 0.0000 5.4116 0.0000 0.0000
# 5 0.0000 0.0000 0.0000 0.0000 45.8611 0.0000
# 6 0.0000 0.0000 0.0000 0.0000 0.0000 49.9705
#
#
#
# Elastic Compliance Matrix: (Units=1/GPa)
#
#
# Indices 1 2 3 4 5 6 
#
# 1 0.006229 -0.004838 -0.000173 0.000000 0.000000 0.000000
# 2 -0.004838 0.020993 0.000530 0.000000 0.000000 0.000000
# 3 -0.000173 0.000530 0.008693 0.000000 0.000000 0.000000
# 4 0.000000 0.000000 0.000000 0.184787 0.000000 0.000000
# 5 0.000000 0.000000 0.000000 0.000000 0.021805 0.000000
# 6 0.000000 0.000000 0.000000 0.000000 0.000000 0.020012
#
#
# Mechanical properties :
#
#
# Convention : Reuss Voigt Hill
#
# Bulk Modulus (GPa) = 37.10236 50.65974 43.88105
# Shear Modulus (GPa) = 17.82744 41.93490 29.88117
#
# Velocity S-wave (km/s) = 2.73812 4.19948 3.54492
# Velocity P-wave (km/s) = 5.05961 6.69470 5.93374
#
# Compressibility (1/GPa) = 0.02695246
#
# Stress axis : x y z
#
# Youngs Moduli (GPa) = 160.52826 47.63537 115.03343
#
# Poissons Ratio (x) = 0.23048 0.01996
# Poissons Ratio (y) = 0.77669 -0.06101
# Poissons Ratio (z) = 0.02785 -0.02526
#
# Static dielectric constant tensor:
#      x y z
#    x 1.856030 0.000000 0.000000 
#    y 0.000000 2.492320 0.000000 
#    z 0.000000 0.000000 1.902610 
# 
# From -- ./inp_files/2584.got.cif
#   From: 2010.05.17/outbox.cif.g08.bks.cpg/sg37_2_cif.got.tgz:2584.got - 2010.06.03 17:53:42.
