data_PCOD9355454
_publ_section_title
;
Structure prediction by ZEFSAII (Michael W. Deem and Ramdas Pophale) SiO2 
 PCOD9355454
Probable space group: C C C 2
;
_chemical_formula_sum "Si O2"
_cell_formula_units_Z 48
_cell_length_a 24.292063
_cell_length_b 14.133272
_cell_length_c 8.724134
_cell_angle_alpha 90.000000
_cell_angle_beta 90.000000
_cell_angle_gamma 90.000000
_cell_volume 2995.224942
_symmetry_space_group_name_H-M "C C C 2"
_symmetry_group_IT_number 37
_symmetry_cell_setting 'orthorhombic'
loop_
_space_group_symop_operation_xyz
x,y,z
-x,-y,z
-x,y,1/2+z
x,-y,1/2+z
1/2+x,1/2+y,z
1/2-x,1/2-y,z
1/2-x,1/2+y,1/2+z
1/2+x,1/2-y,1/2+z
loop_
_atom_site_type_symbol
_atom_site_label
_atom_site_fract_x
_atom_site_fract_y
_atom_site_fract_z
Si Si1 0.774500 0.102896 0.105460
Si Si2 0.440450 0.895540 0.972625
Si Si3 0.559550 0.895541 0.106595
Si Si4 0.162814 0.290465 0.604250
Si Si5 0.225500 0.102896 0.973760
Si Si6 0.837186 0.290465 0.474970
O O1 0.817531 0.184955 0.060589
O O2 0.713701 0.140581 0.061264
O O3 0.775104 0.098520 0.289610
O O4 0.785679 0.000000 0.039610
O O5 0.443269 0.901049 0.789610
O O6 0.500000 0.867922 0.039610
O O7 0.392640 0.825529 0.026604
O O8 0.428034 1.000000 0.039610
O O9 0.607360 0.825529 0.052616
O O10 0.157201 0.293885 0.789610
O O11 0.182469 0.184955 0.018631
O O12 0.286299 0.140582 0.017957
#
# Coordination Sequence:
#
# PCOD9355454 Si02
#       6
#     8   8   8   8   8   8
#     4   9  18  31  49  71  99 130 160 195 237 281
#     4  11  21  33  50  72  97 127 159 196 238 284
#     4  11  21  33  50  72  97 127 159 196 238 284
#     4   9  18  33  49  70  99 130 160 195 237 282
#     4   9  18  31  49  71  99 130 160 195 237 281
#     4   9  18  33  49  70  99 130 160 195 237 282
#
# _framework density 16.025507000000001
#
# number of rings (size 3 to 8) (size 9 to 14) (size 15 to 20)
#    0.000    2.333    0.000    7.000    0.000    5.333 
#    0.000    3.333    0.000    1.000    0.000    7.000 
#    0.000    0.000    0.000    0.000    0.000    0.000 
#
# Total GULP energy -133907.671949 kJ/mol
# GULP energy per Si atom -5579.486331 kJ/mol
# Density = 1.598903 g / cm^3
# Si number density = 16.025507 Si / 1000 Ang^3
#
#
#
# Elastic Constant Matrix: (Units=GPa)
#
#
# Indices 1 2 3 4 5 6 
#
# 1 130.6379 92.8986 56.3113 0.0000 0.0000 0.0000
# 2 92.8986 133.4594 48.9835 0.0000 0.0000 0.0000
# 3 56.3113 48.9835 76.3135 0.0000 0.0000 0.0000
# 4 0.0000 0.0000 0.0000 28.8119 0.0000 0.0000
# 5 0.0000 0.0000 0.0000 0.0000 27.6268 0.0000
# 6 0.0000 0.0000 0.0000 0.0000 0.0000 21.0661
#
#
#
# Elastic Compliance Matrix: (Units=1/GPa)
#
#
# Indices 1 2 3 4 5 6 
#
# 1 0.017387 -0.009673 -0.006621 0.000000 0.000000 0.000000
# 2 -0.009673 0.015183 -0.002608 0.000000 0.000000 0.000000
# 3 -0.006621 -0.002608 0.019664 0.000000 0.000000 0.000000
# 4 0.000000 0.000000 0.000000 0.034708 0.000000 0.000000
# 5 0.000000 0.000000 0.000000 0.000000 0.036197 0.000000
# 6 0.000000 0.000000 0.000000 0.000000 0.000000 0.047470
#
#
# Mechanical properties :
#
#
# Convention : Reuss Voigt Hill
#
# Bulk Modulus (GPa) = 69.30123 81.86640 75.58382
# Shear Modulus (GPa) = 23.44960 24.98210 24.21585
#
# Velocity S-wave (km/s) = 3.82942 3.95257 3.89148
# Velocity P-wave (km/s) = 7.93037 8.48683 8.21332
#
# Compressibility (1/GPa) = 0.01442976
#
# Stress axis : x y z
#
# Youngs Moduli (GPa) = 57.51315 65.86203 50.85485
#
# Poissons Ratio (x) = 0.63707 0.33673
# Poissons Ratio (y) = 0.55631 0.13264
# Poissons Ratio (z) = 0.38081 0.17178
#
# Static dielectric constant tensor:
#      x y z
#    x 1.522430 0.000000 0.000000 
#    y 0.000000 1.525020 0.000000 
#    z 0.000000 0.000000 1.537420 
# 
# From -- ./inp_files/2975.got.cif
#   From: 2010.05.17/outbox.cif.g08.bks.cpg/sg37_2_cif.got.tgz:2975.got - 2010.06.03 17:53:42.
