data_PCOD9355240
_publ_section_title
;
Structure prediction by ZEFSAII (Michael W. Deem and Ramdas Pophale) SiO2 
 PCOD9355240
Probable space group: C C C 2
;
_chemical_formula_sum "Si O2"
_cell_formula_units_Z 48
_cell_length_a 31.488605
_cell_length_b 7.627865
_cell_length_c 9.285653
_cell_angle_alpha 90.000000
_cell_angle_beta 90.000000
_cell_angle_gamma 90.000000
_cell_volume 2230.328682
_symmetry_space_group_name_H-M "C C C 2"
_symmetry_group_IT_number 37
_symmetry_cell_setting 'orthorhombic'
loop_
_space_group_symop_operation_xyz
x,y,z
-x,-y,z
-x,y,1/2+z
x,-y,1/2+z
1/2+x,1/2+y,z
1/2-x,1/2-y,z
1/2-x,1/2+y,1/2+z
1/2+x,1/2-y,1/2+z
loop_
_atom_site_type_symbol
_atom_site_label
_atom_site_fract_x
_atom_site_fract_y
_atom_site_fract_z
Si Si1 0.912842 0.968750 0.151950
Si Si2 0.300326 0.789631 0.463518
Si Si3 0.145962 0.070828 0.423298
Si Si4 0.500000 0.500000 0.313222
Si Si5 0.204087 0.349282 0.294171
Si Si6 0.533782 0.790621 0.997810
Si Si7 0.500000 0.000000 0.763947
O O1 0.884763 0.916886 0.286434
O O2 0.958215 0.023349 0.217040
O O3 0.883799 0.098612 0.061530
O O4 0.924471 0.817898 0.035612
O O5 0.250000 0.750000 0.463709
O O6 0.328278 0.615206 0.427938
O O7 0.311502 0.841106 0.628417
O O8 0.302051 0.954075 0.354273
O O9 0.178599 0.226023 0.402900
O O10 0.500505 0.663840 0.421752
O O11 0.250000 0.250000 0.291951
O O12 0.536599 0.938679 0.875262
O O13 0.517147 0.858315 0.150621
#
# Coordination Sequence:
#
# PCOD9355240 Si02
#       7
#     8   8   8   4   8   8   4
#     4  12  26  44  73 101 145 193 247 312 357 442
#     4  11  25  46  77 113 148 194 244 296 375 456
#     4  12  26  48  68 115 152 188 252 308 368 437
#     4  12  24  44  78  98 134 202 258 286 378 440
#     4  11  25  46  78 111 147 199 240 297 379 453
#     4  11  23  44  69 103 136 188 246 297 372 431
#     4  10  24  42  70 104 140 174 250 314 360 438
#
# _framework density 21.52149
#
# number of rings (size 3 to 8) (size 9 to 14) (size 15 to 20)
#    0.000    0.667    6.667    0.500    2.333    0.667 
#    3.000    0.000    0.000    0.000    0.000    0.000 
#    0.000    0.000    0.000    0.000    0.000    0.000 
#
# Total GULP energy -133864.589398 kJ/mol
# GULP energy per Si atom -5577.691225 kJ/mol
# Density = 2.147251 g / cm^3
# Si number density = 21.521490 Si / 1000 Ang^3
#
#
#
# Elastic Constant Matrix: (Units=GPa)
#
#
# Indices 1 2 3 4 5 6 
#
# 1 76.1223 10.7010 12.8363 0.0000 0.0000 0.0000
# 2 10.7010 94.9241 24.8594 0.0000 0.0000 0.0000
# 3 12.8363 24.8594 94.4111 0.0000 0.0000 0.0000
# 4 0.0000 0.0000 0.0000 28.0333 0.0000 0.0000
# 5 0.0000 0.0000 0.0000 0.0000 40.4120 0.0000
# 6 0.0000 0.0000 0.0000 0.0000 0.0000 26.6314
#
#
#
# Elastic Compliance Matrix: (Units=1/GPa)
#
#
# Indices 1 2 3 4 5 6 
#
# 1 0.013556 -0.001123 -0.001547 0.000000 0.000000 0.000000
# 2 -0.001123 0.011408 -0.002851 0.000000 0.000000 0.000000
# 3 -0.001547 -0.002851 0.011553 0.000000 0.000000 0.000000
# 4 0.000000 0.000000 0.000000 0.035672 0.000000 0.000000
# 5 0.000000 0.000000 0.000000 0.000000 0.024745 0.000000
# 6 0.000000 0.000000 0.000000 0.000000 0.000000 0.037550
#
#
# Mechanical properties :
#
#
# Convention : Reuss Voigt Hill
#
# Bulk Modulus (GPa) = 39.25610 40.25011 39.75310
# Shear Modulus (GPa) = 32.46386 33.48606 32.97496
#
# Velocity S-wave (km/s) = 3.88808 3.94881 3.91856
# Velocity P-wave (km/s) = 6.19969 6.28759 6.24379
#
# Compressibility (1/GPa) = 0.02547375
#
# Stress axis : x y z
#
# Youngs Moduli (GPa) = 73.77057 87.65778 86.55684
#
# Poissons Ratio (x) = 0.09843 0.13394
# Poissons Ratio (y) = 0.08284 0.24679
# Poissons Ratio (z) = 0.11415 0.24993
#
# Static dielectric constant tensor:
#      x y z
#    x 1.802310 0.000000 0.000000 
#    y 0.000000 1.920650 0.000000 
#    z 0.000000 0.000000 1.807190 
# 
# From -- ./inp_files/4968.got.cif
#   From: 2010.05.17/outbox.cif.g08.bks.cpg/sg37_3_cif.got.tgz:4968.got - 2010.06.03 17:53:42.
