data_PCOD9355467
_publ_section_title
;
Structure prediction by ZEFSAII (Michael W. Deem and Ramdas Pophale) SiO2 
 PCOD9355467
Probable space group: C C C 2
;
_chemical_formula_sum "Si O2"
_cell_formula_units_Z 52
_cell_length_a 13.201287
_cell_length_b 9.107250
_cell_length_c 19.534168
_cell_angle_alpha 90.000000
_cell_angle_beta 90.000000
_cell_angle_gamma 90.000000
_cell_volume 2348.542641
_symmetry_space_group_name_H-M "C C C 2"
_symmetry_group_IT_number 37
_symmetry_cell_setting 'orthorhombic'
loop_
_space_group_symop_operation_xyz
x,y,z
-x,-y,z
-x,y,1/2+z
x,-y,1/2+z
1/2+x,1/2+y,z
1/2-x,1/2-y,z
1/2-x,1/2+y,1/2+z
1/2+x,1/2-y,1/2+z
loop_
_atom_site_type_symbol
_atom_site_label
_atom_site_fract_x
_atom_site_fract_y
_atom_site_fract_z
Si Si1 0.412530 0.749442 0.710290
Si Si2 0.750000 0.250000 0.146192
Si Si3 0.007184 0.173608 0.838302
Si Si4 0.968235 0.328705 0.084437
Si Si5 0.688308 0.874111 0.896577
Si Si6 0.257506 0.987712 0.749717
Si Si7 0.423472 0.127264 0.433612
O O1 0.507197 0.717905 0.759273
O O2 0.451760 0.744153 0.632725
O O3 0.361894 0.905366 0.729186
O O4 0.331125 0.630133 0.736018
O O5 0.853469 0.286934 0.105441
O O6 0.734626 0.386732 0.195867
O O7 0.098720 0.263031 0.871787
O O8 0.911501 0.249955 0.876529
O O9 0.000000 0.000000 0.847176
O O10 0.000000 0.500000 0.094115
O O11 0.969237 0.307539 0.002640
O O12 0.750000 0.750000 0.936379
O O13 0.733121 0.943350 0.825739
O O14 0.670378 0.017916 0.943168
O O15 0.500000 0.000000 0.406438
#
# Coordination Sequence:
#
# PCOD9355467 Si02
#       7
#     8   4   8   8   8   8   8
#     4  11  24  41  67  97 139 176 227 296 341 417
#     4  12  24  42  66 102 130 178 238 272 356 422
#     4  11  23  40  65 100 132 177 227 286 354 414
#     4  11  24  46  69  94 140 188 230 292 349 426
#     4  11  21  40  67  98 137 171 231 290 351 427
#     4  11  23  40  66 106 131 177 232 286 360 410
#     4   9  22  45  67  89 134 190 227 274 359 422
#
# _framework density 22.141390000000001
#
# number of rings (size 3 to 8) (size 9 to 14) (size 15 to 20)
#    0.000    1.231    3.846    1.846    2.154    0.000 
#    8.308    3.077    0.000    0.000    0.000    0.000 
#    0.000    0.000    0.000    0.000    0.000    0.000 
#
# Total GULP energy -144866.205348 kJ/mol
# GULP energy per Si atom -5571.777129 kJ/mol
# Density = 2.209100 g / cm^3
# Si number density = 22.141390 Si / 1000 Ang^3
#
#
#
# Elastic Constant Matrix: (Units=GPa)
#
#
# Indices 1 2 3 4 5 6 
#
# 1 49.6950 23.5636 10.1369 0.0000 0.0000 0.0000
# 2 23.5636 120.3490 57.2049 0.0000 0.0000 0.0000
# 3 10.1369 57.2049 92.7125 0.0000 0.0000 0.0000
# 4 0.0000 0.0000 0.0000 1.1209 0.0000 0.0000
# 5 0.0000 0.0000 0.0000 0.0000 5.9031 0.0000
# 6 0.0000 0.0000 0.0000 0.0000 0.0000 33.4796
#
#
#
# Elastic Compliance Matrix: (Units=1/GPa)
#
#
# Indices 1 2 3 4 5 6 
#
# 1 0.022191 -0.004516 0.000360 0.000000 0.000000 0.000000
# 2 -0.004516 0.012676 -0.007328 0.000000 0.000000 0.000000
# 3 0.000360 -0.007328 0.015268 0.000000 0.000000 0.000000
# 4 0.000000 0.000000 0.000000 0.892128 0.000000 0.000000
# 5 0.000000 0.000000 0.000000 0.000000 0.169403 0.000000
# 6 0.000000 0.000000 0.000000 0.000000 0.000000 0.029869
#
#
# Mechanical properties :
#
#
# Convention : Reuss Voigt Hill
#
# Bulk Modulus (GPa) = 36.80819 49.39637 43.10228
# Shear Modulus (GPa) = 4.26054 19.55746 11.90900
#
# Velocity S-wave (km/s) = 1.38868 2.97526 2.32170
# Velocity P-wave (km/s) = 4.38537 5.84473 5.16683
#
# Compressibility (1/GPa) = 0.02716787
#
# Stress axis : x y z
#
# Youngs Moduli (GPa) = 45.06407 78.88651 65.49656
#
# Poissons Ratio (x) = 0.35625 -0.02359
# Poissons Ratio (y) = 0.20351 0.47994
# Poissons Ratio (z) = -0.01623 0.57806
#
# Static dielectric constant tensor:
#      x y z
#    x 2.356340 0.000000 0.000000 
#    y 0.000000 2.097380 0.000000 
#    z 0.000000 0.000000 1.802050 
# 
# From -- ./inp_files/17126.got.cif
#   From: 2010.05.17/outbox.cif.g08.bks.cpg/sg37_9_cif.got.tgz:17126.got - 2010.06.03 17:53:42.
