data_PCOD9355496
_publ_section_title
;
Structure prediction by ZEFSAII (Michael W. Deem and Ramdas Pophale) SiO2 
 PCOD9355496
Probable space group: C C C 2
;
_chemical_formula_sum "Si O2"
_cell_formula_units_Z 64
_cell_length_a 8.590204
_cell_length_b 11.790618
_cell_length_c 27.553673
_cell_angle_alpha 90.000000
_cell_angle_beta 90.000000
_cell_angle_gamma 90.000000
_cell_volume 2790.741089
_symmetry_space_group_name_H-M "C C C 2"
_symmetry_group_IT_number 37
_symmetry_cell_setting 'orthorhombic'
loop_
_space_group_symop_operation_xyz
x,y,z
-x,-y,z
-x,y,1/2+z
x,-y,1/2+z
1/2+x,1/2+y,z
1/2-x,1/2-y,z
1/2-x,1/2+y,1/2+z
1/2+x,1/2-y,1/2+z
loop_
_atom_site_type_symbol
_atom_site_label
_atom_site_fract_x
_atom_site_fract_y
_atom_site_fract_z
Si Si1 0.139906 0.353735 0.763380
Si Si2 0.149586 0.939148 0.729398
Si Si3 0.639906 0.146265 0.477607
Si Si4 0.057348 0.369339 0.171745
Si Si5 0.850414 0.939148 0.511589
Si Si6 0.070943 0.778353 0.818352
Si Si7 0.070943 0.778353 0.922636
Si Si8 0.057348 0.630661 0.069242
O O1 0.250000 0.250000 0.776166
O O2 0.234695 0.467667 0.753699
O O3 0.048226 0.320537 0.714403
O O4 0.011732 0.340725 0.804838
O O5 0.263174 0.875316 0.690646
O O6 0.074703 0.865175 0.772956
O O7 0.000000 0.000000 0.705378
O O8 0.750000 0.250000 0.464821
O O9 0.511732 0.159275 0.436150
O O10 0.548227 0.179463 0.526584
O O11 0.734695 0.032333 0.487289
O O12 0.000000 0.500000 0.169841
O O13 0.000000 0.318831 0.120494
O O14 0.925297 0.865175 0.468031
O O15 0.736826 0.875316 0.550341
O O16 0.000000 0.000000 0.535609
O O17 0.250000 0.750000 0.822817
O O18 0.011615 0.822557 0.870494
O O19 0.250000 0.750000 0.918171
O O20 0.000000 0.500000 0.071147
#
# Coordination Sequence:
#
# PCOD9355496 Si02
#       8
#     8   8   8   8   8   8   8   8
#     4  11  22  41  62  92 135 170 217 271 326 381
#     4  11  22  41  68  94 133 174 216 274 328 388
#     4  11  22  41  62  92 135 170 217 271 326 381
#     4   9  20  41  65  90 128 167 211 267 322 384
#     4  11  22  41  68  94 133 174 216 274 328 388
#     4  11  24  42  66  96 131 175 223 272 330 389
#     4  11  24  42  66  96 131 175 223 272 330 389
#     4   9  20  41  65  90 128 167 211 267 322 384
#
# _framework density 22.932977000000001
#
# number of rings (size 3 to 8) (size 9 to 14) (size 15 to 20)
#    0.000    1.500    5.000    0.000    0.000    2.000 
#    4.500   12.500    0.000    0.000    0.000    0.000 
#    0.000    0.000    0.000    0.000    0.000    0.000 
#
# Total GULP energy -178269.577918 kJ/mol
# GULP energy per Si atom -5570.924310 kJ/mol
# Density = 2.288078 g / cm^3
# Si number density = 22.932977 Si / 1000 Ang^3
#
#
#
# Elastic Constant Matrix: (Units=GPa)
#
#
# Indices 1 2 3 4 5 6 
#
# 1 127.6742 29.8486 35.9240 0.0000 0.0000 0.0000
# 2 29.8486 74.5889 26.0936 0.0000 0.0000 0.0000
# 3 35.9240 26.0936 117.2473 0.0000 0.0000 0.0000
# 4 0.0000 0.0000 0.0000 17.3571 0.0000 0.0000
# 5 0.0000 0.0000 0.0000 0.0000 4.6548 0.0000
# 6 0.0000 0.0000 0.0000 0.0000 0.0000 9.1566
#
#
#
# Elastic Compliance Matrix: (Units=1/GPa)
#
#
# Indices 1 2 3 4 5 6 
#
# 1 0.009114 -0.002896 -0.002148 0.000000 0.000000 0.000000
# 2 -0.002896 0.015459 -0.002553 0.000000 0.000000 0.000000
# 3 -0.002148 -0.002553 0.009755 0.000000 0.000000 0.000000
# 4 0.000000 0.000000 0.000000 0.057613 0.000000 0.000000
# 5 0.000000 0.000000 0.000000 0.000000 0.214832 0.000000
# 6 0.000000 0.000000 0.000000 0.000000 0.000000 0.109211
#
#
# Mechanical properties :
#
#
# Convention : Reuss Voigt Hill
#
# Bulk Modulus (GPa) = 52.26229 55.91586 54.08907
# Shear Modulus (GPa) = 11.42710 21.40997 16.41854
#
# Velocity S-wave (km/s) = 2.23465 3.05878 2.67860
# Velocity P-wave (km/s) = 5.43110 6.07537 5.76224
#
# Compressibility (1/GPa) = 0.01913426
#
# Stress axis : x y z
#
# Youngs Moduli (GPa) = 109.72376 64.68818 102.50811
#
# Poissons Ratio (x) = 0.18732 0.22019
# Poissons Ratio (y) = 0.31772 0.26172
# Poissons Ratio (z) = 0.23569 0.16516
#
# Static dielectric constant tensor:
#      x y z
#    x 1.948620 0.000000 0.000000 
#    y 0.000000 1.952760 0.000000 
#    z 0.000000 0.000000 1.955430 
# 
# From -- ./inp_files/20430.got.cif
#   From: 2010.05.17/outbox.cif.g08.bks.cpg/sg37_11_cif.got.tgz:20430.got - 2010.06.03 17:53:42.
