data_PCOD9355265
_publ_section_title
;
Structure prediction by ZEFSAII (Michael W. Deem and Ramdas Pophale) SiO2 
 PCOD9355265
Probable space group: C C C 2
;
_chemical_formula_sum "Si O2"
_cell_formula_units_Z 52
_cell_length_a 4.984468
_cell_length_b 26.948983
_cell_length_c 17.747746
_cell_angle_alpha 90.000000
_cell_angle_beta 90.000000
_cell_angle_gamma 90.000000
_cell_volume 2383.989824
_symmetry_space_group_name_H-M "C C C 2"
_symmetry_group_IT_number 37
_symmetry_cell_setting 'orthorhombic'
loop_
_space_group_symop_operation_xyz
x,y,z
-x,-y,z
-x,y,1/2+z
x,-y,1/2+z
1/2+x,1/2+y,z
1/2-x,1/2-y,z
1/2-x,1/2+y,1/2+z
1/2+x,1/2-y,1/2+z
loop_
_atom_site_type_symbol
_atom_site_label
_atom_site_fract_x
_atom_site_fract_y
_atom_site_fract_z
Si Si1 0.782542 0.193494 0.454640
Si Si2 0.500000 0.000000 0.688172
Si Si3 0.507961 0.282600 0.620414
Si Si4 0.524333 0.380928 0.700464
Si Si5 0.507519 0.090139 0.782881
Si Si6 0.612401 0.552079 0.569790
Si Si7 0.273579 0.126286 0.436582
O O1 0.750000 0.250000 0.424432
O O2 0.495475 0.167236 0.456626
O O3 0.883938 0.198349 0.540240
O O4 0.001725 0.156826 0.416397
O O5 0.623039 0.039374 0.746511
O O6 0.324282 0.032175 0.631094
O O7 0.250000 0.250000 0.605405
O O8 0.420440 0.328962 0.669901
O O9 0.750000 0.250000 0.654188
O O10 0.806318 0.370446 0.740077
O O11 0.572075 0.415360 0.626114
O O12 0.301221 0.403399 0.757806
O O13 0.587988 0.095550 0.869092
O O14 0.500000 0.500000 0.537762
O O15 0.714032 0.588517 0.505019
#
# Coordination Sequence:
#
# PCOD9355265 Si02
#       7
#     8   4   8   8   8   8   8
#     4  11  24  44  71 103 139 181 227 288 353 400
#     4  10  24  44  68  94 136 190 218 282 348 398
#     4  11  22  39  69 104 131 172 232 295 344 399
#     4  11  23  44  69  94 138 180 225 280 343 418
#     4  11  25  45  65  97 145 181 225 277 356 405
#     4  11  24  43  70 101 133 178 241 278 339 403
#     4  12  26  44  71 107 139 181 233 289 337 424
#
# _framework density 21.812173000000001
#
# number of rings (size 3 to 8) (size 9 to 14) (size 15 to 20)
#    0.000    0.923    3.077    4.154    6.462    0.615 
#    5.538    7.692    0.000    0.000    0.000    0.000 
#    0.000    0.000    0.000    0.000    0.000    0.000 
#
# Total GULP energy -145075.649258 kJ/mol
# GULP energy per Si atom -5579.832664 kJ/mol
# Density = 2.176253 g / cm^3
# Si number density = 21.812173 Si / 1000 Ang^3
#
#
#
# Elastic Constant Matrix: (Units=GPa)
#
#
# Indices 1 2 3 4 5 6 
#
# 1 94.6864 28.6657 10.8186 0.0000 0.0000 0.0000
# 2 28.6657 108.2989 52.9321 0.0000 0.0000 0.0000
# 3 10.8186 52.9321 68.9790 0.0000 0.0000 0.0000
# 4 0.0000 0.0000 0.0000 9.9305 0.0000 0.0000
# 5 0.0000 0.0000 0.0000 0.0000 16.6170 0.0000
# 6 0.0000 0.0000 0.0000 0.0000 0.0000 38.3384
#
#
#
# Elastic Compliance Matrix: (Units=1/GPa)
#
#
# Indices 1 2 3 4 5 6 
#
# 1 0.011512 -0.003464 0.000852 0.000000 0.000000 0.000000
# 2 -0.003464 0.015818 -0.011595 0.000000 0.000000 0.000000
# 3 0.000852 -0.011595 0.023261 0.000000 0.000000 0.000000
# 4 0.000000 0.000000 0.000000 0.100700 0.000000 0.000000
# 5 0.000000 0.000000 0.000000 0.000000 0.060179 0.000000
# 6 0.000000 0.000000 0.000000 0.000000 0.000000 0.026083
#
#
# Mechanical properties :
#
#
# Convention : Reuss Voigt Hill
#
# Bulk Modulus (GPa) = 45.08822 50.75525 47.92173
# Shear Modulus (GPa) = 18.29105 24.94705 21.61905
#
# Velocity S-wave (km/s) = 2.89895 3.38556 3.15166
# Velocity P-wave (km/s) = 5.64989 6.21309 5.93817
#
# Compressibility (1/GPa) = 0.02217874
#
# Stress axis : x y z
#
# Youngs Moduli (GPa) = 86.86250 63.22110 42.99099
#
# Poissons Ratio (x) = 0.21899 -0.03665
# Poissons Ratio (y) = 0.30088 0.49846
# Poissons Ratio (z) = -0.07405 0.73302
#
# Static dielectric constant tensor:
#      x y z
#    x 1.859770 0.000000 0.000000 
#    y 0.000000 1.889590 0.000000 
#    z 0.000000 0.000000 1.795730 
# 
# From -- ./inp_files/13981.got.cif
#   From: 2010.05.17/outbox.cif.g08.bks.cpg/sg37_7_cif.got.tgz:13981.got - 2010.06.03 17:53:42.
