data_PCOD9355163
_publ_section_title
;
Structure prediction by ZEFSAII (Michael W. Deem and Ramdas Pophale) SiO2 
 PCOD9355163
Probable space group: C C C 2
;
_chemical_formula_sum "Si O2"
_cell_formula_units_Z 36
_cell_length_a 7.191369
_cell_length_b 19.591324
_cell_length_c 9.550274
_cell_angle_alpha 90.000000
_cell_angle_beta 90.000000
_cell_angle_gamma 90.000000
_cell_volume 1345.523206
_symmetry_space_group_name_H-M "C C C 2"
_symmetry_group_IT_number 37
_symmetry_cell_setting 'orthorhombic'
loop_
_space_group_symop_operation_xyz
x,y,z
-x,-y,z
-x,y,1/2+z
x,-y,1/2+z
1/2+x,1/2+y,z
1/2-x,1/2-y,z
1/2-x,1/2+y,1/2+z
1/2+x,1/2-y,1/2+z
loop_
_atom_site_type_symbol
_atom_site_label
_atom_site_fract_x
_atom_site_fract_y
_atom_site_fract_z
Si Si1 0.034004 0.274023 0.341510
Si Si2 0.383119 0.140725 0.592543
Si Si3 0.500000 0.000000 0.730121
Si Si4 0.374992 0.440934 0.247915
Si Si5 0.464608 0.358309 0.999975
O O1 0.250000 0.250000 0.325428
O O2 0.034171 0.339284 0.442814
O O3 0.929845 0.212289 0.419939
O O4 0.952350 0.300886 0.198123
O O5 0.161996 0.148340 0.578360
O O6 0.431814 0.065103 0.641505
O O7 0.315559 0.972627 0.805762
O O8 0.500000 0.500000 0.179866
O O9 0.495521 0.410452 0.373664
O O10 0.334414 0.386452 0.123857
#
# Coordination Sequence:
#
# PCOD9355163 Si02
#       5
#     8   8   4   8   8
#     4  10  23  45  73 109 156 197 269 322 398 465
#     4  11  24  45  74 112 151 209 253 329 389 475
#     4  12  26  46  78 110 160 198 264 314 406 470
#     4  12  26  50  77 115 157 204 258 329 398 475
#     4  11  25  49  77 114 156 201 269 329 395 469
#
# _framework density 26.755392000000001
#
# number of rings (size 3 to 8) (size 9 to 14) (size 15 to 20)
#    0.000    0.889    2.222    4.667    0.000    5.333 
#    0.000    5.556    0.000    0.000    0.000    0.000 
#    0.000    0.000    0.000    0.000    0.000    0.000 
#
# Total GULP energy -101026.941697 kJ/mol
# GULP energy per Si atom -5612.607872 kJ/mol
# Density = 2.669450 g / cm^3
# Si number density = 26.755392 Si / 1000 Ang^3
#
#
#
# Elastic Constant Matrix: (Units=GPa)
#
#
# Indices 1 2 3 4 5 6 
#
# 1 80.2576 28.2309 15.2015 0.0000 0.0000 0.0000
# 2 28.2309 151.3999 35.2903 0.0000 0.0000 0.0000
# 3 15.2015 35.2903 116.8356 0.0000 0.0000 0.0000
# 4 0.0000 0.0000 0.0000 47.8476 0.0000 0.0000
# 5 0.0000 0.0000 0.0000 0.0000 34.1532 0.0000
# 6 0.0000 0.0000 0.0000 0.0000 0.0000 46.3688
#
#
#
# Elastic Compliance Matrix: (Units=1/GPa)
#
#
# Indices 1 2 3 4 5 6 
#
# 1 0.013457 -0.002260 -0.001068 0.000000 0.000000 0.000000
# 2 -0.002260 0.007485 -0.001967 0.000000 0.000000 0.000000
# 3 -0.001068 -0.001967 0.009292 0.000000 0.000000 0.000000
# 4 0.000000 0.000000 0.000000 0.020900 0.000000 0.000000
# 5 0.000000 0.000000 0.000000 0.000000 0.029280 0.000000
# 6 0.000000 0.000000 0.000000 0.000000 0.000000 0.021566
#
#
# Mechanical properties :
#
#
# Convention : Reuss Voigt Hill
#
# Bulk Modulus (GPa) = 50.90674 56.21538 53.56106
# Shear Modulus (GPa) = 41.97502 43.65862 42.81682
#
# Velocity S-wave (km/s) = 3.96516 4.04390 4.00472
# Velocity P-wave (km/s) = 6.32703 6.54680 6.43786
#
# Compressibility (1/GPa) = 0.01964376
#
# Stress axis : x y z
#
# Youngs Moduli (GPa) = 74.30920 133.60179 107.61867
#
# Poissons Ratio (x) = 0.30198 0.11496
# Poissons Ratio (y) = 0.16796 0.21166
# Poissons Ratio (z) = 0.07938 0.26276
#
# Static dielectric constant tensor:
#      x y z
#    x 2.114390 0.000000 0.000000 
#    y 0.000000 2.113510 0.000000 
#    z 0.000000 0.000000 2.044310 
# 
# From -- ./inp_files/2116.got.cif
#   From: 2010.05.17/outbox.cif.g08.bks.cpg/sg37_2_cif.got.tgz:2116.got - 2010.06.03 17:53:42.
