data_PCOD9355316
_publ_section_title
;
Structure prediction by ZEFSAII (Michael W. Deem and Ramdas Pophale) SiO2 
 PCOD9355316
Probable space group: C C C 2
;
_chemical_formula_sum "Si O2"
_cell_formula_units_Z 48
_cell_length_a 11.177760
_cell_length_b 16.906234
_cell_length_c 8.784562
_cell_angle_alpha 90.000000
_cell_angle_beta 90.000000
_cell_angle_gamma 90.000000
_cell_volume 1660.052292
_symmetry_space_group_name_H-M "C C C 2"
_symmetry_group_IT_number 37
_symmetry_cell_setting 'orthorhombic'
loop_
_space_group_symop_operation_xyz
x,y,z
-x,-y,z
-x,y,1/2+z
x,-y,1/2+z
1/2+x,1/2+y,z
1/2-x,1/2-y,z
1/2-x,1/2+y,1/2+z
1/2+x,1/2-y,1/2+z
loop_
_atom_site_type_symbol
_atom_site_label
_atom_site_fract_x
_atom_site_fract_y
_atom_site_fract_z
Si Si1 0.874467 0.488095 0.826660
Si Si2 0.892149 0.267114 0.956129
Si Si3 0.406974 0.842715 0.626703
Si Si4 0.781759 0.124856 0.383194
Si Si5 0.473725 0.361166 0.680970
Si Si6 0.131788 0.953190 0.925835
O O1 0.773171 0.441343 0.917979
O O2 0.819898 0.574634 0.796920
O O3 0.000000 0.500000 0.902274
O O4 0.893594 0.431979 0.684723
O O5 0.750000 0.250000 0.982968
O O6 0.968691 0.335238 0.037232
O O7 0.974686 0.197319 0.034403
O O8 0.920763 0.100184 0.784579
O O9 0.404245 0.784000 0.774303
O O10 0.867633 0.177753 0.282476
O O11 0.710658 0.165107 0.519653
O O12 0.872163 0.049773 0.419146
O O13 0.411451 0.433277 0.592950
#
# Coordination Sequence:
#
# PCOD9355316 Si02
#       6
#     8   8   8   8   8   8
#     4  10  24  46  83 128 171 224 295 380 471 535
#     4  12  31  52  86 124 184 258 316 370 451 567
#     4  12  27  56  83 128 177 239 306 384 450 554
#     4  10  26  47  89 126 169 228 297 386 470 534
#     4  12  25  52  79 131 180 235 310 368 471 563
#     4  10  26  46  87 131 181 233 293 390 474 556
#
# _framework density 28.914753000000001
#
# number of rings (size 3 to 8) (size 9 to 14) (size 15 to 20)
#    1.000    0.000    0.000    4.500    7.000    3.333 
#    3.000    0.000    0.000    0.000    0.000    0.000 
#    0.000    0.000    0.000    0.000    0.000    0.000 
#
# Total GULP energy -133984.290750 kJ/mol
# GULP energy per Si atom -5582.678781 kJ/mol
# Density = 2.884894 g / cm^3
# Si number density = 28.914753 Si / 1000 Ang^3
#
#
#
# Elastic Constant Matrix: (Units=GPa)
#
#
# Indices 1 2 3 4 5 6 
#
# 1 199.9617 41.6026 123.8357 0.0000 0.0000 0.0000
# 2 41.6026 100.5284 56.4892 0.0000 0.0000 0.0000
# 3 123.8357 56.4892 206.1783 0.0000 0.0000 0.0000
# 4 0.0000 0.0000 0.0000 51.7226 0.0000 0.0000
# 5 0.0000 0.0000 0.0000 0.0000 63.8653 0.0000
# 6 0.0000 0.0000 0.0000 0.0000 0.0000 44.8671
#
#
#
# Elastic Compliance Matrix: (Units=1/GPa)
#
#
# Indices 1 2 3 4 5 6 
#
# 1 0.008007 -0.000722 -0.004611 0.000000 0.000000 0.000000
# 2 -0.000722 0.011823 -0.002805 0.000000 0.000000 0.000000
# 3 -0.004611 -0.002805 0.008388 0.000000 0.000000 0.000000
# 4 0.000000 0.000000 0.000000 0.019334 0.000000 0.000000
# 5 0.000000 0.000000 0.000000 0.000000 0.015658 0.000000
# 6 0.000000 0.000000 0.000000 0.000000 0.000000 0.022288
#
#
# Mechanical properties :
#
#
# Convention : Reuss Voigt Hill
#
# Bulk Modulus (GPa) = 83.75098 105.61372 94.68235
# Shear Modulus (GPa) = 47.27852 51.07371 49.17612
#
# Velocity S-wave (km/s) = 4.04802 4.20736 4.12846
# Velocity P-wave (km/s) = 7.13277 7.75936 7.45265
#
# Compressibility (1/GPa) = 0.01194016
#
# Stress axis : x y z
#
# Youngs Moduli (GPa) = 124.89059 84.58242 119.21191
#
# Poissons Ratio (x) = 0.06111 0.54972
# Poissons Ratio (y) = 0.09023 0.33443
# Poissons Ratio (z) = 0.57590 0.23728
#
# Static dielectric constant tensor:
#      x y z
#    x 2.317730 0.000000 0.000000 
#    y 0.000000 2.558800 0.000000 
#    z 0.000000 0.000000 2.264900 
# 
# From -- ./inp_files/11496.got.cif
#   From: 2010.05.17/outbox.cif.g08.bks.cpg/sg37_6_cif.got.tgz:11496.got - 2010.06.03 17:53:42.
