data_PCOD9355619
_publ_section_title
;
Structure prediction by ZEFSAII (Michael W. Deem and Ramdas Pophale) SiO2 
 PCOD9355619
Probable space group: C C C 2
;
_chemical_formula_sum "Si O2"
_cell_formula_units_Z 32
_cell_length_a 5.991412
_cell_length_b 23.690169
_cell_length_c 9.507149
_cell_angle_alpha 90.000000
_cell_angle_beta 90.000000
_cell_angle_gamma 90.000000
_cell_volume 1349.421559
_symmetry_space_group_name_H-M "C C C 2"
_symmetry_group_IT_number 37
_symmetry_cell_setting 'orthorhombic'
loop_
_space_group_symop_operation_xyz
x,y,z
-x,-y,z
-x,y,1/2+z
x,-y,1/2+z
1/2+x,1/2+y,z
1/2-x,1/2-y,z
1/2-x,1/2+y,1/2+z
1/2+x,1/2-y,1/2+z
loop_
_atom_site_type_symbol
_atom_site_label
_atom_site_fract_x
_atom_site_fract_y
_atom_site_fract_z
Si Si1 0.998374 0.422628 0.927680
Si Si2 0.203735 0.813070 0.499588
Si Si3 0.117910 0.858815 0.780930
Si Si4 0.302634 0.545453 0.189472
O O1 0.809154 0.403157 0.818606
O O2 0.121878 0.363641 0.967321
O O3 0.177676 0.459961 0.840434
O O4 0.875031 0.448476 0.063518
O O5 0.250000 0.750000 0.447742
O O6 0.189726 0.813422 0.667469
O O7 0.978494 0.832329 0.421937
O O8 0.925237 0.894678 0.704838
O O9 0.500000 0.500000 0.165718
#
# Coordination Sequence:
#
# PCOD9355619 Si02
#       4
#     8   8   8   8
#     4  11  24  50  73 110 151 194 255 315 373 459
#     4  11  26  43  75 109 151 202 248 314 380 443
#     4  11  24  48  69 111 150 191 260 308 365 466
#     4  11  26  50  79 108 149 203 253 316 386 453
#
# _framework density 23.713864999999998
#
# number of rings (size 3 to 8) (size 9 to 14) (size 15 to 20)
#    0.000    1.000    5.000    0.000    3.500    2.000 
#    4.500    1.250    0.000    0.000    0.000    0.000 
#    0.000    0.000    0.000    0.000    0.000    0.000 
#
# Total GULP energy -89500.894949 kJ/mol
# GULP energy per Si atom -5593.805934 kJ/mol
# Density = 2.365989 g / cm^3
# Si number density = 23.713865 Si / 1000 Ang^3
#
#
#
# Elastic Constant Matrix: (Units=GPa)
#
#
# Indices 1 2 3 4 5 6 
#
# 1 105.0321 42.7689 54.6620 0.0000 0.0000 0.0000
# 2 42.7689 115.2428 41.4810 0.0000 0.0000 0.0000
# 3 54.6620 41.4810 144.3690 0.0000 0.0000 0.0000
# 4 0.0000 0.0000 0.0000 22.7142 0.0000 0.0000
# 5 0.0000 0.0000 0.0000 0.0000 45.6747 0.0000
# 6 0.0000 0.0000 0.0000 0.0000 0.0000 7.8158
#
#
#
# Elastic Compliance Matrix: (Units=1/GPa)
#
#
# Indices 1 2 3 4 5 6 
#
# 1 0.012945 -0.003391 -0.003927 0.000000 0.000000 0.000000
# 2 -0.003391 0.010566 -0.001752 0.000000 0.000000 0.000000
# 3 -0.003927 -0.001752 0.008917 0.000000 0.000000 0.000000
# 4 0.000000 0.000000 0.000000 0.044025 0.000000 0.000000
# 5 0.000000 0.000000 0.000000 0.000000 0.021894 0.000000
# 6 0.000000 0.000000 0.000000 0.000000 0.000000 0.127945
#
#
# Mechanical properties :
#
#
# Convention : Reuss Voigt Hill
#
# Bulk Modulus (GPa) = 69.98569 71.38528 70.68548
# Shear Modulus (GPa) = 20.06447 30.28975 25.17711
#
# Velocity S-wave (km/s) = 2.91195 3.57781 3.26192
# Velocity P-wave (km/s) = 6.39395 6.87283 6.63771
#
# Compressibility (1/GPa) = 0.01428864
#
# Stress axis : x y z
#
# Youngs Moduli (GPa) = 77.24712 94.63973 112.14406
#
# Poissons Ratio (x) = 0.32090 0.44042
# Poissons Ratio (y) = 0.26192 0.19650
# Poissons Ratio (z) = 0.30337 0.16583
#
# Static dielectric constant tensor:
#      x y z
#    x 1.914170 0.000000 0.000000 
#    y 0.000000 1.932230 0.000000 
#    z 0.000000 0.000000 1.900750 
# 
# From -- ./inp_files/1707.got.cif
#   From: 2010.05.17/outbox.cif.g08.bks.cpg/sg37_1_cif.got.tgz:1707.got - 2010.06.03 17:53:42.
