data_PCOD9355294
_publ_section_title
;
Structure prediction by ZEFSAII (Michael W. Deem and Ramdas Pophale) SiO2 
 PCOD9355294
Probable space group: C C C 2
;
_chemical_formula_sum "Si O2"
_cell_formula_units_Z 40
_cell_length_a 30.718664
_cell_length_b 5.754274
_cell_length_c 9.157870
_cell_angle_alpha 90.000000
_cell_angle_beta 90.000000
_cell_angle_gamma 90.000000
_cell_volume 1618.778157
_symmetry_space_group_name_H-M "C C C 2"
_symmetry_group_IT_number 37
_symmetry_cell_setting 'orthorhombic'
loop_
_space_group_symop_operation_xyz
x,y,z
-x,-y,z
-x,y,1/2+z
x,-y,1/2+z
1/2+x,1/2+y,z
1/2-x,1/2-y,z
1/2-x,1/2+y,1/2+z
1/2+x,1/2-y,1/2+z
loop_
_atom_site_type_symbol
_atom_site_label
_atom_site_fract_x
_atom_site_fract_y
_atom_site_fract_z
Si Si1 0.793110 0.370555 0.762300
Si Si2 0.000000 0.000000 0.638061
Si Si3 0.657908 0.480659 0.081239
Si Si4 0.250000 0.750000 0.041807
Si Si5 0.630632 0.813406 0.839356
Si Si6 0.037731 0.687196 0.387703
O O1 0.750000 0.250000 0.840918
O O2 0.824012 0.183899 0.687126
O O3 0.768703 0.533431 0.644843
O O4 0.824970 0.538658 0.853507
O O5 0.970125 0.848343 0.746180
O O6 0.029583 0.840670 0.532442
O O7 0.700606 0.365666 0.015130
O O8 0.632874 0.292451 0.177458
O O9 0.631855 0.602064 0.953041
O O10 0.584881 0.932335 0.872613
O O11 0.000000 0.500000 0.387530
#
# Coordination Sequence:
#
# PCOD9355294 Si02
#       6
#     8   4   8   4   8   8
#     4  10  25  42  68 100 141 185 235 289 347 419
#     4  10  24  48  76 104 146 194 230 306 378 434
#     4  12  25  46  70 105 141 190 238 299 353 430
#     4  10  24  46  64  98 144 190 228 290 350 406
#     4  12  27  45  75 106 144 188 243 296 361 432
#     4  11  25  48  75 110 146 190 241 303 369 445
#
# _framework density 24.709993999999998
#
# number of rings (size 3 to 8) (size 9 to 14) (size 15 to 20)
#    0.600    0.400    2.000    3.000    5.600    8.000 
#    0.000    0.000    0.000    0.000    0.000    0.000 
#    0.000    0.000    0.000    0.000    0.000    0.000 
#
# Total GULP energy -111866.009469 kJ/mol
# GULP energy per Si atom -5593.300473 kJ/mol
# Density = 2.465375 g / cm^3
# Si number density = 24.709994 Si / 1000 Ang^3
#
#
#
# Elastic Constant Matrix: (Units=GPa)
#
#
# Indices 1 2 3 4 5 6 
#
# 1 110.0144 10.5144 21.6698 0.0000 0.0000 0.0000
# 2 10.5144 67.4368 22.3721 0.0000 0.0000 0.0000
# 3 21.6698 22.3721 121.0819 0.0000 0.0000 0.0000
# 4 0.0000 0.0000 0.0000 32.2780 0.0000 0.0000
# 5 0.0000 0.0000 0.0000 0.0000 -0.1372 0.0000
# 6 0.0000 0.0000 0.0000 0.0000 0.0000 37.3869
#
#
#
# Elastic Compliance Matrix: (Units=1/GPa)
#
#
# Indices 1 2 3 4 5 6 
#
# 1 0.009482 -0.000975 -0.001517 0.000000 0.000000 0.000000
# 2 -0.000975 0.015897 -0.002763 0.000000 0.000000 0.000000
# 3 -0.001517 -0.002763 0.009041 0.000000 0.000000 0.000000
# 4 0.000000 0.000000 0.000000 0.030981 0.000000 0.000000
# 5 0.000000 0.000000 0.000000 0.000000 -7.289602 0.000000
# 6 0.000000 0.000000 0.000000 0.000000 0.000000 0.026747
#
#
# Mechanical properties :
#
#
# Convention : Reuss Voigt Hill
#
# Bulk Modulus (GPa) = 41.82284 45.29397 43.55841
# Shear Modulus (GPa) = -0.69648 30.17066 14.73709
#
# Velocity S-wave (km/s) = -0.53148 3.49806 2.44478
# Velocity P-wave (km/s) = 4.07254 5.88942 5.06314
#
# Compressibility (1/GPa) = 0.02391038
#
# Stress axis : x y z
#
# Youngs Moduli (GPa) = 105.46664 62.90383 110.60969
#
# Poissons Ratio (x) = 0.06134 0.16777
# Poissons Ratio (y) = 0.10285 0.30559
# Poissons Ratio (z) = 0.15997 0.17379
#
# Static dielectric constant tensor:
#      x y z
#    x 1.937050 0.000000 0.000000 
#    y 0.000000 1.962480 0.000000 
#    z 0.000000 0.000000 2.010140 
# 
# From -- ./inp_files/9152.got.cif
#   From: 2010.05.17/outbox.cif.g08.bks.cpg/sg37_5_cif.got.tgz:9152.got - 2010.06.03 17:53:42.
