data_PCOD9355704
_publ_section_title
;
Structure prediction by ZEFSAII (Michael W. Deem and Ramdas Pophale) SiO2 
 PCOD9355704
Probable space group: C C C 2
;
_chemical_formula_sum "Si O2"
_cell_formula_units_Z 36
_cell_length_a 6.802447
_cell_length_b 24.115425
_cell_length_c 10.188998
_cell_angle_alpha 90.000000
_cell_angle_beta 90.000000
_cell_angle_gamma 90.000000
_cell_volume 1671.442974
_symmetry_space_group_name_H-M "C C C 2"
_symmetry_group_IT_number 37
_symmetry_cell_setting 'orthorhombic'
loop_
_space_group_symop_operation_xyz
x,y,z
-x,-y,z
-x,y,1/2+z
x,-y,1/2+z
1/2+x,1/2+y,z
1/2-x,1/2-y,z
1/2-x,1/2+y,1/2+z
1/2+x,1/2-y,1/2+z
loop_
_atom_site_type_symbol
_atom_site_label
_atom_site_fract_x
_atom_site_fract_y
_atom_site_fract_z
Si Si1 0.561362 0.639201 0.468370
Si Si2 0.500000 0.000000 0.497842
Si Si3 0.148887 0.041228 0.840140
Si Si4 0.289438 0.315106 0.197283
Si Si5 0.585139 0.109994 0.146047
O O1 0.475634 0.577653 0.442813
O O2 0.589940 0.666991 0.326593
O O3 0.412226 0.669297 0.567127
O O4 0.773840 0.637254 0.537572
O O5 0.308856 0.997909 0.407776
O O6 0.490283 0.944919 0.583676
O O7 0.269288 0.085701 0.756052
O O8 0.000000 0.000000 0.765127
O O9 0.250000 0.250000 0.200660
O O10 0.084996 0.349412 0.194635
#
# Coordination Sequence:
#
# PCOD9355704 Si02
#       5
#     8   4   8   8   8
#     4  12  27  52  74 113 153 196 259 325 380 472
#     4  12  24  42  72 108 158 200 252 310 386 468
#     4  12  26  43  72 113 157 205 246 313 394 467
#     4  12  31  52  81 109 152 208 265 328 390 453
#     4  12  27  45  75 113 154 197 261 315 388 461
#
# _framework density 21.538277000000001
#
# number of rings (size 3 to 8) (size 9 to 14) (size 15 to 20)
#    0.000    0.000    6.667    2.000    9.333    0.000 
#    0.000    0.000    0.000    0.000    0.000    0.000 
#    0.000    0.000    0.000    0.000    0.000    0.000 
#
# Total GULP energy -100749.300048 kJ/mol
# GULP energy per Si atom -5597.183336 kJ/mol
# Density = 2.148925 g / cm^3
# Si number density = 21.538277 Si / 1000 Ang^3
#
#
#
# Elastic Constant Matrix: (Units=GPa)
#
#
# Indices 1 2 3 4 5 6 
#
# 1 136.8459 73.8582 66.8428 0.0000 0.0000 0.0000
# 2 73.8582 134.7818 41.9294 0.0000 0.0000 0.0000
# 3 66.8428 41.9294 103.4564 0.0000 0.0000 0.0000
# 4 0.0000 0.0000 0.0000 18.2281 0.0000 0.0000
# 5 0.0000 0.0000 0.0000 0.0000 39.2373 0.0000
# 6 0.0000 0.0000 0.0000 0.0000 0.0000 36.4003
#
#
#
# Elastic Compliance Matrix: (Units=1/GPa)
#
#
# Indices 1 2 3 4 5 6 
#
# 1 0.013317 -0.005288 -0.006461 0.000000 0.000000 0.000000
# 2 -0.005288 0.010589 -0.000875 0.000000 0.000000 0.000000
# 3 -0.006461 -0.000875 0.014195 0.000000 0.000000 0.000000
# 4 0.000000 0.000000 0.000000 0.054860 0.000000 0.000000
# 5 0.000000 0.000000 0.000000 0.000000 0.025486 0.000000
# 6 0.000000 0.000000 0.000000 0.000000 0.000000 0.027472
#
#
# Mechanical properties :
#
#
# Convention : Reuss Voigt Hill
#
# Bulk Modulus (GPa) = 77.80075 82.26052 80.03063
# Shear Modulus (GPa) = 28.49759 31.60340 30.05050
#
# Velocity S-wave (km/s) = 3.64141 3.83471 3.73931
# Velocity P-wave (km/s) = 7.34032 7.60804 7.47538
#
# Compressibility (1/GPa) = 0.01285335
#
# Stress axis : x y z
#
# Youngs Moduli (GPa) = 75.08992 94.43532 70.44590
#
# Poissons Ratio (x) = 0.49934 0.45517
# Poissons Ratio (y) = 0.39705 0.06166
# Poissons Ratio (z) = 0.48518 0.08266
#
# Static dielectric constant tensor:
#      x y z
#    x 1.880090 0.000000 0.000000 
#    y 0.000000 1.762620 0.000000 
#    z 0.000000 0.000000 1.825510 
# 
# From -- ./inp_files/5441.got.cif
#   From: 2010.05.17/outbox.cif.g08.bks.cpg/sg37_3_cif.got.tgz:5441.got - 2010.06.03 17:53:42.
