data_PCOD9355348
_publ_section_title
;
Structure prediction by ZEFSAII (Michael W. Deem and Ramdas Pophale) SiO2 
 PCOD9355348
Probable space group: C C C 2
;
_chemical_formula_sum "Si O2"
_cell_formula_units_Z 44
_cell_length_a 16.986085
_cell_length_b 6.719813
_cell_length_c 14.883470
_cell_angle_alpha 90.000000
_cell_angle_beta 90.000000
_cell_angle_gamma 90.000000
_cell_volume 1698.848602
_symmetry_space_group_name_H-M "C C C 2"
_symmetry_group_IT_number 37
_symmetry_cell_setting 'orthorhombic'
loop_
_space_group_symop_operation_xyz
x,y,z
-x,-y,z
-x,y,1/2+z
x,-y,1/2+z
1/2+x,1/2+y,z
1/2-x,1/2-y,z
1/2-x,1/2+y,1/2+z
1/2+x,1/2-y,1/2+z
loop_
_atom_site_type_symbol
_atom_site_label
_atom_site_fract_x
_atom_site_fract_y
_atom_site_fract_z
Si Si1 0.386673 0.731292 0.665970
Si Si2 0.321084 0.389951 0.761722
Si Si3 0.678509 0.907338 0.561764
Si Si4 0.250000 0.750000 0.435258
Si Si5 0.487993 0.762923 0.017199
Si Si6 0.012985 0.266946 0.813998
O O1 0.301234 0.907011 0.492964
O O2 0.447784 0.677481 0.586450
O O3 0.438767 0.704699 0.755581
O O4 0.353438 0.950555 0.644114
O O5 0.250000 0.250000 0.731506
O O6 0.320434 0.572817 0.692388
O O7 0.406844 0.290102 0.764345
O O8 0.299503 0.395925 0.868238
O O9 0.750000 0.750000 0.557566
O O10 0.604599 0.762371 0.537718
O O11 0.500000 0.000000 0.023610
O O12 0.509309 0.701119 0.916665
O O13 0.000000 0.500000 0.817211
#
# Coordination Sequence:
#
# PCOD9355348 Si02
#       6
#     8   8   8   4   8   8
#     4  11  24  51  77 125 173 227 295 367 447 548
#     4  10  25  49  79 125 175 225 291 374 448 538
#     4  11  25  52  86 125 179 234 295 379 458 541
#     4  10  24  52  84 126 176 226 300 366 474 524
#     4   9  21  44  84 112 166 229 284 358 441 528
#     4  11  22  47  82 116 167 225 292 361 442 542
#
# _framework density 25.899895000000001
#
# number of rings (size 3 to 8) (size 9 to 14) (size 15 to 20)
#    0.545    1.091    0.000    5.455    2.545    0.000 
#   16.364    3.636    2.000    0.000    0.000    0.000 
#    0.000    0.000    0.000    0.000    0.000    0.000 
#
# Total GULP energy -122804.250482 kJ/mol
# GULP energy per Si atom -5582.011386 kJ/mol
# Density = 2.584095 g / cm^3
# Si number density = 25.899895 Si / 1000 Ang^3
#
#
#
# Elastic Constant Matrix: (Units=GPa)
#
#
# Indices 1 2 3 4 5 6 
#
# 1 172.7560 65.1781 31.4637 0.0000 0.0000 0.0000
# 2 65.1781 165.4463 51.1849 0.0000 0.0000 0.0000
# 3 31.4637 51.1849 140.1202 0.0000 0.0000 0.0000
# 4 0.0000 0.0000 0.0000 361.8206 0.0000 0.0000
# 5 0.0000 0.0000 0.0000 0.0000 63.7600 0.0000
# 6 0.0000 0.0000 0.0000 0.0000 0.0000 55.1897
#
#
#
# Elastic Compliance Matrix: (Units=1/GPa)
#
#
# Indices 1 2 3 4 5 6 
#
# 1 0.006847 -0.002505 -0.000622 0.000000 0.000000 0.000000
# 2 -0.002505 0.007731 -0.002262 0.000000 0.000000 0.000000
# 3 -0.000622 -0.002262 0.008103 0.000000 0.000000 0.000000
# 4 0.000000 0.000000 0.000000 0.002764 0.000000 0.000000
# 5 0.000000 0.000000 0.000000 0.000000 0.015684 0.000000
# 6 0.000000 0.000000 0.000000 0.000000 0.000000 0.018119
#
#
# Mechanical properties :
#
#
# Convention : Reuss Voigt Hill
#
# Bulk Modulus (GPa) = 84.01492 85.99731 85.00612
# Shear Modulus (GPa) = 67.57467 118.18712 92.88090
#
# Velocity S-wave (km/s) = 5.11345 6.76250 5.99494
# Velocity P-wave (km/s) = 8.20804 9.70829 8.98952
#
# Compressibility (1/GPa) = 0.01190265
#
# Stress axis : x y z
#
# Youngs Moduli (GPa) = 146.05160 129.35472 123.41681
#
# Poissons Ratio (x) = 0.32400 0.07682
# Poissons Ratio (y) = 0.36583 0.27911
# Poissons Ratio (z) = 0.09091 0.29254
#
# Static dielectric constant tensor:
#      x y z
#    x 1.024700 0.000000 0.000000 
#    y 0.000000 2.037670 0.000000 
#    z 0.000000 0.000000 2.107540 
# 
# From -- ./inp_files/11455.got.cif
#   From: 2010.05.17/outbox.cif.g08.bks.cpg/sg37_6_cif.got.tgz:11455.got - 2010.06.03 17:53:42.
