data_PCOD9355860
_publ_section_title
;
Structure prediction by ZEFSAII (Michael W. Deem and Ramdas Pophale) SiO2 
 PCOD9355860
Probable space group: A M M 2
;
_chemical_formula_sum "Si O2"
_cell_formula_units_Z 64
_cell_length_a 7.422720
_cell_length_b 28.401542
_cell_length_c 15.412142
_cell_angle_alpha 90.000000
_cell_angle_beta 90.000000
_cell_angle_gamma 90.000000
_cell_volume 3249.136821
_symmetry_space_group_name_H-M "A M M 2"
_symmetry_group_IT_number 38
_symmetry_cell_setting 'orthorhombic'
loop_
_space_group_symop_operation_xyz
x,y,z
-x,-y,z
-x,y,z
x,-y,z
x,1/2+y,1/2+z
-x,1/2-y,1/2+z
-x,1/2+y,1/2+z
x,1/2-y,1/2+z
loop_
_atom_site_type_symbol
_atom_site_label
_atom_site_fract_x
_atom_site_fract_y
_atom_site_fract_z
Si Si1 0.281148 0.279470 0.608800
Si Si2 0.286971 0.553179 0.608983
Si Si3 0.719531 0.827462 0.806282
Si Si4 0.785969 0.446759 0.804812
Si Si5 0.279206 0.635956 0.486497
Si Si6 0.713377 0.862357 0.432058
Si Si7 0.280400 0.828861 0.611850
Si Si8 0.719726 0.719006 0.805244
O O1 0.500000 0.279637 0.607401
O O2 0.222033 0.317329 0.538662
O O3 0.228043 0.225435 0.593238
O O4 0.226108 0.292796 0.706630
O O5 0.500000 0.549831 0.592958
O O6 0.212035 0.500000 0.604073
O O7 0.267634 0.570066 0.708451
O O8 0.215909 0.590546 0.539901
O O9 0.500000 0.827804 0.805610
O O10 0.777495 0.859276 0.886775
O O11 0.779911 0.840965 0.709372
O O12 0.772369 0.772988 0.822767
O O13 0.713734 0.500000 0.816469
O O14 0.735824 0.410449 0.879564
O O15 0.000000 0.449561 0.804601
O O16 0.500000 0.635544 0.487622
O O17 0.500000 0.854051 0.438552
O O18 0.781474 0.859964 0.530693
O O19 0.785463 0.819292 0.373704
O O20 0.500000 0.829927 0.615320
O O21 0.500000 0.718374 0.806682
#
# Coordination Sequence:
#
# PCOD9355860 Si02
#       8
#     8   8   8   8   8   8   8   8
#     4   8  12  18  29  51  84 115 141 170 206 247
#     4   9  17  29  45  66  89 110 136 174 217 255
#     4   8  13  21  33  56  92 124 146 172 207 244
#     4  10  21  35  48  63  84 109 136 168 211 263
#     4   9  14  20  35  58  85 116 145 173 208 249
#     4  10  17  26  44  67  88 111 142 178 213 247
#     4   8  14  22  33  55  88 118 141 171 209 245
#     4   8  13  20  33  58  90 117 141 173 209 244
#
# _framework density 19.697538000000002
#
# number of rings (size 3 to 8) (size 9 to 14) (size 15 to 20)
#    0.000    3.250    0.000    3.375    0.000    5.750 
#    0.000    0.000    0.000    0.750    0.000   18.375 
#    0.000    2.000    0.000    0.000    0.000    0.000 
#
# Total GULP energy -178474.660650 kJ/mol
# GULP energy per Si atom -5577.333145 kJ/mol
# Density = 1.965271 g / cm^3
# Si number density = 19.697538 Si / 1000 Ang^3
#
#
#
# Elastic Constant Matrix: (Units=GPa)
#
#
# Indices 1 2 3 4 5 6 
#
# 1 59.8552 -1.5807 4.4799 0.0000 0.0000 0.0000
# 2 -1.5807 84.4030 106.5512 0.0000 0.0000 0.0000
# 3 4.4799 106.5512 193.8392 0.0000 0.0000 0.0000
# 4 0.0000 0.0000 0.0000 33.6786 0.0000 0.0000
# 5 0.0000 0.0000 0.0000 0.0000 -29.0328 0.0000
# 6 0.0000 0.0000 0.0000 0.0000 0.0000 134.1920
#
#
#
# Elastic Compliance Matrix: (Units=1/GPa)
#
#
# Indices 1 2 3 4 5 6 
#
# 1 0.016915 0.002647 -0.001846 0.000000 0.000000 0.000000
# 2 0.002647 0.039125 -0.021568 0.000000 0.000000 0.000000
# 3 -0.001846 -0.021568 0.017057 0.000000 0.000000 0.000000
# 4 0.000000 0.000000 0.000000 0.029692 0.000000 0.000000
# 5 0.000000 0.000000 0.000000 0.000000 -0.034444 0.000000
# 6 0.000000 0.000000 0.000000 0.000000 0.000000 0.007452
#
#
# Mechanical properties :
#
#
# Convention : Reuss Voigt Hill
#
# Bulk Modulus (GPa) = 31.68156 61.88872 46.78514
# Shear Modulus (GPa) = 39.10798 43.01070 41.05934
#
# Velocity S-wave (km/s) = 4.46064 4.67792 4.57058
# Velocity P-wave (km/s) = 6.53060 7.78878 7.18727
#
# Compressibility (1/GPa) = 0.03156410
#
# Stress axis : x y z
#
# Youngs Moduli (GPa) = 59.11888 25.55939 58.62694
#
# Poissons Ratio (x) = -0.06767 0.10824
# Poissons Ratio (y) = -0.15652 1.26444
# Poissons Ratio (z) = 0.10915 0.55125
#
# Static dielectric constant tensor:
#      x y z
#    x 1.756570 0.000000 0.000000 
#    y 0.000000 1.667080 0.000000 
#    z 0.000000 0.000000 1.707610 
# 
# From -- ./inp_files/13113.got.cif
#   From: 2010.05.17/outbox.cif.g08.bks.cpg/sg38_7_cif.got.tgz:13113.got - 2010.06.03 18:07:57.
