data_PCOD9355674
_publ_section_title
;
Structure prediction by ZEFSAII (Michael W. Deem and Ramdas Pophale) SiO2 
 PCOD9355674
Probable space group: C C C 2
;
_chemical_formula_sum "Si O2"
_cell_formula_units_Z 28
_cell_length_a 7.072193
_cell_length_b 16.829025
_cell_length_c 9.642592
_cell_angle_alpha 90.000000
_cell_angle_beta 90.000000
_cell_angle_gamma 90.000000
_cell_volume 1147.643102
_symmetry_space_group_name_H-M "C C C 2"
_symmetry_group_IT_number 37
_symmetry_cell_setting 'orthorhombic'
loop_
_space_group_symop_operation_xyz
x,y,z
-x,-y,z
-x,y,1/2+z
x,-y,1/2+z
1/2+x,1/2+y,z
1/2-x,1/2-y,z
1/2-x,1/2+y,1/2+z
1/2+x,1/2-y,1/2+z
loop_
_atom_site_type_symbol
_atom_site_label
_atom_site_fract_x
_atom_site_fract_y
_atom_site_fract_z
Si Si1 0.718183 0.065193 0.125000
Si Si2 0.952525 0.366471 0.404024
Si Si3 0.750000 0.250000 0.835083
Si Si4 0.357608 0.386677 0.122636
O O1 0.601111 0.104965 0.250141
O O2 0.918683 0.107793 0.102244
O O3 0.776589 0.974665 0.158068
O O4 0.593952 0.075102 0.987097
O O5 0.756792 0.362714 0.486174
O O6 0.066887 0.283825 0.412442
O O7 0.687876 0.323880 0.740888
#
# Coordination Sequence:
#
# PCOD9355674 Si02
#       4
#     8   8   4   8
#     4  11  29  52  86 118 162 219 278 324 410 501
#     4  12  28  51  85 117 168 209 273 334 412 485
#     4  12  30  48  76 120 164 212 260 344 410 466
#     4  11  29  51  81 120 162 215 273 336 402 492
#
# _framework density 24.397829999999999
#
# number of rings (size 3 to 8) (size 9 to 14) (size 15 to 20)
#    0.000    0.571    2.857    0.857   16.000    3.429 
#    0.000    0.000    0.000    0.000    0.000    0.000 
#    0.000    0.000    0.000    0.000    0.000    0.000 
#
# Total GULP energy -78509.352361 kJ/mol
# GULP energy per Si atom -5607.810883 kJ/mol
# Density = 2.434230 g / cm^3
# Si number density = 24.397830 Si / 1000 Ang^3
#
#
#
# Elastic Constant Matrix: (Units=GPa)
#
#
# Indices 1 2 3 4 5 6 
#
# 1 227.7289 67.1383 66.9807 0.0000 0.0000 0.0000
# 2 67.1383 138.2413 33.0257 0.0000 0.0000 0.0000
# 3 66.9807 33.0257 90.4816 0.0000 0.0000 0.0000
# 4 0.0000 0.0000 0.0000 24.0781 0.0000 0.0000
# 5 0.0000 0.0000 0.0000 0.0000 -24.4927 0.0000
# 6 0.0000 0.0000 0.0000 0.0000 0.0000 53.8847
#
#
#
# Elastic Compliance Matrix: (Units=1/GPa)
#
#
# Indices 1 2 3 4 5 6 
#
# 1 0.006109 -0.002067 -0.003768 0.000000 0.000000 0.000000
# 2 -0.002067 0.008624 -0.001618 0.000000 0.000000 0.000000
# 3 -0.003768 -0.001618 0.014432 0.000000 0.000000 0.000000
# 4 0.000000 0.000000 0.000000 0.041531 0.000000 0.000000
# 5 0.000000 0.000000 0.000000 0.000000 -0.040828 0.000000
# 6 0.000000 0.000000 0.000000 0.000000 0.000000 0.018558
#
#
# Mechanical properties :
#
#
# Convention : Reuss Voigt Hill
#
# Bulk Modulus (GPa) = 70.12744 87.86012 78.99378
# Shear Modulus (GPa) = 73.43987 29.98118 51.71053
#
# Velocity S-wave (km/s) = 5.49239 3.50929 4.60877
# Velocity P-wave (km/s) = 8.30828 7.24637 7.79542
#
# Compressibility (1/GPa) = 0.01425975
#
# Stress axis : x y z
#
# Youngs Moduli (GPa) = 163.70266 115.95669 69.29234
#
# Poissons Ratio (x) = 0.23964 0.26107
# Poissons Ratio (y) = 0.33831 0.11211
# Poissons Ratio (z) = 0.61679 0.18760
#
# Static dielectric constant tensor:
#      x y z
#    x 1.940680 0.000000 0.000000 
#    y 0.000000 2.018720 0.000000 
#    z 0.000000 0.000000 1.914420 
# 
# From -- ./inp_files/2028.got.cif
#   From: 2010.05.17/outbox.cif.g08.bks.cpg/sg37_2_cif.got.tgz:2028.got - 2010.06.03 17:53:42.
