data_PCOD9355706
_publ_section_title
;
Structure prediction by ZEFSAII (Michael W. Deem and Ramdas Pophale) SiO2 
 PCOD9355706
Probable space group: C C C 2
;
_chemical_formula_sum "Si O2"
_cell_formula_units_Z 48
_cell_length_a 14.251273
_cell_length_b 5.913385
_cell_length_c 24.896625
_cell_angle_alpha 90.000000
_cell_angle_beta 90.000000
_cell_angle_gamma 90.000000
_cell_volume 2098.119851
_symmetry_space_group_name_H-M "C C C 2"
_symmetry_group_IT_number 37
_symmetry_cell_setting 'orthorhombic'
loop_
_space_group_symop_operation_xyz
x,y,z
-x,-y,z
-x,y,1/2+z
x,-y,1/2+z
1/2+x,1/2+y,z
1/2-x,1/2-y,z
1/2-x,1/2+y,1/2+z
1/2+x,1/2-y,1/2+z
loop_
_atom_site_type_symbol
_atom_site_label
_atom_site_fract_x
_atom_site_fract_y
_atom_site_fract_z
Si Si1 0.404513 0.121789 0.142490
Si Si2 0.000000 0.000000 0.570355
Si Si3 0.895264 0.567838 0.323342
Si Si4 0.894129 0.088288 0.737581
Si Si5 0.250000 0.750000 0.261795
Si Si6 0.894708 0.603473 0.538440
Si Si7 0.298986 0.999583 0.929201
O O1 0.440246 0.337355 0.108660
O O2 0.363722 0.211831 0.197512
O O3 0.500000 0.000000 0.159481
O O4 0.356298 0.965003 0.097510
O O5 0.921812 0.866670 0.536329
O O6 0.882951 0.818121 0.298368
O O7 0.813981 0.414168 0.297783
O O8 0.883246 0.524794 0.386376
O O9 0.000000 0.500000 0.305791
O O10 0.824091 0.886110 0.727235
O O11 0.000000 0.000000 0.729615
O O12 0.833260 0.512521 0.490513
O O13 0.000000 0.500000 0.534960
O O14 0.250000 0.750000 0.920258
O O15 0.250000 0.250000 0.921218
#
# Coordination Sequence:
#
# PCOD9355706 Si02
#       7
#     8   4   8   8   4   8   8
#     4   9  19  37  68 101 142 191 249 302 375 462
#     4   8  16  36  66  96 138 180 248 300 362 466
#     4  12  26  50  76 106 146 200 251 320 397 462
#     4  12  24  43  75 110 151 203 248 321 393 459
#     4  12  26  46  70 112 152 184 266 308 382 474
#     4   9  21  41  71 102 138 193 252 306 379 459
#     4  12  28  48  74 107 154 196 256 331 386 467
#
# _framework density 22.877625999999999
#
# number of rings (size 3 to 8) (size 9 to 14) (size 15 to 20)
#    0.000    1.667    3.333    2.500    4.667    0.000 
#    1.500    3.333    1.833    0.000    0.000    0.000 
#    0.000    0.000    0.000    0.000    0.000    0.000 
#
# Total GULP energy -133853.454218 kJ/mol
# GULP energy per Si atom -5577.227259 kJ/mol
# Density = 2.282556 g / cm^3
# Si number density = 22.877626 Si / 1000 Ang^3
#
#
#
# Elastic Constant Matrix: (Units=GPa)
#
#
# Indices 1 2 3 4 5 6 
#
# 1 103.5055 38.4121 20.1386 0.0000 0.0000 0.0000
# 2 38.4121 105.4093 20.5379 0.0000 0.0000 0.0000
# 3 20.1386 20.5379 99.0792 0.0000 0.0000 0.0000
# 4 0.0000 0.0000 0.0000 1.7140 0.0000 0.0000
# 5 0.0000 0.0000 0.0000 0.0000 -20.2068 0.0000
# 6 0.0000 0.0000 0.0000 0.0000 0.0000 29.5690
#
#
#
# Elastic Compliance Matrix: (Units=1/GPa)
#
#
# Indices 1 2 3 4 5 6 
#
# 1 0.011386 -0.003854 -0.001515 0.000000 0.000000 0.000000
# 2 -0.003854 0.011191 -0.001536 0.000000 0.000000 0.000000
# 3 -0.001515 -0.001536 0.010719 0.000000 0.000000 0.000000
# 4 0.000000 0.000000 0.000000 0.583443 0.000000 0.000000
# 5 0.000000 0.000000 0.000000 0.000000 -0.049488 0.000000
# 6 0.000000 0.000000 0.000000 0.000000 0.000000 0.033819
#
#
# Mechanical properties :
#
#
# Convention : Reuss Voigt Hill
#
# Bulk Modulus (GPa) = 51.32205 51.79680 51.55942
# Shear Modulus (GPa) = 8.04665 17.47560 12.76112
#
# Velocity S-wave (km/s) = 1.87747 2.76682 2.36434
# Velocity P-wave (km/s) = 5.21362 5.73559 5.48083
#
# Compressibility (1/GPa) = 0.01948480
#
# Stress axis : x y z
#
# Youngs Moduli (GPa) = 87.82353 89.36057 93.28860
#
# Poissons Ratio (x) = 0.34440 0.14138
# Poissons Ratio (y) = 0.33848 0.14332
# Poissons Ratio (z) = 0.13310 0.13729
#
# Static dielectric constant tensor:
#      x y z
#    x 1.839570 0.000000 0.000000 
#    y 0.000000 2.040920 0.000000 
#    z 0.000000 0.000000 1.862710 
# 
# From -- ./inp_files/19883.got.cif
#   From: 2010.05.17/outbox.cif.g08.bks.cpg/sg37_10_cif.got.tgz:19883.got - 2010.06.03 17:53:42.
