data_PCOD9355727
_publ_section_title
;
Structure prediction by ZEFSAII (Michael W. Deem and Ramdas Pophale) SiO2 
 PCOD9355727
Probable space group: C C C 2
;
_chemical_formula_sum "Si O2"
_cell_formula_units_Z 32
_cell_length_a 5.162445
_cell_length_b 8.407748
_cell_length_c 30.504357
_cell_angle_alpha 90.000000
_cell_angle_beta 90.000000
_cell_angle_gamma 90.000000
_cell_volume 1324.027481
_symmetry_space_group_name_H-M "C C C 2"
_symmetry_group_IT_number 37
_symmetry_cell_setting 'orthorhombic'
loop_
_space_group_symop_operation_xyz
x,y,z
-x,-y,z
-x,y,1/2+z
x,-y,1/2+z
1/2+x,1/2+y,z
1/2-x,1/2-y,z
1/2-x,1/2+y,1/2+z
1/2+x,1/2-y,1/2+z
loop_
_atom_site_type_symbol
_atom_site_label
_atom_site_fract_x
_atom_site_fract_y
_atom_site_fract_z
Si Si1 0.000000 0.500000 0.064740
Si Si2 0.750000 0.750000 0.252161
Si Si3 0.500000 0.500000 0.124078
Si Si4 0.500000 0.500000 0.938328
Si Si5 0.250000 0.750000 0.003468
Si Si6 0.000000 0.500000 0.308505
Si Si7 0.750000 0.250000 0.190589
Si Si8 0.750000 0.250000 0.372385
O O1 0.256187 0.458746 0.092988
O O2 0.056926 0.655266 0.035350
O O3 0.773049 0.585818 0.280174
O O4 0.495603 0.771498 0.222362
O O5 0.640285 0.380005 0.157192
O O6 0.364683 0.379022 0.905357
O O7 0.342677 0.611641 0.971140
O O8 0.920938 0.354430 0.339576
#
# Coordination Sequence:
#
# PCOD9355727 Si02
#       8
#     4   4   4   4   4   4   4   4
#     4  12  28  50  78 114 154 202 256 316 382 454
#     4  12  26  47  76 113 153 202 255 315 380 453
#     4  12  27  48  77 112 152 200 254 316 381 454
#     4  12  25  46  73 108 150 196 250 308 375 450
#     4  12  27  47  76 111 152 200 252 313 378 451
#     4  12  26  46  76 110 152 198 252 312 378 450
#     4  12  26  48  76 110 151 200 253 314 380 452
#     4  12  25  46  74 110 150 198 250 310 376 450
#
# _framework density 24.168680999999999
#
# number of rings (size 3 to 8) (size 9 to 14) (size 15 to 20)
#    0.000    0.000    0.000    9.750    0.000    9.000 
#    0.000    0.000    0.000    0.000    0.000    0.000 
#    0.000    0.000    0.000    0.000    0.000    0.000 
#
# Total GULP energy -89465.089670 kJ/mol
# GULP energy per Si atom -5591.568104 kJ/mol
# Density = 2.411367 g / cm^3
# Si number density = 24.168681 Si / 1000 Ang^3
#
#
#
# Elastic Constant Matrix: (Units=GPa)
#
#
# Indices 1 2 3 4 5 6 
#
# 1 186.7085 92.2229 114.2100 0.0000 0.0000 0.0000
# 2 92.2229 199.4721 97.9741 0.0000 0.0000 0.0000
# 3 114.2100 97.9741 184.2426 0.0000 0.0000 0.0000
# 4 0.0000 0.0000 0.0000 87.3577 0.0000 0.0000
# 5 0.0000 0.0000 0.0000 0.0000 18.1994 0.0000
# 6 0.0000 0.0000 0.0000 0.0000 0.0000 66.0125
#
#
#
# Elastic Compliance Matrix: (Units=1/GPa)
#
#
# Indices 1 2 3 4 5 6 
#
# 1 0.009159 -0.001957 -0.004637 0.000000 0.000000 0.000000
# 2 -0.001957 0.007204 -0.002618 0.000000 0.000000 0.000000
# 3 -0.004637 -0.002618 0.009694 0.000000 0.000000 0.000000
# 4 0.000000 0.000000 0.000000 0.011447 0.000000 0.000000
# 5 0.000000 0.000000 0.000000 0.000000 0.054947 0.000000
# 6 0.000000 0.000000 0.000000 0.000000 0.000000 0.015149
#
#
# Mechanical properties :
#
#
# Convention : Reuss Voigt Hill
#
# Bulk Modulus (GPa) = 130.99846 131.02635 131.01241
# Shear Modulus (GPa) = 38.89031 52.04834 45.46932
#
# Velocity S-wave (km/s) = 4.01574 4.64566 4.34214
# Velocity P-wave (km/s) = 8.70752 9.11632 8.91426
#
# Compressibility (1/GPa) = 0.00763368
#
# Stress axis : x y z
#
# Youngs Moduli (GPa) = 109.18238 138.81781 103.15781
#
# Poissons Ratio (x) = 0.27167 0.47833
# Poissons Ratio (y) = 0.21367 0.27002
# Poissons Ratio (z) = 0.50626 0.36336
#
# Static dielectric constant tensor:
#      x y z
#    x 1.929720 0.000000 0.000000 
#    y 0.000000 1.894400 0.000000 
#    z 0.000000 0.000000 1.972520 
# 
# From -- ./inp_files/19151.got.cif
#   From: 2010.05.17/outbox.cif.g08.bks.cpg/sg37_10_cif.got.tgz:19151.got - 2010.06.03 17:53:42.
