data_PCOD9355577
_publ_section_title
;
Structure prediction by ZEFSAII (Michael W. Deem and Ramdas Pophale) SiO2 
 PCOD9355577
Probable space group: C C C 2
;
_chemical_formula_sum "Si O2"
_cell_formula_units_Z 32
_cell_length_a 12.968048
_cell_length_b 5.566719
_cell_length_c 18.308837
_cell_angle_alpha 90.000000
_cell_angle_beta 90.000000
_cell_angle_gamma 90.000000
_cell_volume 1321.705408
_symmetry_space_group_name_H-M "C C C 2"
_symmetry_group_IT_number 37
_symmetry_cell_setting 'orthorhombic'
loop_
_space_group_symop_operation_xyz
x,y,z
-x,-y,z
-x,y,1/2+z
x,-y,1/2+z
1/2+x,1/2+y,z
1/2-x,1/2-y,z
1/2-x,1/2+y,1/2+z
1/2+x,1/2-y,1/2+z
loop_
_atom_site_type_symbol
_atom_site_label
_atom_site_fract_x
_atom_site_fract_y
_atom_site_fract_z
Si Si1 0.250000 0.250000 0.518060
Si Si2 0.059049 0.757049 0.349504
Si Si3 0.621300 0.477659 0.630600
Si Si4 0.392896 0.137459 0.000969
Si Si5 0.750000 0.750000 0.745215
O O1 0.344302 0.327142 0.570118
O O2 0.200731 0.468232 0.475646
O O3 0.090846 0.815636 0.433234
O O4 0.154015 0.696549 0.296922
O O5 0.000000 0.500000 0.351898
O O6 0.000000 0.000000 0.323973
O O7 0.500000 0.500000 0.650494
O O8 0.632091 0.240431 0.581081
O O9 0.702399 0.536361 0.694556
O O10 0.500000 0.000000 0.007737
#
# Coordination Sequence:
#
# PCOD9355577 Si02
#       5
#     4   8   8   8   4
#     4  11  24  42  72 114 143 200 248 325 390 462
#     4  11  28  54  80 113 159 210 265 327 394 472
#     4  11  23  48  71 110 153 196 257 323 390 457
#     4  11  24  45  81 112 153 200 266 333 387 463
#     4  11  28  52  78 110 161 212 258 321 402 486
#
# _framework density 24.211141999999999
#
# number of rings (size 3 to 8) (size 9 to 14) (size 15 to 20)
#    0.000    1.000    2.500    2.250    7.000    1.000 
#   31.500    0.000    0.000    0.000    0.000    0.000 
#    0.000    0.000    0.000    0.000    0.000    0.000 
#
# Total GULP energy -89281.940222 kJ/mol
# GULP energy per Si atom -5580.121264 kJ/mol
# Density = 2.415604 g / cm^3
# Si number density = 24.211142 Si / 1000 Ang^3
#
#
#
# Elastic Constant Matrix: (Units=GPa)
#
#
# Indices 1 2 3 4 5 6 
#
# 1 193.5675 75.9194 74.6356 0.0000 0.0000 0.0000
# 2 75.9194 108.5198 35.9234 0.0000 0.0000 0.0000
# 3 74.6356 35.9234 129.2558 0.0000 0.0000 0.0000
# 4 0.0000 0.0000 0.0000 85.2179 0.0000 0.0000
# 5 0.0000 0.0000 0.0000 0.0000 30.1233 0.0000
# 6 0.0000 0.0000 0.0000 0.0000 0.0000 53.4545
#
#
#
# Elastic Compliance Matrix: (Units=1/GPa)
#
#
# Indices 1 2 3 4 5 6 
#
# 1 0.008363 -0.004683 -0.003527 0.000000 0.000000 0.000000
# 2 -0.004683 0.012771 -0.000845 0.000000 0.000000 0.000000
# 3 -0.003527 -0.000845 0.010008 0.000000 0.000000 0.000000
# 4 0.000000 0.000000 0.000000 0.011735 0.000000 0.000000
# 5 0.000000 0.000000 0.000000 0.000000 0.033197 0.000000
# 6 0.000000 0.000000 0.000000 0.000000 0.000000 0.018707
#
#
# Mechanical properties :
#
#
# Convention : Reuss Voigt Hill
#
# Bulk Modulus (GPa) = 76.74136 89.36663 83.05399
# Shear Modulus (GPa) = 42.64888 50.08345 46.36617
#
# Velocity S-wave (km/s) = 4.20162 4.55313 4.38091
# Velocity P-wave (km/s) = 7.43665 8.03946 7.74392
#
# Compressibility (1/GPa) = 0.01303078
#
# Stress axis : x y z
#
# Youngs Moduli (GPa) = 119.57441 78.30318 99.91622
#
# Poissons Ratio (x) = 0.36669 0.35245
# Poissons Ratio (y) = 0.55996 0.08446
# Poissons Ratio (z) = 0.42180 0.06619
#
# Static dielectric constant tensor:
#      x y z
#    x 1.937550 0.000000 0.000000 
#    y 0.000000 2.092130 0.000000 
#    z 0.000000 0.000000 1.906130 
# 
# From -- ./inp_files/13629.got.cif
#   From: 2010.05.17/outbox.cif.g08.bks.cpg/sg37_7_cif.got.tgz:13629.got - 2010.06.03 17:53:42.
