data_PCOD9355119
_publ_section_title
;
Structure prediction by ZEFSAII (Michael W. Deem and Ramdas Pophale) SiO2 
 PCOD9355119
Probable space group: C C C 2
;
_chemical_formula_sum "Si O2"
_cell_formula_units_Z 56
_cell_length_a 11.602023
_cell_length_b 12.076437
_cell_length_c 19.402684
_cell_angle_alpha 90.000000
_cell_angle_beta 90.000000
_cell_angle_gamma 90.000000
_cell_volume 2718.531395
_symmetry_space_group_name_H-M "C C C 2"
_symmetry_group_IT_number 37
_symmetry_cell_setting 'orthorhombic'
loop_
_space_group_symop_operation_xyz
x,y,z
-x,-y,z
-x,y,1/2+z
x,-y,1/2+z
1/2+x,1/2+y,z
1/2-x,1/2-y,z
1/2-x,1/2+y,1/2+z
1/2+x,1/2-y,1/2+z
loop_
_atom_site_type_symbol
_atom_site_label
_atom_site_fract_x
_atom_site_fract_y
_atom_site_fract_z
Si Si1 0.655572 0.830521 0.431910
Si Si2 0.617525 0.784130 0.167479
Si Si3 0.000000 0.500000 0.730422
Si Si4 0.161371 0.675846 0.305868
Si Si5 0.238527 0.927637 0.443357
Si Si6 0.500000 0.500000 0.904612
Si Si7 0.549451 0.873935 0.031579
Si Si8 0.563256 0.303329 0.813051
O O1 0.750000 0.750000 0.465208
O O2 0.534544 0.831659 0.471352
O O3 0.636568 0.788231 0.354203
O O4 0.707793 0.950816 0.435004
O O5 0.750000 0.750000 0.154988
O O6 0.548862 0.789252 0.095528
O O7 0.583397 0.704759 0.231596
O O8 0.583003 0.909195 0.193151
O O9 0.090538 0.424016 0.772041
O O10 0.250000 0.750000 0.261082
O O11 0.226492 0.632926 0.373013
O O12 0.065225 0.763547 0.325630
O O13 0.318518 0.879634 0.504545
O O14 0.100094 0.939105 0.448612
O O15 0.570729 0.418187 0.853609
O O16 0.500000 0.000000 0.047565
#
# Coordination Sequence:
#
# PCOD9355119 Si02
#       8
#     8   8   4   8   8   4   8   8
#     4  11  21  39  69  94 125 166 216 281 337 393
#     4  11  24  42  69  91 127 185 224 276 341 416
#     4  10  24  42  62  94 138 164 232 274 328 414
#     4  11  21  37  63  96 126 171 207 270 333 387
#     4  11  22  38  64  97 130 167 217 274 340 397
#     4  12  24  36  62 104 142 160 216 304 334 414
#     4  10  23  43  66  93 129 174 230 275 335 419
#     4  11  23  39  63  99 130 166 221 276 343 400
#
# _framework density 20.599357000000001
#
# number of rings (size 3 to 8) (size 9 to 14) (size 15 to 20)
#    0.000    1.143    5.000    2.143    3.000    1.714 
#    0.000    2.857    6.286    0.000    0.000    0.000 
#    0.000    0.000    0.000    0.000    0.000    0.000 
#
# Total GULP energy -155940.120174 kJ/mol
# GULP energy per Si atom -5569.290006 kJ/mol
# Density = 2.055247 g / cm^3
# Si number density = 20.599357 Si / 1000 Ang^3
#
#
#
# Elastic Constant Matrix: (Units=GPa)
#
#
# Indices 1 2 3 4 5 6 
#
# 1 125.0966 11.4151 38.2304 0.0000 0.0000 0.0000
# 2 11.4151 59.8729 13.9698 0.0000 0.0000 0.0000
# 3 38.2304 13.9698 82.6053 0.0000 0.0000 0.0000
# 4 0.0000 0.0000 0.0000 11.3995 0.0000 0.0000
# 5 0.0000 0.0000 0.0000 0.0000 1.8882 0.0000
# 6 0.0000 0.0000 0.0000 0.0000 0.0000 40.5288
#
#
#
# Elastic Compliance Matrix: (Units=1/GPa)
#
#
# Indices 1 2 3 4 5 6 
#
# 1 0.009348 -0.000805 -0.004190 0.000000 0.000000 0.000000
# 2 -0.000805 0.017457 -0.002580 0.000000 0.000000 0.000000
# 3 -0.004190 -0.002580 0.014481 0.000000 0.000000 0.000000
# 4 0.000000 0.000000 0.000000 0.087723 0.000000 0.000000
# 5 0.000000 0.000000 0.000000 0.000000 0.529601 0.000000
# 6 0.000000 0.000000 0.000000 0.000000 0.000000 0.024674
#
#
# Mechanical properties :
#
#
# Convention : Reuss Voigt Hill
#
# Bulk Modulus (GPa) = 38.25970 43.86727 41.06349
# Shear Modulus (GPa) = 7.07067 24.36059 15.71563
#
# Velocity S-wave (km/s) = 1.85470 3.44261 2.76509
# Velocity P-wave (km/s) = 4.81665 6.09457 5.49290
#
# Compressibility (1/GPa) = 0.02613716
#
# Stress axis : x y z
#
# Youngs Moduli (GPa) = 106.97720 57.28231 69.05446
#
# Poissons Ratio (x) = 0.04609 0.28935
# Poissons Ratio (y) = 0.08607 0.17816
# Poissons Ratio (z) = 0.44825 0.14779
#
# Static dielectric constant tensor:
#      x y z
#    x 1.848260 0.000000 0.000000 
#    y 0.000000 1.780660 0.000000 
#    z 0.000000 0.000000 1.755610 
# 
# From -- ./inp_files/16887.got.cif
#   From: 2010.05.17/outbox.cif.g08.bks.cpg/sg37_9_cif.got.tgz:16887.got - 2010.06.03 17:53:42.
