data_PCOD9355209
_publ_section_title
;
Structure prediction by ZEFSAII (Michael W. Deem and Ramdas Pophale) SiO2 
 PCOD9355209
Probable space group: C C C 2
;
_chemical_formula_sum "Si O2"
_cell_formula_units_Z 44
_cell_length_a 16.706096
_cell_length_b 12.751770
_cell_length_c 8.881690
_cell_angle_alpha 90.000000
_cell_angle_beta 90.000000
_cell_angle_gamma 90.000000
_cell_volume 1892.086793
_symmetry_space_group_name_H-M "C C C 2"
_symmetry_group_IT_number 37
_symmetry_cell_setting 'orthorhombic'
loop_
_space_group_symop_operation_xyz
x,y,z
-x,-y,z
-x,y,1/2+z
x,-y,1/2+z
1/2+x,1/2+y,z
1/2-x,1/2-y,z
1/2-x,1/2+y,1/2+z
1/2+x,1/2-y,1/2+z
loop_
_atom_site_type_symbol
_atom_site_label
_atom_site_fract_x
_atom_site_fract_y
_atom_site_fract_z
Si Si1 0.688128 0.652554 0.674990
Si Si2 0.482377 0.623924 0.040053
Si Si3 0.106673 0.590438 0.806117
Si Si4 0.110939 0.177343 0.247235
Si Si5 0.772249 0.016493 0.882957
Si Si6 0.000000 0.500000 0.547099
O O1 0.750000 0.750000 0.665269
O O2 0.594892 0.668546 0.631817
O O3 0.693875 0.596474 0.837203
O O4 0.714469 0.567907 0.546098
O O5 0.500000 0.500000 0.066854
O O6 0.563561 0.679046 0.091549
O O7 0.456008 0.639877 0.868406
O O8 0.138596 0.707413 0.791235
O O9 0.178810 0.514943 0.848616
O O10 0.064726 0.553026 0.654581
O O11 0.041600 0.583833 0.938297
O O12 0.182110 0.096397 0.270303
#
# Coordination Sequence:
#
# PCOD9355209 Si02
#       6
#     8   8   8   8   8   4
#     4  11  25  44  68  99 138 182 223 283 355 402
#     4  11  22  40  65  94 136 166 223 275 333 396
#     4  11  22  42  63  91 128 170 224 271 342 398
#     4  11  23  38  65  95 128 175 216 281 338 402
#     4  11  23  42  67  94 133 173 225 281 341 414
#     4  10  24  40  64  90 128 176 224 282 326 428
#
# _framework density 23.254746999999998
#
# number of rings (size 3 to 8) (size 9 to 14) (size 15 to 20)
#    0.000    1.091    1.818    5.455    2.545    2.909 
#    0.000    6.364    0.000    0.000    0.000    0.000 
#    0.000    0.000    0.000    0.000    0.000    0.000 
#
# Total GULP energy -123035.789998 kJ/mol
# GULP energy per Si atom -5592.535909 kJ/mol
# Density = 2.320182 g / cm^3
# Si number density = 23.254747 Si / 1000 Ang^3
#
#
#
# Elastic Constant Matrix: (Units=GPa)
#
#
# Indices 1 2 3 4 5 6 
#
# 1 83.2076 -0.4256 31.2779 0.0000 0.0000 0.0000
# 2 -0.4256 81.5365 25.9696 0.0000 0.0000 0.0000
# 3 31.2779 25.9696 63.3372 0.0000 0.0000 0.0000
# 4 0.0000 0.0000 0.0000 12.4716 0.0000 0.0000
# 5 0.0000 0.0000 0.0000 0.0000 2.6196 0.0000
# 6 0.0000 0.0000 0.0000 0.0000 0.0000 42.1347
#
#
#
# Elastic Compliance Matrix: (Units=1/GPa)
#
#
# Indices 1 2 3 4 5 6 
#
# 1 0.015317 0.002863 -0.008738 0.000000 0.000000 0.000000
# 2 0.002863 0.014642 -0.007417 0.000000 0.000000 0.000000
# 3 -0.008738 -0.007417 0.023145 0.000000 0.000000 0.000000
# 4 0.000000 0.000000 0.000000 0.080182 0.000000 0.000000
# 5 0.000000 0.000000 0.000000 0.000000 0.381734 0.000000
# 6 0.000000 0.000000 0.000000 0.000000 0.000000 0.023733
#
#
# Mechanical properties :
#
#
# Convention : Reuss Voigt Hill
#
# Bulk Modulus (GPa) = 37.70823 37.96945 37.83884
# Shear Modulus (GPa) = 8.70809 22.86248 15.78528
#
# Velocity S-wave (km/s) = 1.93721 3.13889 2.60820
# Velocity P-wave (km/s) = 4.61023 5.43138 5.03757
#
# Compressibility (1/GPa) = 0.02651941
#
# Stress axis : x y z
#
# Youngs Moduli (GPa) = 65.28487 68.29745 43.20593
#
# Poissons Ratio (x) = -0.19554 0.37754
# Poissons Ratio (y) = -0.18692 0.32047
# Poissons Ratio (z) = 0.57047 0.50659
#
# Static dielectric constant tensor:
#      x y z
#    x 1.821460 0.000000 0.000000 
#    y 0.000000 1.880590 0.000000 
#    z 0.000000 0.000000 1.903290 
# 
# From -- ./inp_files/3436.got.cif
#   From: 2010.05.17/outbox.cif.g08.bks.cpg/sg37_2_cif.got.tgz:3436.got - 2010.06.03 17:53:42.
