data_PCOD9355927
_publ_section_title
;
Structure prediction by ZEFSAII (Michael W. Deem and Ramdas Pophale) SiO2 
 PCOD9355927
Probable space group: A M M 2
;
_chemical_formula_sum "Si O2"
_cell_formula_units_Z 58
_cell_length_a 7.471705
_cell_length_b 27.000900
_cell_length_c 13.174437
_cell_angle_alpha 90.000000
_cell_angle_beta 90.000000
_cell_angle_gamma 90.000000
_cell_volume 2657.847276
_symmetry_space_group_name_H-M "A M M 2"
_symmetry_group_IT_number 38
_symmetry_cell_setting 'orthorhombic'
loop_
_space_group_symop_operation_xyz
x,y,z
-x,-y,z
-x,y,z
x,-y,z
x,1/2+y,1/2+z
-x,1/2-y,1/2+z
-x,1/2+y,1/2+z
x,1/2-y,1/2+z
loop_
_atom_site_type_symbol
_atom_site_label
_atom_site_fract_x
_atom_site_fract_y
_atom_site_fract_z
Si Si1 0.282095 0.056334 0.329120
Si Si2 0.500000 0.500000 0.124856
Si Si3 0.718413 0.389446 0.620638
Si Si4 0.793107 0.422926 0.196020
Si Si5 0.285009 0.944624 0.924996
Si Si6 0.709214 0.293569 0.728468
Si Si7 0.203201 0.185156 0.658405
Si Si8 0.717321 0.157275 0.432869
O O1 0.500000 0.055253 0.333070
O O2 0.232577 0.075132 0.215711
O O3 0.227880 0.100787 0.404978
O O4 0.221908 0.000000 0.349680
O O5 0.657923 0.457104 0.133783
O O6 0.500000 0.391357 0.615911
O O7 0.780626 0.407557 0.511207
O O8 0.779706 0.334161 0.648977
O O9 0.792297 0.440017 0.312940
O O10 0.720769 0.366661 0.197726
O O11 0.000000 0.423987 0.158836
O O12 0.500000 0.939358 0.912119
O O13 0.252008 0.000000 0.964092
O O14 0.500000 0.305414 0.735686
O O15 0.722166 0.237273 0.694764
O O16 0.778647 0.308218 0.839432
O O17 0.212583 0.178565 0.537620
O O18 0.000000 0.185954 0.694265
O O19 0.500000 0.157589 0.439905
#
# Coordination Sequence:
#
# PCOD9355927 Si02
#       8
#     8   2   8   8   8   8   8   8
#     4   8  13  26  48  82 117 147 186 242 289 339
#     4  12  22  44  68  86 112 170 198 244 306 358
#     4   8  15  27  50  83 117 150 198 247 294 351
#     4  11  24  41  60  89 124 156 202 250 293 358
#     4  10  17  30  53  84 118 163 202 240 303 363
#     4   9  19  37  60  85 114 152 199 253 298 346
#     4  11  25  41  59  85 116 153 193 242 299 357
#     4   9  19  36  59  85 115 150 196 245 291 348
#
# _framework density 21.822172999999999
#
# number of rings (size 3 to 8) (size 9 to 14) (size 15 to 20)
#    0.000    2.483    1.379    2.690    1.931    3.310 
#    1.241    4.828    0.000    0.828    0.000    0.000 
#    0.000    0.000    0.000    0.000    0.000    0.000 
#
# Total GULP energy -161583.755708 kJ/mol
# GULP energy per Si atom -5571.853645 kJ/mol
# Density = 2.177250 g / cm^3
# Si number density = 21.822173 Si / 1000 Ang^3
#
#
#
# Elastic Constant Matrix: (Units=GPa)
#
#
# Indices 1 2 3 4 5 6 
#
# 1 74.7415 13.7722 -4.1400 0.0000 0.0000 0.0000
# 2 13.7722 148.6716 31.4426 0.0000 0.0000 0.0000
# 3 -4.1400 31.4426 45.6431 0.0000 0.0000 0.0000
# 4 0.0000 0.0000 0.0000 20.3035 0.0000 0.0000
# 5 0.0000 0.0000 0.0000 0.0000 14.5927 0.0000
# 6 0.0000 0.0000 0.0000 0.0000 0.0000 -61.6083
#
#
#
# Elastic Compliance Matrix: (Units=1/GPa)
#
#
# Indices 1 2 3 4 5 6 
#
# 1 0.013852 -0.001813 0.002505 0.000000 0.000000 0.000000
# 2 -0.001813 0.008111 -0.005752 0.000000 0.000000 0.000000
# 3 0.002505 -0.005752 0.026099 0.000000 0.000000 0.000000
# 4 0.000000 0.000000 0.000000 0.049253 0.000000 0.000000
# 5 0.000000 0.000000 0.000000 0.000000 0.068527 0.000000
# 6 0.000000 0.000000 0.000000 0.000000 0.000000 -0.016232
#
#
# Mechanical properties :
#
#
# Convention : Reuss Voigt Hill
#
# Bulk Modulus (GPa) = 26.35541 39.02288 32.68914
# Shear Modulus (GPa) = 29.00632 9.85634 19.43133
#
# Velocity S-wave (km/s) = 3.64979 2.12755 2.98726
# Velocity P-wave (km/s) = 5.46488 4.89452 5.18754
#
# Compressibility (1/GPa) = 0.03794287
#
# Stress axis : x y z
#
# Youngs Moduli (GPa) = 72.19006 123.29518 38.31626
#
# Poissons Ratio (x) = 0.22355 -0.09600
# Poissons Ratio (y) = 0.13089 0.22038
# Poissons Ratio (z) = -0.18087 0.70916
#
# Static dielectric constant tensor:
#      x y z
#    x 1.845260 0.000000 0.000000 
#    y 0.000000 1.809440 0.000000 
#    z 0.000000 0.000000 1.787710 
# 
# From -- ./inp_files/12679.got.cif
#   From: 2010.05.17/outbox.cif.g08.bks.cpg/sg38_7_cif.got.tgz:12679.got - 2010.06.03 18:07:57.
