data_PCOD9355714
_publ_section_title
;
Structure prediction by ZEFSAII (Michael W. Deem and Ramdas Pophale) SiO2 
 PCOD9355714
Probable space group: C C C 2
;
_chemical_formula_sum "Si O2"
_cell_formula_units_Z 48
_cell_length_a 9.386988
_cell_length_b 16.145172
_cell_length_c 13.647498
_cell_angle_alpha 90.000000
_cell_angle_beta 90.000000
_cell_angle_gamma 90.000000
_cell_volume 2068.340225
_symmetry_space_group_name_H-M "C C C 2"
_symmetry_group_IT_number 37
_symmetry_cell_setting 'orthorhombic'
loop_
_space_group_symop_operation_xyz
x,y,z
-x,-y,z
-x,y,1/2+z
x,-y,1/2+z
1/2+x,1/2+y,z
1/2-x,1/2-y,z
1/2-x,1/2+y,1/2+z
1/2+x,1/2-y,1/2+z
loop_
_atom_site_type_symbol
_atom_site_label
_atom_site_fract_x
_atom_site_fract_y
_atom_site_fract_z
Si Si1 0.171611 0.997289 0.418120
Si Si2 0.266895 0.108300 0.732897
Si Si3 0.556276 0.800752 0.234473
Si Si4 0.224660 0.553421 0.626128
Si Si5 0.643626 0.686490 0.420124
Si Si6 0.492607 0.346929 0.110479
O O1 0.208608 0.095103 0.397797
O O2 0.202568 0.937525 0.327314
O O3 0.265535 0.960973 0.508272
O O4 0.000000 0.000000 0.436370
O O5 0.395021 0.170107 0.754290
O O6 0.139970 0.145163 0.668343
O O7 0.325020 0.034067 0.666315
O O8 0.640968 0.879323 0.191074
O O9 0.600413 0.743406 0.327563
O O10 0.574339 0.737395 0.146018
O O11 0.390712 0.578213 0.642148
O O12 0.750000 0.750000 0.475062
O O13 0.519251 0.664277 0.495666
#
# Coordination Sequence:
#
# PCOD9355714 Si02
#       6
#     8   8   8   8   8   8
#     4  12  24  46  80 112 149 204 266 316 380 474
#     4  12  25  47  75 112 150 197 253 318 384 465
#     4  12  28  46  72 113 156 194 244 324 395 457
#     4  12  25  49  73 110 149 202 253 315 386 460
#     4  12  25  47  73 109 151 204 251 314 389 456
#     4  12  25  47  75 102 150 198 256 312 375 463
#
# _framework density 23.207014999999998
#
# number of rings (size 3 to 8) (size 9 to 14) (size 15 to 20)
#    0.000    0.000    3.333    8.000    2.333    0.000 
#    0.000    1.667    0.000    0.000    0.000    0.000 
#    0.000    0.000    0.000    0.000    0.000    0.000 
#
# Total GULP energy -133934.446720 kJ/mol
# GULP energy per Si atom -5580.601947 kJ/mol
# Density = 2.315419 g / cm^3
# Si number density = 23.207015 Si / 1000 Ang^3
#
#
#
# Elastic Constant Matrix: (Units=GPa)
#
#
# Indices 1 2 3 4 5 6 
#
# 1 76.6632 31.7852 10.7772 0.0000 0.0000 0.0000
# 2 31.7852 112.8545 22.3169 0.0000 0.0000 0.0000
# 3 10.7772 22.3169 127.4965 0.0000 0.0000 0.0000
# 4 0.0000 0.0000 0.0000 35.4912 0.0000 0.0000
# 5 0.0000 0.0000 0.0000 0.0000 21.8622 0.0000
# 6 0.0000 0.0000 0.0000 0.0000 0.0000 47.6229
#
#
#
# Elastic Compliance Matrix: (Units=1/GPa)
#
#
# Indices 1 2 3 4 5 6 
#
# 1 0.014804 -0.004063 -0.000540 0.000000 0.000000 0.000000
# 2 -0.004063 0.010294 -0.001458 0.000000 0.000000 0.000000
# 3 -0.000540 -0.001458 0.008144 0.000000 0.000000 0.000000
# 4 0.000000 0.000000 0.000000 0.028176 0.000000 0.000000
# 5 0.000000 0.000000 0.000000 0.000000 0.045741 0.000000
# 6 0.000000 0.000000 0.000000 0.000000 0.000000 0.020998
#
#
# Mechanical properties :
#
#
# Convention : Reuss Voigt Hill
#
# Bulk Modulus (GPa) = 47.34952 49.64144 48.49548
# Shear Modulus (GPa) = 33.93962 37.80425 35.87194
#
# Velocity S-wave (km/s) = 3.82838 4.04047 3.93585
# Velocity P-wave (km/s) = 6.32371 6.57300 6.44956
#
# Compressibility (1/GPa) = 0.02111954
#
# Stress axis : x y z
#
# Youngs Moduli (GPa) = 67.54706 97.14739 122.78541
#
# Poissons Ratio (x) = 0.39469 0.06634
# Poissons Ratio (y) = 0.27443 0.17907
# Poissons Ratio (z) = 0.03649 0.14168
#
# Static dielectric constant tensor:
#      x y z
#    x 1.933960 0.000000 0.000000 
#    y 0.000000 1.912440 0.000000 
#    z 0.000000 0.000000 1.902800 
# 
# From -- ./inp_files/10604.got.cif
#   From: 2010.05.17/outbox.cif.g08.bks.cpg/sg37_6_cif.got.tgz:10604.got - 2010.06.03 17:53:42.
