data_PCOD9355893
_publ_section_title
;
Structure prediction by ZEFSAII (Michael W. Deem and Ramdas Pophale) SiO2 
 PCOD9355893
Probable space group: A M M 2
;
_chemical_formula_sum "Si O2"
_cell_formula_units_Z 64
_cell_length_a 7.625541
_cell_length_b 24.305407
_cell_length_c 19.691426
_cell_angle_alpha 90.000000
_cell_angle_beta 90.000000
_cell_angle_gamma 90.000000
_cell_volume 3649.645867
_symmetry_space_group_name_H-M "A M M 2"
_symmetry_group_IT_number 38
_symmetry_cell_setting 'orthorhombic'
loop_
_space_group_symop_operation_xyz
x,y,z
-x,-y,z
-x,y,z
x,-y,z
x,1/2+y,1/2+z
-x,1/2-y,1/2+z
-x,1/2+y,1/2+z
x,1/2-y,1/2+z
loop_
_atom_site_type_symbol
_atom_site_label
_atom_site_fract_x
_atom_site_fract_y
_atom_site_fract_z
Si Si1 0.711074 0.331712 0.423110
Si Si2 0.702076 0.347145 0.951567
Si Si3 0.715137 0.562144 0.344476
Si Si4 0.284802 0.936490 0.554910
Si Si5 0.704013 0.893862 0.700092
Si Si6 0.792115 0.267343 0.192121
Si Si7 0.792184 0.243591 0.041830
Si Si8 0.288704 0.727051 0.835714
O O1 0.500000 0.332018 0.419375
O O2 0.772854 0.390835 0.397106
O O3 0.759178 0.311076 0.498061
O O4 0.773703 0.283673 0.371571
O O5 0.500000 0.361921 0.937452
O O6 0.779157 0.323548 0.881394
O O7 0.779834 0.397398 0.994167
O O8 0.705465 0.294373 0.001804
O O9 0.500000 0.563078 0.343919
O O10 0.769168 0.500000 0.360120
O O11 0.776393 0.579779 0.269015
O O12 0.500000 0.932845 0.555097
O O13 0.222207 0.914021 0.628076
O O14 0.237706 0.000000 0.546748
O O15 0.500000 0.910354 0.698991
O O16 0.713512 0.827910 0.703848
O O17 0.731513 0.243698 0.119681
O O18 0.754875 0.229519 0.256862
O O19 0.000000 0.275293 0.188079
O O20 0.000000 0.254078 0.040821
O O21 0.500000 0.726892 0.841701
#
# Coordination Sequence:
#
# PCOD9355893 Si02
#       8
#     8   8   8   8   8   8   8   8
#     4   9  17  30  47  68  89 115 150 186 224 265
#     4   9  17  30  47  67  90 116 148 187 225 264
#     4   9  16  27  45  69  94 119 151 187 219 259
#     4   9  16  26  45  71  93 118 153 186 218 260
#     4  10  17  28  45  65  92 125 156 183 211 254
#     4  11  21  30  43  65  91 121 153 186 226 266
#     4  10  20  31  44  63  89 119 151 187 228 269
#     4   9  17  29  45  65  88 116 150 185 225 270
#
# _framework density 17.535948000000001
#
# number of rings (size 3 to 8) (size 9 to 14) (size 15 to 20)
#    0.000    2.500    2.500    1.875    0.000    5.000 
#    0.000    0.000    0.000    3.750    0.000    0.875 
#    0.000    5.000    0.000    0.000    0.000    0.000 
#
# Total GULP energy -178422.293653 kJ/mol
# GULP energy per Si atom -5575.696677 kJ/mol
# Density = 1.749604 g / cm^3
# Si number density = 17.535948 Si / 1000 Ang^3
#
#
#
# Elastic Constant Matrix: (Units=GPa)
#
#
# Indices 1 2 3 4 5 6 
#
# 1 32.9396 -4.6939 -11.1823 0.0000 0.0000 0.0000
# 2 -4.6939 97.6462 54.7786 0.0000 0.0000 0.0000
# 3 -11.1823 54.7786 107.6830 0.0000 0.0000 0.0000
# 4 0.0000 0.0000 0.0000 21.9449 0.0000 0.0000
# 5 0.0000 0.0000 0.0000 0.0000 33.4218 0.0000
# 6 0.0000 0.0000 0.0000 0.0000 0.0000 -22.3369
#
#
#
# Elastic Compliance Matrix: (Units=1/GPa)
#
#
# Indices 1 2 3 4 5 6 
#
# 1 0.031482 -0.000449 0.003497 0.000000 0.000000 0.000000
# 2 -0.000449 0.014337 -0.007340 0.000000 0.000000 0.000000
# 3 0.003497 -0.007340 0.013384 0.000000 0.000000 0.000000
# 4 0.000000 0.000000 0.000000 0.045569 0.000000 0.000000
# 5 0.000000 0.000000 0.000000 0.000000 0.029921 0.000000
# 6 0.000000 0.000000 0.000000 0.000000 0.000000 -0.044769
#
#
# Mechanical properties :
#
#
# Convention : Reuss Voigt Hill
#
# Bulk Modulus (GPa) = 19.75490 35.11928 27.43709
# Shear Modulus (GPa) = 43.33559 19.89705 31.61632
#
# Velocity S-wave (km/s) = 4.97655 3.37210 4.25071
# Velocity P-wave (km/s) = 6.65667 5.93565 6.30647
#
# Compressibility (1/GPa) = 0.05062037
#
# Stress axis : x y z
#
# Youngs Moduli (GPa) = 31.76423 69.74913 74.71866
#
# Poissons Ratio (x) = 0.03130 -0.26133
# Poissons Ratio (y) = 0.01425 0.54843
# Poissons Ratio (z) = -0.11110 0.51195
#
# Static dielectric constant tensor:
#      x y z
#    x 1.658110 0.000000 0.000000 
#    y 0.000000 1.578140 0.000000 
#    z 0.000000 0.000000 1.614100 
# 
# From -- ./inp_files/17285.got.cif
#   From: 2010.05.17/outbox.cif.g08.bks.cpg/sg38_9_cif.got.tgz:17285.got - 2010.06.03 18:07:57.
