data_PCOD9355595
_publ_section_title
;
Structure prediction by ZEFSAII (Michael W. Deem and Ramdas Pophale) SiO2 
 PCOD9355595
Probable space group: C C C 2
;
_chemical_formula_sum "Si O2"
_cell_formula_units_Z 32
_cell_length_a 4.750716
_cell_length_b 22.729321
_cell_length_c 12.532586
_cell_angle_alpha 90.000000
_cell_angle_beta 90.000000
_cell_angle_gamma 90.000000
_cell_volume 1353.275516
_symmetry_space_group_name_H-M "C C C 2"
_symmetry_group_IT_number 37
_symmetry_cell_setting 'orthorhombic'
loop_
_space_group_symop_operation_xyz
x,y,z
-x,-y,z
-x,y,1/2+z
x,-y,1/2+z
1/2+x,1/2+y,z
1/2-x,1/2-y,z
1/2-x,1/2+y,1/2+z
1/2+x,1/2-y,1/2+z
loop_
_atom_site_type_symbol
_atom_site_label
_atom_site_fract_x
_atom_site_fract_y
_atom_site_fract_z
Si Si1 0.500000 0.000000 0.536280
Si Si2 0.000000 0.000000 0.700651
Si Si3 0.750000 0.750000 0.484053
Si Si4 0.431557 0.658668 0.807269
Si Si5 0.750000 0.750000 0.132366
Si Si6 0.436236 0.919914 0.338162
O O1 0.480670 0.054616 0.453490
O O2 0.238390 0.983343 0.611203
O O3 0.776520 0.965424 0.779070
O O4 0.659177 0.696546 0.408904
O O5 0.497429 0.772509 0.557371
O O6 0.388701 0.700360 0.706235
O O7 0.746616 0.638461 0.830715
O O8 0.231419 0.601913 0.789560
#
# Coordination Sequence:
#
# PCOD9355595 Si02
#       6
#     4   4   4   8   4   8
#     4  12  26  44  68  98 134 178 228 282 342 408
#     4  12  26  44  68  98 134 178 228 282 342 408
#     4  11  24  43  66  98 134 171 222 277 334 408
#     4  11  25  42  67  98 133 176 221 277 340 402
#     4  11  24  43  66  98 134 171 222 277 334 408
#     4  12  25  45  67  98 137 175 227 284 338 408
#
# _framework density 23.646329999999999
#
# number of rings (size 3 to 8) (size 9 to 14) (size 15 to 20)
#    0.000    0.500    0.000    9.000    0.000   16.000 
#    0.000    0.000    0.000    0.000    0.000    0.000 
#    0.000    0.000    0.000    0.000    0.000    0.000 
#
# Total GULP energy -89284.721341 kJ/mol
# GULP energy per Si atom -5580.295084 kJ/mol
# Density = 2.359251 g / cm^3
# Si number density = 23.646330 Si / 1000 Ang^3
#
#
#
# Elastic Constant Matrix: (Units=GPa)
#
#
# Indices 1 2 3 4 5 6 
#
# 1 113.3930 -4.6646 14.8358 0.0000 0.0000 0.0000
# 2 -4.6646 36.3495 13.8405 0.0000 0.0000 0.0000
# 3 14.8358 13.8405 120.1053 0.0000 0.0000 0.0000
# 4 0.0000 0.0000 0.0000 57.4386 0.0000 0.0000
# 5 0.0000 0.0000 0.0000 0.0000 138.2897 0.0000
# 6 0.0000 0.0000 0.0000 0.0000 0.0000 42.5966
#
#
#
# Elastic Compliance Matrix: (Units=1/GPa)
#
#
# Indices 1 2 3 4 5 6 
#
# 1 0.009059 0.001661 -0.001310 0.000000 0.000000 0.000000
# 2 0.001661 0.029078 -0.003556 0.000000 0.000000 0.000000
# 3 -0.001310 -0.003556 0.008898 0.000000 0.000000 0.000000
# 4 0.000000 0.000000 0.000000 0.017410 0.000000 0.000000
# 5 0.000000 0.000000 0.000000 0.000000 0.007231 0.000000
# 6 0.000000 0.000000 0.000000 0.000000 0.000000 0.023476
#
#
# Mechanical properties :
#
#
# Convention : Reuss Voigt Hill
#
# Bulk Modulus (GPa) = 24.61590 35.31901 29.96746
# Shear Modulus (GPa) = 43.43941 64.05406 53.74674
#
# Velocity S-wave (km/s) = 4.29073 5.21030 4.77271
# Velocity P-wave (km/s) = 5.91437 7.15297 6.56296
#
# Compressibility (1/GPa) = 0.04062415
#
# Stress axis : x y z
#
# Youngs Moduli (GPa) = 110.39137 34.39040 112.38886
#
# Poissons Ratio (x) = -0.05714 0.14728
# Poissons Ratio (y) = -0.18341 0.39966
# Poissons Ratio (z) = 0.14466 0.12229
#
# Static dielectric constant tensor:
#      x y z
#    x 1.843500 0.000000 0.000000 
#    y 0.000000 0.870050 0.000000 
#    z 0.000000 0.000000 1.843110 
# 
# From -- ./inp_files/5390.got.cif
#   From: 2010.05.17/outbox.cif.g08.bks.cpg/sg37_3_cif.got.tgz:5390.got - 2010.06.03 17:53:42.
