data_PCOD9355142
_publ_section_title
;
Structure prediction by ZEFSAII (Michael W. Deem and Ramdas Pophale) SiO2 
 PCOD9355142
Probable space group: C C C 2
;
_chemical_formula_sum "Si O2"
_cell_formula_units_Z 32
_cell_length_a 17.126342
_cell_length_b 13.093089
_cell_length_c 5.499366
_cell_angle_alpha 90.000000
_cell_angle_beta 90.000000
_cell_angle_gamma 90.000000
_cell_volume 1233.159794
_symmetry_space_group_name_H-M "C C C 2"
_symmetry_group_IT_number 37
_symmetry_cell_setting 'orthorhombic'
loop_
_space_group_symop_operation_xyz
x,y,z
-x,-y,z
-x,y,1/2+z
x,-y,1/2+z
1/2+x,1/2+y,z
1/2-x,1/2-y,z
1/2-x,1/2+y,1/2+z
1/2+x,1/2-y,1/2+z
loop_
_atom_site_type_symbol
_atom_site_label
_atom_site_fract_x
_atom_site_fract_y
_atom_site_fract_z
Si Si1 0.665232 0.972113 0.375000
Si Si2 0.343472 0.250096 0.201641
Si Si3 0.090478 0.040851 0.409268
Si Si4 0.452795 0.844833 0.374802
O O1 0.644787 0.145635 0.853479
O O2 0.588445 0.044130 0.376406
O O3 0.706938 0.997745 0.625226
O O4 0.250000 0.250000 0.179913
O O5 0.387554 0.344388 0.327107
O O6 0.382231 0.232793 0.936623
O O7 0.121679 0.023247 0.679897
O O8 0.000000 0.000000 0.428694
O O9 0.503880 0.831228 0.620739
#
# Coordination Sequence:
#
# PCOD9355142 Si02
#       4
#     8   8   8   8
#     4  10  23  44  69 110 151 193 248 320 402 459
#     4  11  27  48  79 115 161 211 262 331 408 475
#     4  10  25  48  73 106 146 206 262 313 374 467
#     4  11  25  45  75 111 149 194 255 326 390 469
#
# _framework density 25.949597000000001
#
# number of rings (size 3 to 8) (size 9 to 14) (size 15 to 20)
#    0.000    1.500    0.000    3.000    7.000   20.000 
#    0.000   15.000    0.000    0.000    0.000    0.000 
#    0.000    0.000    0.000    0.000    0.000    0.000 
#
# Total GULP energy -89420.173273 kJ/mol
# GULP energy per Si atom -5588.760830 kJ/mol
# Density = 2.589053 g / cm^3
# Si number density = 25.949597 Si / 1000 Ang^3
#
#
#
# Elastic Constant Matrix: (Units=GPa)
#
#
# Indices 1 2 3 4 5 6 
#
# 1 137.7882 -4.5587 14.8679 0.0000 0.0000 0.0000
# 2 -4.5587 125.8641 -10.3820 0.0000 0.0000 0.0000
# 3 14.8679 -10.3820 158.9427 0.0000 0.0000 0.0000
# 4 0.0000 0.0000 0.0000 48.4191 0.0000 0.0000
# 5 0.0000 0.0000 0.0000 0.0000 -27.2621 0.0000
# 6 0.0000 0.0000 0.0000 0.0000 0.0000 -25.2449
#
#
#
# Elastic Compliance Matrix: (Units=1/GPa)
#
#
# Indices 1 2 3 4 5 6 
#
# 1 0.007337 0.000210 -0.000673 0.000000 0.000000 0.000000
# 2 0.000210 0.007994 0.000503 0.000000 0.000000 0.000000
# 3 -0.000673 0.000503 0.006387 0.000000 0.000000 0.000000
# 4 0.000000 0.000000 0.000000 0.020653 0.000000 0.000000
# 5 0.000000 0.000000 0.000000 0.000000 -0.036681 0.000000
# 6 0.000000 0.000000 0.000000 0.000000 0.000000 -0.039612
#
#
# Mechanical properties :
#
#
# Convention : Reuss Voigt Hill
#
# Bulk Modulus (GPa) = 45.87397 46.93881 46.40639
# Shear Modulus (GPa) = -187.01803 27.36026 -79.82888
#
# Velocity S-wave (km/s) = -8.49860 3.25062 -5.55246
# Velocity P-wave (km/s) = 8.86482 5.67595 4.81501
#
# Compressibility (1/GPa) = 0.02179886
#
# Stress axis : x y z
#
# Youngs Moduli (GPa) = 136.29464 125.09156 156.56031
#
# Poissons Ratio (x) = -0.02630 0.10530
# Poissons Ratio (y) = -0.02866 -0.07867
# Poissons Ratio (z) = 0.09167 -0.06286
#
# Static dielectric constant tensor:
#      x y z
#    x 2.421520 0.000000 0.000000 
#    y 0.000000 2.039950 0.000000 
#    z 0.000000 0.000000 2.085220 
# 
# From -- ./inp_files/454.got.cif
#   From: 2010.05.17/outbox.cif.g08.bks.cpg/sg37_1_cif.got.tgz:454.got - 2010.06.03 17:53:42.
