data_PCOD9355513
_publ_section_title
;
Structure prediction by ZEFSAII (Michael W. Deem and Ramdas Pophale) SiO2 
 PCOD9355513
Probable space group: C C C 2
;
_chemical_formula_sum "Si O2"
_cell_formula_units_Z 60
_cell_length_a 8.578408
_cell_length_b 11.984977
_cell_length_c 27.380919
_cell_angle_alpha 90.000000
_cell_angle_beta 90.000000
_cell_angle_gamma 90.000000
_cell_volume 2815.087662
_symmetry_space_group_name_H-M "C C C 2"
_symmetry_group_IT_number 37
_symmetry_cell_setting 'orthorhombic'
loop_
_space_group_symop_operation_xyz
x,y,z
-x,-y,z
-x,y,1/2+z
x,-y,1/2+z
1/2+x,1/2+y,z
1/2-x,1/2-y,z
1/2-x,1/2+y,1/2+z
1/2+x,1/2-y,1/2+z
loop_
_atom_site_type_symbol
_atom_site_label
_atom_site_fract_x
_atom_site_fract_y
_atom_site_fract_z
Si Si1 0.138426 0.412063 0.375000
Si Si2 0.596692 0.594376 0.296311
Si Si3 0.250000 0.750000 0.722807
Si Si4 0.549491 0.870778 0.143325
Si Si5 0.388291 0.680214 0.086365
Si Si6 0.590089 0.706611 0.878117
Si Si7 0.211333 0.066609 0.064524
Si Si8 0.174457 0.965367 0.457730
O O1 0.240173 0.419189 0.325557
O O2 0.245837 0.447866 0.420629
O O3 0.000000 0.500000 0.371776
O O4 0.048506 0.295838 0.383531
O O5 0.500000 0.500000 0.268284
O O6 0.627048 0.691534 0.258282
O O7 0.478967 0.619709 0.340366
O O8 0.341943 0.834586 0.688127
O O9 0.429846 0.768094 0.130528
O O10 0.654821 0.876026 0.095010
O O11 0.500000 0.000000 0.151361
O O12 0.250000 0.750000 0.059033
O O13 0.556025 0.643818 0.064019
O O14 0.320406 0.553526 0.091075
O O15 0.750000 0.750000 0.854992
O O16 0.648588 0.647254 0.927112
O O17 0.261527 0.046410 0.008713
O O18 0.000000 0.000000 0.471159
#
# Coordination Sequence:
#
# PCOD9355513 Si02
#       8
#     8   8   4   8   8   8   8   8
#     4  12  23  43  69  97 143 187 235 291 348 435
#     4  12  24  47  74  99 141 184 233 297 366 426
#     4  12  28  46  74 108 136 194 240 294 374 426
#     4  12  26  50  74 102 145 187 240 305 358 432
#     4  11  22  43  74  98 132 190 232 290 365 409
#     4  12  23  43  69 100 144 187 228 290 355 423
#     4  11  25  46  71 104 146 188 243 300 354 432
#     4  12  24  42  65 106 140 186 237 285 357 417
#
# _framework density 21.313723
#
# number of rings (size 3 to 8) (size 9 to 14) (size 15 to 20)
#    0.000    0.267    9.333    0.000    0.000    4.267 
#    2.400    0.000    0.000    0.000    0.000    0.000 
#    0.000    0.000    0.000    0.000    0.000    0.000 
#
# Total GULP energy -167217.705892 kJ/mol
# GULP energy per Si atom -5573.923530 kJ/mol
# Density = 2.126521 g / cm^3
# Si number density = 21.313723 Si / 1000 Ang^3
#
#
#
# Elastic Constant Matrix: (Units=GPa)
#
#
# Indices 1 2 3 4 5 6 
#
# 1 79.5992 39.2714 18.4492 0.0000 0.0000 0.0000
# 2 39.2714 133.8490 25.7183 0.0000 0.0000 0.0000
# 3 18.4492 25.7183 70.4751 0.0000 0.0000 0.0000
# 4 0.0000 0.0000 0.0000 43.4212 0.0000 0.0000
# 5 0.0000 0.0000 0.0000 0.0000 -87.2400 0.0000
# 6 0.0000 0.0000 0.0000 0.0000 0.0000 56.7276
#
#
#
# Elastic Compliance Matrix: (Units=1/GPa)
#
#
# Indices 1 2 3 4 5 6 
#
# 1 0.015091 -0.003945 -0.002511 0.000000 0.000000 0.000000
# 2 -0.003945 0.009066 -0.002276 0.000000 0.000000 0.000000
# 3 -0.002511 -0.002276 0.015677 0.000000 0.000000 0.000000
# 4 0.000000 0.000000 0.000000 0.023030 0.000000 0.000000
# 5 0.000000 0.000000 0.000000 0.000000 -0.011463 0.000000
# 6 0.000000 0.000000 0.000000 0.000000 0.000000 0.017628
#
#
# Mechanical properties :
#
#
# Convention : Reuss Voigt Hill
#
# Bulk Modulus (GPa) = 44.70121 50.08904 47.39513
# Shear Modulus (GPa) = 53.21933 15.94738 34.58335
#
# Velocity S-wave (km/s) = 5.00237 2.73833 4.03250
# Velocity P-wave (km/s) = 7.37451 5.79222 6.63073
#
# Compressibility (1/GPa) = 0.02237076
#
# Stress axis : x y z
#
# Youngs Moduli (GPa) = 66.26279 110.30316 63.78715
#
# Poissons Ratio (x) = 0.43519 0.16016
# Poissons Ratio (y) = 0.26143 0.14515
# Poissons Ratio (z) = 0.16638 0.25100
#
# Static dielectric constant tensor:
#      x y z
#    x 2.117550 0.000000 0.000000 
#    y 0.000000 2.482870 0.000000 
#    z 0.000000 0.000000 1.736700 
# 
# From -- ./inp_files/19681.got.cif
#   From: 2010.05.17/outbox.cif.g08.bks.cpg/sg37_10_cif.got.tgz:19681.got - 2010.06.03 17:53:42.
