data_PCOD9355991
_publ_section_title
;
Structure prediction by ZEFSAII (Michael W. Deem and Ramdas Pophale) SiO2 
 PCOD9355991
Probable space group: A M M 2
;
_chemical_formula_sum "Si O2"
_cell_formula_units_Z 64
_cell_length_a 8.525474
_cell_length_b 18.991594
_cell_length_c 27.196493
_cell_angle_alpha 90.000000
_cell_angle_beta 90.000000
_cell_angle_gamma 90.000000
_cell_volume 4403.447845
_symmetry_space_group_name_H-M "A M M 2"
_symmetry_group_IT_number 38
_symmetry_cell_setting 'orthorhombic'
loop_
_space_group_symop_operation_xyz
x,y,z
-x,-y,z
-x,y,z
x,-y,z
x,1/2+y,1/2+z
-x,1/2-y,1/2+z
-x,1/2+y,1/2+z
x,1/2-y,1/2+z
loop_
_atom_site_type_symbol
_atom_site_label
_atom_site_fract_x
_atom_site_fract_y
_atom_site_fract_z
Si Si1 0.686973 0.419025 0.023830
Si Si2 0.810396 0.918363 0.036084
Si Si3 0.314931 0.787971 0.988925
Si Si4 0.814566 0.667989 0.931009
Si Si5 0.312636 0.081765 0.340230
Si Si6 0.808877 0.336786 0.635597
Si Si7 0.185397 0.296768 0.081598
Si Si8 0.810823 0.082044 0.232219
O O1 0.500000 0.416467 0.017239
O O2 0.735971 0.500000 0.029176
O O3 0.732316 0.370500 0.070288
O O4 0.762759 0.383955 0.975463
O O5 0.735886 0.868750 0.994341
O O6 0.762571 0.885702 0.089174
O O7 0.000000 0.913494 0.033184
O O8 0.766308 0.000000 0.032776
O O9 0.500000 0.780712 0.997835
O O10 0.219737 0.749112 0.032606
O O11 0.268571 0.742917 0.941290
O O12 0.764492 0.631823 0.880429
O O13 0.000000 0.677715 0.933141
O O14 0.500000 0.085228 0.345116
O O15 0.262925 0.100060 0.284736
O O16 0.264252 0.000000 0.348644
O O17 0.759673 0.256368 0.624399
O O18 0.756915 0.369823 0.686936
O O19 0.000000 0.336912 0.635691
O O20 0.000000 0.308319 0.086290
O O21 0.000000 0.087456 0.236126
O O22 0.774179 0.000000 0.221479
#
# Coordination Sequence:
#
# PCOD9355991 Si02
#       8
#     8   8   8   8   8   8   8   8
#     4  10  19  29  41  59  84 111 137 168 208 249
#     4   9  16  27  43  62  85 113 144 175 205 239
#     4  10  18  28  41  58  83 110 136 169 208 247
#     4  11  20  30  45  61  78 105 142 175 205 245
#     4  10  20  32  43  58  83 110 136 170 210 246
#     4   8  14  25  42  62  82 108 141 174 206 237
#     4   9  16  27  42  59  80 107 140 173 204 241
#     4   9  16  27  43  61  81 107 140 173 202 236
#
# _framework density 14.534065
#
# number of rings (size 3 to 8) (size 9 to 14) (size 15 to 20)
#    0.000    2.500    0.000    6.375    0.000    5.000 
#    0.000    3.125    0.000    3.000    0.000    0.000 
#    0.000    1.000    0.000    5.250    0.000    4.875 
#
# Total GULP energy -178282.481694 kJ/mol
# GULP energy per Si atom -5571.327553 kJ/mol
# Density = 1.450098 g / cm^3
# Si number density = 14.534065 Si / 1000 Ang^3
#
#
#
# Elastic Constant Matrix: (Units=GPa)
#
#
# Indices 1 2 3 4 5 6 
#
# 1 24.9679 19.0378 13.7632 0.0000 0.0000 0.0000
# 2 19.0378 105.4447 49.7104 0.0000 0.0000 0.0000
# 3 13.7632 49.7104 73.3142 0.0000 0.0000 0.0000
# 4 0.0000 0.0000 0.0000 27.5209 0.0000 0.0000
# 5 0.0000 0.0000 0.0000 0.0000 -118.7479 0.0000
# 6 0.0000 0.0000 0.0000 0.0000 0.0000 1.5422
#
#
#
# Elastic Compliance Matrix: (Units=1/GPa)
#
#
# Indices 1 2 3 4 5 6 
#
# 1 0.047458 -0.006421 -0.004556 0.000000 0.000000 0.000000
# 2 -0.006421 0.014808 -0.008835 0.000000 0.000000 0.000000
# 3 -0.004556 -0.008835 0.020486 0.000000 0.000000 0.000000
# 4 0.000000 0.000000 0.000000 0.036336 0.000000 0.000000
# 5 0.000000 0.000000 0.000000 0.000000 -0.008421 0.000000
# 6 0.000000 0.000000 0.000000 0.000000 0.000000 0.648403
#
#
# Mechanical properties :
#
#
# Convention : Reuss Voigt Hill
#
# Bulk Modulus (GPa) = 23.18628 40.97219 32.07924
# Shear Modulus (GPa) = 6.14953 -9.85592 -1.85319
#
# Velocity S-wave (km/s) = 2.05920 -2.60691 -1.13041
# Velocity P-wave (km/s) = 4.65203 4.38068 4.51839
#
# Compressibility (1/GPa) = 0.04312895
#
# Stress axis : x y z
#
# Youngs Moduli (GPa) = 21.07105 67.53040 48.81411
#
# Poissons Ratio (x) = 0.43360 0.22239
# Poissons Ratio (y) = 0.13529 0.43128
# Poissons Ratio (z) = 0.09600 0.59665
#
# Static dielectric constant tensor:
#      x y z
#    x 1.508270 0.000000 0.000000 
#    y 0.000000 1.504200 0.000000 
#    z 0.000000 0.000000 1.467820 
# 
# From -- ./inp_files/23649.got.cif
#   From: 2010.05.17/outbox.cif.g08.bks.cpg/sg38_12_cif.got.tgz:23649.got - 2010.06.03 18:07:57.
