data_PCOD9355652
_publ_section_title
;
Structure prediction by ZEFSAII (Michael W. Deem and Ramdas Pophale) SiO2 
 PCOD9355652
Probable space group: C C C 2
;
_chemical_formula_sum "Si O2"
_cell_formula_units_Z 48
_cell_length_a 9.441279
_cell_length_b 26.969904
_cell_length_c 8.449827
_cell_angle_alpha 90.000000
_cell_angle_beta 90.000000
_cell_angle_gamma 90.000000
_cell_volume 2151.582730
_symmetry_space_group_name_H-M "C C C 2"
_symmetry_group_IT_number 37
_symmetry_cell_setting 'orthorhombic'
loop_
_space_group_symop_operation_xyz
x,y,z
-x,-y,z
-x,y,1/2+z
x,-y,1/2+z
1/2+x,1/2+y,z
1/2-x,1/2-y,z
1/2-x,1/2+y,1/2+z
1/2+x,1/2-y,1/2+z
loop_
_atom_site_type_symbol
_atom_site_label
_atom_site_fract_x
_atom_site_fract_y
_atom_site_fract_z
Si Si1 0.050601 0.056004 0.101150
Si Si2 0.701613 0.095571 0.794272
Si Si3 0.837088 0.201071 0.765701
Si Si4 0.839958 0.798026 0.884419
Si Si5 0.454286 0.943056 0.104963
Si Si6 0.800562 0.094980 0.285774
O O1 0.622349 0.074527 0.946355
O O2 0.915385 0.089064 0.145998
O O3 0.164659 0.062648 0.241184
O O4 0.000000 0.000000 0.088841
O O5 0.758486 0.150956 0.819537
O O6 0.588419 0.090606 0.651596
O O7 0.875561 0.074026 0.441898
O O8 0.750000 0.250000 0.813313
O O9 0.840174 0.198612 0.574700
O O10 0.997469 0.203512 0.827751
O O11 0.750000 0.750000 0.837090
O O12 0.770039 0.847523 0.813891
O O13 0.337481 0.935849 0.241812
O O14 0.500000 0.000000 0.094522
#
# Coordination Sequence:
#
# PCOD9355652 Si02
#       6
#     8   8   8   8   8   8
#     4  12  25  44  74 107 143 190 246 301 363 432
#     4  12  26  49  73 107 146 190 249 304 366 438
#     4  11  27  48  77 111 144 190 244 301 369 441
#     4  11  25  48  76 110 146 188 242 302 367 437
#     4  12  29  48  72 104 150 198 245 302 366 439
#     4  12  24  47  74 107 147 190 244 306 365 435
#
# _framework density 22.309158
#
# number of rings (size 3 to 8) (size 9 to 14) (size 15 to 20)
#    0.000    0.333    3.333    4.000    4.667    4.667 
#    0.000    1.667    0.000    0.000    0.000    0.000 
#    0.000    0.000    0.000    0.000    0.000    0.000 
#
# Total GULP energy -134608.831864 kJ/mol
# GULP energy per Si atom -5608.701328 kJ/mol
# Density = 2.225838 g / cm^3
# Si number density = 22.309158 Si / 1000 Ang^3
#
#
#
# Elastic Constant Matrix: (Units=GPa)
#
#
# Indices 1 2 3 4 5 6 
#
# 1 144.9705 89.3401 39.5985 0.0000 0.0000 0.0000
# 2 89.3401 224.5528 69.3573 0.0000 0.0000 0.0000
# 3 39.5985 69.3573 74.0317 0.0000 0.0000 0.0000
# 4 0.0000 0.0000 0.0000 27.1622 0.0000 0.0000
# 5 0.0000 0.0000 0.0000 0.0000 49.4824 0.0000
# 6 0.0000 0.0000 0.0000 0.0000 0.0000 53.0516
#
#
#
# Elastic Compliance Matrix: (Units=1/GPa)
#
#
# Indices 1 2 3 4 5 6 
#
# 1 0.009373 -0.003069 -0.002139 0.000000 0.000000 0.000000
# 2 -0.003069 0.007271 -0.005171 0.000000 0.000000 0.000000
# 3 -0.002139 -0.005171 0.019496 0.000000 0.000000 0.000000
# 4 0.000000 0.000000 0.000000 0.036816 0.000000 0.000000
# 5 0.000000 0.000000 0.000000 0.000000 0.020209 0.000000
# 6 0.000000 0.000000 0.000000 0.000000 0.000000 0.018850
#
#
# Mechanical properties :
#
#
# Convention : Reuss Voigt Hill
#
# Bulk Modulus (GPa) = 65.00173 93.34964 79.17568
# Shear Modulus (GPa) = 36.25829 42.28985 39.27407
#
# Velocity S-wave (km/s) = 4.03583 4.35860 4.20032
# Velocity P-wave (km/s) = 7.13564 8.20149 7.68706
#
# Compressibility (1/GPa) = 0.01538421
#
# Stress axis : x y z
#
# Youngs Moduli (GPa) = 106.68680 137.52759 51.29254
#
# Poissons Ratio (x) = 0.42202 0.10970
# Poissons Ratio (y) = 0.32738 0.26522
# Poissons Ratio (z) = 0.22817 0.71113
#
# Static dielectric constant tensor:
#      x y z
#    x 1.816480 0.000000 0.000000 
#    y 0.000000 1.763830 0.000000 
#    z 0.000000 0.000000 1.865460 
# 
# From -- ./inp_files/2408.got.cif
#   From: 2010.05.17/outbox.cif.g08.bks.cpg/sg37_2_cif.got.tgz:2408.got - 2010.06.03 17:53:42.
