data_PCOD9355359
_publ_section_title
;
Structure prediction by ZEFSAII (Michael W. Deem and Ramdas Pophale) SiO2 
 PCOD9355359
Probable space group: C C C 2
;
_chemical_formula_sum "Si O2"
_cell_formula_units_Z 40
_cell_length_a 9.016532
_cell_length_b 20.006423
_cell_length_c 8.826757
_cell_angle_alpha 90.000000
_cell_angle_beta 90.000000
_cell_angle_gamma 90.000000
_cell_volume 1592.245925
_symmetry_space_group_name_H-M "C C C 2"
_symmetry_group_IT_number 37
_symmetry_cell_setting 'orthorhombic'
loop_
_space_group_symop_operation_xyz
x,y,z
-x,-y,z
-x,y,1/2+z
x,-y,1/2+z
1/2+x,1/2+y,z
1/2-x,1/2-y,z
1/2-x,1/2+y,1/2+z
1/2+x,1/2-y,1/2+z
loop_
_atom_site_type_symbol
_atom_site_label
_atom_site_fract_x
_atom_site_fract_y
_atom_site_fract_z
Si Si1 0.632947 0.554435 0.223750
Si Si2 0.638308 0.307676 0.566577
Si Si3 0.669074 0.994716 0.946685
Si Si4 0.151926 0.358173 0.796730
Si Si5 0.112687 0.291358 0.477137
O O1 0.500000 0.500000 0.248365
O O2 0.599668 0.630427 0.175952
O O3 0.742154 0.554528 0.367836
O O4 0.727956 0.530192 0.080689
O O5 0.750000 0.250000 0.620243
O O6 0.718659 0.331765 0.409661
O O7 0.490588 0.268170 0.536257
O O8 0.660339 0.937400 0.817379
O O9 0.500000 0.000000 0.998895
O O10 0.159034 0.334647 0.624387
O O11 0.994569 0.332707 0.865271
O O12 0.250000 0.250000 0.416344
#
# Coordination Sequence:
#
# PCOD9355359 Si02
#       5
#     8   8   8   8   8
#     4  11  25  47  72 106 139 190 235 294 355 422
#     4   9  22  45  67  96 141 177 227 288 343 416
#     4  11  26  44  71 101 145 181 235 288 352 422
#     4  10  25  44  66 100 139 179 226 284 347 413
#     4  11  23  42  69 102 135 182 227 282 345 413
#
# _framework density 25.121746999999999
#
# number of rings (size 3 to 8) (size 9 to 14) (size 15 to 20)
#    0.000    1.600    0.000    3.000   14.000    2.400 
#    7.200    0.000    0.000    0.000    0.000    0.000 
#    0.000    0.000    0.000    0.000    0.000    0.000 
#
# Total GULP energy -111960.446230 kJ/mol
# GULP energy per Si atom -5598.022312 kJ/mol
# Density = 2.506457 g / cm^3
# Si number density = 25.121747 Si / 1000 Ang^3
#
#
#
# Elastic Constant Matrix: (Units=GPa)
#
#
# Indices 1 2 3 4 5 6 
#
# 1 117.2585 25.7640 7.8529 0.0000 0.0000 0.0000
# 2 25.7640 100.2521 12.0086 0.0000 0.0000 0.0000
# 3 7.8529 12.0086 101.1383 0.0000 0.0000 0.0000
# 4 0.0000 0.0000 0.0000 -36.0360 0.0000 0.0000
# 5 0.0000 0.0000 0.0000 0.0000 27.5935 0.0000
# 6 0.0000 0.0000 0.0000 0.0000 0.0000 32.0006
#
#
#
# Elastic Compliance Matrix: (Units=1/GPa)
#
#
# Indices 1 2 3 4 5 6 
#
# 1 0.009057 -0.002276 -0.000433 0.000000 0.000000 0.000000
# 2 -0.002276 0.010691 -0.001093 0.000000 0.000000 0.000000
# 3 -0.000433 -0.001093 0.010051 0.000000 0.000000 0.000000
# 4 0.000000 0.000000 0.000000 -0.027750 0.000000 0.000000
# 5 0.000000 0.000000 0.000000 0.000000 0.036240 0.000000
# 6 0.000000 0.000000 0.000000 0.000000 0.000000 0.031249
#
#
# Mechanical properties :
#
#
# Convention : Reuss Voigt Hill
#
# Bulk Modulus (GPa) = 45.05372 45.54443 45.29907
# Shear Modulus (GPa) = 59.14377 22.91320 41.02848
#
# Velocity S-wave (km/s) = 4.85736 3.02335 4.04565
# Velocity P-wave (km/s) = 7.03077 5.50966 6.31617
#
# Compressibility (1/GPa) = 0.02219573
#
# Stress axis : x y z
#
# Youngs Moduli (GPa) = 110.40946 93.54026 99.49448
#
# Poissons Ratio (x) = 0.21287 0.04308
# Poissons Ratio (y) = 0.25127 0.10871
# Poissons Ratio (z) = 0.04781 0.10221
#
# Static dielectric constant tensor:
#      x y z
#    x 1.987890 0.000000 0.000000 
#    y 0.000000 2.094700 0.000000 
#    z 0.000000 0.000000 1.953570 
# 
# From -- ./inp_files/2197.got.cif
#   From: 2010.05.17/outbox.cif.g08.bks.cpg/sg37_2_cif.got.tgz:2197.got - 2010.06.03 17:53:42.
