data_PCOD9355375
_publ_section_title
;
Structure prediction by ZEFSAII (Michael W. Deem and Ramdas Pophale) SiO2 
 PCOD9355375
Probable space group: C C C 2
;
_chemical_formula_sum "Si O2"
_cell_formula_units_Z 56
_cell_length_a 14.091308
_cell_length_b 12.365210
_cell_length_c 13.968207
_cell_angle_alpha 90.000000
_cell_angle_beta 90.000000
_cell_angle_gamma 90.000000
_cell_volume 2433.848081
_symmetry_space_group_name_H-M "C C C 2"
_symmetry_group_IT_number 37
_symmetry_cell_setting 'orthorhombic'
loop_
_space_group_symop_operation_xyz
x,y,z
-x,-y,z
-x,y,1/2+z
x,-y,1/2+z
1/2+x,1/2+y,z
1/2-x,1/2-y,z
1/2-x,1/2+y,1/2+z
1/2+x,1/2-y,1/2+z
loop_
_atom_site_type_symbol
_atom_site_label
_atom_site_fract_x
_atom_site_fract_y
_atom_site_fract_z
Si Si1 0.407050 0.175962 0.748270
Si Si2 0.096753 0.448849 0.561529
Si Si3 0.297621 0.344167 0.301323
Si Si4 0.720739 0.945363 0.900817
Si Si5 0.445395 0.204790 0.387052
Si Si6 0.066027 0.107637 0.961737
Si Si7 0.478658 0.625327 0.673841
O O1 0.366197 0.113102 0.655098
O O2 0.334601 0.141184 0.834119
O O3 0.511594 0.144031 0.793858
O O4 0.435369 0.295619 0.705836
O O5 0.165403 0.527121 0.500004
O O6 0.060598 0.369148 0.478403
O O7 0.000000 0.500000 0.598634
O O8 0.250000 0.250000 0.237853
O O9 0.235189 0.442833 0.339401
O O10 0.345748 0.267403 0.381798
O O11 0.390726 0.377880 0.245564
O O12 0.827357 0.914367 0.929610
O O13 0.521686 0.299175 0.398355
O O14 0.057534 0.154785 0.068469
O O15 0.000000 0.000000 0.952931
O O16 0.500000 0.500000 0.665570
#
# Coordination Sequence:
#
# PCOD9355375 Si02
#       7
#     8   8   8   8   8   8   8
#     4  11  27  47  75 113 151 197 262 323 389 469
#     4  12  26  48  73 108 156 202 249 321 396 464
#     4  11  24  43  71 103 153 197 254 317 386 468
#     4  12  27  45  76 119 150 200 265 323 387 471
#     4  11  23  48  70 103 143 207 246 310 397 458
#     4  11  24  49  75 108 155 204 253 322 392 468
#     4  10  25  49  78 105 148 212 258 311 402 466
#
# _framework density 23.008831000000001
#
# number of rings (size 3 to 8) (size 9 to 14) (size 15 to 20)
#    0.000    0.857    5.714    0.000    8.000    0.571 
#    2.571    2.857    0.000    0.000    0.000    0.000 
#    0.000    0.000    0.000    0.000    0.000    0.000 
#
# Total GULP energy -156055.113203 kJ/mol
# GULP energy per Si atom -5573.396900 kJ/mol
# Density = 2.295646 g / cm^3
# Si number density = 23.008831 Si / 1000 Ang^3
#
#
#
# Elastic Constant Matrix: (Units=GPa)
#
#
# Indices 1 2 3 4 5 6 
#
# 1 130.7845 38.7797 27.2828 0.0000 0.0000 0.0000
# 2 38.7797 70.7235 31.8935 0.0000 0.0000 0.0000
# 3 27.2828 31.8935 118.6902 0.0000 0.0000 0.0000
# 4 0.0000 0.0000 0.0000 28.2485 0.0000 0.0000
# 5 0.0000 0.0000 0.0000 0.0000 4.6163 0.0000
# 6 0.0000 0.0000 0.0000 0.0000 0.0000 38.8407
#
#
#
# Elastic Compliance Matrix: (Units=1/GPa)
#
#
# Indices 1 2 3 4 5 6 
#
# 1 0.009208 -0.004659 -0.000865 0.000000 0.000000 0.000000
# 2 -0.004659 0.018447 -0.003886 0.000000 0.000000 0.000000
# 3 -0.000865 -0.003886 0.009668 0.000000 0.000000 0.000000
# 4 0.000000 0.000000 0.000000 0.035400 0.000000 0.000000
# 5 0.000000 0.000000 0.000000 0.000000 0.216623 0.000000
# 6 0.000000 0.000000 0.000000 0.000000 0.000000 0.025746
#
#
# Mechanical properties :
#
#
# Convention : Reuss Voigt Hill
#
# Bulk Modulus (GPa) = 54.04333 57.34558 55.69446
# Shear Modulus (GPa) = 14.70244 29.15724 21.92984
#
# Velocity S-wave (km/s) = 2.53057 3.56366 3.09059
# Velocity P-wave (km/s) = 5.66370 6.47382 6.08226
#
# Compressibility (1/GPa) = 0.01850367
#
# Stress axis : x y z
#
# Youngs Moduli (GPa) = 108.60073 54.21031 103.43152
#
# Poissons Ratio (x) = 0.25257 0.08943
# Poissons Ratio (y) = 0.50598 0.40192
# Poissons Ratio (z) = 0.09390 0.21065
#
# Static dielectric constant tensor:
#      x y z
#    x 2.009850 0.000000 0.000000 
#    y 0.000000 1.549590 0.000000 
#    z 0.000000 0.000000 1.919410 
# 
# From -- ./inp_files/12155.got.cif
#   From: 2010.05.17/outbox.cif.g08.bks.cpg/sg37_7_cif.got.tgz:12155.got - 2010.06.03 17:53:42.
