data_PCOD9355879
_publ_section_title
;
Structure prediction by ZEFSAII (Michael W. Deem and Ramdas Pophale) SiO2 
 PCOD9355879
Probable space group: A M M 2
;
_chemical_formula_sum "Si O2"
_cell_formula_units_Z 64
_cell_length_a 14.975152
_cell_length_b 7.591877
_cell_length_c 32.174092
_cell_angle_alpha 90.000000
_cell_angle_beta 90.000000
_cell_angle_gamma 90.000000
_cell_volume 3657.856820
_symmetry_space_group_name_H-M "A M M 2"
_symmetry_group_IT_number 38
_symmetry_cell_setting 'orthorhombic'
loop_
_space_group_symop_operation_xyz
x,y,z
-x,-y,z
-x,y,z
x,-y,z
x,1/2+y,1/2+z
-x,1/2-y,1/2+z
-x,1/2+y,1/2+z
x,1/2-y,1/2+z
loop_
_atom_site_type_symbol
_atom_site_label
_atom_site_fract_x
_atom_site_fract_y
_atom_site_fract_z
Si Si1 0.289525 0.208481 0.077490
Si Si2 0.098812 0.284974 0.454212
Si Si3 0.603282 0.216669 0.841164
Si Si4 0.279948 0.704640 0.417386
Si Si5 0.391464 0.795757 0.750187
Si Si6 0.397733 0.787210 0.659931
Si Si7 0.098619 0.214563 0.051300
Si Si8 0.601589 0.205681 0.495369
O O1 0.335599 0.241905 0.121467
O O2 0.187691 0.276030 0.074518
O O3 0.285747 0.000000 0.070613
O O4 0.349729 0.278625 0.039693
O O5 0.100670 0.500000 0.453540
O O6 0.183272 0.218326 0.428500
O O7 0.108896 0.236574 0.502727
O O8 0.000000 0.229944 0.440196
O O9 0.500000 0.268177 0.847894
O O10 0.665149 0.279345 0.878663
O O11 0.633516 0.278172 0.795258
O O12 0.603128 0.000000 0.840536
O O13 0.264733 0.500000 0.406970
O O14 0.339774 0.710077 0.458988
O O15 0.500000 0.794964 0.749906
O O16 0.365950 0.719935 0.705242
O O17 0.362412 0.000000 0.750387
O O18 0.500000 0.726864 0.652541
O O19 0.401163 0.000000 0.662789
O O20 0.000000 0.274405 0.065387
O O21 0.097056 0.000000 0.053038
O O22 0.500000 0.275003 0.497303
O O23 0.597122 0.000000 0.484924
#
# Coordination Sequence:
#
# PCOD9355879 Si02
#       8
#     8   8   8   8   8   8   8   8
#     4  11  20  30  46  66  83 105 141 181 215 244
#     4   8  13  23  40  61  84 108 135 171 214 252
#     4   8  13  21  37  63  88 106 134 178 212 236
#     4  10  17  27  45  67  85 107 143 182 213 238
#     4   7  11  22  39  58  81 110 141 170 203 245
#     4   9  17  29  44  61  85 117 146 170 204 253
#     4   8  14  26  43  61  81 105 134 171 214 253
#     4  11  23  34  41  54  85 124 149 164 196 251
#
# _framework density 17.496583000000001
#
# number of rings (size 3 to 8) (size 9 to 14) (size 15 to 20)
#    0.000    3.000    1.250    3.750    0.000    3.250 
#    0.000    0.000    0.000    3.375    0.000    2.625 
#    0.000    3.000    0.000    0.000    0.000    0.000 
#
# Total GULP energy -178276.290420 kJ/mol
# GULP energy per Si atom -5571.134076 kJ/mol
# Density = 1.745676 g / cm^3
# Si number density = 17.496583 Si / 1000 Ang^3
#
#
#
# Elastic Constant Matrix: (Units=GPa)
#
#
# Indices 1 2 3 4 5 6 
#
# 1 146.6849 0.6629 79.0370 0.0000 0.0000 0.0000
# 2 0.6629 37.2076 -7.6781 0.0000 0.0000 0.0000
# 3 79.0370 -7.6781 127.9727 0.0000 0.0000 0.0000
# 4 0.0000 0.0000 0.0000 7.4974 0.0000 0.0000
# 5 0.0000 0.0000 0.0000 0.0000 7.0191 0.0000
# 6 0.0000 0.0000 0.0000 0.0000 0.0000 66.2843
#
#
#
# Elastic Compliance Matrix: (Units=1/GPa)
#
#
# Indices 1 2 3 4 5 6 
#
# 1 0.010301 -0.001515 -0.006453 0.000000 0.000000 0.000000
# 2 -0.001515 0.027436 0.002582 0.000000 0.000000 0.000000
# 3 -0.006453 0.002582 0.011955 0.000000 0.000000 0.000000
# 4 0.000000 0.000000 0.000000 0.133380 0.000000 0.000000
# 5 0.000000 0.000000 0.000000 0.000000 0.142468 0.000000
# 6 0.000000 0.000000 0.000000 0.000000 0.000000 0.015087
#
#
# Mechanical properties :
#
#
# Convention : Reuss Voigt Hill
#
# Bulk Modulus (GPa) = 25.69432 50.65656 38.17544
# Shear Modulus (GPa) = 13.72226 32.14972 22.93599
#
# Velocity S-wave (km/s) = 2.80354 4.29124 3.62454
# Velocity P-wave (km/s) = 5.01966 7.31902 6.27555
#
# Compressibility (1/GPa) = 0.03891910
#
# Stress axis : x y z
#
# Youngs Moduli (GPa) = 97.07601 36.44847 83.65044
#
# Poissons Ratio (x) = 0.05523 0.53980
# Poissons Ratio (y) = 0.14709 -0.21598
# Poissons Ratio (z) = 0.62643 -0.09411
#
# Static dielectric constant tensor:
#      x y z
#    x 1.605020 0.000000 0.000000 
#    y 0.000000 1.687160 0.000000 
#    z 0.000000 0.000000 1.599330 
# 
# From -- ./inp_files/25114.got.cif
#   From: 2010.05.17/outbox.cif.g08.bks.cpg/sg38_13_cif.got.tgz:25114.got - 2010.06.03 18:07:57.
