data_PCOD9355607
_publ_section_title
;
Structure prediction by ZEFSAII (Michael W. Deem and Ramdas Pophale) SiO2 
 PCOD9355607
Probable space group: C C C 2
;
_chemical_formula_sum "Si O2"
_cell_formula_units_Z 60
_cell_length_a 5.763567
_cell_length_b 25.273750
_cell_length_c 18.368898
_cell_angle_alpha 90.000000
_cell_angle_beta 90.000000
_cell_angle_gamma 90.000000
_cell_volume 2675.741373
_symmetry_space_group_name_H-M "C C C 2"
_symmetry_group_IT_number 37
_symmetry_cell_setting 'orthorhombic'
loop_
_space_group_symop_operation_xyz
x,y,z
-x,-y,z
-x,y,1/2+z
x,-y,1/2+z
1/2+x,1/2+y,z
1/2-x,1/2-y,z
1/2-x,1/2+y,1/2+z
1/2+x,1/2-y,1/2+z
loop_
_atom_site_type_symbol
_atom_site_label
_atom_site_fract_x
_atom_site_fract_y
_atom_site_fract_z
Si Si1 0.873173 0.091981 0.450670
Si Si2 0.587030 0.911601 0.661159
Si Si3 0.610302 0.442615 0.292586
Si Si4 0.750000 0.750000 0.330022
Si Si5 0.605014 0.054801 0.006887
Si Si6 0.853658 0.195131 0.116740
Si Si7 0.950450 0.212159 0.460043
Si Si8 0.806533 0.849040 0.229202
O O1 0.823076 0.060755 0.376704
O O2 0.633340 0.089251 0.497962
O O3 0.886189 0.153896 0.435081
O O4 0.135680 0.072516 0.477852
O O5 0.688163 0.935975 0.734311
O O6 0.634454 0.949222 0.593578
O O7 0.705078 0.856321 0.636338
O O8 0.336569 0.892294 0.683854
O O9 0.500000 0.500000 0.279775
O O10 0.461195 0.389001 0.277669
O O11 0.545024 0.740441 0.387929
O O12 0.707252 0.803181 0.282477
O O13 0.500000 0.000000 0.977014
O O14 0.750000 0.250000 0.143439
O O15 0.079060 0.184737 0.164615
O O16 0.887418 0.200509 0.030139
O O17 0.750000 0.250000 0.489847
#
# Coordination Sequence:
#
# PCOD9355607 Si02
#       8
#     8   8   8   4   8   8   8   8
#     4  12  28  54  77 116 157 203 258 325 390 464
#     4  11  27  46  74 108 150 200 253 323 376 471
#     4  11  27  47  73 108 153 200 259 312 390 460
#     4  12  26  46  70 106 144 188 264 308 392 450
#     4  12  28  50  82 113 155 203 263 321 388 456
#     4  11  24  45  69 105 144 191 253 305 388 454
#     4  12  28  42  74 106 147 198 252 319 381 462
#     4  11  26  45  71 104 147 196 249 318 385 461
#
# _framework density 22.423694000000001
#
# number of rings (size 3 to 8) (size 9 to 14) (size 15 to 20)
#    0.000    0.533    3.333    2.800   14.000    0.533 
#    0.000    0.000    0.000    0.000    0.000    0.000 
#    0.000    0.000    0.000    0.000    0.000    0.000 
#
# Total GULP energy -167108.055155 kJ/mol
# GULP energy per Si atom -5570.268505 kJ/mol
# Density = 2.237266 g / cm^3
# Si number density = 22.423694 Si / 1000 Ang^3
#
#
#
# Elastic Constant Matrix: (Units=GPa)
#
#
# Indices 1 2 3 4 5 6 
#
# 1 48.4836 1.7692 15.0776 0.0000 0.0000 0.0000
# 2 1.7692 94.8746 -0.3207 0.0000 0.0000 0.0000
# 3 15.0776 -0.3207 90.3416 0.0000 0.0000 0.0000
# 4 0.0000 0.0000 0.0000 89.7929 0.0000 0.0000
# 5 0.0000 0.0000 0.0000 0.0000 41.0460 0.0000
# 6 0.0000 0.0000 0.0000 0.0000 0.0000 -0.4202
#
#
#
# Elastic Compliance Matrix: (Units=1/GPa)
#
#
# Indices 1 2 3 4 5 6 
#
# 1 0.021771 -0.000418 -0.003635 0.000000 0.000000 0.000000
# 2 -0.000418 0.010548 0.000107 0.000000 0.000000 0.000000
# 3 -0.003635 0.000107 0.011676 0.000000 0.000000 0.000000
# 4 0.000000 0.000000 0.000000 0.011137 0.000000 0.000000
# 5 0.000000 0.000000 0.000000 0.000000 0.024363 0.000000
# 6 0.000000 0.000000 0.000000 0.000000 0.000000 -2.379825
#
#
# Mechanical properties :
#
#
# Convention : Reuss Voigt Hill
#
# Bulk Modulus (GPa) = 27.69798 29.63911 28.66854
# Shear Modulus (GPa) = -2.19259 40.56198 19.18469
#
# Velocity S-wave (km/s) = -0.98991 4.25772 2.92816
# Velocity P-wave (km/s) = 3.32751 6.11697 4.92391
#
# Compressibility (1/GPa) = 0.03610372
#
# Stress axis : x y z
#
# Youngs Moduli (GPa) = 45.93216 94.80115 85.64474
#
# Poissons Ratio (x) = 0.03965 0.31132
# Poissons Ratio (y) = 0.01921 -0.00919
# Poissons Ratio (z) = 0.16696 -0.01017
#
# Static dielectric constant tensor:
#      x y z
#    x 1.945530 0.000000 0.000000 
#    y 0.000000 1.807510 0.000000 
#    z 0.000000 0.000000 1.821580 
# 
# From -- ./inp_files/14032.got.cif
#   From: 2010.05.17/outbox.cif.g08.bks.cpg/sg37_8_cif.got.tgz:14032.got - 2010.06.03 17:53:42.
