data_PCOD9355089
_publ_section_title
;
Structure prediction by ZEFSAII (Michael W. Deem and Ramdas Pophale) SiO2 
 PCOD9355089
Probable space group: C C C 2
;
_chemical_formula_sum "Si O2"
_cell_formula_units_Z 40
_cell_length_a 26.801163
_cell_length_b 8.066066
_cell_length_c 8.759737
_cell_angle_alpha 90.000000
_cell_angle_beta 90.000000
_cell_angle_gamma 90.000000
_cell_volume 1893.679503
_symmetry_space_group_name_H-M "C C C 2"
_symmetry_group_IT_number 37
_symmetry_cell_setting 'orthorhombic'
loop_
_space_group_symop_operation_xyz
x,y,z
-x,-y,z
-x,y,1/2+z
x,-y,1/2+z
1/2+x,1/2+y,z
1/2-x,1/2-y,z
1/2-x,1/2+y,1/2+z
1/2+x,1/2-y,1/2+z
loop_
_atom_site_type_symbol
_atom_site_label
_atom_site_fract_x
_atom_site_fract_y
_atom_site_fract_z
Si Si1 0.912658 0.323099 0.814680
Si Si2 0.446334 0.488640 0.479508
Si Si3 0.657651 0.628087 0.512392
Si Si4 0.805178 0.194444 0.339719
Si Si5 0.406347 0.164746 0.952270
O O1 0.860598 0.272493 0.898633
O O2 0.907836 0.339946 0.635002
O O3 0.946606 0.166375 0.862581
O O4 0.929054 0.497902 0.883944
O O5 0.500000 0.500000 0.556889
O O6 0.395698 0.446846 0.573107
O O7 0.434503 0.666616 0.406034
O O8 0.683105 0.483355 0.415664
O O9 0.688866 0.681924 0.657252
O O10 0.750000 0.250000 0.381961
O O11 0.849359 0.314368 0.397005
#
# Coordination Sequence:
#
# PCOD9355089 Si02
#       5
#     8   8   8   8   8
#     4  10  23  41  68  94 138 176 219 282 338 403
#     4   9  22  42  69  99 132 184 221 280 346 402
#     4   9  21  42  62  97 133 168 225 284 328 409
#     4  11  23  41  68  94 133 180 224 282 345 406
#     4  11  23  42  67  97 137 177 227 283 339 402
#
# _framework density 21.122896999999998
#
# number of rings (size 3 to 8) (size 9 to 14) (size 15 to 20)
#    1.200    0.800    0.000    3.600    0.000    4.800 
#    0.000    4.000    0.000    0.000    0.000    0.000 
#    0.000    0.000    0.000    0.000    0.000    0.000 
#
# Total GULP energy -111553.036019 kJ/mol
# GULP energy per Si atom -5577.651801 kJ/mol
# Density = 2.107482 g / cm^3
# Si number density = 21.122897 Si / 1000 Ang^3
#
#
#
# Elastic Constant Matrix: (Units=GPa)
#
#
# Indices 1 2 3 4 5 6 
#
# 1 102.2901 21.1417 -6.8868 0.0000 0.0000 0.0000
# 2 21.1417 159.6993 35.2714 0.0000 0.0000 0.0000
# 3 -6.8868 35.2714 93.2307 0.0000 0.0000 0.0000
# 4 0.0000 0.0000 0.0000 28.2845 0.0000 0.0000
# 5 0.0000 0.0000 0.0000 0.0000 17.3520 0.0000
# 6 0.0000 0.0000 0.0000 0.0000 0.0000 4.9549
#
#
#
# Elastic Compliance Matrix: (Units=1/GPa)
#
#
# Indices 1 2 3 4 5 6 
#
# 1 0.010212 -0.001657 0.001381 0.000000 0.000000 0.000000
# 2 -0.001657 0.007102 -0.002809 0.000000 0.000000 0.000000
# 3 0.001381 -0.002809 0.011891 0.000000 0.000000 0.000000
# 4 0.000000 0.000000 0.000000 0.035355 0.000000 0.000000
# 5 0.000000 0.000000 0.000000 0.000000 0.057630 0.000000
# 6 0.000000 0.000000 0.000000 0.000000 0.000000 0.201821
#
#
# Mechanical properties :
#
#
# Convention : Reuss Voigt Hill
#
# Bulk Modulus (GPa) = 43.41349 50.47473 46.94411
# Shear Modulus (GPa) = 14.79911 30.49786 22.64849
#
# Velocity S-wave (km/s) = 2.64979 3.80390 3.27804
# Velocity P-wave (km/s) = 5.47351 6.57575 6.04978
#
# Compressibility (1/GPa) = 0.02303431
#
# Stress axis : x y z
#
# Youngs Moduli (GPa) = 97.92822 140.81470 84.09836
#
# Poissons Ratio (x) = 0.23332 -0.11615
# Poissons Ratio (y) = 0.16226 0.23624
# Poissons Ratio (z) = -0.13525 0.39556
#
# Static dielectric constant tensor:
#      x y z
#    x 1.739050 0.000000 0.000000 
#    y 0.000000 1.781580 0.000000 
#    z 0.000000 0.000000 1.738680 
# 
# From -- ./inp_files/4746.got.cif
#   From: 2010.05.17/outbox.cif.g08.bks.cpg/sg37_3_cif.got.tgz:4746.got - 2010.06.03 17:53:42.
