data_PCOD9355548
_publ_section_title
;
Structure prediction by ZEFSAII (Michael W. Deem and Ramdas Pophale) SiO2 
 PCOD9355548
Probable space group: C C C 2
;
_chemical_formula_sum "Si O2"
_cell_formula_units_Z 32
_cell_length_a 10.505143
_cell_length_b 17.368065
_cell_length_c 7.350217
_cell_angle_alpha 90.000000
_cell_angle_beta 90.000000
_cell_angle_gamma 90.000000
_cell_volume 1341.076540
_symmetry_space_group_name_H-M "C C C 2"
_symmetry_group_IT_number 37
_symmetry_cell_setting 'orthorhombic'
loop_
_space_group_symop_operation_xyz
x,y,z
-x,-y,z
-x,y,1/2+z
x,-y,1/2+z
1/2+x,1/2+y,z
1/2-x,1/2-y,z
1/2-x,1/2+y,1/2+z
1/2+x,1/2-y,1/2+z
loop_
_atom_site_type_symbol
_atom_site_label
_atom_site_fract_x
_atom_site_fract_y
_atom_site_fract_z
Si Si1 0.343948 0.678737 0.778530
Si Si2 0.119483 0.231733 0.660357
Si Si3 0.679868 0.938603 0.068974
Si Si4 0.099336 0.597568 0.165841
O O1 0.250000 0.750000 0.727704
O O2 0.491448 0.699589 0.744261
O O3 0.294622 0.604528 0.669671
O O4 0.340922 0.675623 0.997220
O O5 0.250000 0.250000 0.770856
O O6 0.089025 0.316908 0.584984
O O7 0.549748 0.923482 0.179835
O O8 0.676276 0.031417 0.058879
O O9 0.658448 0.905382 0.867620
#
# Coordination Sequence:
#
# PCOD9355548 Si02
#       4
#     8   8   8   8
#     4  11  25  43  71 104 138 181 246 296 356 427
#     4  11  26  42  71  97 144 182 237 291 365 421
#     4  11  24  40  75 107 146 182 247 294 362 429
#     4  11  23  42  71 107 142 191 231 300 361 428
#
# _framework density 23.861426000000002
#
# number of rings (size 3 to 8) (size 9 to 14) (size 15 to 20)
#    0.000    1.000    2.500    4.500   14.000    0.000 
#    0.000    1.250    0.000    0.000    0.000    0.000 
#    0.000    0.000    0.000    0.000    0.000    0.000 
#
# Total GULP energy -89327.104457 kJ/mol
# GULP energy per Si atom -5582.944029 kJ/mol
# Density = 2.380712 g / cm^3
# Si number density = 23.861426 Si / 1000 Ang^3
#
#
#
# Elastic Constant Matrix: (Units=GPa)
#
#
# Indices 1 2 3 4 5 6 
#
# 1 165.2977 18.5200 9.2180 0.0000 0.0000 0.0000
# 2 18.5200 99.2409 -3.0446 0.0000 0.0000 0.0000
# 3 9.2180 -3.0446 78.8083 0.0000 0.0000 0.0000
# 4 0.0000 0.0000 0.0000 33.9649 0.0000 0.0000
# 5 0.0000 0.0000 0.0000 0.0000 41.4603 0.0000
# 6 0.0000 0.0000 0.0000 0.0000 0.0000 48.8317
#
#
#
# Elastic Compliance Matrix: (Units=1/GPa)
#
#
# Indices 1 2 3 4 5 6 
#
# 1 0.006226 -0.001186 -0.000774 0.000000 0.000000 0.000000
# 2 -0.001186 0.010314 0.000537 0.000000 0.000000 0.000000
# 3 -0.000774 0.000537 0.012800 0.000000 0.000000 0.000000
# 4 0.000000 0.000000 0.000000 0.029442 0.000000 0.000000
# 5 0.000000 0.000000 0.000000 0.000000 0.024119 0.000000
# 6 0.000000 0.000000 0.000000 0.000000 0.000000 0.020479
#
#
# Mechanical properties :
#
#
# Convention : Reuss Voigt Hill
#
# Bulk Modulus (GPa) = 37.74248 43.63709 40.68978
# Shear Modulus (GPa) = 43.45676 46.09495 44.77586
#
# Velocity S-wave (km/s) = 4.27220 4.39997 4.33655
# Velocity P-wave (km/s) = 6.33934 6.64382 6.49337
#
# Compressibility (1/GPa) = 0.02649535
#
# Stress axis : x y z
#
# Youngs Moduli (GPa) = 160.62486 96.95358 78.12318
#
# Poissons Ratio (x) = 0.11494 0.06047
# Poissons Ratio (y) = 0.19043 -0.04196
# Poissons Ratio (z) = 0.12432 -0.05208
#
# Static dielectric constant tensor:
#      x y z
#    x 1.982340 0.000000 0.000000 
#    y 0.000000 1.959450 0.000000 
#    z 0.000000 0.000000 1.944080 
# 
# From -- ./inp_files/2628.got.cif
#   From: 2010.05.17/outbox.cif.g08.bks.cpg/sg37_2_cif.got.tgz:2628.got - 2010.06.03 17:53:42.
