data_PCOD9355186
_publ_section_title
;
Structure prediction by ZEFSAII (Michael W. Deem and Ramdas Pophale) SiO2 
 PCOD9355186
Probable space group: C C C 2
;
_chemical_formula_sum "Si O2"
_cell_formula_units_Z 56
_cell_length_a 5.493682
_cell_length_b 28.696165
_cell_length_c 14.649919
_cell_angle_alpha 90.000000
_cell_angle_beta 90.000000
_cell_angle_gamma 90.000000
_cell_volume 2309.524646
_symmetry_space_group_name_H-M "C C C 2"
_symmetry_group_IT_number 37
_symmetry_cell_setting 'orthorhombic'
loop_
_space_group_symop_operation_xyz
x,y,z
-x,-y,z
-x,y,1/2+z
x,-y,1/2+z
1/2+x,1/2+y,z
1/2-x,1/2-y,z
1/2-x,1/2+y,1/2+z
1/2+x,1/2-y,1/2+z
loop_
_atom_site_type_symbol
_atom_site_label
_atom_site_fract_x
_atom_site_fract_y
_atom_site_fract_z
Si Si1 0.486140 0.671080 0.632840
Si Si2 0.750000 0.750000 0.041992
Si Si3 0.245600 0.473824 0.290109
Si Si4 0.954484 0.295774 0.900250
Si Si5 0.251888 0.026418 0.069117
Si Si6 0.750000 0.750000 0.738087
Si Si7 0.138205 0.125675 0.317166
Si Si8 0.195239 0.877214 0.471195
O O1 0.268101 0.706078 0.607815
O O2 0.680103 0.706634 0.674204
O O3 0.417607 0.636235 0.712648
O O4 0.517429 0.643870 0.538050
O O5 0.986982 0.744551 0.976282
O O6 0.500000 0.500000 0.317279
O O7 0.256138 0.470874 0.179427
O O8 0.206506 0.420895 0.324554
O O9 0.000000 0.500000 0.316542
O O10 0.052085 0.270758 0.808574
O O11 0.117295 0.336366 0.946532
O O12 0.730003 0.326275 0.862821
O O13 0.500000 0.000000 0.044488
O O14 0.275440 0.077354 0.024872
O O15 0.000000 0.000000 0.041258
O O16 0.901889 0.110680 0.372171
#
# Coordination Sequence:
#
# PCOD9355186 Si02
#       8
#     8   4   8   8   8   4   8   8
#     4  11  23  44  70 100 140 192 235 297 366 435
#     4   9  22  44  63 102 140 182 243 290 361 434
#     4  10  24  47  76 107 145 192 245 303 371 449
#     4  10  24  43  67  99 143 182 242 307 349 442
#     4  10  23  47  75 105 146 192 241 304 372 445
#     4  11  22  44  67 100 138 192 245 296 371 428
#     4  12  25  45  72 104 141 193 242 300 371 438
#     4  11  25  46  66 110 142 182 252 296 365 439
#
# _framework density 24.247412000000001
#
# number of rings (size 3 to 8) (size 9 to 14) (size 15 to 20)
#    0.000    1.429    2.857    0.857    6.000    0.571 
#    2.571    0.000    0.000    0.000    0.000    0.000 
#    0.000    0.000    0.000    0.000    0.000    0.000 
#
# Total GULP energy -156215.505718 kJ/mol
# GULP energy per Si atom -5579.125204 kJ/mol
# Density = 2.419222 g / cm^3
# Si number density = 24.247412 Si / 1000 Ang^3
#
#
#
# Elastic Constant Matrix: (Units=GPa)
#
#
# Indices 1 2 3 4 5 6 
#
# 1 87.3398 38.5599 10.8531 0.0000 0.0000 0.0000
# 2 38.5599 141.2032 8.8662 0.0000 0.0000 0.0000
# 3 10.8531 8.8662 81.9687 0.0000 0.0000 0.0000
# 4 0.0000 0.0000 0.0000 250.6539 0.0000 0.0000
# 5 0.0000 0.0000 0.0000 0.0000 10.1395 0.0000
# 6 0.0000 0.0000 0.0000 0.0000 0.0000 32.7172
#
#
#
# Elastic Compliance Matrix: (Units=1/GPa)
#
#
# Indices 1 2 3 4 5 6 
#
# 1 0.013169 -0.003511 -0.001364 0.000000 0.000000 0.000000
# 2 -0.003511 0.008066 -0.000408 0.000000 0.000000 0.000000
# 3 -0.001364 -0.000408 0.012424 0.000000 0.000000 0.000000
# 4 0.000000 0.000000 0.000000 0.003990 0.000000 0.000000
# 5 0.000000 0.000000 0.000000 0.000000 0.098624 0.000000
# 6 0.000000 0.000000 0.000000 0.000000 0.000000 0.030565
#
#
# Mechanical properties :
#
#
# Convention : Reuss Voigt Hill
#
# Bulk Modulus (GPa) = 43.29875 47.45224 45.37550
# Shear Modulus (GPa) = 27.01234 75.51763 51.26499
#
# Velocity S-wave (km/s) = 3.34133 5.58679 4.60308
# Velocity P-wave (km/s) = 5.72554 7.82488 6.85604
#
# Compressibility (1/GPa) = 0.02309535
#
# Stress axis : x y z
#
# Youngs Moduli (GPa) = 75.93648 123.97334 80.48636
#
# Poissons Ratio (x) = 0.43521 0.10978
# Poissons Ratio (y) = 0.26658 0.03281
# Poissons Ratio (z) = 0.10357 0.05054
#
# Static dielectric constant tensor:
#      x y z
#    x 1.473020 0.000000 0.000000 
#    y 0.000000 1.995230 0.000000 
#    z 0.000000 0.000000 1.916640 
# 
# From -- ./inp_files/9955.got.cif
#   From: 2010.05.17/outbox.cif.g08.bks.cpg/sg37_5_cif.got.tgz:9955.got - 2010.06.03 17:53:42.
