data_PCOD9355598
_publ_section_title
;
Structure prediction by ZEFSAII (Michael W. Deem and Ramdas Pophale) SiO2 
 PCOD9355598
Probable space group: C C C 2
;
_chemical_formula_sum "Si O2"
_cell_formula_units_Z 56
_cell_length_a 14.428847
_cell_length_b 12.646978
_cell_length_c 14.074442
_cell_angle_alpha 90.000000
_cell_angle_beta 90.000000
_cell_angle_gamma 90.000000
_cell_volume 2568.322622
_symmetry_space_group_name_H-M "C C C 2"
_symmetry_group_IT_number 37
_symmetry_cell_setting 'orthorhombic'
loop_
_space_group_symop_operation_xyz
x,y,z
-x,-y,z
-x,y,1/2+z
x,-y,1/2+z
1/2+x,1/2+y,z
1/2-x,1/2-y,z
1/2-x,1/2+y,1/2+z
1/2+x,1/2-y,1/2+z
loop_
_atom_site_type_symbol
_atom_site_label
_atom_site_fract_x
_atom_site_fract_y
_atom_site_fract_z
Si Si1 0.116515 0.227119 0.550910
Si Si2 0.839107 0.827424 0.037705
Si Si3 0.100301 0.539591 0.967696
Si Si4 0.896035 0.473242 0.749078
Si Si5 0.511776 0.376359 0.392046
Si Si6 0.969181 0.745578 0.201669
Si Si7 0.244526 0.032623 0.603676
O O1 0.118547 0.336430 0.489618
O O2 0.200428 0.147064 0.580702
O O3 0.057422 0.154958 0.477981
O O4 0.069657 0.265336 0.650206
O O5 0.750000 0.750000 0.032796
O O6 0.912562 0.774027 0.107469
O O7 0.829248 0.939831 0.093453
O O8 0.887284 0.847010 0.935477
O O9 0.107373 0.502980 0.859916
O O10 0.000000 0.500000 0.001078
O O11 0.183312 0.489916 0.025035
O O12 0.904109 0.347654 0.741286
O O13 0.808865 0.524362 0.696648
O O14 0.000000 0.500000 0.712692
O O15 0.500000 0.500000 0.375357
O O16 0.487478 0.318186 0.293508
#
# Coordination Sequence:
#
# PCOD9355598 Si02
#       7
#     8   8   8   8   8   8   8
#     4  11  24  44  69 102 143 188 232 299 369 433
#     4  11  25  43  68 101 139 185 237 301 363 436
#     4  11  25  45  71  98 143 190 239 296 372 446
#     4  11  24  44  71 103 133 191 244 298 366 442
#     4  11  24  43  69 102 139 189 240 298 368 443
#     4  11  24  43  72  98 141 186 238 292 366 441
#     4  12  24  42  66 105 142 181 240 309 360 433
#
# _framework density 21.804114999999999
#
# number of rings (size 3 to 8) (size 9 to 14) (size 15 to 20)
#    0.000    0.857    4.286    2.571    4.000    2.286 
#    2.571    1.429    0.000    0.000    0.000    0.000 
#    0.000    0.000    0.000    0.000    0.000    0.000 
#
# Total GULP energy -155893.175228 kJ/mol
# GULP energy per Si atom -5567.613401 kJ/mol
# Density = 2.175449 g / cm^3
# Si number density = 21.804115 Si / 1000 Ang^3
#
#
#
# Elastic Constant Matrix: (Units=GPa)
#
#
# Indices 1 2 3 4 5 6 
#
# 1 83.8462 19.6679 26.8994 0.0000 0.0000 0.0000
# 2 19.6679 77.1205 -0.6570 0.0000 0.0000 0.0000
# 3 26.8994 -0.6570 115.7487 0.0000 0.0000 0.0000
# 4 0.0000 0.0000 0.0000 31.0522 0.0000 0.0000
# 5 0.0000 0.0000 0.0000 0.0000 11.9249 0.0000
# 6 0.0000 0.0000 0.0000 0.0000 0.0000 27.8760
#
#
#
# Elastic Compliance Matrix: (Units=1/GPa)
#
#
# Indices 1 2 3 4 5 6 
#
# 1 0.013793 -0.003545 -0.003226 0.000000 0.000000 0.000000
# 2 -0.003545 0.013878 0.000903 0.000000 0.000000 0.000000
# 3 -0.003226 0.000903 0.009394 0.000000 0.000000 0.000000
# 4 0.000000 0.000000 0.000000 0.032204 0.000000 0.000000
# 5 0.000000 0.000000 0.000000 0.000000 0.083858 0.000000
# 6 0.000000 0.000000 0.000000 0.000000 0.000000 0.035873
#
#
# Mechanical properties :
#
#
# Convention : Reuss Voigt Hill
#
# Bulk Modulus (GPa) = 39.47942 40.94844 40.21393
# Shear Modulus (GPa) = 23.90289 29.55763 26.73026
#
# Velocity S-wave (km/s) = 3.31457 3.68584 3.50512
# Velocity P-wave (km/s) = 5.72662 6.07740 5.90462
#
# Compressibility (1/GPa) = 0.02532965
#
# Stress axis : x y z
#
# Youngs Moduli (GPa) = 72.50065 72.05392 106.44944
#
# Poissons Ratio (x) = 0.25544 0.34336
# Poissons Ratio (y) = 0.25702 -0.09608
# Poissons Ratio (z) = 0.23385 -0.06504
#
# Static dielectric constant tensor:
#      x y z
#    x 6.388420 0.000000 0.000000 
#    y 0.000000 4.031840 0.000000 
#    z 0.000000 0.000000 1.770800 
# 
# From -- ./inp_files/12130.got.cif
#   From: 2010.05.17/outbox.cif.g08.bks.cpg/sg37_7_cif.got.tgz:12130.got - 2010.06.03 17:53:42.
