data_PCOD9355605
_publ_section_title
;
Structure prediction by ZEFSAII (Michael W. Deem and Ramdas Pophale) SiO2 
 PCOD9355605
Probable space group: C C C 2
;
_chemical_formula_sum "Si O2"
_cell_formula_units_Z 40
_cell_length_a 9.875149
_cell_length_b 8.802538
_cell_length_c 20.582278
_cell_angle_alpha 90.000000
_cell_angle_beta 90.000000
_cell_angle_gamma 90.000000
_cell_volume 1789.142802
_symmetry_space_group_name_H-M "C C C 2"
_symmetry_group_IT_number 37
_symmetry_cell_setting 'orthorhombic'
loop_
_space_group_symop_operation_xyz
x,y,z
-x,-y,z
-x,y,1/2+z
x,-y,1/2+z
1/2+x,1/2+y,z
1/2-x,1/2-y,z
1/2-x,1/2+y,1/2+z
1/2+x,1/2-y,1/2+z
loop_
_atom_site_type_symbol
_atom_site_label
_atom_site_fract_x
_atom_site_fract_y
_atom_site_fract_z
Si Si1 0.238337 0.042085 0.651600
Si Si2 0.750000 0.750000 0.872715
Si Si3 0.750000 0.250000 0.590210
Si Si4 0.923332 0.841345 0.765335
Si Si5 0.967586 0.675846 0.980906
Si Si6 0.750000 0.750000 0.530448
Si Si7 0.000000 0.500000 0.740130
O O1 0.140833 0.149072 0.693278
O O2 0.266387 0.111943 0.580937
O O3 0.181585 0.876769 0.635191
O O4 0.369557 0.004887 0.694012
O O5 0.806734 0.867587 0.819828
O O6 0.876284 0.720373 0.919483
O O7 0.871863 0.301772 0.543407
O O8 0.989917 0.671111 0.774057
O O9 0.000000 0.000000 0.770175
O O10 0.000000 0.500000 0.973861
O O11 0.111255 0.761512 0.989831
#
# Coordination Sequence:
#
# PCOD9355605 Si02
#       7
#     8   4   4   8   8   4   4
#     4  12  23  42  74 110 152 188 238 315 390 462
#     4  11  27  54  72 102 159 197 272 312 358 465
#     4  11  24  44  73 111 156 193 248 308 394 463
#     4  12  27  47  77 113 150 201 251 319 382 455
#     4  11  26  47  74 106 150 206 247 319 375 443
#     4  12  23  42  73 109 149 190 242 304 386 442
#     4  12  22  46  74 112 156 198 238 308 398 448
#
# _framework density 22.357075999999999
#
# number of rings (size 3 to 8) (size 9 to 14) (size 15 to 20)
#    0.000    0.400    6.000    2.400    4.200    1.600 
#    0.000    0.000    0.000    0.000    0.000    0.000 
#    0.000    0.000    0.000    0.000    0.000    0.000 
#
# Total GULP energy -111476.151799 kJ/mol
# GULP energy per Si atom -5573.807590 kJ/mol
# Density = 2.230619 g / cm^3
# Si number density = 22.357076 Si / 1000 Ang^3
#
#
#
# Elastic Constant Matrix: (Units=GPa)
#
#
# Indices 1 2 3 4 5 6 
#
# 1 142.3584 34.4274 56.3605 0.0000 0.0000 0.0000
# 2 34.4274 113.0612 36.8153 0.0000 0.0000 0.0000
# 3 56.3605 36.8153 102.5193 0.0000 0.0000 0.0000
# 4 0.0000 0.0000 0.0000 -3.4672 0.0000 0.0000
# 5 0.0000 0.0000 0.0000 0.0000 38.9914 0.0000
# 6 0.0000 0.0000 0.0000 0.0000 0.0000 40.1254
#
#
#
# Elastic Compliance Matrix: (Units=1/GPa)
#
#
# Indices 1 2 3 4 5 6 
#
# 1 0.009144 -0.001299 -0.004560 0.000000 0.000000 0.000000
# 2 -0.001299 0.010201 -0.002949 0.000000 0.000000 0.000000
# 3 -0.004560 -0.002949 0.013320 0.000000 0.000000 0.000000
# 4 0.000000 0.000000 0.000000 -0.288414 0.000000 0.000000
# 5 0.000000 0.000000 0.000000 0.000000 0.025647 0.000000
# 6 0.000000 0.000000 0.000000 0.000000 0.000000 0.024922
#
#
# Mechanical properties :
#
#
# Convention : Reuss Voigt Hill
#
# Bulk Modulus (GPa) = 66.45441 68.12725 67.29083
# Shear Modulus (GPa) = -27.39023 30.48564 1.54771
#
# Velocity S-wave (km/s) = -3.50398 3.69667 0.83293
# Velocity P-wave (km/s) = 3.66308 6.98277 5.57571
#
# Compressibility (1/GPa) = 0.01504791
#
# Stress axis : x y z
#
# Youngs Moduli (GPa) = 109.35781 98.03313 75.07331
#
# Poissons Ratio (x) = 0.12739 0.34237
# Poissons Ratio (y) = 0.14211 0.22137
# Poissons Ratio (z) = 0.49872 0.28907
#
# Static dielectric constant tensor:
#      x y z
#    x 1.899860 0.000000 0.000000 
#    y 0.000000 2.007120 0.000000 
#    z 0.000000 0.000000 1.797770 
# 
# From -- ./inp_files/18272.got.cif
#   From: 2010.05.17/outbox.cif.g08.bks.cpg/sg37_10_cif.got.tgz:18272.got - 2010.06.03 17:53:42.
