data_PCOD9355888
_publ_section_title
;
Structure prediction by ZEFSAII (Michael W. Deem and Ramdas Pophale) SiO2 
 PCOD9355888
Probable space group: A M M 2
;
_chemical_formula_sum "Si O2"
_cell_formula_units_Z 40
_cell_length_a 7.455217
_cell_length_b 11.217594
_cell_length_c 23.025868
_cell_angle_alpha 90.000000
_cell_angle_beta 90.000000
_cell_angle_gamma 90.000000
_cell_volume 1925.644073
_symmetry_space_group_name_H-M "A M M 2"
_symmetry_group_IT_number 38
_symmetry_cell_setting 'orthorhombic'
loop_
_space_group_symop_operation_xyz
x,y,z
-x,-y,z
-x,y,z
x,-y,z
x,1/2+y,1/2+z
-x,1/2-y,1/2+z
-x,1/2+y,1/2+z
x,1/2-y,1/2+z
loop_
_atom_site_type_symbol
_atom_site_label
_atom_site_fract_x
_atom_site_fract_y
_atom_site_fract_z
Si Si1 0.286970 0.133694 0.510160
Si Si2 0.217819 0.000000 0.193497
Si Si3 0.785753 0.809916 0.101071
Si Si4 0.782463 0.000000 0.006712
Si Si5 0.298528 0.000000 0.874377
Si Si6 0.279652 0.741077 0.889918
Si Si7 0.708410 0.000000 0.328577
O O1 0.500000 0.129104 0.501755
O O2 0.257916 0.180643 0.575776
O O3 0.219968 0.215538 0.456453
O O4 0.215696 0.000000 0.502986
O O5 0.278394 0.881371 0.157922
O O6 0.278163 0.000000 0.259402
O O7 0.000000 0.000000 0.193504
O O8 0.000000 0.815894 0.104578
O O9 0.726959 0.890063 0.046610
O O10 0.695561 0.000000 0.944509
O O11 0.000000 0.000000 0.000370
O O12 0.216866 0.868433 0.863961
O O13 0.500000 0.000000 0.849447
O O14 0.500000 0.748471 0.888993
O O15 0.220461 0.624311 0.854292
O O16 0.500000 0.000000 0.346450
#
# Coordination Sequence:
#
# PCOD9355888 Si02
#       7
#     8   4   8   4   4   8   4
#     4  10  18  29  48  76 108 136 165 207 258 314
#     4   9  20  38  56  74  98 133 178 224 259 296
#     4   9  18  32  49  70  99 131 164 209 262 305
#     4   9  16  26  42  68  98 123 153 199 246 291
#     4  10  17  27  47  72  97 133 168 198 248 313
#     4   9  17  29  48  75 105 135 167 207 257 307
#     4  10  19  35  55  74 101 139 179 215 257 308
#
# _framework density 20.772269000000001
#
# number of rings (size 3 to 8) (size 9 to 14) (size 15 to 20)
#    0.000    2.600    3.000    1.200    0.000    1.200 
#    0.000    4.000    2.200    0.000    0.000    0.000 
#    0.000    0.000    0.000    0.000    0.000    0.000 
#
# Total GULP energy -111349.916955 kJ/mol
# GULP energy per Si atom -5567.495848 kJ/mol
# Density = 2.072499 g / cm^3
# Si number density = 20.772269 Si / 1000 Ang^3
#
#
#
# Elastic Constant Matrix: (Units=GPa)
#
#
# Indices 1 2 3 4 5 6 
#
# 1 59.6876 1.0835 -9.5186 0.0000 0.0000 0.0000
# 2 1.0835 174.1984 50.4655 0.0000 0.0000 0.0000
# 3 -9.5186 50.4655 92.3815 0.0000 0.0000 0.0000
# 4 0.0000 0.0000 0.0000 28.9349 0.0000 0.0000
# 5 0.0000 0.0000 0.0000 0.0000 24.1468 0.0000
# 6 0.0000 0.0000 0.0000 0.0000 0.0000 7.3084
#
#
#
# Elastic Compliance Matrix: (Units=1/GPa)
#
#
# Indices 1 2 3 4 5 6 
#
# 1 0.017112 -0.000733 0.002164 0.000000 0.000000 0.000000
# 2 -0.000733 0.006851 -0.003818 0.000000 0.000000 0.000000
# 3 0.002164 -0.003818 0.013133 0.000000 0.000000 0.000000
# 4 0.000000 0.000000 0.000000 0.034560 0.000000 0.000000
# 5 0.000000 0.000000 0.000000 0.000000 0.041413 0.000000
# 6 0.000000 0.000000 0.000000 0.000000 0.000000 0.136829
#
#
# Mechanical properties :
#
#
# Convention : Reuss Voigt Hill
#
# Bulk Modulus (GPa) = 30.93921 45.59205 38.26563
# Shear Modulus (GPa) = 18.83605 31.02717 24.93161
#
# Velocity S-wave (km/s) = 3.01456 3.86901 3.46820
# Velocity P-wave (km/s) = 5.20034 6.47728 5.87362
#
# Compressibility (1/GPa) = 0.03232144
#
# Stress axis : x y z
#
# Youngs Moduli (GPa) = 58.43764 145.95798 76.14167
#
# Poissons Ratio (x) = 0.10703 -0.16475
# Poissons Ratio (y) = 0.04285 0.29073
# Poissons Ratio (z) = -0.12644 0.55730
#
# Static dielectric constant tensor:
#      x y z
#    x 1.787140 0.000000 0.000000 
#    y 0.000000 1.883950 0.000000 
#    z 0.000000 0.000000 1.693330 
# 
# From -- ./inp_files/19541.got.cif
#   From: 2010.05.17/outbox.cif.g08.bks.cpg/sg38_10_cif.got.tgz:19541.got - 2010.06.03 18:07:57.
