data_PCOD9355658
_publ_section_title
;
Structure prediction by ZEFSAII (Michael W. Deem and Ramdas Pophale) SiO2 
 PCOD9355658
Probable space group: C C C 2
;
_chemical_formula_sum "Si O2"
_cell_formula_units_Z 40
_cell_length_a 15.401247
_cell_length_b 10.221256
_cell_length_c 10.859891
_cell_angle_alpha 90.000000
_cell_angle_beta 90.000000
_cell_angle_gamma 90.000000
_cell_volume 1709.565000
_symmetry_space_group_name_H-M "C C C 2"
_symmetry_group_IT_number 37
_symmetry_cell_setting 'orthorhombic'
loop_
_space_group_symop_operation_xyz
x,y,z
-x,-y,z
-x,y,1/2+z
x,-y,1/2+z
1/2+x,1/2+y,z
1/2-x,1/2-y,z
1/2-x,1/2+y,1/2+z
1/2+x,1/2-y,1/2+z
loop_
_atom_site_type_symbol
_atom_site_label
_atom_site_fract_x
_atom_site_fract_y
_atom_site_fract_z
Si Si1 0.323461 0.114881 0.093510
Si Si2 0.750000 0.750000 0.704339
Si Si3 0.500000 0.500000 0.992100
Si Si4 0.500000 0.000000 0.033245
Si Si5 0.823461 0.114881 0.431836
Si Si6 0.750000 0.250000 0.821007
Si Si7 0.601553 0.250000 0.012673
O O1 0.283262 0.141367 0.225819
O O2 0.417549 0.054099 0.106009
O O3 0.250000 0.040598 0.012673
O O4 0.336035 0.250000 0.012673
O O5 0.783262 0.858633 0.799526
O O6 0.667421 0.787526 0.622244
O O7 0.541917 0.371862 0.055963
O O8 0.582451 0.554100 0.919336
O O9 0.458084 0.871862 0.969382
O O10 0.667421 0.287527 0.903102
#
# Coordination Sequence:
#
# PCOD9355658 Si02
#       7
#     8   4   4   4   8   4   8
#     4   9  21  46  68  97 137 179 223 276 337 398
#     4   9  23  48  68  98 137 185 220 282 336 403
#     4  12  24  44  70 104 136 176 228 282 332 406
#     4  12  24  44  70 104 136 176 228 282 332 406
#     4   9  21  46  68  97 137 179 223 276 337 398
#     4   9  23  48  68  98 137 185 220 282 336 403
#     4  11  26  44  67 104 136 176 229 278 339 398
#
# _framework density 23.397765
#
# number of rings (size 3 to 8) (size 9 to 14) (size 15 to 20)
#    0.000    2.400    2.000    0.000    5.600    4.800 
#    7.200    0.000    0.000    0.000    0.000    0.000 
#    0.000    0.000    0.000    0.000    0.000    0.000 
#
# Total GULP energy -111522.112154 kJ/mol
# GULP energy per Si atom -5576.105608 kJ/mol
# Density = 2.334451 g / cm^3
# Si number density = 23.397765 Si / 1000 Ang^3
#
#
#
# Elastic Constant Matrix: (Units=GPa)
#
#
# Indices 1 2 3 4 5 6 
#
# 1 227.5906 67.8899 65.3742 0.0000 0.0000 0.0000
# 2 67.8899 117.5304 25.2691 0.0000 0.0000 0.0000
# 3 65.3742 25.2691 108.9412 0.0000 0.0000 0.0000
# 4 0.0000 0.0000 0.0000 -1.7997 0.0000 0.0000
# 5 0.0000 0.0000 0.0000 0.0000 14.9869 0.0000
# 6 0.0000 0.0000 0.0000 0.0000 0.0000 71.4834
#
#
#
# Elastic Compliance Matrix: (Units=1/GPa)
#
#
# Indices 1 2 3 4 5 6 
#
# 1 0.006118 -0.002888 -0.003001 0.000000 0.000000 0.000000
# 2 -0.002888 0.010319 -0.000660 0.000000 0.000000 0.000000
# 3 -0.003001 -0.000660 0.011133 0.000000 0.000000 0.000000
# 4 0.000000 0.000000 0.000000 -0.555641 0.000000 0.000000
# 5 0.000000 0.000000 0.000000 0.000000 0.066725 0.000000
# 6 0.000000 0.000000 0.000000 0.000000 0.000000 0.013989
#
#
# Mechanical properties :
#
#
# Convention : Reuss Voigt Hill
#
# Bulk Modulus (GPa) = 69.10701 85.68094 77.39397
# Shear Modulus (GPa) = -11.64322 36.63605 12.49641
#
# Velocity S-wave (km/s) = -2.23316 3.96130 2.31354
# Velocity P-wave (km/s) = 4.79067 7.59087 6.34712
#
# Compressibility (1/GPa) = 0.01447031
#
# Stress axis : x y z
#
# Youngs Moduli (GPa) = 163.46495 96.90997 89.82078
#
# Poissons Ratio (x) = 0.27992 0.26956
# Poissons Ratio (y) = 0.47216 0.05929
# Poissons Ratio (z) = 0.49057 0.06397
#
# Static dielectric constant tensor:
#      x y z
#    x 1.839880 0.000000 0.000000 
#    y 0.000000 2.096610 0.000000 
#    z 0.000000 0.000000 1.832710 
# 
# From -- ./inp_files/7692.got.cif
#   From: 2010.05.17/outbox.cif.g08.bks.cpg/sg37_4_cif.got.tgz:7692.got - 2010.06.03 17:53:42.
