data_PCOD9355797
_publ_section_title
;
Structure prediction by ZEFSAII (Michael W. Deem and Ramdas Pophale) SiO2 
 PCOD9355797
Probable space group: A M M 2
;
_chemical_formula_sum "Si O2"
_cell_formula_units_Z 44
_cell_length_a 21.744964
_cell_length_b 22.277575
_cell_length_c 5.315179
_cell_angle_alpha 90.000000
_cell_angle_beta 90.000000
_cell_angle_gamma 90.000000
_cell_volume 2574.805940
_symmetry_space_group_name_H-M "A M M 2"
_symmetry_group_IT_number 38
_symmetry_cell_setting 'orthorhombic'
loop_
_space_group_symop_operation_xyz
x,y,z
-x,-y,z
-x,y,z
x,-y,z
x,1/2+y,1/2+z
-x,1/2-y,1/2+z
-x,1/2+y,1/2+z
x,1/2-y,1/2+z
loop_
_atom_site_type_symbol
_atom_site_label
_atom_site_fract_x
_atom_site_fract_y
_atom_site_fract_z
Si Si1 0.573737 0.428769 0.657350
Si Si2 0.500000 0.281004 0.993342
Si Si3 0.932867 0.290058 0.642071
Si Si4 0.386571 0.137845 0.645257
Si Si5 0.747285 0.182428 0.752611
Si Si6 0.797864 0.320791 0.752820
O O1 0.500000 0.417766 0.693890
O O2 0.581268 0.500000 0.626517
O O3 0.596621 0.395601 0.405003
O O4 0.610355 0.406327 0.904422
O O5 0.500000 0.225741 0.191709
O O6 0.560216 0.315638 0.079644
O O7 0.930886 0.258277 0.370028
O O8 0.869091 0.324191 0.678946
O O9 0.000000 0.320622 0.663254
O O10 0.323240 0.174315 0.677379
O O11 0.773166 0.251060 0.777257
O O12 0.785875 0.153353 0.526956
O O13 0.758863 0.153458 0.023411
#
# Coordination Sequence:
#
# PCOD9355797 Si02
#       6
#     8   4   8   8   8   8
#     4  11  22  41  62  77  92 115 156 225 278 312
#     4  12  26  36  49  70 107 134 160 200 234 286
#     4  10  16  25  41  60  87 123 179 222 233 252
#     4  12  23  39  52  78  98 128 170 200 259 309
#     4  10  20  28  47  59  95 124 163 195 226 283
#     4  10  17  32  40  66  90 139 174 192 225 279
#
# _framework density 17.088667000000001
#
# number of rings (size 3 to 8) (size 9 to 14) (size 15 to 20)
#    0.000    1.273    5.455    2.727    5.091    1.455 
#    0.000    0.000    0.000    0.000    0.000    0.000 
#    0.000    0.000    0.000    0.000    0.000  105.455 
#
# Total GULP energy -122519.993577 kJ/mol
# GULP energy per Si atom -5569.090617 kJ/mol
# Density = 1.704977 g / cm^3
# Si number density = 17.088667 Si / 1000 Ang^3
#
#
#
# Elastic Constant Matrix: (Units=GPa)
#
#
# Indices 1 2 3 4 5 6 
#
# 1 72.8517 6.4330 -32.1901 0.0000 0.0000 0.0000
# 2 6.4330 26.8673 -2.7411 0.0000 0.0000 0.0000
# 3 -32.1901 -2.7411 82.1868 0.0000 0.0000 0.0000
# 4 0.0000 0.0000 0.0000 18.6196 0.0000 0.0000
# 5 0.0000 0.0000 0.0000 0.0000 31.4555 0.0000
# 6 0.0000 0.0000 0.0000 0.0000 0.0000 -0.1768
#
#
#
# Elastic Compliance Matrix: (Units=1/GPa)
#
#
# Indices 1 2 3 4 5 6 
#
# 1 0.016900 -0.003383 0.006506 0.000000 0.000000 0.000000
# 2 -0.003383 0.038024 -0.000057 0.000000 0.000000 0.000000
# 3 0.006506 -0.000057 0.014714 0.000000 0.000000 0.000000
# 4 0.000000 0.000000 0.000000 0.053707 0.000000 0.000000
# 5 0.000000 0.000000 0.000000 0.000000 0.031791 0.000000
# 6 0.000000 0.000000 0.000000 0.000000 0.000000 -5.656559
#
#
# Mechanical properties :
#
#
# Convention : Reuss Voigt Hill
#
# Bulk Modulus (GPa) = 13.19744 13.87882 13.53813
# Shear Modulus (GPa) = -0.91203 24.00660 11.54729
#
# Velocity S-wave (km/s) = -0.73134 3.75217 2.60230
# Velocity P-wave (km/s) = 2.65076 5.18758 4.11931
#
# Compressibility (1/GPa) = 0.07577225
#
# Stress axis : x y z
#
# Youngs Moduli (GPa) = 59.17099 26.29911 67.96288
#
# Poissons Ratio (x) = 0.08896 -0.44220
# Poissons Ratio (y) = 0.20016 0.00386
# Poissons Ratio (z) = -0.38499 0.00149
#
# Static dielectric constant tensor:
#      x y z
#    x 1.591040 0.000000 0.000000 
#    y 0.000000 1.698770 0.000000 
#    z 0.000000 0.000000 1.666220 
# 
# From -- ./inp_files/1873.got.cif
#   From: 2010.05.17/outbox.cif.g08.bks.cpg/sg38_1_cif.got.tgz:1873.got - 2010.06.03 18:07:57.
