data_PCOD9355347
_publ_section_title
;
Structure prediction by ZEFSAII (Michael W. Deem and Ramdas Pophale) SiO2 
 PCOD9355347
Probable space group: C C C 2
;
_chemical_formula_sum "Si O2"
_cell_formula_units_Z 32
_cell_length_a 11.302567
_cell_length_b 11.187566
_cell_length_c 8.304022
_cell_angle_alpha 90.000000
_cell_angle_beta 90.000000
_cell_angle_gamma 90.000000
_cell_volume 1050.028753
_symmetry_space_group_name_H-M "C C C 2"
_symmetry_group_IT_number 37
_symmetry_cell_setting 'orthorhombic'
loop_
_space_group_symop_operation_xyz
x,y,z
-x,-y,z
-x,y,1/2+z
x,-y,1/2+z
1/2+x,1/2+y,z
1/2-x,1/2-y,z
1/2-x,1/2+y,1/2+z
1/2+x,1/2-y,1/2+z
loop_
_atom_site_type_symbol
_atom_site_label
_atom_site_fract_x
_atom_site_fract_y
_atom_site_fract_z
Si Si1 0.342519 0.411240 0.688640
Si Si2 0.090595 0.583645 0.262273
Si Si3 0.213583 0.636076 0.757031
Si Si4 0.441787 0.709505 0.497169
O O1 0.293872 0.132191 0.674606
O O2 0.323088 0.556677 0.683228
O O3 0.444274 0.354565 0.576812
O O4 0.379751 0.379945 0.871299
O O5 0.152680 0.471964 0.353775
O O6 0.030127 0.684593 0.366520
O O7 0.000000 0.500000 0.164082
O O8 0.250000 0.750000 0.858669
O O9 0.361479 0.792360 0.618246
#
# Coordination Sequence:
#
# PCOD9355347 Si02
#       4
#     8   8   8   8
#     4  10  27  51  98 138 189 266 326 414 509 595
#     4  10  24  51  87 129 189 247 324 412 491 589
#     4  10  25  51  83 138 189 254 326 407 492 605
#     4  12  24  56  93 139 197 252 340 417 502 613
#
# _framework density 30.475353999999999
#
# number of rings (size 3 to 8) (size 9 to 14) (size 15 to 20)
#    1.500    0.000    0.000    3.750    0.000    4.000 
#    9.000    7.500    5.500    0.000    0.000    0.000 
#    0.000    0.000    0.000    0.000    0.000    0.000 
#
# Total GULP energy -89176.973399 kJ/mol
# GULP energy per Si atom -5573.560837 kJ/mol
# Density = 3.040599 g / cm^3
# Si number density = 30.475354 Si / 1000 Ang^3
#
#
#
# Elastic Constant Matrix: (Units=GPa)
#
#
# Indices 1 2 3 4 5 6 
#
# 1 238.0842 101.6948 94.9275 0.0000 0.0000 0.0000
# 2 101.6948 298.8525 75.7609 0.0000 0.0000 0.0000
# 3 94.9275 75.7609 190.1265 0.0000 0.0000 0.0000
# 4 0.0000 0.0000 0.0000 41.2892 0.0000 0.0000
# 5 0.0000 0.0000 0.0000 0.0000 41.3999 0.0000
# 6 0.0000 0.0000 0.0000 0.0000 0.0000 105.5741
#
#
#
# Elastic Compliance Matrix: (Units=1/GPa)
#
#
# Indices 1 2 3 4 5 6 
#
# 1 0.005698 -0.001355 -0.002305 0.000000 0.000000 0.000000
# 2 -0.001355 0.004044 -0.000935 0.000000 0.000000 0.000000
# 3 -0.002305 -0.000935 0.006783 0.000000 0.000000 0.000000
# 4 0.000000 0.000000 0.000000 0.024219 0.000000 0.000000
# 5 0.000000 0.000000 0.000000 0.000000 0.024155 0.000000
# 6 0.000000 0.000000 0.000000 0.000000 0.000000 0.009472
#
#
# Mechanical properties :
#
#
# Convention : Reuss Voigt Hill
#
# Bulk Modulus (GPa) = 136.32269 141.31440 138.81854
# Shear Modulus (GPa) = 58.13541 67.96464 63.05003
#
# Velocity S-wave (km/s) = 4.37237 4.72757 4.55344
# Velocity P-wave (km/s) = 8.38566 8.73331 8.56125
#
# Compressibility (1/GPa) = 0.00733554
#
# Stress axis : x y z
#
# Youngs Moduli (GPa) = 175.50502 247.27171 147.42269
#
# Poissons Ratio (x) = 0.33494 0.33982
# Poissons Ratio (y) = 0.23773 0.13787
# Poissons Ratio (z) = 0.40456 0.23125
#
# Static dielectric constant tensor:
#      x y z
#    x 2.996990 0.000000 0.000000 
#    y 0.000000 2.444100 0.000000 
#    z 0.000000 0.000000 2.332740 
# 
# From -- ./inp_files/3227.got.cif
#   From: 2010.05.17/outbox.cif.g08.bks.cpg/sg37_2_cif.got.tgz:3227.got - 2010.06.03 17:53:42.
