data_PCOD9355664
_publ_section_title
;
Structure prediction by ZEFSAII (Michael W. Deem and Ramdas Pophale) SiO2 
 PCOD9355664
Probable space group: C C C 2
;
_chemical_formula_sum "Si O2"
_cell_formula_units_Z 32
_cell_length_a 21.236501
_cell_length_b 5.407542
_cell_length_c 11.260074
_cell_angle_alpha 90.000000
_cell_angle_beta 90.000000
_cell_angle_gamma 90.000000
_cell_volume 1293.076170
_symmetry_space_group_name_H-M "C C C 2"
_symmetry_group_IT_number 37
_symmetry_cell_setting 'orthorhombic'
loop_
_space_group_symop_operation_xyz
x,y,z
-x,-y,z
-x,y,1/2+z
x,-y,1/2+z
1/2+x,1/2+y,z
1/2-x,1/2-y,z
1/2-x,1/2+y,1/2+z
1/2+x,1/2-y,1/2+z
loop_
_atom_site_type_symbol
_atom_site_label
_atom_site_fract_x
_atom_site_fract_y
_atom_site_fract_z
Si Si1 0.136536 0.044280 0.530060
Si Si2 0.179039 0.843440 0.765898
Si Si3 0.040026 0.751857 0.411067
Si Si4 0.924724 0.552464 0.675830
O O1 0.179073 0.008485 0.645763
O O2 0.088982 0.808992 0.516623
O O3 0.166660 0.063034 0.400236
O O4 0.099984 0.295640 0.562401
O O5 0.250000 0.750000 0.771324
O O6 0.123374 0.645921 0.734640
O O7 0.073497 0.753078 0.283682
O O8 0.000000 0.500000 0.413904
O O9 0.000000 0.000000 0.413281
O O10 0.000000 0.500000 0.661864
#
# Coordination Sequence:
#
# PCOD9355664 Si02
#       4
#     8   8   8   8
#     4  12  28  52  81 127 165 226 293 355 445 524
#     4  12  32  53  84 120 174 238 291 368 436 539
#     4  11  26  48  82 127 180 224 279 356 440 520
#     4  11  28  50  82 127 171 222 288 362 444 520
#
# _framework density 24.747187
#
# number of rings (size 3 to 8) (size 9 to 14) (size 15 to 20)
#    0.000    0.500    2.500    3.000   14.000    1.000 
#    0.000    0.000    0.000    0.000    0.000    0.000 
#    0.000    0.000    0.000    0.000    0.000    0.000 
#
# Total GULP energy -89333.393669 kJ/mol
# GULP energy per Si atom -5583.337104 kJ/mol
# Density = 2.469086 g / cm^3
# Si number density = 24.747187 Si / 1000 Ang^3
#
#
#
# Elastic Constant Matrix: (Units=GPa)
#
#
# Indices 1 2 3 4 5 6 
#
# 1 140.4444 42.9737 64.6729 0.0000 0.0000 0.0000
# 2 42.9737 115.3568 31.0348 0.0000 0.0000 0.0000
# 3 64.6729 31.0348 212.2068 0.0000 0.0000 0.0000
# 4 0.0000 0.0000 0.0000 26.5517 0.0000 0.0000
# 5 0.0000 0.0000 0.0000 0.0000 28.3056 0.0000
# 6 0.0000 0.0000 0.0000 0.0000 0.0000 31.4460
#
#
#
# Elastic Compliance Matrix: (Units=1/GPa)
#
#
# Indices 1 2 3 4 5 6 
#
# 1 0.009042 -0.002735 -0.002356 0.000000 0.000000 0.000000
# 2 -0.002735 0.009851 -0.000607 0.000000 0.000000 0.000000
# 3 -0.002356 -0.000607 0.005519 0.000000 0.000000 0.000000
# 4 0.000000 0.000000 0.000000 0.037662 0.000000 0.000000
# 5 0.000000 0.000000 0.000000 0.000000 0.035329 0.000000
# 6 0.000000 0.000000 0.000000 0.000000 0.000000 0.031801
#
#
# Mechanical properties :
#
#
# Convention : Reuss Voigt Hill
#
# Bulk Modulus (GPa) = 76.82438 82.81898 79.82168
# Shear Modulus (GPa) = 34.49768 39.21575 36.85672
#
# Velocity S-wave (km/s) = 3.73769 3.98509 3.86337
# Velocity P-wave (km/s) = 7.05253 7.39684 7.22674
#
# Compressibility (1/GPa) = 0.01301670
#
# Stress axis : x y z
#
# Youngs Moduli (GPa) = 110.59818 101.51428 181.18829
#
# Poissons Ratio (x) = 0.27760 0.42682
# Poissons Ratio (y) = 0.30244 0.11003
# Poissons Ratio (z) = 0.26053 0.06165
#
# Static dielectric constant tensor:
#      x y z
#    x 2.041030 0.000000 0.000000 
#    y 0.000000 2.075940 0.000000 
#    z 0.000000 0.000000 2.066530 
# 
# From -- ./inp_files/5325.got.cif
#   From: 2010.05.17/outbox.cif.g08.bks.cpg/sg37_3_cif.got.tgz:5325.got - 2010.06.03 17:53:42.
