data_PCOD9355475
_publ_section_title
;
Structure prediction by ZEFSAII (Michael W. Deem and Ramdas Pophale) SiO2 
 PCOD9355475
Probable space group: C C C 2
;
_chemical_formula_sum "Si O2"
_cell_formula_units_Z 40
_cell_length_a 12.367401
_cell_length_b 13.791835
_cell_length_c 9.225853
_cell_angle_alpha 90.000000
_cell_angle_beta 90.000000
_cell_angle_gamma 90.000000
_cell_volume 1573.645941
_symmetry_space_group_name_H-M "C C C 2"
_symmetry_group_IT_number 37
_symmetry_cell_setting 'orthorhombic'
loop_
_space_group_symop_operation_xyz
x,y,z
-x,-y,z
-x,y,1/2+z
x,-y,1/2+z
1/2+x,1/2+y,z
1/2-x,1/2-y,z
1/2-x,1/2+y,1/2+z
1/2+x,1/2-y,1/2+z
loop_
_atom_site_type_symbol
_atom_site_label
_atom_site_fract_x
_atom_site_fract_y
_atom_site_fract_z
Si Si1 0.445991 0.407500 0.252250
Si Si2 0.267681 0.931981 0.633973
Si Si3 0.536014 0.195777 0.606106
Si Si4 0.132277 0.174674 0.891548
Si Si5 0.283239 0.846178 0.103494
O O1 0.500000 0.500000 0.173625
O O2 0.319420 0.428374 0.264294
O O3 0.456749 0.300470 0.183232
O O4 0.527678 0.394068 0.384831
O O5 0.382511 0.884331 0.669717
O O6 0.212491 0.864360 0.513296
O O7 0.271035 0.040255 0.572925
O O8 0.581890 0.222830 0.444974
O O9 0.412798 0.163725 0.614787
O O10 0.200437 0.167097 0.742466
O O11 0.250000 0.750000 0.010765
#
# Coordination Sequence:
#
# PCOD9355475 Si02
#       5
#     8   8   8   8   8
#     4  11  21  42  72 103 138 192 242 312 368 447
#     4  11  25  46  69 109 147 190 252 310 370 464
#     4  11  25  44  76 102 145 194 250 304 388 451
#     4  11  24  46  76  97 150 200 236 310 387 433
#     4  12  23  48  73 107 145 195 248 314 369 455
#
# _framework density 25.418679000000001
#
# number of rings (size 3 to 8) (size 9 to 14) (size 15 to 20)
#    0.000    0.800    4.000    4.200    0.000    4.800 
#    3.600    2.000    0.000    0.000    0.000    0.000 
#    0.000    0.000    0.000    0.000    0.000    0.000 
#
# Total GULP energy -111544.283457 kJ/mol
# GULP energy per Si atom -5577.214173 kJ/mol
# Density = 2.536083 g / cm^3
# Si number density = 25.418679 Si / 1000 Ang^3
#
#
#
# Elastic Constant Matrix: (Units=GPa)
#
#
# Indices 1 2 3 4 5 6 
#
# 1 235.1602 54.2114 29.9355 0.0000 0.0000 0.0000
# 2 54.2114 109.3251 9.0842 0.0000 0.0000 0.0000
# 3 29.9355 9.0842 43.7667 0.0000 0.0000 0.0000
# 4 0.0000 0.0000 0.0000 -0.8608 0.0000 0.0000
# 5 0.0000 0.0000 0.0000 0.0000 14.0336 0.0000
# 6 0.0000 0.0000 0.0000 0.0000 0.0000 60.2467
#
#
#
# Elastic Compliance Matrix: (Units=1/GPa)
#
#
# Indices 1 2 3 4 5 6 
#
# 1 0.005175 -0.002312 -0.003060 0.000000 0.000000 0.000000
# 2 -0.002312 0.010340 -0.000565 0.000000 0.000000 0.000000
# 3 -0.003060 -0.000565 0.025058 0.000000 0.000000 0.000000
# 4 0.000000 0.000000 0.000000 -1.161695 0.000000 0.000000
# 5 0.000000 0.000000 0.000000 0.000000 0.071258 0.000000
# 6 0.000000 0.000000 0.000000 0.000000 0.000000 0.016598
#
#
# Mechanical properties :
#
#
# Convention : Reuss Voigt Hill
#
# Bulk Modulus (GPa) = 34.84239 63.85712 49.34976
# Shear Modulus (GPa) = -4.94156 34.35195 14.70519
#
# Velocity S-wave (km/s) = -1.39581 3.68019 2.40785
# Velocity P-wave (km/s) = 3.33758 6.57534 5.21414
#
# Compressibility (1/GPa) = 0.02870067
#
# Stress axis : x y z
#
# Youngs Moduli (GPa) = 193.24221 96.70852 39.90676
#
# Poissons Ratio (x) = 0.22357 0.12210
# Poissons Ratio (y) = 0.44674 0.02255
# Poissons Ratio (z) = 0.59125 0.05464
#
# Static dielectric constant tensor:
#      x y z
#    x 2.022060 0.000000 0.000000 
#    y 0.000000 2.053750 0.000000 
#    z 0.000000 0.000000 2.246820 
# 
# From -- ./inp_files/7056.got.cif
#   From: 2010.05.17/outbox.cif.g08.bks.cpg/sg37_4_cif.got.tgz:7056.got - 2010.06.03 17:53:42.
