data_PCOD9355961
_publ_section_title
;
Structure prediction by ZEFSAII (Michael W. Deem and Ramdas Pophale) SiO2 
 PCOD9355961
Probable space group: A M M 2
;
_chemical_formula_sum "Si O2"
_cell_formula_units_Z 56
_cell_length_a 9.026219
_cell_length_b 30.092271
_cell_length_c 14.054968
_cell_angle_alpha 90.000000
_cell_angle_beta 90.000000
_cell_angle_gamma 90.000000
_cell_volume 3817.602372
_symmetry_space_group_name_H-M "A M M 2"
_symmetry_group_IT_number 38
_symmetry_cell_setting 'orthorhombic'
loop_
_space_group_symop_operation_xyz
x,y,z
-x,-y,z
-x,y,z
x,-y,z
x,1/2+y,1/2+z
-x,1/2-y,1/2+z
-x,1/2+y,1/2+z
x,1/2-y,1/2+z
loop_
_atom_site_type_symbol
_atom_site_label
_atom_site_fract_x
_atom_site_fract_y
_atom_site_fract_z
Si Si1 0.676379 0.597492 0.588790
Si Si2 0.322398 0.500000 0.602195
Si Si3 0.176291 0.000000 0.309690
Si Si4 0.823111 0.819439 0.990333
Si Si5 0.322503 0.316065 0.909167
Si Si6 0.178034 0.226566 0.588138
Si Si7 0.178769 0.767028 0.805791
Si Si8 0.322034 0.909068 0.312252
O O1 0.500000 0.603740 0.584636
O O2 0.709846 0.547200 0.553923
O O3 0.751547 0.636042 0.529235
O O4 0.718624 0.599116 0.700974
O O5 0.500000 0.500000 0.624771
O O6 0.232413 0.500000 0.700287
O O7 0.243529 0.953874 0.348298
O O8 0.000000 0.000000 0.315714
O O9 0.780347 0.804184 0.883887
O O10 0.000000 0.824408 0.992748
O O11 0.784860 0.777055 0.056515
O O12 0.500000 0.311695 0.909229
O O13 0.253318 0.278739 0.839750
O O14 0.284701 0.365130 0.871610
O O15 0.258080 0.305379 0.013328
O O16 0.218203 0.220623 0.698188
O O17 0.000000 0.221551 0.577757
O O18 0.000000 0.761160 0.810275
O O19 0.500000 0.915737 0.314469
#
# Coordination Sequence:
#
# PCOD9355961 Si02
#       8
#     8   4   4   8   8   8   8   8
#     4   9  16  27  43  60  82 114 144 169 206 256
#     4   8  16  30  42  56  85 118 141 168 215 264
#     4  10  18  26  42  66  85 108 145 180 207 246
#     4   9  17  27  41  63  86 109 141 177 212 249
#     4  10  19  29  45  68  89 113 147 182 216 256
#     4   9  18  32  46  60  85 119 148 177 214 256
#     4   9  18  32  46  61  87 121 149 177 218 260
#     4   9  18  31  43  59  89 121 141 168 216 262
#
# _framework density 14.668892
#
# number of rings (size 3 to 8) (size 9 to 14) (size 15 to 20)
#    0.000    2.857    0.000    3.643    0.000    6.286 
#    0.000    0.000    0.000    0.000    0.000    1.000 
#    0.000    4.571    0.000    0.000    0.000    0.000 
#
# Total GULP energy -155947.281627 kJ/mol
# GULP energy per Si atom -5569.545772 kJ/mol
# Density = 1.463550 g / cm^3
# Si number density = 14.668892 Si / 1000 Ang^3
#
#
#
# Elastic Constant Matrix: (Units=GPa)
#
#
# Indices 1 2 3 4 5 6 
#
# 1 29.4713 51.0208 31.3159 0.0000 0.0000 0.0000
# 2 51.0208 154.1266 69.2623 0.0000 0.0000 0.0000
# 3 31.3159 69.2623 97.0750 0.0000 0.0000 0.0000
# 4 0.0000 0.0000 0.0000 23.1728 0.0000 0.0000
# 5 0.0000 0.0000 0.0000 0.0000 19.6379 0.0000
# 6 0.0000 0.0000 0.0000 0.0000 0.0000 15.8291
#
#
#
# Elastic Compliance Matrix: (Units=1/GPa)
#
#
# Indices 1 2 3 4 5 6 
#
# 1 0.086844 -0.023784 -0.011045 0.000000 0.000000 0.000000
# 2 -0.023784 0.016064 -0.003789 0.000000 0.000000 0.000000
# 3 -0.011045 -0.003789 0.016568 0.000000 0.000000 0.000000
# 4 0.000000 0.000000 0.000000 0.043154 0.000000 0.000000
# 5 0.000000 0.000000 0.000000 0.000000 0.050922 0.000000
# 6 0.000000 0.000000 0.000000 0.000000 0.000000 0.063175
#
#
# Mechanical properties :
#
#
# Convention : Reuss Voigt Hill
#
# Bulk Modulus (GPa) = 23.67521 64.87455 44.27488
# Shear Modulus (GPa) = 13.58535 20.33287 16.95911
#
# Velocity S-wave (km/s) = 3.04655 3.72711 3.40388
# Velocity P-wave (km/s) = 5.34322 7.92740 6.75995
#
# Compressibility (1/GPa) = 0.04223828
#
# Stress axis : x y z
#
# Youngs Moduli (GPa) = 11.51496 62.24991 60.35751
#
# Poissons Ratio (x) = 1.48057 0.66667
# Poissons Ratio (y) = 0.27388 0.22870
# Poissons Ratio (z) = 0.12719 0.23587
#
# Static dielectric constant tensor:
#      x y z
#    x 1.491130 0.000000 0.000000 
#    y 0.000000 1.488120 0.000000 
#    z 0.000000 0.000000 1.475930 
# 
# From -- ./inp_files/13007.got.cif
#   From: 2010.05.17/outbox.cif.g08.bks.cpg/sg38_7_cif.got.tgz:13007.got - 2010.06.03 18:07:57.
