data_PCOD9355693
_publ_section_title
;
Structure prediction by ZEFSAII (Michael W. Deem and Ramdas Pophale) SiO2 
 PCOD9355693
Probable space group: C C C 2
;
_chemical_formula_sum "Si O2"
_cell_formula_units_Z 48
_cell_length_a 9.862732
_cell_length_b 9.862731
_cell_length_c 25.905912
_cell_angle_alpha 90.000000
_cell_angle_beta 90.000000
_cell_angle_gamma 90.000000
_cell_volume 2519.958022
_symmetry_space_group_name_H-M "C C C 2"
_symmetry_group_IT_number 37
_symmetry_cell_setting 'orthorhombic'
loop_
_space_group_symop_operation_xyz
x,y,z
-x,-y,z
-x,y,1/2+z
x,-y,1/2+z
1/2+x,1/2+y,z
1/2-x,1/2-y,z
1/2-x,1/2+y,1/2+z
1/2+x,1/2-y,1/2+z
loop_
_atom_site_type_symbol
_atom_site_label
_atom_site_fract_x
_atom_site_fract_y
_atom_site_fract_z
Si Si1 0.752642 0.586573 0.713950
Si Si2 0.483403 0.832977 0.464407
Si Si3 0.750000 0.250000 0.017402
Si Si4 0.413427 0.247358 0.848230
Si Si5 0.000000 0.000000 0.781090
Si Si6 0.000000 0.500000 0.781090
Si Si7 0.250000 0.750000 0.544778
Si Si8 0.167023 0.483403 0.597773
O O1 0.750000 0.750000 0.722009
O O2 0.623212 0.519490 0.741029
O O3 0.873371 0.513576 0.743910
O O4 0.780505 0.561938 0.653708
O O5 0.620633 0.755818 0.480201
O O6 0.438063 0.780505 0.408472
O O7 0.374993 0.783159 0.506797
O O8 0.500000 0.000000 0.465009
O O9 0.783159 0.374993 0.055383
O O10 0.250000 0.250000 0.840172
O O11 0.480510 0.376788 0.821151
O O12 0.486424 0.126629 0.818270
O O13 0.244182 0.620633 0.581979
O O14 0.000000 0.500000 0.597171
#
# Coordination Sequence:
#
# PCOD9355693 Si02
#       8
#     8   8   4   8   4   4   4   8
#     4  12  26  46  74 106 146 186 239 298 350 424
#     4  12  26  46  74 105 142 187 234 292 363 420
#     4  12  24  46  72 106 140 180 238 292 350 428
#     4  12  26  46  74 106 146 186 239 298 350 424
#     4  12  26  46  68 116 138 180 250 294 344 424
#     4  12  22  46  76  96 146 192 218 298 364 400
#     4  12  24  46  72 106 140 180 238 292 350 428
#     4  12  26  46  74 105 142 187 234 292 363 420
#
# _framework density 19.047936
#
# number of rings (size 3 to 8) (size 9 to 14) (size 15 to 20)
#    0.000    0.000   10.000    0.000    0.000    9.333 
#    0.000    0.000    0.000    0.000    0.000    0.000 
#    0.000    0.000    0.000    0.000    0.000    0.000 
#
# Total GULP energy -133815.047553 kJ/mol
# GULP energy per Si atom -5575.626981 kJ/mol
# Density = 1.900458 g / cm^3
# Si number density = 19.047936 Si / 1000 Ang^3
#
#
#
# Elastic Constant Matrix: (Units=GPa)
#
#
# Indices 1 2 3 4 5 6 
#
# 1 148.9678 77.2261 56.8085 0.0000 0.0000 0.0000
# 2 77.2261 148.9675 56.8084 0.0000 0.0000 0.0000
# 3 56.8085 56.8084 144.9307 0.0000 0.0000 0.0000
# 4 0.0000 0.0000 0.0000 14.0412 0.0000 0.0000
# 5 0.0000 0.0000 0.0000 0.0000 14.0324 0.0000
# 6 0.0000 0.0000 0.0000 0.0000 0.0000 28.8557
#
#
#
# Elastic Compliance Matrix: (Units=1/GPa)
#
#
# Indices 1 2 3 4 5 6 
#
# 1 0.009722 -0.004217 -0.002158 0.000000 0.000000 0.000000
# 2 -0.004217 0.009722 -0.002158 0.000000 0.000000 0.000000
# 3 -0.002158 -0.002158 0.008591 0.000000 0.000000 0.000000
# 4 0.000000 0.000000 0.000000 0.071219 0.000000 0.000000
# 5 0.000000 0.000000 0.000000 0.000000 0.071264 0.000000
# 6 0.000000 0.000000 0.000000 0.000000 0.000000 0.034655
#
#
# Mechanical properties :
#
#
# Convention : Reuss Voigt Hill
#
# Bulk Modulus (GPa) = 91.15675 91.61688 91.38682
# Shear Modulus (GPa) = 22.13420 28.18738 25.16079
#
# Velocity S-wave (km/s) = 3.41255 3.85101 3.63839
# Velocity P-wave (km/s) = 7.96792 8.24477 8.10752
#
# Compressibility (1/GPa) = 0.01097011
#
# Stress axis : x y z
#
# Youngs Moduli (GPa) = 102.86097 102.86076 116.39583
#
# Poissons Ratio (x) = 0.43377 0.25115
# Poissons Ratio (y) = 0.43377 0.25115
# Poissons Ratio (z) = 0.22195 0.22194
#
# Static dielectric constant tensor:
#      x y z
#    x 1.761610 0.000000 0.000000 
#    y 0.000000 1.761490 0.000000 
#    z 0.000000 0.000000 1.710540 
# 
# From -- ./inp_files/20387.got.cif
#   From: 2010.05.17/outbox.cif.g08.bks.cpg/sg37_11_cif.got.tgz:20387.got - 2010.06.03 17:53:42.
