data_PCOD9355871
_publ_section_title
;
Structure prediction by ZEFSAII (Michael W. Deem and Ramdas Pophale) SiO2 
 PCOD9355871
Probable space group: A M M 2
;
_chemical_formula_sum "Si O2"
_cell_formula_units_Z 56
_cell_length_a 8.678828
_cell_length_b 22.916568
_cell_length_c 18.398137
_cell_angle_alpha 90.000000
_cell_angle_beta 90.000000
_cell_angle_gamma 90.000000
_cell_volume 3659.186187
_symmetry_space_group_name_H-M "A M M 2"
_symmetry_group_IT_number 38
_symmetry_cell_setting 'orthorhombic'
loop_
_space_group_symop_operation_xyz
x,y,z
-x,-y,z
-x,y,z
x,-y,z
x,1/2+y,1/2+z
-x,1/2-y,1/2+z
-x,1/2+y,1/2+z
x,1/2-y,1/2+z
loop_
_atom_site_type_symbol
_atom_site_label
_atom_site_fract_x
_atom_site_fract_y
_atom_site_fract_z
Si Si1 0.686020 0.283172 0.625000
Si Si2 0.678552 0.822597 0.974653
Si Si3 0.184406 0.158318 0.575612
Si Si4 0.183448 0.721629 0.779145
Si Si5 0.321672 0.686023 0.926481
Si Si6 0.814178 0.567378 0.199228
Si Si7 0.313947 0.651248 0.320140
O O1 0.500000 0.283470 0.625376
O O2 0.743299 0.321833 0.556251
O O3 0.741427 0.217080 0.608837
O O4 0.750225 0.301027 0.702992
O O5 0.500000 0.840467 0.981054
O O6 0.681917 0.754367 0.950819
O O7 0.742946 0.855203 0.903867
O O8 0.242489 0.152589 0.493009
O O9 0.226317 0.104364 0.627288
O O10 0.000000 0.165358 0.575977
O O11 0.238436 0.684866 0.848965
O O12 0.248921 0.787287 0.790466
O O13 0.000000 0.724450 0.776518
O O14 0.500000 0.669458 0.919300
O O15 0.767765 0.500000 0.194360
O O16 0.740300 0.600107 0.267709
O O17 0.000000 0.569930 0.206476
O O18 0.500000 0.655396 0.320836
#
# Coordination Sequence:
#
# PCOD9355871 Si02
#       7
#     8   8   8   8   8   8   8
#     4  10  17  27  43  62  88 119 148 178 217 266
#     4   7  14  26  40  59  81 108 141 176 215 259
#     4  10  18  29  44  61  84 115 150 187 227 265
#     4  11  19  27  41  64  91 117 147 180 218 266
#     4   9  17  29  43  60  83 113 147 180 219 266
#     4  10  21  34  46  63  89 120 154 191 230 268
#     4  10  18  30  46  62  83 114 152 189 225 264
#
# _framework density 15.303948999999999
#
# number of rings (size 3 to 8) (size 9 to 14) (size 15 to 20)
#    0.000    2.429    1.429    4.714    0.000    0.857 
#    0.000    2.143    0.000    0.000    0.000    0.000 
#    0.000    1.143    0.000    8.286    0.000    4.286 
#
# Total GULP energy -155949.290359 kJ/mol
# GULP energy per Si atom -5569.617513 kJ/mol
# Density = 1.526912 g / cm^3
# Si number density = 15.303949 Si / 1000 Ang^3
#
#
#
# Elastic Constant Matrix: (Units=GPa)
#
#
# Indices 1 2 3 4 5 6 
#
# 1 59.7384 21.0767 46.4718 0.0000 0.0000 0.0000
# 2 21.0767 47.6177 46.2698 0.0000 0.0000 0.0000
# 3 46.4718 46.2698 177.4577 0.0000 0.0000 0.0000
# 4 0.0000 0.0000 0.0000 12.9355 0.0000 0.0000
# 5 0.0000 0.0000 0.0000 0.0000 25.4428 0.0000
# 6 0.0000 0.0000 0.0000 0.0000 0.0000 4.9308
#
#
#
# Elastic Compliance Matrix: (Units=1/GPa)
#
#
# Indices 1 2 3 4 5 6 
#
# 1 0.022070 -0.005562 -0.004329 0.000000 0.000000 0.000000
# 2 -0.005562 0.029528 -0.006243 0.000000 0.000000 0.000000
# 3 -0.004329 -0.006243 0.008397 0.000000 0.000000 0.000000
# 4 0.000000 0.000000 0.000000 0.077307 0.000000 0.000000
# 5 0.000000 0.000000 0.000000 0.000000 0.039304 0.000000
# 6 0.000000 0.000000 0.000000 0.000000 0.000000 0.202805
#
#
# Mechanical properties :
#
#
# Convention : Reuss Voigt Hill
#
# Bulk Modulus (GPa) = 36.06572 56.93891 46.50232
# Shear Modulus (GPa) = 11.87871 20.06151 15.97011
#
# Velocity S-wave (km/s) = 2.78903 3.62452 3.23387
# Velocity P-wave (km/s) = 5.83001 7.40286 6.66301
#
# Compressibility (1/GPa) = 0.02772716
#
# Stress axis : x y z
#
# Youngs Moduli (GPa) = 45.31061 33.86581 119.09598
#
# Poissons Ratio (x) = 0.18835 0.51561
# Poissons Ratio (y) = 0.25201 0.74347
# Poissons Ratio (z) = 0.19617 0.21141
#
# Static dielectric constant tensor:
#      x y z
#    x 1.516660 0.000000 0.000000 
#    y 0.000000 1.468060 0.000000 
#    z 0.000000 0.000000 1.559970 
# 
# From -- ./inp_files/17078.got.cif
#   From: 2010.05.17/outbox.cif.g08.bks.cpg/sg38_9_cif.got.tgz:17078.got - 2010.06.03 18:07:57.
