data_PCOD9355732
_publ_section_title
;
Structure prediction by ZEFSAII (Michael W. Deem and Ramdas Pophale) SiO2 
 PCOD9355732
Probable space group: C C C 2
;
_chemical_formula_sum "Si O2"
_cell_formula_units_Z 60
_cell_length_a 22.934172
_cell_length_b 9.575334
_cell_length_c 11.238775
_cell_angle_alpha 90.000000
_cell_angle_beta 90.000000
_cell_angle_gamma 90.000000
_cell_volume 2468.061479
_symmetry_space_group_name_H-M "C C C 2"
_symmetry_group_IT_number 37
_symmetry_cell_setting 'orthorhombic'
loop_
_space_group_symop_operation_xyz
x,y,z
-x,-y,z
-x,y,1/2+z
x,-y,1/2+z
1/2+x,1/2+y,z
1/2-x,1/2-y,z
1/2-x,1/2+y,1/2+z
1/2+x,1/2-y,1/2+z
loop_
_atom_site_type_symbol
_atom_site_label
_atom_site_fract_x
_atom_site_fract_y
_atom_site_fract_z
Si Si1 0.779330 0.546261 0.288790
Si Si2 0.750000 0.250000 0.588633
Si Si3 0.032211 0.151364 0.321933
Si Si4 0.950194 0.391343 0.640406
Si Si5 0.622879 0.871948 0.713084
Si Si6 0.078212 0.217398 0.934820
Si Si7 0.355819 0.235530 0.460150
Si Si8 0.178806 0.018156 0.949796
O O1 0.784938 0.650843 0.178392
O O2 0.811644 0.405523 0.252215
O O3 0.813358 0.625595 0.395356
O O4 0.712760 0.515547 0.326571
O O5 0.785794 0.143183 0.509258
O O6 0.026638 0.254582 0.208906
O O7 0.097818 0.189760 0.369390
O O8 0.990853 0.201344 0.429207
O O9 0.000000 0.000000 0.294380
O O10 0.912429 0.483829 0.731383
O O11 0.911160 0.336018 0.531921
O O12 0.000000 0.500000 0.600908
O O13 0.598341 0.761036 0.804222
O O14 0.616278 0.834187 0.575661
O O15 0.113248 0.076993 0.958347
O O16 0.319919 0.367944 0.511442
#
# Coordination Sequence:
#
# PCOD9355732 Si02
#       8
#     8   4   8   8   8   8   8   8
#     4  12  25  49  75 109 153 205 263 326 394 471
#     4  12  26  46  76 108 152 208 254 330 394 468
#     4  12  27  50  79 113 155 206 260 328 401 474
#     4  12  26  47  78 111 157 204 261 325 396 479
#     4  12  26  44  78 110 150 204 257 324 390 473
#     4  12  28  47  73 112 152 202 261 321 391 474
#     4  12  26  49  78 115 157 205 265 330 399 481
#     4  12  27  49  74 110 159 207 264 327 396 477
#
# _framework density 24.310576999999999
#
# number of rings (size 3 to 8) (size 9 to 14) (size 15 to 20)
#    0.000    0.000    5.333    4.000    3.733    1.600 
#    0.000    0.000    0.000    0.000    0.000    0.000 
#    0.000    0.000    0.000    0.000    0.000    0.000 
#
# Total GULP energy -167551.741474 kJ/mol
# GULP energy per Si atom -5585.058049 kJ/mol
# Density = 2.425525 g / cm^3
# Si number density = 24.310577 Si / 1000 Ang^3
#
#
#
# Elastic Constant Matrix: (Units=GPa)
#
#
# Indices 1 2 3 4 5 6 
#
# 1 71.4669 -3.9788 -9.9660 0.0000 0.0000 0.0000
# 2 -3.9788 80.6669 19.9295 0.0000 0.0000 0.0000
# 3 -9.9660 19.9295 51.6758 0.0000 0.0000 0.0000
# 4 0.0000 0.0000 0.0000 24.6899 0.0000 0.0000
# 5 0.0000 0.0000 0.0000 0.0000 25.6501 0.0000
# 6 0.0000 0.0000 0.0000 0.0000 0.0000 41.1674
#
#
#
# Elastic Compliance Matrix: (Units=1/GPa)
#
#
# Indices 1 2 3 4 5 6 
#
# 1 0.014379 0.000027 0.002763 0.000000 0.000000 0.000000
# 2 0.000027 0.013702 -0.005279 0.000000 0.000000 0.000000
# 3 0.002763 -0.005279 0.021920 0.000000 0.000000 0.000000
# 4 0.000000 0.000000 0.000000 0.040502 0.000000 0.000000
# 5 0.000000 0.000000 0.000000 0.000000 0.038986 0.000000
# 6 0.000000 0.000000 0.000000 0.000000 0.000000 0.024291
#
#
# Mechanical properties :
#
#
# Convention : Reuss Voigt Hill
#
# Bulk Modulus (GPa) = 22.21126 23.97542 23.09334
# Shear Modulus (GPa) = 28.77392 31.48982 30.13187
#
# Velocity S-wave (km/s) = 3.44408 3.60295 3.52441
# Velocity P-wave (km/s) = 4.99718 5.21458 5.10704
#
# Compressibility (1/GPa) = 0.04502221
#
# Stress axis : x y z
#
# Youngs Moduli (GPa) = 69.54461 72.98062 45.61983
#
# Poissons Ratio (x) = -0.00195 -0.12604
# Poissons Ratio (y) = -0.00185 0.24084
# Poissons Ratio (z) = -0.19214 0.38529
#
# Static dielectric constant tensor:
#      x y z
#    x 2.116520 0.000000 0.000000 
#    y 0.000000 1.992570 0.000000 
#    z 0.000000 0.000000 1.898050 
# 
# From -- ./inp_files/9078.got.cif
#   From: 2010.05.17/outbox.cif.g08.bks.cpg/sg37_5_cif.got.tgz:9078.got - 2010.06.03 17:53:42.
