data_PCOD9355675
_publ_section_title
;
Structure prediction by ZEFSAII (Michael W. Deem and Ramdas Pophale) SiO2 
 PCOD9355675
Probable space group: C C C 2
;
_chemical_formula_sum "Si O2"
_cell_formula_units_Z 48
_cell_length_a 12.323216
_cell_length_b 11.822132
_cell_length_c 14.722991
_cell_angle_alpha 90.000000
_cell_angle_beta 90.000000
_cell_angle_gamma 90.000000
_cell_volume 2144.943770
_symmetry_space_group_name_H-M "C C C 2"
_symmetry_group_IT_number 37
_symmetry_cell_setting 'orthorhombic'
loop_
_space_group_symop_operation_xyz
x,y,z
-x,-y,z
-x,y,1/2+z
x,-y,1/2+z
1/2+x,1/2+y,z
1/2-x,1/2-y,z
1/2-x,1/2+y,1/2+z
1/2+x,1/2-y,1/2+z
loop_
_atom_site_type_symbol
_atom_site_label
_atom_site_fract_x
_atom_site_fract_y
_atom_site_fract_z
Si Si1 0.615901 0.539323 0.612580
Si Si2 0.123929 0.531574 0.899041
Si Si3 0.873677 0.754464 0.495382
Si Si4 0.503958 0.866094 0.149345
Si Si5 0.788630 0.366177 0.258333
Si Si6 0.712745 0.132986 0.555895
O O1 0.500000 0.500000 0.651001
O O2 0.598101 0.615510 0.520686
O O3 0.698596 0.603515 0.681461
O O4 0.679570 0.427209 0.588355
O O5 0.197918 0.475050 0.822024
O O6 0.000000 0.500000 0.879021
O O7 0.157271 0.460517 0.989688
O O8 0.868508 0.331939 0.909315
O O9 0.750000 0.750000 0.527872
O O10 0.956757 0.687075 0.557887
O O11 0.410241 0.836921 0.221412
O O12 0.631408 0.839913 0.140127
O O13 0.500000 0.000000 0.148402
O O14 0.750000 0.250000 0.303692
O O15 0.750000 0.250000 0.511692
#
# Coordination Sequence:
#
# PCOD9355675 Si02
#       6
#     8   8   8   8   8   8
#     4  12  25  44  76 105 140 192 243 297 361 430
#     4  12  25  43  71 106 143 184 241 300 365 424
#     4  12  19  43  74 100 135 187 237 291 349 434
#     4  12  18  40  72 101 129 183 249 287 337 424
#     4  12  25  45  70 103 149 194 234 301 371 425
#     4  12  24  41  71 111 139 177 252 302 342 429
#
# _framework density 22.378208000000001
#
# number of rings (size 3 to 8) (size 9 to 14) (size 15 to 20)
#    0.000    0.000   10.000    2.000    0.000    0.000 
#    0.000    3.333    0.000    0.000    0.000    0.000 
#    0.000    0.000    0.000    0.000    0.000    0.000 
#
# Total GULP energy -133621.514549 kJ/mol
# GULP energy per Si atom -5567.563106 kJ/mol
# Density = 2.232727 g / cm^3
# Si number density = 22.378208 Si / 1000 Ang^3
#
#
#
# Elastic Constant Matrix: (Units=GPa)
#
#
# Indices 1 2 3 4 5 6 
#
# 1 132.9757 36.8704 28.5191 0.0000 0.0000 0.0000
# 2 36.8704 122.3493 29.1057 0.0000 0.0000 0.0000
# 3 28.5191 29.1057 59.7060 0.0000 0.0000 0.0000
# 4 0.0000 0.0000 0.0000 -33.9477 0.0000 0.0000
# 5 0.0000 0.0000 0.0000 0.0000 5.0052 0.0000
# 6 0.0000 0.0000 0.0000 0.0000 0.0000 39.7055
#
#
#
# Elastic Compliance Matrix: (Units=1/GPa)
#
#
# Indices 1 2 3 4 5 6 
#
# 1 0.008735 -0.001855 -0.003268 0.000000 0.000000 0.000000
# 2 -0.001855 0.009639 -0.003813 0.000000 0.000000 0.000000
# 3 -0.003268 -0.003813 0.020169 0.000000 0.000000 0.000000
# 4 0.000000 0.000000 0.000000 -0.029457 0.000000 0.000000
# 5 0.000000 0.000000 0.000000 0.000000 0.199792 0.000000
# 6 0.000000 0.000000 0.000000 0.000000 0.000000 0.025185
#
#
# Mechanical properties :
#
#
# Convention : Reuss Voigt Hill
#
# Bulk Modulus (GPa) = 48.37709 56.00239 52.18974
# Shear Modulus (GPa) = 19.31798 16.85499 18.08648
#
# Velocity S-wave (km/s) = 2.94130 2.74740 2.84600
# Velocity P-wave (km/s) = 5.76193 5.92824 5.84568
#
# Compressibility (1/GPa) = 0.02067094
#
# Stress axis : x y z
#
# Youngs Moduli (GPa) = 114.47611 103.74097 49.58194
#
# Poissons Ratio (x) = 0.19244 0.16205
# Poissons Ratio (y) = 0.21235 0.18906
# Poissons Ratio (z) = 0.37414 0.39556
#
# Static dielectric constant tensor:
#      x y z
#    x 1.836670 0.000000 0.000000 
#    y 0.000000 1.999570 0.000000 
#    z 0.000000 0.000000 1.914930 
# 
# From -- ./inp_files/14972.got.cif
#   From: 2010.05.17/outbox.cif.g08.bks.cpg/sg37_8_cif.got.tgz:14972.got - 2010.06.03 17:53:42.
