data_PCOD9355679
_publ_section_title
;
Structure prediction by ZEFSAII (Michael W. Deem and Ramdas Pophale) SiO2 
 PCOD9355679
Probable space group: C C C 2
;
_chemical_formula_sum "Si O2"
_cell_formula_units_Z 32
_cell_length_a 13.811460
_cell_length_b 5.083235
_cell_length_c 16.803445
_cell_angle_alpha 90.000000
_cell_angle_beta 90.000000
_cell_angle_gamma 90.000000
_cell_volume 1179.717730
_symmetry_space_group_name_H-M "C C C 2"
_symmetry_group_IT_number 37
_symmetry_cell_setting 'orthorhombic'
loop_
_space_group_symop_operation_xyz
x,y,z
-x,-y,z
-x,y,1/2+z
x,-y,1/2+z
1/2+x,1/2+y,z
1/2-x,1/2-y,z
1/2-x,1/2+y,1/2+z
1/2+x,1/2-y,1/2+z
loop_
_atom_site_type_symbol
_atom_site_label
_atom_site_fract_x
_atom_site_fract_y
_atom_site_fract_z
Si Si1 0.892865 0.625031 0.638060
Si Si2 0.812891 0.488228 0.964645
Si Si3 0.617905 0.352710 0.735602
Si Si4 0.561502 0.295514 0.352424
O O1 0.849577 0.595691 0.551067
O O2 0.841054 0.419322 0.700301
O O3 0.000000 0.500000 0.631981
O O4 0.889308 0.930226 0.664935
O O5 0.750000 0.750000 0.974101
O O6 0.897059 0.562060 0.902976
O O7 0.750000 0.250000 0.933606
O O8 0.516721 0.258577 0.780323
O O9 0.648428 0.545325 0.808280
O O10 0.500000 0.500000 0.406612
#
# Coordination Sequence:
#
# PCOD9355679 Si02
#       4
#     8   8   8   8
#     4  12  20  45  73 106 136 195 269 326 371 458
#     4  12  29  45  66 114 169 204 237 321 438 491
#     4   9  21  40  78 104 131 181 285 332 357 423
#     4   8  20  46  73 108 141 198 271 330 382 448
#
# _framework density 27.125131
#
# number of rings (size 3 to 8) (size 9 to 14) (size 15 to 20)
#    1.500    0.000    5.000    1.500    0.000    8.000 
#    4.500    5.000    0.000    0.000    0.000    0.000 
#    0.000    0.000    0.000    0.000    0.000    0.000 
#
# Total GULP energy -89251.770168 kJ/mol
# GULP energy per Si atom -5578.235635 kJ/mol
# Density = 2.706339 g / cm^3
# Si number density = 27.125131 Si / 1000 Ang^3
#
#
#
# Elastic Constant Matrix: (Units=GPa)
#
#
# Indices 1 2 3 4 5 6 
#
# 1 88.9088 62.7207 59.9588 0.0000 0.0000 0.0000
# 2 62.7207 251.2022 90.0580 0.0000 0.0000 0.0000
# 3 59.9588 90.0580 172.0285 0.0000 0.0000 0.0000
# 4 0.0000 0.0000 0.0000 47.4371 0.0000 0.0000
# 5 0.0000 0.0000 0.0000 0.0000 7.4955 0.0000
# 6 0.0000 0.0000 0.0000 0.0000 0.0000 57.9465
#
#
#
# Elastic Compliance Matrix: (Units=1/GPa)
#
#
# Indices 1 2 3 4 5 6 
#
# 1 0.015823 -0.002430 -0.004243 0.000000 0.000000 0.000000
# 2 -0.002430 0.005274 -0.001914 0.000000 0.000000 0.000000
# 3 -0.004243 -0.001914 0.008294 0.000000 0.000000 0.000000
# 4 0.000000 0.000000 0.000000 0.021081 0.000000 0.000000
# 5 0.000000 0.000000 0.000000 0.000000 0.133413 0.000000
# 6 0.000000 0.000000 0.000000 0.000000 0.000000 0.017257
#
#
# Mechanical properties :
#
#
# Convention : Reuss Voigt Hill
#
# Bulk Modulus (GPa) = 81.85160 104.17937 93.01549
# Shear Modulus (GPa) = 22.48335 42.53595 32.50965
#
# Velocity S-wave (km/s) = 2.88214 3.96427 3.46570
# Velocity P-wave (km/s) = 6.42781 7.71001 7.09792
#
# Compressibility (1/GPa) = 0.01221723
#
# Stress axis : x y z
#
# Youngs Moduli (GPa) = 63.19990 189.62197 120.57139
#
# Poissons Ratio (x) = 0.46069 0.51159
# Poissons Ratio (y) = 0.15355 0.23077
# Poissons Ratio (z) = 0.26816 0.36294
#
# Static dielectric constant tensor:
#      x y z
#    x 2.720920 0.000000 0.000000 
#    y 0.000000 2.436790 0.000000 
#    z 0.000000 0.000000 2.073430 
# 
# From -- ./inp_files/15138.got.cif
#   From: 2010.05.17/outbox.cif.g08.bks.cpg/sg37_8_cif.got.tgz:15138.got - 2010.06.03 17:53:42.
