data_PCOD9355666
_publ_section_title
;
Structure prediction by ZEFSAII (Michael W. Deem and Ramdas Pophale) SiO2 
 PCOD9355666
Probable space group: C C C 2
;
_chemical_formula_sum "Si O2"
_cell_formula_units_Z 48
_cell_length_a 5.790264
_cell_length_b 14.183711
_cell_length_c 25.104691
_cell_angle_alpha 90.000000
_cell_angle_beta 90.000000
_cell_angle_gamma 90.000000
_cell_volume 2061.783783
_symmetry_space_group_name_H-M "C C C 2"
_symmetry_group_IT_number 37
_symmetry_cell_setting 'orthorhombic'
loop_
_space_group_symop_operation_xyz
x,y,z
-x,-y,z
-x,y,1/2+z
x,-y,1/2+z
1/2+x,1/2+y,z
1/2-x,1/2-y,z
1/2-x,1/2+y,1/2+z
1/2+x,1/2-y,1/2+z
loop_
_atom_site_type_symbol
_atom_site_label
_atom_site_fract_x
_atom_site_fract_y
_atom_site_fract_z
Si Si1 0.685916 0.640331 0.382600
Si Si2 0.849458 0.854813 0.792465
Si Si3 0.056937 0.107834 0.572493
Si Si4 0.000000 0.500000 0.815739
Si Si5 0.995863 0.196010 0.684318
Si Si6 0.250000 0.250000 0.004201
Si Si7 0.604455 0.103629 0.986417
O O1 0.750000 0.750000 0.375481
O O2 0.456743 0.620720 0.349458
O O3 0.687462 0.613785 0.444521
O O4 0.873114 0.574740 0.353712
O O5 0.750000 0.750000 0.797872
O O6 0.024516 0.849595 0.743019
O O7 0.666630 0.935791 0.780479
O O8 0.031484 0.126857 0.634679
O O9 0.307312 0.125199 0.546006
O O10 0.887412 0.177990 0.541741
O O11 0.000000 0.000000 0.559838
O O12 0.250000 0.250000 0.685618
O O13 0.750000 0.250000 0.675658
O O14 0.422365 0.184373 0.970939
O O15 0.500000 0.000000 0.983866
#
# Coordination Sequence:
#
# PCOD9355666 Si02
#       7
#     8   8   8   4   8   4   8
#     4  12  25  48  76 108 156 202 259 320 400 462
#     4  11  26  50  77 109 156 201 265 327 401 476
#     4  12  26  47  78 112 152 204 259 324 397 478
#     4  12  26  46  76 108 148 206 252 324 392 480
#     4  11  26  51  83 115 159 208 265 337 404 476
#     4  12  24  50  76 106 158 196 258 318 400 462
#     4  12  27  49  75 114 155 208 260 321 401 476
#
# _framework density 23.280811
#
# number of rings (size 3 to 8) (size 9 to 14) (size 15 to 20)
#    0.000    0.333    5.000    3.500    2.333    5.333 
#    6.000    0.000    0.000    0.000    0.000    0.000 
#    0.000    0.000    0.000    0.000    0.000    0.000 
#
# Total GULP energy -134272.665087 kJ/mol
# GULP energy per Si atom -5594.694379 kJ/mol
# Density = 2.322782 g / cm^3
# Si number density = 23.280811 Si / 1000 Ang^3
#
#
#
# Elastic Constant Matrix: (Units=GPa)
#
#
# Indices 1 2 3 4 5 6 
#
# 1 90.5186 56.5890 27.5303 0.0000 0.0000 0.0000
# 2 56.5890 163.1349 29.1164 0.0000 0.0000 0.0000
# 3 27.5303 29.1164 109.2873 0.0000 0.0000 0.0000
# 4 0.0000 0.0000 0.0000 7.3105 0.0000 0.0000
# 5 0.0000 0.0000 0.0000 0.0000 19.9673 0.0000
# 6 0.0000 0.0000 0.0000 0.0000 0.0000 36.9040
#
#
#
# Elastic Compliance Matrix: (Units=1/GPa)
#
#
# Indices 1 2 3 4 5 6 
#
# 1 0.014712 -0.004664 -0.002464 0.000000 0.000000 0.000000
# 2 -0.004664 0.007914 -0.000934 0.000000 0.000000 0.000000
# 3 -0.002464 -0.000934 0.010020 0.000000 0.000000 0.000000
# 4 0.000000 0.000000 0.000000 0.136790 0.000000 0.000000
# 5 0.000000 0.000000 0.000000 0.000000 0.050082 0.000000
# 6 0.000000 0.000000 0.000000 0.000000 0.000000 0.027097
#
#
# Mechanical properties :
#
#
# Convention : Reuss Voigt Hill
#
# Bulk Modulus (GPa) = 60.51788 65.49024 63.00406
# Shear Modulus (GPa) = 18.63963 29.48337 24.06150
#
# Velocity S-wave (km/s) = 2.83263 3.56255 3.21835
# Velocity P-wave (km/s) = 6.06215 6.71669 6.39779
#
# Compressibility (1/GPa) = 0.01652404
#
# Stress axis : x y z
#
# Youngs Moduli (GPa) = 67.96999 126.35295 99.80475
#
# Poissons Ratio (x) = 0.58928 0.24588
# Poissons Ratio (y) = 0.31700 0.09319
# Poissons Ratio (z) = 0.16745 0.11798
#
# Static dielectric constant tensor:
#      x y z
#    x 1.971730 0.000000 0.000000 
#    y 0.000000 1.866450 0.000000 
#    z 0.000000 0.000000 1.834930 
# 
# From -- ./inp_files/19352.got.cif
#   From: 2010.05.17/outbox.cif.g08.bks.cpg/sg37_10_cif.got.tgz:19352.got - 2010.06.03 17:53:42.
