data_PCOD9355423
_publ_section_title
;
Structure prediction by ZEFSAII (Michael W. Deem and Ramdas Pophale) SiO2 
 PCOD9355423
Probable space group: C C C 2
;
_chemical_formula_sum "Si O2"
_cell_formula_units_Z 48
_cell_length_a 14.126785
_cell_length_b 12.053013
_cell_length_c 13.695923
_cell_angle_alpha 90.000000
_cell_angle_beta 90.000000
_cell_angle_gamma 90.000000
_cell_volume 2332.009236
_symmetry_space_group_name_H-M "C C C 2"
_symmetry_group_IT_number 37
_symmetry_cell_setting 'orthorhombic'
loop_
_space_group_symop_operation_xyz
x,y,z
-x,-y,z
-x,y,1/2+z
x,-y,1/2+z
1/2+x,1/2+y,z
1/2-x,1/2-y,z
1/2-x,1/2+y,1/2+z
1/2+x,1/2-y,1/2+z
loop_
_atom_site_type_symbol
_atom_site_label
_atom_site_fract_x
_atom_site_fract_y
_atom_site_fract_z
Si Si1 0.260894 0.120573 0.115110
Si Si2 0.619094 0.233192 0.118524
Si Si3 0.272746 0.414923 0.711796
Si Si4 0.945683 0.330619 0.924625
Si Si5 0.452175 0.885553 0.721458
Si Si6 0.654697 0.929278 0.916357
O O1 0.250000 0.250000 0.134034
O O2 0.361141 0.085420 0.160706
O O3 0.195195 0.034990 0.173215
O O4 0.270154 0.100040 0.000292
O O5 0.640499 0.329700 0.197182
O O6 0.703125 0.144369 0.132893
O O7 0.525241 0.171212 0.151117
O O8 0.597919 0.252979 0.004139
O O9 0.212075 0.418404 0.812979
O O10 0.928008 0.306110 0.811201
O O11 0.888471 0.447807 0.935263
O O12 0.060140 0.351813 0.928267
O O13 0.500000 0.000000 0.759010
#
# Coordination Sequence:
#
# PCOD9355423 Si02
#       6
#     8   8   8   8   8   8
#     4  12  25  40  61  95 131 169 216 274 323 393
#     4  11  22  36  66  92 129 162 213 270 326 386
#     4  11  23  41  58  98 131 168 208 274 331 382
#     4  11  18  34  66  96 119 163 218 272 318 381
#     4  12  19  39  65  94 126 167 221 271 321 385
#     4  11  20  36  65  93 125 164 221 264 324 385
#
# _framework density 20.583109
#
# number of rings (size 3 to 8) (size 9 to 14) (size 15 to 20)
#    0.000    0.667   10.000    0.000    2.333    0.000 
#    6.000    0.833    0.000    0.000    4.333    0.000 
#    0.000    0.000    0.000    0.000    0.000    0.000 
#
# Total GULP energy -133625.382172 kJ/mol
# GULP energy per Si atom -5567.724257 kJ/mol
# Density = 2.053626 g / cm^3
# Si number density = 20.583109 Si / 1000 Ang^3
#
#
#
# Elastic Constant Matrix: (Units=GPa)
#
#
# Indices 1 2 3 4 5 6 
#
# 1 17.4593 0.5436 5.9642 0.0000 0.0000 0.0000
# 2 0.5436 81.5574 8.3173 0.0000 0.0000 0.0000
# 3 5.9642 8.3173 118.0809 0.0000 0.0000 0.0000
# 4 0.0000 0.0000 0.0000 10.8821 0.0000 0.0000
# 5 0.0000 0.0000 0.0000 0.0000 13.7336 0.0000
# 6 0.0000 0.0000 0.0000 0.0000 0.0000 5.3528
#
#
#
# Elastic Compliance Matrix: (Units=1/GPa)
#
#
# Indices 1 2 3 4 5 6 
#
# 1 0.058282 -0.000089 -0.002938 0.000000 0.000000 0.000000
# 2 -0.000089 0.012350 -0.000865 0.000000 0.000000 0.000000
# 3 -0.002938 -0.000865 0.008678 0.000000 0.000000 0.000000
# 4 0.000000 0.000000 0.000000 0.091894 0.000000 0.000000
# 5 0.000000 0.000000 0.000000 0.000000 0.072814 0.000000
# 6 0.000000 0.000000 0.000000 0.000000 0.000000 0.186817
#
#
# Mechanical properties :
#
#
# Convention : Reuss Voigt Hill
#
# Bulk Modulus (GPa) = 13.98077 27.41644 20.69860
# Shear Modulus (GPa) = 10.81170 19.47852 15.14511
#
# Velocity S-wave (km/s) = 2.29436 3.07959 2.71551
# Velocity P-wave (km/s) = 3.71832 5.09843 4.46206
#
# Compressibility (1/GPa) = 0.07152684
#
# Stress axis : x y z
#
# Youngs Moduli (GPa) = 17.15783 80.97071 115.23251
#
# Poissons Ratio (x) = 0.00720 0.33850
# Poissons Ratio (y) = 0.00153 0.09972
# Poissons Ratio (z) = 0.05040 0.07007
#
# Static dielectric constant tensor:
#      x y z
#    x 1.787200 0.000000 0.000000 
#    y 0.000000 1.828270 0.000000 
#    z 0.000000 0.000000 1.764940 
# 
# From -- ./inp_files/12077.got.cif
#   From: 2010.05.17/outbox.cif.g08.bks.cpg/sg37_7_cif.got.tgz:12077.got - 2010.06.03 17:53:42.
