data_PCOD9355442
_publ_section_title
;
Structure prediction by ZEFSAII (Michael W. Deem and Ramdas Pophale) SiO2 
 PCOD9355442
Probable space group: C C C 2
;
_chemical_formula_sum "Si O2"
_cell_formula_units_Z 36
_cell_length_a 5.132242
_cell_length_b 22.760840
_cell_length_c 12.971219
_cell_angle_alpha 90.000000
_cell_angle_beta 90.000000
_cell_angle_gamma 90.000000
_cell_volume 1515.221779
_symmetry_space_group_name_H-M "C C C 2"
_symmetry_group_IT_number 37
_symmetry_cell_setting 'orthorhombic'
loop_
_space_group_symop_operation_xyz
x,y,z
-x,-y,z
-x,y,1/2+z
x,-y,1/2+z
1/2+x,1/2+y,z
1/2-x,1/2-y,z
1/2-x,1/2+y,1/2+z
1/2+x,1/2-y,1/2+z
loop_
_atom_site_type_symbol
_atom_site_label
_atom_site_fract_x
_atom_site_fract_y
_atom_site_fract_z
Si Si1 0.250000 0.250000 0.670990
Si Si2 0.499553 0.219274 0.462026
Si Si3 0.000000 0.000000 0.294800
Si Si4 0.170499 0.119923 0.679005
Si Si5 0.170352 0.392730 0.048233
Si Si6 0.500000 0.000000 0.424305
O O1 0.470761 0.233151 0.585266
O O2 0.176402 0.187298 0.722185
O O3 0.750000 0.250000 0.420383
O O4 0.550071 0.150622 0.461644
O O5 0.250000 0.250000 0.413386
O O6 0.912612 0.060339 0.237274
O O7 0.259172 0.021355 0.355126
O O8 0.464391 0.109094 0.640980
O O9 0.959493 0.123810 0.584892
O O10 0.151013 0.455611 0.998403
#
# Coordination Sequence:
#
# PCOD9355442 Si02
#       6
#     4   8   4   8   8   4
#     4   8  18  30  60  90 118 144 194 270 306 358
#     4   9  15  29  52  90 112 137 181 262 308 339
#     4  12  26  42  58  90 132 178 202 262 314 396
#     4  11  21  38  67  94 122 156 223 259 320 369
#     4  11  20  38  65  92 115 163 211 265 301 380
#     4  12  26  42  60  86 136 170 212 250 326 372
#
# _framework density 23.758900000000001
#
# number of rings (size 3 to 8) (size 9 to 14) (size 15 to 20)
#    0.667    0.889    2.222    4.000    0.000    0.000 
#    0.000    0.000    7.333    0.000    0.000    0.000 
#    0.000    0.000    0.000    0.000    0.000    0.000 
#
# Total GULP energy -100251.459730 kJ/mol
# GULP energy per Si atom -5569.525541 kJ/mol
# Density = 2.370482 g / cm^3
# Si number density = 23.758900 Si / 1000 Ang^3
#
#
#
# Elastic Constant Matrix: (Units=GPa)
#
#
# Indices 1 2 3 4 5 6 
#
# 1 101.1170 -8.8361 -0.3679 0.0000 0.0000 0.0000
# 2 -8.8361 152.0921 33.1210 0.0000 0.0000 0.0000
# 3 -0.3679 33.1210 33.3789 0.0000 0.0000 0.0000
# 4 0.0000 0.0000 0.0000-4953.8939 0.0000 0.0000
# 5 0.0000 0.0000 0.0000 0.0000 -16.0836 0.0000
# 6 0.0000 0.0000 0.0000 0.0000 0.0000 33.3140
#
#
#
# Elastic Compliance Matrix: (Units=1/GPa)
#
#
# Indices 1 2 3 4 5 6 
#
# 1 0.009949 0.000707 -0.000592 0.000000 0.000000 0.000000
# 2 0.000707 0.008438 -0.008365 0.000000 0.000000 0.000000
# 3 -0.000592 -0.008365 0.038253 0.000000 0.000000 0.000000
# 4 0.000000 0.000000 0.000000 -0.000202 0.000000 0.000000
# 5 0.000000 0.000000 0.000000 0.000000 -0.062175 0.000000
# 6 0.000000 0.000000 0.000000 0.000000 0.000000 0.030017
#
#
# Mechanical properties :
#
#
# Convention : Reuss Voigt Hill
#
# Bulk Modulus (GPa) = 24.91262 37.15799 31.03530
# Shear Modulus (GPa) = 92.32107 -969.82130 -438.75011
#
# Velocity S-wave (km/s) = 6.24034 -20.22570 -13.60399
# Velocity P-wave (km/s) = 7.90132 23.01663 15.28618
#
# Compressibility (1/GPa) = 0.04014031
#
# Stress axis : x y z
#
# Youngs Moduli (GPa) = 100.51106 118.51722 26.14204
#
# Poissons Ratio (x) = -0.08378 0.01547
# Poissons Ratio (y) = -0.07105 0.21867
# Poissons Ratio (z) = 0.05948 0.99135
#
# Static dielectric constant tensor:
#      x y z
#    x 1.897540 0.000000 0.000000 
#    y 0.000000 46.740650 0.000000 
#    z 0.000000 0.000000 1.955450 
# 
# From -- ./inp_files/5478.got.cif
#   From: 2010.05.17/outbox.cif.g08.bks.cpg/sg37_3_cif.got.tgz:5478.got - 2010.06.03 17:53:42.
