data_PCOD9355560
_publ_section_title
;
Structure prediction by ZEFSAII (Michael W. Deem and Ramdas Pophale) SiO2 
 PCOD9355560
Probable space group: C C C 2
;
_chemical_formula_sum "Si O2"
_cell_formula_units_Z 48
_cell_length_a 16.691698
_cell_length_b 8.792902
_cell_length_c 14.691367
_cell_angle_alpha 90.000000
_cell_angle_beta 90.000000
_cell_angle_gamma 90.000000
_cell_volume 2156.229379
_symmetry_space_group_name_H-M "C C C 2"
_symmetry_group_IT_number 37
_symmetry_cell_setting 'orthorhombic'
loop_
_space_group_symop_operation_xyz
x,y,z
-x,-y,z
-x,y,1/2+z
x,-y,1/2+z
1/2+x,1/2+y,z
1/2-x,1/2-y,z
1/2-x,1/2+y,1/2+z
1/2+x,1/2-y,1/2+z
loop_
_atom_site_type_symbol
_atom_site_label
_atom_site_fract_x
_atom_site_fract_y
_atom_site_fract_z
Si Si1 0.485915 0.821323 0.255640
Si Si2 0.477606 0.176128 0.454450
Si Si3 0.198515 0.607571 0.886941
Si Si4 0.733619 0.570517 0.056643
Si Si5 0.442784 0.366817 0.115975
Si Si6 0.314681 0.116395 0.716765
O O1 0.482550 0.769139 0.359681
O O2 0.558767 0.748232 0.200483
O O3 0.401276 0.804961 0.205028
O O4 0.500000 0.000000 0.259878
O O5 0.382857 0.170571 0.433587
O O6 0.513188 0.279460 0.533599
O O7 0.500000 0.000000 0.473629
O O8 0.250000 0.750000 0.852516
O O9 0.247982 0.517846 0.963931
O O10 0.180492 0.488934 0.806526
O O11 0.750000 0.750000 0.046674
O O12 0.641400 0.565473 0.086399
O O13 0.788409 0.490110 0.133079
O O14 0.500000 0.500000 0.148563
O O15 0.250000 0.250000 0.727456
#
# Coordination Sequence:
#
# PCOD9355560 Si02
#       6
#     8   8   8   8   8   8
#     4  11  23  45  69  96 132 184 230 267 331 409
#     4  11  23  45  69  96 132 184 230 267 331 409
#     4  12  25  44  69 100 138 180 228 281 338 401
#     4  12  26  44  72 104 138 178 224 282 346 400
#     4  12  26  44  68 104 138 174 220 286 342 390
#     4  12  25  44  69 100 138 180 228 281 338 401
#
# _framework density 22.261081999999998
#
# number of rings (size 3 to 8) (size 9 to 14) (size 15 to 20)
#    0.000    0.333    3.333    7.000    4.667    0.667 
#    0.000    0.000    0.000    0.000    0.000    0.000 
#    0.000    0.000    0.000    0.000    0.000    0.000 
#
# Total GULP energy -134384.370671 kJ/mol
# GULP energy per Si atom -5599.348778 kJ/mol
# Density = 2.221042 g / cm^3
# Si number density = 22.261082 Si / 1000 Ang^3
#
#
#
# Elastic Constant Matrix: (Units=GPa)
#
#
# Indices 1 2 3 4 5 6 
#
# 1 75.3426 11.3171 -19.8540 0.0000 0.0000 0.0000
# 2 11.3171 57.0455 23.9246 0.0000 0.0000 0.0000
# 3 -19.8540 23.9246 96.1921 0.0000 0.0000 0.0000
# 4 0.0000 0.0000 0.0000 24.3562 0.0000 0.0000
# 5 0.0000 0.0000 0.0000 0.0000 27.7918 0.0000
# 6 0.0000 0.0000 0.0000 0.0000 0.0000 22.3714
#
#
#
# Elastic Compliance Matrix: (Units=1/GPa)
#
#
# Indices 1 2 3 4 5 6 
#
# 1 0.015135 -0.004815 0.004321 0.000000 0.000000 0.000000
# 2 -0.004815 0.021103 -0.006242 0.000000 0.000000 0.000000
# 3 0.004321 -0.006242 0.012840 0.000000 0.000000 0.000000
# 4 0.000000 0.000000 0.000000 0.041057 0.000000 0.000000
# 5 0.000000 0.000000 0.000000 0.000000 0.035982 0.000000
# 6 0.000000 0.000000 0.000000 0.000000 0.000000 0.044700
#
#
# Mechanical properties :
#
#
# Convention : Reuss Voigt Hill
#
# Bulk Modulus (GPa) = 28.08503 28.81729 28.45116
# Shear Modulus (GPa) = 25.48964 29.11671 27.30317
#
# Velocity S-wave (km/s) = 3.38750 3.62050 3.50594
# Velocity P-wave (km/s) = 5.28619 5.51821 5.40345
#
# Compressibility (1/GPa) = 0.03560615
#
# Stress axis : x y z
#
# Youngs Moduli (GPa) = 66.07341 47.38630 77.87923
#
# Poissons Ratio (x) = 0.22816 -0.33654
# Poissons Ratio (y) = 0.31813 0.48616
# Poissons Ratio (z) = -0.28552 0.29581
#
# Static dielectric constant tensor:
#      x y z
#    x 1.855150 0.000000 0.000000 
#    y 0.000000 1.774560 0.000000 
#    z 0.000000 0.000000 1.783770 
# 
# From -- ./inp_files/12541.got.cif
#   From: 2010.05.17/outbox.cif.g08.bks.cpg/sg37_7_cif.got.tgz:12541.got - 2010.06.03 17:53:42.
