data_PCOD9355091
_publ_section_title
;
Structure prediction by ZEFSAII (Michael W. Deem and Ramdas Pophale) SiO2 
 PCOD9355091
Probable space group: C C C 2
;
_chemical_formula_sum "Si O2"
_cell_formula_units_Z 52
_cell_length_a 8.898876
_cell_length_b 11.825016
_cell_length_c 21.980004
_cell_angle_alpha 90.000000
_cell_angle_beta 90.000000
_cell_angle_gamma 90.000000
_cell_volume 2312.941558
_symmetry_space_group_name_H-M "C C C 2"
_symmetry_group_IT_number 37
_symmetry_cell_setting 'orthorhombic'
loop_
_space_group_symop_operation_xyz
x,y,z
-x,-y,z
-x,y,1/2+z
x,-y,1/2+z
1/2+x,1/2+y,z
1/2-x,1/2-y,z
1/2-x,1/2+y,1/2+z
1/2+x,1/2-y,1/2+z
loop_
_atom_site_type_symbol
_atom_site_label
_atom_site_fract_x
_atom_site_fract_y
_atom_site_fract_z
Si Si1 0.250000 0.250000 0.437480
Si Si2 0.077083 0.605126 0.854811
Si Si3 0.990219 0.733435 0.123123
Si Si4 0.855542 0.584126 0.532767
Si Si5 0.636132 0.574857 0.273271
Si Si6 0.289379 0.562127 0.637241
Si Si7 0.415584 0.781957 0.252388
O O1 0.106445 0.281902 0.394742
O O2 0.244235 0.365250 0.477824
O O3 0.237047 0.582506 0.823549
O O4 0.000000 0.500000 0.889128
O O5 0.967209 0.622436 0.797883
O O6 0.069048 0.695766 0.061830
O O7 0.091707 0.700348 0.180574
O O8 0.846720 0.652302 0.133524
O O9 0.937410 0.863042 0.123478
O O10 0.754176 0.526949 0.585464
O O11 0.000000 0.500000 0.521796
O O12 0.500000 0.500000 0.296045
O O13 0.695179 0.526250 0.208114
O O14 0.555118 0.693651 0.258245
O O15 0.250000 0.750000 0.273202
#
# Coordination Sequence:
#
# PCOD9355091 Si02
#       7
#     4   8   8   8   8   8   8
#     4  12  26  48  68  92 138 192 238 278 346 432
#     4  12  25  45  71  96 138 191 234 294 347 418
#     4   9  19  36  65 103 140 171 221 291 359 417
#     4  10  23  41  68  96 132 185 239 285 348 426
#     4  11  22  38  63 107 146 177 227 288 361 427
#     4   9  19  37  64 100 140 178 219 288 360 415
#     4  11  22  38  67 105 142 178 227 291 361 420
#
# _framework density 22.482192999999999
#
# number of rings (size 3 to 8) (size 9 to 14) (size 15 to 20)
#    0.000    1.538    3.077    1.385    5.385    1.231 
#    0.000    1.538    6.769    0.000    0.000    0.000 
#    0.000    0.000    0.000    0.000    0.000    0.000 
#
# Total GULP energy -145031.275998 kJ/mol
# GULP energy per Si atom -5578.126000 kJ/mol
# Density = 2.243102 g / cm^3
# Si number density = 22.482193 Si / 1000 Ang^3
#
#
#
# Elastic Constant Matrix: (Units=GPa)
#
#
# Indices 1 2 3 4 5 6 
#
# 1 106.1733 34.0833 41.3220 0.0000 0.0000 0.0000
# 2 34.0833 80.7828 38.6379 0.0000 0.0000 0.0000
# 3 41.3220 38.6379 93.7080 0.0000 0.0000 0.0000
# 4 0.0000 0.0000 0.0000 43.8360 0.0000 0.0000
# 5 0.0000 0.0000 0.0000 0.0000 -24.5206 0.0000
# 6 0.0000 0.0000 0.0000 0.0000 0.0000 44.4602
#
#
#
# Elastic Compliance Matrix: (Units=1/GPa)
#
#
# Indices 1 2 3 4 5 6 
#
# 1 0.011980 -0.003149 -0.003984 0.000000 0.000000 0.000000
# 2 -0.003149 0.016247 -0.005311 0.000000 0.000000 0.000000
# 3 -0.003984 -0.005311 0.014618 0.000000 0.000000 0.000000
# 4 0.000000 0.000000 0.000000 0.022812 0.000000 0.000000
# 5 0.000000 0.000000 0.000000 0.000000 -0.040782 0.000000
# 6 0.000000 0.000000 0.000000 0.000000 0.000000 0.022492
#
#
# Mechanical properties :
#
#
# Convention : Reuss Voigt Hill
#
# Bulk Modulus (GPa) = 55.68609 56.52783 56.10696
# Shear Modulus (GPa) = 63.90434 23.86318 43.88376
#
# Velocity S-wave (km/s) = 5.33724 3.26149 4.42286
# Velocity P-wave (km/s) = 7.92491 6.27543 7.14791
#
# Compressibility (1/GPa) = 0.01795781
#
# Stress axis : x y z
#
# Youngs Moduli (GPa) = 83.47165 61.54808 68.40795
#
# Poissons Ratio (x) = 0.19380 0.27257
# Poissons Ratio (y) = 0.26284 0.36329
# Poissons Ratio (z) = 0.33259 0.32686
#
# Static dielectric constant tensor:
#      x y z
#    x 1.583700 0.000000 0.000000 
#    y 0.000000 1.567100 0.000000 
#    z 0.000000 0.000000 1.874200 
# 
# From -- ./inp_files/16372.got.cif
#   From: 2010.05.17/outbox.cif.g08.bks.cpg/sg37_9_cif.got.tgz:16372.got - 2010.06.03 17:53:42.
