data_PCOD9355783
_publ_section_title
;
Structure prediction by ZEFSAII (Michael W. Deem and Ramdas Pophale) SiO2 
 PCOD9355783
Probable space group: C C C 2
;
_chemical_formula_sum "Si O2"
_cell_formula_units_Z 32
_cell_length_a 15.000000
_cell_length_b 24.000000
_cell_length_c 9.000000
_cell_angle_alpha 90.000000
_cell_angle_beta 90.000000
_cell_angle_gamma 90.000000
_cell_volume 3240.000000
_symmetry_space_group_name_H-M "C C C 2"
_symmetry_group_IT_number 37
_symmetry_cell_setting 'orthorhombic'
loop_
_space_group_symop_operation_xyz
x,y,z
-x,-y,z
-x,y,1/2+z
x,-y,1/2+z
1/2+x,1/2+y,z
1/2-x,1/2-y,z
1/2-x,1/2+y,1/2+z
1/2+x,1/2-y,1/2+z
loop_
_atom_site_type_symbol
_atom_site_label
_atom_site_fract_x
_atom_site_fract_y
_atom_site_fract_z
Si Si1 0.349027 0.227024 0.082830
Si Si2 0.497735 0.682860 0.678539
Si Si3 0.596894 0.107711 0.726186
Si Si4 0.900736 0.606799 0.584614
Si Si5 0.779492 0.501139 0.684673
Si Si6 0.515973 0.404202 0.928308
Si Si7 0.848187 0.274026 0.227842
Si Si8 0.645717 0.509423 0.934555
O O1 0.250000 0.250000 0.116485
O O2 0.417949 0.276825 0.123452
O O3 0.370126 0.168405 0.165717
O O4 0.355149 0.216309 0.905628
O O5 0.474762 0.652057 0.831736
O O6 0.516544 0.626143 0.586777
O O7 0.580933 0.725372 0.688418
O O8 0.498652 0.097855 0.656658
O O9 0.661277 0.055374 0.684416
O O10 0.592150 0.109539 0.905677
O O11 0.836082 0.554781 0.628478
O O12 0.866804 0.667101 0.645788
O O13 0.738751 0.514020 0.846027
O O14 0.685506 0.491833 0.599660
O O15 0.592560 0.451127 0.909012
O O16 0.423655 0.439659 0.909963
O O17 0.750000 0.250000 0.194624
#
# Coordination Sequence:
#
# PCOD9355783 Si02
#       8
#     8   8   8   8   8   8   8   8
#     4  11  27  46  71 104 144 190 240 293 357 423
#     4  12  24  45  72 107 138 190 232 296 354 422
#     4  12  28  47  72 104 142 186 236 298 355 420
#     4  12  28  47  72 104 142 186 236 298 355 420
#     4  12  27  45  76 102 142 182 246 289 351 418
#     4  11  26  44  74 100 152 181 236 288 358 417
#     4  11  27  46  71 104 144 190 240 293 357 423
#     4  11  26  48  69 110 138 192 233 294 346 423
#
# _framework density 9.8765429999999999
#
# number of rings (size 3 to 8) (size 9 to 14) (size 15 to 20)
#    0.000    0.500    3.750    2.625   12.250    3.500 
#    0.000    0.000    0.000    0.000    0.000    0.000 
#    0.000    0.000    0.000    0.000    0.000    0.000 
#
# Total GULP energy -178726.770078 kJ/mol
# GULP energy per Si atom -5585.211565 kJ/mol
# Density = 0.985406 g / cm^3
# Si number density = 9.876543 Si / 1000 Ang^3
#
#
#
# Elastic Constant Matrix: (Units=GPa)
#
#
# Indices 1 2 3 4 5 6 
#
# 1 148.2125 76.8959 39.0862 0.0000 0.0000 0.0000
# 2 76.8959 171.4317 25.7053 0.0000 0.0000 0.0000
# 3 39.0862 25.7053 7.8780 0.0000 0.0000 0.0000
# 4 0.0000 0.0000 0.0000 38.2969 0.0000 0.0000
# 5 0.0000 0.0000 0.0000 0.0000 26.1485 0.0000
# 6 0.0000 0.0000 0.0000 0.0000 0.0000 42.3605
#
#
#
# Elastic Compliance Matrix: (Units=1/GPa)
#
#
# Indices 1 2 3 4 5 6 
#
# 1 -0.013334 -0.007712 0.091316 0.000000 0.000000 0.000000
# 2 -0.007712 0.006961 0.015547 0.000000 0.000000 0.000000
# 3 0.091316 0.015547 -0.376853 0.000000 0.000000 0.000000
# 4 0.000000 0.000000 0.000000 0.026112 0.000000 0.000000
# 5 0.000000 0.000000 0.000000 0.000000 0.038243 0.000000
# 6 0.000000 0.000000 0.000000 0.000000 0.000000 0.023607
#
#
# Mechanical properties :
#
#
# Convention : Reuss Voigt Hill
#
# Bulk Modulus (GPa) = -5.40768 67.87743 31.23487
# Shear Modulus (GPa) = -9.00562 33.75018 12.37228
#
# Velocity S-wave (km/s) = -2.13752 4.13801 2.50541
# Velocity P-wave (km/s) = 2.97247 7.56759 4.92102
#
# Compressibility (1/GPa) = -0.18492202
#
# Stress axis : x y z
#
# Youngs Moduli (GPa) = -74.99797 143.65628 -2.65355
#
# Poissons Ratio (x) = 1.10782 0.24231
# Poissons Ratio (y) = -0.57835 0.04126
# Poissons Ratio (z) = 6.84855 -2.23344
#
# Static dielectric constant tensor:
#      x y z
#    x 1.672770 0.000000 0.000000 
#    y 0.000000 1.624850 0.000000 
#    z 0.000000 0.000000 1.838000 
# 
# From -- ./inp_files/3771.got.cif
#   From: 2010.05.17/outbox.ucp.g08.bks.cvg/sg37_2_cif.got.tgz:3771.got - 2010.06.11 10:38:43.
