data_PCOD9355482
_publ_section_title
;
Structure prediction by ZEFSAII (Michael W. Deem and Ramdas Pophale) SiO2 
 PCOD9355482
Probable space group: C C C 2
;
_chemical_formula_sum "Si O2"
_cell_formula_units_Z 48
_cell_length_a 18.279118
_cell_length_b 8.278478
_cell_length_c 15.822240
_cell_angle_alpha 90.000000
_cell_angle_beta 90.000000
_cell_angle_gamma 90.000000
_cell_volume 2394.273194
_symmetry_space_group_name_H-M "C C C 2"
_symmetry_group_IT_number 37
_symmetry_cell_setting 'orthorhombic'
loop_
_space_group_symop_operation_xyz
x,y,z
-x,-y,z
-x,y,1/2+z
x,-y,1/2+z
1/2+x,1/2+y,z
1/2-x,1/2-y,z
1/2-x,1/2+y,1/2+z
1/2+x,1/2-y,1/2+z
loop_
_atom_site_type_symbol
_atom_site_label
_atom_site_fract_x
_atom_site_fract_y
_atom_site_fract_z
Si Si1 0.820128 0.133949 0.734120
Si Si2 0.201942 0.907234 0.399892
Si Si3 0.298057 0.407236 0.568348
Si Si4 0.962577 0.175676 0.406363
Si Si5 0.980275 0.687860 0.234120
Si Si6 0.037424 0.824324 0.061878
O O1 0.750000 0.250000 0.734120
O O2 0.896543 0.238525 0.734120
O O3 0.812093 0.023437 0.818792
O O4 0.812092 0.023437 0.649448
O O5 0.250000 0.750000 0.378250
O O6 0.122173 0.842302 0.424514
O O7 0.231046 0.999999 0.484120
O O8 0.250000 0.250000 0.589989
O O9 0.377827 0.342304 0.543726
O O10 0.979778 0.249189 0.317042
O O11 0.000000 0.266877 0.484120
O O12 0.000000 0.000000 0.401981
O O13 0.000000 0.500000 0.234119
O O14 0.020223 0.750814 0.151199
O O15 0.000000 0.000000 0.066258
#
# Coordination Sequence:
#
# PCOD9355482 Si02
#       6
#     8   8   8   8   8   8
#     4  12  26  44  64  98 141 176 221 285 350 421
#     4  12  25  44  70  98 135 180 228 285 352 422
#     4  12  25  44  70  98 135 180 228 285 352 422
#     4  11  21  45  71  92 126 179 229 281 343 407
#     4  12  26  41  68 100 133 175 232 290 334 407
#     4  11  21  45  71  92 126 179 229 281 343 407
#
# _framework density 20.047839
#
# number of rings (size 3 to 8) (size 9 to 14) (size 15 to 20)
#    0.000    0.333    6.667    3.000    4.667    0.667 
#    0.000    0.000    0.000    0.000    0.000    0.000 
#    0.000    0.000    0.000    0.000    0.000    0.000 
#
# Total GULP energy -133946.544874 kJ/mol
# GULP energy per Si atom -5581.106036 kJ/mol
# Density = 2.000221 g / cm^3
# Si number density = 20.047839 Si / 1000 Ang^3
#
#
#
# Elastic Constant Matrix: (Units=GPa)
#
#
# Indices 1 2 3 4 5 6 
#
# 1 82.3885 27.7869 -18.3610 0.0000 0.0000 0.0000
# 2 27.7869 101.4793 43.2363 0.0000 0.0000 0.0000
# 3 -18.3610 43.2363 151.8943 0.0000 0.0000 0.0000
# 4 0.0000 0.0000 0.0000 104.0265 0.0000 0.0000
# 5 0.0000 0.0000 0.0000 0.0000 28.8947 0.0000
# 6 0.0000 0.0000 0.0000 0.0000 0.0000 33.3272
#
#
#
# Elastic Compliance Matrix: (Units=1/GPa)
#
#
# Indices 1 2 3 4 5 6 
#
# 1 0.014717 -0.005449 0.003330 0.000000 0.000000 0.000000
# 2 -0.005449 0.013231 -0.004425 0.000000 0.000000 0.000000
# 3 0.003330 -0.004425 0.008246 0.000000 0.000000 0.000000
# 4 0.000000 0.000000 0.000000 0.009613 0.000000 0.000000
# 5 0.000000 0.000000 0.000000 0.000000 0.034608 0.000000
# 6 0.000000 0.000000 0.000000 0.000000 0.000000 0.030006
#
#
# Mechanical properties :
#
#
# Convention : Reuss Voigt Hill
#
# Bulk Modulus (GPa) = 43.27651 49.00961 46.14306
# Shear Modulus (GPa) = 38.10657 52.12300 45.11479
#
# Velocity S-wave (km/s) = 4.36453 5.10448 4.74894
# Velocity P-wave (km/s) = 6.85801 7.69678 7.28947
#
# Compressibility (1/GPa) = 0.02310722
#
# Stress axis : x y z
#
# Youngs Moduli (GPa) = 67.94683 75.57745 121.27679
#
# Poissons Ratio (x) = 0.41180 -0.40385
# Poissons Ratio (y) = 0.37022 0.53664
# Poissons Ratio (z) = -0.22626 0.33443
#
# Static dielectric constant tensor:
#      x y z
#    x 1.695840 0.000000 0.000000 
#    y 0.000000 1.745050 0.000000 
#    z 0.000000 0.000000 2.385500 
# 
# From -- ./inp_files/10590.got.cif
#   From: 2010.05.17/outbox.cif.g08.bks.cpg/sg37_6_cif.got.tgz:10590.got - 2010.06.03 17:53:42.
