data_PCOD9355922
_publ_section_title
;
Structure prediction by ZEFSAII (Michael W. Deem and Ramdas Pophale) SiO2 
 PCOD9355922
Probable space group: A M M 2
;
_chemical_formula_sum "Si O2"
_cell_formula_units_Z 58
_cell_length_a 7.380521
_cell_length_b 16.080504
_cell_length_c 19.653629
_cell_angle_alpha 90.000000
_cell_angle_beta 90.000000
_cell_angle_gamma 90.000000
_cell_volume 2332.541774
_symmetry_space_group_name_H-M "A M M 2"
_symmetry_group_IT_number 38
_symmetry_cell_setting 'orthorhombic'
loop_
_space_group_symop_operation_xyz
x,y,z
-x,-y,z
-x,y,z
x,-y,z
x,1/2+y,1/2+z
-x,1/2-y,1/2+z
-x,1/2+y,1/2+z
x,1/2-y,1/2+z
loop_
_atom_site_type_symbol
_atom_site_label
_atom_site_fract_x
_atom_site_fract_y
_atom_site_fract_z
Si Si1 0.783510 0.909266 0.994060
Si Si2 0.217620 0.187192 0.117887
Si Si3 0.281224 0.405017 0.972999
Si Si4 0.287588 0.909657 0.249366
Si Si5 0.500000 0.000000 0.689135
Si Si6 0.210583 0.127125 0.632779
Si Si7 0.294271 0.908706 0.838821
Si Si8 0.278194 0.276032 0.855842
O O1 0.696328 0.910044 0.920857
O O2 0.000000 0.900171 0.983006
O O3 0.755108 0.000000 0.026553
O O4 0.715937 0.838204 0.043540
O O5 0.270912 0.118579 0.172107
O O6 0.273580 0.277969 0.140087
O O7 0.000000 0.187985 0.113855
O O8 0.500000 0.405069 0.971076
O O9 0.225656 0.500000 0.951075
O O10 0.224167 0.326529 0.925178
O O11 0.225410 0.393891 0.051823
O O12 0.500000 0.914232 0.266545
O O13 0.215281 0.838236 0.297315
O O14 0.207503 0.000000 0.260595
O O15 0.340670 0.070778 0.676445
O O16 0.000000 0.118705 0.652300
O O17 0.500000 0.911920 0.810865
O O18 0.214410 0.816134 0.832353
O O19 0.213054 0.000000 0.820290
O O20 0.500000 0.268620 0.858507
#
# Coordination Sequence:
#
# PCOD9355922 Si02
#       8
#     8   8   8   8   2   8   8   8
#     4   9  17  31  51  78 111 146 181 222 280 344
#     4  10  22  37  56  80 112 150 190 238 289 349
#     4  10  17  30  52  81 115 152 189 234 295 354
#     4  10  21  37  57  81 109 147 194 246 295 351
#     4  12  22  40  60  86 118 164 194 244 304 360
#     4  11  22  37  59  88 121 157 199 245 297 361
#     4   9  17  30  50  76 107 138 176 227 284 341
#     4   9  18  32  53  78 108 147 193 241 292 349
#
# _framework density 24.865579
#
# number of rings (size 3 to 8) (size 9 to 14) (size 15 to 20)
#    0.000    2.207    1.379    1.862    0.966    3.034 
#    0.000    2.759    1.517    1.655    0.000    0.000 
#    0.000    0.000    0.000    0.000    0.000    0.000 
#
# Total GULP energy -161784.266770 kJ/mol
# GULP energy per Si atom -5578.767820 kJ/mol
# Density = 2.480898 g / cm^3
# Si number density = 24.865579 Si / 1000 Ang^3
#
#
#
# Elastic Constant Matrix: (Units=GPa)
#
#
# Indices 1 2 3 4 5 6 
#
# 1 102.9412 28.2824 -3.0241 0.0000 0.0000 0.0000
# 2 28.2824 222.9306 35.9333 0.0000 0.0000 0.0000
# 3 -3.0241 35.9333 76.6638 0.0000 0.0000 0.0000
# 4 0.0000 0.0000 0.0000 3.6327 0.0000 0.0000
# 5 0.0000 0.0000 0.0000 0.0000 22.6616 0.0000
# 6 0.0000 0.0000 0.0000 0.0000 0.0000 -4.1353
#
#
#
# Elastic Compliance Matrix: (Units=1/GPa)
#
#
# Indices 1 2 3 4 5 6 
#
# 1 0.010148 -0.001462 0.001086 0.000000 0.000000 0.000000
# 2 -0.001462 0.005063 -0.002431 0.000000 0.000000 0.000000
# 3 0.001086 -0.002431 0.014226 0.000000 0.000000 0.000000
# 4 0.000000 0.000000 0.000000 0.275277 0.000000 0.000000
# 5 0.000000 0.000000 0.000000 0.000000 0.044128 0.000000
# 6 0.000000 0.000000 0.000000 0.000000 0.000000 -0.241822
#
#
# Mechanical properties :
#
#
# Convention : Reuss Voigt Hill
#
# Bulk Modulus (GPa) = 41.97762 58.32431 50.15096
# Shear Modulus (GPa) = 41.46758 27.18807 34.32783
#
# Velocity S-wave (km/s) = 4.08814 3.31025 3.71959
# Velocity P-wave (km/s) = 6.26118 6.17390 6.21769
#
# Compressibility (1/GPa) = 0.02382222
#
# Stress axis : x y z
#
# Youngs Moduli (GPa) = 98.54178 197.50945 70.29307
#
# Poissons Ratio (x) = 0.28885 -0.07632
# Poissons Ratio (y) = 0.14411 0.17087
# Poissons Ratio (z) = -0.10699 0.48011
#
# Static dielectric constant tensor:
#      x y z
#    x 1.928640 0.000000 0.000000 
#    y 0.000000 2.018250 0.000000 
#    z 0.000000 0.000000 1.974230 
# 
# From -- ./inp_files/22027.got.cif
#   From: 2010.05.17/outbox.cif.g08.bks.cpg/sg38_12_cif.got.tgz:22027.got - 2010.06.03 18:07:57.
