data_PCOD9355070
_publ_section_title
;
Structure prediction by ZEFSAII (Michael W. Deem and Ramdas Pophale) SiO2 
 PCOD9355070
Probable space group: C C C 2
;
_chemical_formula_sum "Si O2"
_cell_formula_units_Z 40
_cell_length_a 5.348940
_cell_length_b 20.070614
_cell_length_c 17.999961
_cell_angle_alpha 90.000000
_cell_angle_beta 90.000000
_cell_angle_gamma 90.000000
_cell_volume 1932.412994
_symmetry_space_group_name_H-M "C C C 2"
_symmetry_group_IT_number 37
_symmetry_cell_setting 'orthorhombic'
loop_
_space_group_symop_operation_xyz
x,y,z
-x,-y,z
-x,y,1/2+z
x,-y,1/2+z
1/2+x,1/2+y,z
1/2-x,1/2-y,z
1/2-x,1/2+y,1/2+z
1/2+x,1/2-y,1/2+z
loop_
_atom_site_type_symbol
_atom_site_label
_atom_site_fract_x
_atom_site_fract_y
_atom_site_fract_z
Si Si1 0.215213 0.171111 0.885310
Si Si2 0.205612 0.329024 0.058928
Si Si3 0.373314 0.678474 0.766299
Si Si4 0.462362 0.074606 0.765528
Si Si5 0.306120 0.367301 0.642111
O O1 0.250000 0.250000 0.870028
O O2 0.362102 0.120234 0.832698
O O3 0.937236 0.162442 0.852106
O O4 0.279726 0.160063 0.970488
O O5 0.250000 0.250000 0.072523
O O6 0.444912 0.367984 0.092542
O O7 0.934891 0.346001 0.093834
O O8 0.250000 0.750000 0.761526
O O9 0.610030 0.680719 0.710685
O O10 0.202303 0.617282 0.739905
O O11 0.281710 0.070954 0.693209
O O12 0.500000 0.000000 0.791854
#
# Coordination Sequence:
#
# PCOD9355070 Si02
#       5
#     8   8   8   8   8
#     4  10  23  40  68 104 136 180 230 285 339 410
#     4  11  24  39  67 103 143 176 225 286 348 402
#     4  11  22  40  75 102 135 176 238 286 338 395
#     4  11  25  45  72 101 139 181 233 284 341 405
#     4  11  24  41  66  99 137 178 227 279 343 402
#
# _framework density 20.699507000000001
#
# number of rings (size 3 to 8) (size 9 to 14) (size 15 to 20)
#    0.000    1.200    4.000    1.200    5.600    3.200 
#    0.000    1.000    4.400    0.000    0.000    0.000 
#    0.000    0.000    0.000    0.000    0.000    0.000 
#
# Total GULP energy -111377.788194 kJ/mol
# GULP energy per Si atom -5568.889410 kJ/mol
# Density = 2.065239 g / cm^3
# Si number density = 20.699507 Si / 1000 Ang^3
#
#
#
# Elastic Constant Matrix: (Units=GPa)
#
#
# Indices 1 2 3 4 5 6 
#
# 1 116.9900 44.5657 58.6468 0.0000 0.0000 0.0000
# 2 44.5657 111.3998 49.5072 0.0000 0.0000 0.0000
# 3 58.6468 49.5072 152.7363 0.0000 0.0000 0.0000
# 4 0.0000 0.0000 0.0000 317.7623 0.0000 0.0000
# 5 0.0000 0.0000 0.0000 0.0000 81.9769 0.0000
# 6 0.0000 0.0000 0.0000 0.0000 0.0000 14.2546
#
#
#
# Elastic Compliance Matrix: (Units=1/GPa)
#
#
# Indices 1 2 3 4 5 6 
#
# 1 0.011413 -0.003059 -0.003391 0.000000 0.000000 0.000000
# 2 -0.003059 0.011307 -0.002491 0.000000 0.000000 0.000000
# 3 -0.003391 -0.002491 0.008656 0.000000 0.000000 0.000000
# 4 0.000000 0.000000 0.000000 0.003147 0.000000 0.000000
# 5 0.000000 0.000000 0.000000 0.000000 0.012199 0.000000
# 6 0.000000 0.000000 0.000000 0.000000 0.000000 0.070153
#
#
# Mechanical properties :
#
#
# Convention : Reuss Voigt Hill
#
# Bulk Modulus (GPa) = 74.09498 76.28507 75.19003
# Shear Modulus (GPa) = 35.90572 98.02585 66.96579
#
# Velocity S-wave (km/s) = 4.16939 6.88908 5.69400
# Velocity P-wave (km/s) = 7.68451 10.01063 8.92369
#
# Compressibility (1/GPa) = 0.01349619
#
# Stress axis : x y z
#
# Youngs Moduli (GPa) = 87.62164 88.43939 115.52068
#
# Poissons Ratio (x) = 0.27052 0.39170
# Poissons Ratio (y) = 0.26802 0.28771
# Poissons Ratio (z) = 0.29710 0.22026
#
# Static dielectric constant tensor:
#      x y z
#    x 1.881510 0.000000 0.000000 
#    y 0.000000 1.686620 0.000000 
#    z 0.000000 0.000000 1.768730 
# 
# From -- ./inp_files/13717.got.cif
#   From: 2010.05.17/outbox.cif.g08.bks.cpg/sg37_7_cif.got.tgz:13717.got - 2010.06.03 17:53:42.
