data_PCOD9355633
_publ_section_title
;
Structure prediction by ZEFSAII (Michael W. Deem and Ramdas Pophale) SiO2 
 PCOD9355633
Probable space group: C C C 2
;
_chemical_formula_sum "Si O2"
_cell_formula_units_Z 56
_cell_length_a 9.200344
_cell_length_b 13.447493
_cell_length_c 22.043200
_cell_angle_alpha 90.000000
_cell_angle_beta 90.000000
_cell_angle_gamma 90.000000
_cell_volume 2727.219125
_symmetry_space_group_name_H-M "C C C 2"
_symmetry_group_IT_number 37
_symmetry_cell_setting 'orthorhombic'
loop_
_space_group_symop_operation_xyz
x,y,z
-x,-y,z
-x,y,1/2+z
x,-y,1/2+z
1/2+x,1/2+y,z
1/2-x,1/2-y,z
1/2-x,1/2+y,1/2+z
1/2+x,1/2-y,1/2+z
loop_
_atom_site_type_symbol
_atom_site_label
_atom_site_fract_x
_atom_site_fract_y
_atom_site_fract_z
Si Si1 0.511059 0.734235 0.648750
Si Si2 0.778324 0.581232 0.787019
Si Si3 0.834098 0.539055 0.029711
Si Si4 0.250000 0.250000 0.061361
Si Si5 0.750000 0.750000 0.373593
Si Si6 0.334098 0.960945 0.905243
Si Si7 0.721676 0.918768 0.647935
Si Si8 0.488941 0.265765 0.786204
O O1 0.382515 0.714307 0.603057
O O2 0.587012 0.841969 0.638562
O O3 0.636772 0.651562 0.644605
O O4 0.455690 0.733904 0.717477
O O5 0.774529 0.502341 0.841153
O O6 0.788327 0.541663 0.717477
O O7 0.636772 0.651562 0.790349
O O8 0.912988 0.658031 0.796393
O O9 0.815079 0.656930 0.026054
O O10 0.774529 0.497659 0.093801
O O11 0.000000 0.500000 0.029645
O O12 0.763377 0.500000 0.967477
O O13 0.684921 0.843070 0.408900
O O14 0.617485 0.714307 0.331897
O O15 0.500000 0.000000 0.905309
#
# Coordination Sequence:
#
# PCOD9355633 Si02
#       8
#     8   8   8   4   4   8   8   8
#     4   9  19  36  64  99 131 167 216 266 323 389
#     4   9  19  40  65  92 133 174 207 267 331 380
#     4  11  25  45  64  95 131 171 216 268 332 387
#     4  12  23  40  66  96 121 174 220 266 320 394
#     4  12  23  40  66  96 121 174 220 266 320 394
#     4  11  25  45  64  95 131 171 216 268 332 387
#     4   9  19  40  65  92 133 174 207 267 331 380
#     4   9  19  36  64  99 131 167 216 266 323 389
#
# _framework density 20.533736999999999
#
# number of rings (size 3 to 8) (size 9 to 14) (size 15 to 20)
#    0.000    2.000    2.857    2.143    0.000    6.286 
#    0.000    4.286    0.000    0.000    0.000    0.000 
#    0.000    0.000    0.000    0.000    0.000    0.000 
#
# Total GULP energy -156275.988192 kJ/mol
# GULP energy per Si atom -5581.285293 kJ/mol
# Density = 2.048700 g / cm^3
# Si number density = 20.533737 Si / 1000 Ang^3
#
#
#
# Elastic Constant Matrix: (Units=GPa)
#
#
# Indices 1 2 3 4 5 6 
#
# 1 56.7123 10.9818 13.9451 0.0000 0.0000 0.0000
# 2 10.9818 115.2066 56.3316 0.0000 0.0000 0.0000
# 3 13.9451 56.3316 116.2793 0.0000 0.0000 0.0000
# 4 0.0000 0.0000 0.0000 -120.5065 0.0000 0.0000
# 5 0.0000 0.0000 0.0000 0.0000 -6.1141 0.0000
# 6 0.0000 0.0000 0.0000 0.0000 0.0000 14.8803
#
#
#
# Elastic Compliance Matrix: (Units=1/GPa)
#
#
# Indices 1 2 3 4 5 6 
#
# 1 0.018236 -0.000877 -0.001762 0.000000 0.000000 0.000000
# 2 -0.000877 0.011417 -0.005426 0.000000 0.000000 0.000000
# 3 -0.001762 -0.005426 0.011440 0.000000 0.000000 0.000000
# 4 0.000000 0.000000 0.000000 -0.008298 0.000000 0.000000
# 5 0.000000 0.000000 0.000000 0.000000 -0.163557 0.000000
# 6 0.000000 0.000000 0.000000 0.000000 0.000000 0.067203
#
#
# Mechanical properties :
#
#
# Convention : Reuss Voigt Hill
#
# Bulk Modulus (GPa) = 40.05899 50.07947 45.06923
# Shear Modulus (GPa) = -127.84556 -8.55207 -68.19881
#
# Velocity S-wave (km/s) = -7.89914 -2.04302 -5.76933
# Velocity P-wave (km/s) = 7.97772 4.34472 4.73114
#
# Compressibility (1/GPa) = 0.02496319
#
# Stress axis : x y z
#
# Youngs Moduli (GPa) = 54.83675 87.59224 87.41420
#
# Poissons Ratio (x) = 0.07678 0.15405
# Poissons Ratio (y) = 0.04807 0.47428
# Poissons Ratio (z) = 0.09664 0.47524
#
# Static dielectric constant tensor:
#      x y z
#    x 1.735550 0.000000 0.000000 
#    y 0.000000 1.761640 0.000000 
#    z 0.000000 0.000000 1.742980 
# 
# From -- ./inp_files/16477.got.cif
#   From: 2010.05.17/outbox.cif.g08.bks.cpg/sg37_9_cif.got.tgz:16477.got - 2010.06.03 17:53:42.
