data_PCOD9355936
_publ_section_title
;
Structure prediction by ZEFSAII (Michael W. Deem and Ramdas Pophale) SiO2 
 PCOD9355936
Probable space group: A M M 2
;
_chemical_formula_sum "Si O2"
_cell_formula_units_Z 64
_cell_length_a 7.666778
_cell_length_b 20.609993
_cell_length_c 21.151876
_cell_angle_alpha 90.000000
_cell_angle_beta 90.000000
_cell_angle_gamma 90.000000
_cell_volume 3342.255326
_symmetry_space_group_name_H-M "A M M 2"
_symmetry_group_IT_number 38
_symmetry_cell_setting 'orthorhombic'
loop_
_space_group_symop_operation_xyz
x,y,z
-x,-y,z
-x,y,z
x,-y,z
x,1/2+y,1/2+z
-x,1/2-y,1/2+z
-x,1/2+y,1/2+z
x,1/2-y,1/2+z
loop_
_atom_site_type_symbol
_atom_site_label
_atom_site_fract_x
_atom_site_fract_y
_atom_site_fract_z
Si Si1 0.708535 0.209341 0.658310
Si Si2 0.714195 0.792835 0.279414
Si Si3 0.287881 0.928821 0.850080
Si Si4 0.712565 0.428703 0.730677
Si Si5 0.289174 0.428049 0.583011
Si Si6 0.711947 0.928333 0.700790
Si Si7 0.702974 0.707442 0.394354
Si Si8 0.201085 0.211765 0.032684
O O1 0.500000 0.205794 0.665277
O O2 0.770737 0.251269 0.718319
O O3 0.774780 0.135406 0.663958
O O4 0.742375 0.247018 0.593500
O O5 0.500000 0.794307 0.279002
O O6 0.772403 0.866777 0.269849
O O7 0.775364 0.757596 0.343034
O O8 0.500000 0.931103 0.855679
O O9 0.248279 0.920670 0.775471
O O10 0.222350 0.865207 0.886032
O O11 0.224244 0.000000 0.870705
O O12 0.500000 0.428839 0.731377
O O13 0.770614 0.500000 0.752116
O O14 0.761578 0.421080 0.656829
O O15 0.500000 0.427483 0.580379
O O16 0.232071 0.500000 0.561245
O O17 0.228571 0.364539 0.546732
O O18 0.500000 0.929591 0.696630
O O19 0.774027 0.000000 0.680634
O O20 0.500000 0.700997 0.376784
O O21 0.710663 0.728866 0.466541
O O22 0.000000 0.224252 0.022952
#
# Coordination Sequence:
#
# PCOD9355936 Si02
#       8
#     8   8   8   8   8   8   8   8
#     4  10  17  31  55  78 100 129 167 214 257 305
#     4   9  15  26  50  78  98 121 162 212 258 296
#     4   8  13  23  43  73 102 123 150 192 244 302
#     4   8  13  23  45  77 104 121 148 199 257 305
#     4   9  17  32  55  78 100 131 170 209 252 304
#     4   8  13  23  46  81 109 123 147 201 265 307
#     4  10  19  32  50  72  97 131 170 209 251 302
#     4  12  25  36  46  68 105 146 178 211 250 297
#
# _framework density 19.148747
#
# number of rings (size 3 to 8) (size 9 to 14) (size 15 to 20)
#    0.000    2.750    2.500    2.625    0.000    0.750 
#    0.000    1.875    0.000    1.125    0.000    5.250 
#    0.000    0.000    0.000    0.000    0.000    0.000 
#
# Total GULP energy -178408.377388 kJ/mol
# GULP energy per Si atom -5575.261793 kJ/mol
# Density = 1.910516 g / cm^3
# Si number density = 19.148747 Si / 1000 Ang^3
#
#
#
# Elastic Constant Matrix: (Units=GPa)
#
#
# Indices 1 2 3 4 5 6 
#
# 1 27.9319 5.2863 -6.3852 0.0000 0.0000 0.0000
# 2 5.2863 150.3898 65.7142 0.0000 0.0000 0.0000
# 3 -6.3852 65.7142 88.0162 0.0000 0.0000 0.0000
# 4 0.0000 0.0000 0.0000 2.2948 0.0000 0.0000
# 5 0.0000 0.0000 0.0000 0.0000 -175.3911 0.0000
# 6 0.0000 0.0000 0.0000 0.0000 0.0000 -12.0812
#
#
#
# Elastic Compliance Matrix: (Units=1/GPa)
#
#
# Indices 1 2 3 4 5 6 
#
# 1 0.037777 -0.003748 0.005539 0.000000 0.000000 0.000000
# 2 -0.003748 0.010241 -0.007918 0.000000 0.000000 0.000000
# 3 0.005539 -0.007918 0.017675 0.000000 0.000000 0.000000
# 4 0.000000 0.000000 0.000000 0.435765 0.000000 0.000000
# 5 0.000000 0.000000 0.000000 0.000000 -0.005702 0.000000
# 6 0.000000 0.000000 0.000000 0.000000 0.000000 -0.082773
#
#
# Mechanical properties :
#
#
# Convention : Reuss Voigt Hill
#
# Bulk Modulus (GPa) = 18.71304 43.95204 31.33254
# Shear Modulus (GPa) = 11.28540 -23.58732 -6.15096
#
# Velocity S-wave (km/s) = 2.43030 -3.51350 -1.79421
# Velocity P-wave (km/s) = 4.20343 2.55797 3.47937
#
# Compressibility (1/GPa) = 0.05343867
#
# Stress axis : x y z
#
# Youngs Moduli (GPa) = 26.47118 97.64692 56.57684
#
# Poissons Ratio (x) = 0.36600 -0.31338
# Poissons Ratio (y) = 0.09922 0.44797
# Poissons Ratio (z) = -0.14662 0.77317
#
# Static dielectric constant tensor:
#      x y z
#    x 1.729850 0.000000 0.000000 
#    y 0.000000 1.778040 0.000000 
#    z 0.000000 0.000000 1.707800 
# 
# From -- ./inp_files/20224.got.cif
#   From: 2010.05.17/outbox.cif.g08.bks.cpg/sg38_11_cif.got.tgz:20224.got - 2010.06.03 18:07:57.
