data_PCOD9355230
_publ_section_title
;
Structure prediction by ZEFSAII (Michael W. Deem and Ramdas Pophale) SiO2 
 PCOD9355230
Probable space group: C C C 2
;
_chemical_formula_sum "Si O2"
_cell_formula_units_Z 44
_cell_length_a 12.421249
_cell_length_b 18.249426
_cell_length_c 8.436627
_cell_angle_alpha 90.000000
_cell_angle_beta 90.000000
_cell_angle_gamma 90.000000
_cell_volume 1912.420214
_symmetry_space_group_name_H-M "C C C 2"
_symmetry_group_IT_number 37
_symmetry_cell_setting 'orthorhombic'
loop_
_space_group_symop_operation_xyz
x,y,z
-x,-y,z
-x,y,1/2+z
x,-y,1/2+z
1/2+x,1/2+y,z
1/2-x,1/2-y,z
1/2-x,1/2+y,1/2+z
1/2+x,1/2-y,1/2+z
loop_
_atom_site_type_symbol
_atom_site_label
_atom_site_fract_x
_atom_site_fract_y
_atom_site_fract_z
Si Si1 0.441995 0.275756 0.801870
Si Si2 0.321546 0.893400 0.863168
Si Si3 0.093380 0.938514 0.345742
Si Si4 0.757953 0.006646 0.103853
Si Si5 0.250000 0.250000 0.552223
Si Si6 0.128132 0.280163 0.118973
O O1 0.437554 0.355671 0.878628
O O2 0.352534 0.260994 0.667302
O O3 0.557012 0.275035 0.719956
O O4 0.420499 0.217652 0.942547
O O5 0.265085 0.952137 0.747962
O O6 0.390080 0.853336 0.724088
O O7 0.267082 0.821596 0.942463
O O8 0.336495 0.945907 0.019358
O O9 0.181942 0.958074 0.475274
O O10 0.151912 0.939020 0.175043
O O11 0.000000 0.000000 0.346675
O O12 0.250000 0.250000 0.105114
#
# Coordination Sequence:
#
# PCOD9355230 Si02
#       6
#     8   8   8   8   4   8
#     4  12  28  46  75 117 155 202 265 328 389 473
#     4  11  24  45  73 109 147 208 252 322 388 467
#     4  11  24  38  64 105 153 197 244 309 401 474
#     4  10  24  42  67 103 152 202 252 313 393 466
#     4  12  24  48  80 110 162 206 268 326 392 456
#     4  12  27  46  76 108 158 202 257 320 391 455
#
# _framework density 23.007496
#
# number of rings (size 3 to 8) (size 9 to 14) (size 15 to 20)
#    0.000    0.727    3.636    2.727   10.182    0.000 
#    0.000    0.000    0.000   13.091    0.000    0.000 
#    0.000    0.000    0.000    0.000    0.000    0.000 
#
# Total GULP energy -122543.827735 kJ/mol
# GULP energy per Si atom -5570.173988 kJ/mol
# Density = 2.295513 g / cm^3
# Si number density = 23.007496 Si / 1000 Ang^3
#
#
#
# Elastic Constant Matrix: (Units=GPa)
#
#
# Indices 1 2 3 4 5 6 
#
# 1 38.7212 3.0850 30.5164 0.0000 0.0000 0.0000
# 2 3.0850 105.8131 51.9141 0.0000 0.0000 0.0000
# 3 30.5164 51.9141 132.8680 0.0000 0.0000 0.0000
# 4 0.0000 0.0000 0.0000 37.0836 0.0000 0.0000
# 5 0.0000 0.0000 0.0000 0.0000 30.9240 0.0000
# 6 0.0000 0.0000 0.0000 0.0000 0.0000 17.6295
#
#
#
# Elastic Compliance Matrix: (Units=1/GPa)
#
#
# Indices 1 2 3 4 5 6 
#
# 1 0.032469 0.003355 -0.008768 0.000000 0.000000 0.000000
# 2 0.003355 0.012039 -0.005474 0.000000 0.000000 0.000000
# 3 -0.008768 -0.005474 0.011679 0.000000 0.000000 0.000000
# 4 0.000000 0.000000 0.000000 0.026966 0.000000 0.000000
# 5 0.000000 0.000000 0.000000 0.000000 0.032337 0.000000
# 6 0.000000 0.000000 0.000000 0.000000 0.000000 0.056723
#
#
# Mechanical properties :
#
#
# Convention : Reuss Voigt Hill
#
# Bulk Modulus (GPa) = 29.05990 49.82592 39.44291
# Shear Modulus (GPa) = 24.33589 29.91987 27.12788
#
# Velocity S-wave (km/s) = 3.25582 3.61007 3.43751
# Velocity P-wave (km/s) = 5.17608 6.25142 5.73899
#
# Compressibility (1/GPa) = 0.03441168
#
# Stress axis : x y z
#
# Youngs Moduli (GPa) = 30.79902 83.06597 85.62363
#
# Poissons Ratio (x) = -0.27871 0.75076
# Poissons Ratio (y) = -0.10334 0.46873
# Poissons Ratio (z) = 0.27005 0.45473
#
# Static dielectric constant tensor:
#      x y z
#    x 1.820660 0.000000 0.000000 
#    y 0.000000 2.301380 0.000000 
#    z 0.000000 0.000000 1.904190 
# 
# From -- ./inp_files/3455.got.cif
#   From: 2010.05.17/outbox.cif.g08.bks.cpg/sg37_2_cif.got.tgz:3455.got - 2010.06.03 17:53:42.
