data_PCOD9355647
_publ_section_title
;
Structure prediction by ZEFSAII (Michael W. Deem and Ramdas Pophale) SiO2 
 PCOD9355647
Probable space group: C C C 2
;
_chemical_formula_sum "Si O2"
_cell_formula_units_Z 32
_cell_length_a 15.322896
_cell_length_b 4.853285
_cell_length_c 16.678111
_cell_angle_alpha 90.000000
_cell_angle_beta 90.000000
_cell_angle_gamma 90.000000
_cell_volume 1240.290762
_symmetry_space_group_name_H-M "C C C 2"
_symmetry_group_IT_number 37
_symmetry_cell_setting 'orthorhombic'
loop_
_space_group_symop_operation_xyz
x,y,z
-x,-y,z
-x,y,1/2+z
x,-y,1/2+z
1/2+x,1/2+y,z
1/2-x,1/2-y,z
1/2-x,1/2+y,1/2+z
1/2+x,1/2-y,1/2+z
loop_
_atom_site_type_symbol
_atom_site_label
_atom_site_fract_x
_atom_site_fract_y
_atom_site_fract_z
Si Si1 0.500000 0.500000 0.338980
Si Si2 0.750000 0.250000 0.326598
Si Si3 0.377814 0.635217 0.206814
Si Si4 0.102841 0.580054 0.923390
Si Si5 0.400858 0.105868 0.103050
O O1 0.457005 0.695342 0.269777
O O2 0.419668 0.394654 0.395529
O O3 0.696183 0.451289 0.268068
O O4 0.820063 0.436951 0.374028
O O5 0.395753 0.415348 0.136257
O O6 0.350055 0.914804 0.164405
O O7 0.000000 0.500000 0.912061
O O8 0.124793 0.483356 0.013565
O O9 0.500000 0.000000 0.109199
#
# Coordination Sequence:
#
# PCOD9355647 Si02
#       5
#     4   4   8   8   8
#     4  12  24  46  80 112 156 210 274 334 406 494
#     4  12  28  50  80 122 164 218 278 344 420 502
#     4  12  26  46  77 116 155 207 267 336 405 496
#     4  11  27  48  78 116 165 217 276 344 422 503
#     4  11  25  47  79 112 159 210 271 332 418 489
#
# _framework density 25.800401000000001
#
# number of rings (size 3 to 8) (size 9 to 14) (size 15 to 20)
#    0.000    0.500    5.000    1.500    7.000    6.000 
#    0.000    0.000    0.000    0.000    0.000    0.000 
#    0.000    0.000    0.000    0.000    0.000    0.000 
#
# Total GULP energy -89104.798925 kJ/mol
# GULP energy per Si atom -5569.049933 kJ/mol
# Density = 2.574168 g / cm^3
# Si number density = 25.800401 Si / 1000 Ang^3
#
#
#
# Elastic Constant Matrix: (Units=GPa)
#
#
# Indices 1 2 3 4 5 6 
#
# 1 92.7247 14.4582 48.7496 0.0000 0.0000 0.0000
# 2 14.4582 95.9231 34.0708 0.0000 0.0000 0.0000
# 3 48.7496 34.0708 179.0022 0.0000 0.0000 0.0000
# 4 0.0000 0.0000 0.0000 31.2254 0.0000 0.0000
# 5 0.0000 0.0000 0.0000 0.0000 48.2681 0.0000
# 6 0.0000 0.0000 0.0000 0.0000 0.0000 41.0886
#
#
#
# Elastic Compliance Matrix: (Units=1/GPa)
#
#
# Indices 1 2 3 4 5 6 
#
# 1 0.012635 -0.000732 -0.003302 0.000000 0.000000 0.000000
# 2 -0.000732 0.011223 -0.001937 0.000000 0.000000 0.000000
# 3 -0.003302 -0.001937 0.006854 0.000000 0.000000 0.000000
# 4 0.000000 0.000000 0.000000 0.032025 0.000000 0.000000
# 5 0.000000 0.000000 0.000000 0.000000 0.020718 0.000000
# 6 0.000000 0.000000 0.000000 0.000000 0.000000 0.024338
#
#
# Mechanical properties :
#
#
# Convention : Reuss Voigt Hill
#
# Bulk Modulus (GPa) = 53.27175 62.46748 57.86962
# Shear Modulus (GPa) = 39.68556 42.14117 40.91337
#
# Velocity S-wave (km/s) = 3.92621 4.04586 3.98649
# Velocity P-wave (km/s) = 6.42231 6.78894 6.60817
#
# Compressibility (1/GPa) = 0.01877167
#
# Stress axis : x y z
#
# Youngs Moduli (GPa) = 79.14828 89.10051 145.89238
#
# Poissons Ratio (x) = 0.06519 0.48168
# Poissons Ratio (y) = 0.05791 0.28259
# Poissons Ratio (z) = 0.26132 0.17258
#
# Static dielectric constant tensor:
#      x y z
#    x 2.230170 0.000000 0.000000 
#    y 0.000000 2.845210 0.000000 
#    z 0.000000 0.000000 2.009020 
# 
# From -- ./inp_files/9433.got.cif
#   From: 2010.05.17/outbox.cif.g08.bks.cpg/sg37_5_cif.got.tgz:9433.got - 2010.06.03 17:53:42.
