data_PCOD9355068
_publ_section_title
;
Structure prediction by ZEFSAII (Michael W. Deem and Ramdas Pophale) SiO2 
 PCOD9355068
Probable space group: C C C 2
;
_chemical_formula_sum "Si O2"
_cell_formula_units_Z 56
_cell_length_a 12.654533
_cell_length_b 14.089222
_cell_length_c 15.254519
_cell_angle_alpha 90.000000
_cell_angle_beta 90.000000
_cell_angle_gamma 90.000000
_cell_volume 2719.766706
_symmetry_space_group_name_H-M "C C C 2"
_symmetry_group_IT_number 37
_symmetry_cell_setting 'orthorhombic'
loop_
_space_group_symop_operation_xyz
x,y,z
-x,-y,z
-x,y,1/2+z
x,-y,1/2+z
1/2+x,1/2+y,z
1/2-x,1/2-y,z
1/2-x,1/2+y,1/2+z
1/2+x,1/2-y,1/2+z
loop_
_atom_site_type_symbol
_atom_site_label
_atom_site_fract_x
_atom_site_fract_y
_atom_site_fract_z
Si Si1 0.397933 0.432691 0.258640
Si Si2 0.090616 0.575530 0.142748
Si Si3 0.625335 0.275702 0.062449
Si Si4 0.502192 0.290912 0.880733
Si Si5 0.812664 0.938597 0.904309
Si Si6 0.822947 0.020669 0.091812
Si Si7 0.919745 0.583665 0.851905
O O1 0.500000 0.500000 0.261444
O O2 0.430614 0.333799 0.300552
O O3 0.320300 0.484611 0.326567
O O4 0.354591 0.440705 0.161241
O O5 0.074861 0.684347 0.110565
O O6 0.198881 0.540113 0.099777
O O7 0.104024 0.574249 0.248002
O O8 0.000000 0.500000 0.120104
O O9 0.750000 0.250000 0.049923
O O10 0.623513 0.376968 0.112930
O O11 0.568106 0.295476 0.970648
O O12 0.393997 0.352520 0.887231
O O13 0.477069 0.182682 0.864374
O O14 0.689748 0.911811 0.905148
O O15 0.848346 0.987692 0.994267
O O16 0.000000 0.500000 0.878220
#
# Coordination Sequence:
#
# PCOD9355068 Si02
#       7
#     8   8   8   8   8   8   8
#     4  10  23  40  67  98 138 175 218 281 334 403
#     4  10  24  44  66  99 135 181 233 276 341 412
#     4  10  24  40  67 101 134 178 229 275 343 416
#     4  11  25  42  68 103 138 174 227 286 338 415
#     4  11  24  43  67 102 135 173 230 280 344 404
#     4  11  23  41  71  96 138 181 224 286 339 407
#     4  11  26  45  70  95 135 185 224 284 344 415
#
# _framework density 20.59
#
# number of rings (size 3 to 8) (size 9 to 14) (size 15 to 20)
#    0.000    1.429    2.857    0.429   12.000    1.143 
#    0.000    0.000    0.000    0.000    0.000    0.000 
#    0.000    0.000    0.000    0.000    0.000    0.000 
#
# Total GULP energy -156452.634019 kJ/mol
# GULP energy per Si atom -5587.594072 kJ/mol
# Density = 2.054314 g / cm^3
# Si number density = 20.590000 Si / 1000 Ang^3
#
#
#
# Elastic Constant Matrix: (Units=GPa)
#
#
# Indices 1 2 3 4 5 6 
#
# 1 54.7167 60.6775 20.0367 0.0000 0.0000 0.0000
# 2 60.6775 154.9426 29.8598 0.0000 0.0000 0.0000
# 3 20.0367 29.8598 72.0792 0.0000 0.0000 0.0000
# 4 0.0000 0.0000 0.0000 33.0332 0.0000 0.0000
# 5 0.0000 0.0000 0.0000 0.0000 27.8195 0.0000
# 6 0.0000 0.0000 0.0000 0.0000 0.0000 35.9340
#
#
#
# Elastic Compliance Matrix: (Units=1/GPa)
#
#
# Indices 1 2 3 4 5 6 
#
# 1 0.033439 -0.012285 -0.004206 0.000000 0.000000 0.000000
# 2 -0.012285 0.011527 -0.001360 0.000000 0.000000 0.000000
# 3 -0.004206 -0.001360 0.015606 0.000000 0.000000 0.000000
# 4 0.000000 0.000000 0.000000 0.030273 0.000000 0.000000
# 5 0.000000 0.000000 0.000000 0.000000 0.035946 0.000000
# 6 0.000000 0.000000 0.000000 0.000000 0.000000 0.027829
#
#
# Mechanical properties :
#
#
# Convention : Reuss Voigt Hill
#
# Bulk Modulus (GPa) = 40.20913 55.87627 48.04270
# Shear Modulus (GPa) = 25.17465 30.76829 27.97147
#
# Velocity S-wave (km/s) = 3.50045 3.86985 3.68978
# Velocity P-wave (km/s) = 5.99237 6.86762 6.44487
#
# Compressibility (1/GPa) = 0.02486998
#
# Stress axis : x y z
#
# Youngs Moduli (GPa) = 29.90511 86.75332 64.07598
#
# Poissons Ratio (x) = 1.06572 0.26953
# Poissons Ratio (y) = 0.36737 0.08716
# Poissons Ratio (z) = 0.12579 0.11801
#
# Static dielectric constant tensor:
#      x y z
#    x 1.750550 0.000000 0.000000 
#    y 0.000000 1.725440 0.000000 
#    z 0.000000 0.000000 1.761980 
# 
# From -- ./inp_files/11570.got.cif
#   From: 2010.05.17/outbox.cif.g08.bks.cpg/sg37_6_cif.got.tgz:11570.got - 2010.06.03 17:53:42.
