data_PCOD9355499
_publ_section_title
;
Structure prediction by ZEFSAII (Michael W. Deem and Ramdas Pophale) SiO2 
 PCOD9355499
Probable space group: C C C 2
;
_chemical_formula_sum "Si O2"
_cell_formula_units_Z 64
_cell_length_a 27.751486
_cell_length_b 11.648736
_cell_length_c 9.739297
_cell_angle_alpha 90.000000
_cell_angle_beta 90.000000
_cell_angle_gamma 90.000000
_cell_volume 3148.419951
_symmetry_space_group_name_H-M "C C C 2"
_symmetry_group_IT_number 37
_symmetry_cell_setting 'orthorhombic'
loop_
_space_group_symop_operation_xyz
x,y,z
-x,-y,z
-x,y,1/2+z
x,-y,1/2+z
1/2+x,1/2+y,z
1/2-x,1/2-y,z
1/2-x,1/2+y,1/2+z
1/2+x,1/2-y,1/2+z
loop_
_atom_site_type_symbol
_atom_site_label
_atom_site_fract_x
_atom_site_fract_y
_atom_site_fract_z
Si Si1 0.600258 0.553831 0.757950
Si Si2 0.832829 0.846287 0.347830
Si Si3 0.792188 0.183379 0.397058
Si Si4 0.332707 0.003440 0.051763
Si Si5 0.736162 0.958038 0.302505
Si Si6 0.652470 0.237886 0.146912
Si Si7 0.622105 0.753179 0.083554
Si Si8 0.548907 0.431253 0.525262
O O1 0.640377 0.468612 0.821450
O O2 0.614028 0.683934 0.725515
O O3 0.587757 0.500530 0.612772
O O4 0.556829 0.552973 0.864263
O O5 0.776686 0.860236 0.311475
O O6 0.836241 0.801907 0.503766
O O7 0.860860 0.763669 0.240953
O O8 0.750000 0.250000 0.475377
O O9 0.804949 0.255391 0.259170
O O10 0.839127 0.180084 0.493008
O O11 0.768432 0.067208 0.345855
O O12 0.359481 0.893166 0.115511
O O13 0.288662 0.032462 0.155044
O O14 0.366391 0.115625 0.039557
O O15 0.307296 0.959572 0.912490
O O16 0.568541 0.698913 0.059892
O O17 0.500000 0.500000 0.561096
#
# Coordination Sequence:
#
# PCOD9355499 Si02
#       8
#     8   8   8   8   8   8   8   8
#     4  11  22  41  65  97 125 156 200 278 340 389
#     4  11  24  37  59  86 127 168 224 275 317 363
#     4  12  21  38  59  85 130 179 233 274 317 365
#     4  12  25  37  54  85 127 179 227 253 314 385
#     4  12  23  34  56  86 122 181 235 272 301 369
#     4  12  23  39  58  87 128 178 218 267 322 388
#     4  11  24  41  60  89 129 173 213 277 329 386
#     4  11  23  43  72  99 121 151 205 272 351 400
#
# _framework density 20.327655
#
# number of rings (size 3 to 8) (size 9 to 14) (size 15 to 20)
#    0.000    0.500    6.250    2.625    1.750    1.000 
#    0.000    0.000    0.000    0.750    0.000    1.750 
#    0.000    0.000    0.000    0.000    0.000    0.000 
#
# Total GULP energy -178421.137245 kJ/mol
# GULP energy per Si atom -5575.660539 kJ/mol
# Density = 2.028139 g / cm^3
# Si number density = 20.327655 Si / 1000 Ang^3
#
#
#
# Elastic Constant Matrix: (Units=GPa)
#
#
# Indices 1 2 3 4 5 6 
#
# 1 72.5749 51.2617 21.5980 0.0000 0.0000 0.0000
# 2 51.2617 108.4716 -0.7555 0.0000 0.0000 0.0000
# 3 21.5980 -0.7555 99.4258 0.0000 0.0000 0.0000
# 4 0.0000 0.0000 0.0000 24.8500 0.0000 0.0000
# 5 0.0000 0.0000 0.0000 0.0000 18.5106 0.0000
# 6 0.0000 0.0000 0.0000 0.0000 0.0000 21.6509
#
#
#
# Elastic Compliance Matrix: (Units=1/GPa)
#
#
# Indices 1 2 3 4 5 6 
#
# 1 0.022988 -0.010899 -0.005076 0.000000 0.000000 0.000000
# 2 -0.010899 0.014387 0.002477 0.000000 0.000000 0.000000
# 3 -0.005076 0.002477 0.011179 0.000000 0.000000 0.000000
# 4 0.000000 0.000000 0.000000 0.040242 0.000000 0.000000
# 5 0.000000 0.000000 0.000000 0.000000 0.054023 0.000000
# 6 0.000000 0.000000 0.000000 0.000000 0.000000 0.046187
#
#
# Mechanical properties :
#
#
# Convention : Reuss Voigt Hill
#
# Bulk Modulus (GPa) = 46.38857 47.18675 46.78766
# Shear Modulus (GPa) = 22.40255 26.89351 24.64803
#
# Velocity S-wave (km/s) = 3.32335 3.64125 3.48593
# Velocity P-wave (km/s) = 6.13157 6.39858 6.26650
#
# Compressibility (1/GPa) = 0.02155703
#
# Stress axis : x y z
#
# Youngs Moduli (GPa) = 43.50127 69.50763 89.45101
#
# Poissons Ratio (x) = 0.75756 0.45409
# Poissons Ratio (y) = 0.47412 -0.22156
# Poissons Ratio (z) = 0.22083 -0.17216
#
# Static dielectric constant tensor:
#      x y z
#    x 1.756690 0.000000 0.000000 
#    y 0.000000 1.815360 0.000000 
#    z 0.000000 0.000000 1.750600 
# 
# From -- ./inp_files/4997.got.cif
#   From: 2010.05.17/outbox.cif.g08.bks.cpg/sg37_3_cif.got.tgz:4997.got - 2010.06.03 17:53:42.
