data_PCOD9355206
_publ_section_title
;
Structure prediction by ZEFSAII (Michael W. Deem and Ramdas Pophale) SiO2 
 PCOD9355206
Probable space group: C C C 2
;
_chemical_formula_sum "Si O2"
_cell_formula_units_Z 56
_cell_length_a 12.237585
_cell_length_b 12.538173
_cell_length_c 15.144365
_cell_angle_alpha 90.000000
_cell_angle_beta 90.000000
_cell_angle_gamma 90.000000
_cell_volume 2323.705294
_symmetry_space_group_name_H-M "C C C 2"
_symmetry_group_IT_number 37
_symmetry_cell_setting 'orthorhombic'
loop_
_space_group_symop_operation_xyz
x,y,z
-x,-y,z
-x,y,1/2+z
x,-y,1/2+z
1/2+x,1/2+y,z
1/2-x,1/2-y,z
1/2-x,1/2+y,1/2+z
1/2+x,1/2-y,1/2+z
loop_
_atom_site_type_symbol
_atom_site_label
_atom_site_fract_x
_atom_site_fract_y
_atom_site_fract_z
Si Si1 0.698339 0.869095 0.797280
Si Si2 0.015440 0.124712 0.176333
Si Si3 0.367996 0.510794 0.887633
Si Si4 0.507764 0.157305 0.438245
Si Si5 0.653554 0.333403 0.517141
Si Si6 0.862324 0.230865 0.823888
Si Si7 0.863268 0.698064 0.601349
O O1 0.750000 0.750000 0.812396
O O2 0.798305 0.952753 0.809988
O O3 0.606045 0.890124 0.874954
O O4 0.656310 0.864834 0.695144
O O5 0.922972 0.192358 0.129671
O O6 0.119904 0.143380 0.115583
O O7 0.040661 0.184158 0.266238
O O8 0.000000 0.000000 0.184443
O O9 0.500000 0.500000 0.883621
O O10 0.339328 0.634364 0.890602
O O11 0.327475 0.445684 0.971781
O O12 0.558055 0.273062 0.463112
O O13 0.408003 0.166485 0.371151
O O14 0.443442 0.133967 0.532186
O O15 0.750000 0.250000 0.514796
O O16 0.750000 0.250000 0.774258
O O17 0.750000 0.750000 0.566227
#
# Coordination Sequence:
#
# PCOD9355206 Si02
#       7
#     8   8   8   8   8   8   8
#     4  11  20  40  69 107 140 184 239 301 378 434
#     4  11  25  41  69 103 138 184 249 304 357 431
#     4  12  22  39  73 108 131 182 244 310 357 445
#     4  11  20  42  65  97 145 188 227 292 374 439
#     4  11  21  40  70 106 142 177 229 303 369 434
#     4  12  26  42  63  99 145 187 243 301 372 431
#     4  10  24  39  66 104 141 185 241 296 374 431
#
# _framework density 24.099440999999999
#
# number of rings (size 3 to 8) (size 9 to 14) (size 15 to 20)
#    0.000    0.857    5.714    1.714    8.000    0.000 
#    0.000    0.714    0.000    0.000    7.429    0.000 
#    0.000    0.000    0.000    0.000    0.000    0.000 
#
# Total GULP energy -156092.829221 kJ/mol
# GULP energy per Si atom -5574.743901 kJ/mol
# Density = 2.404459 g / cm^3
# Si number density = 24.099441 Si / 1000 Ang^3
#
#
#
# Elastic Constant Matrix: (Units=GPa)
#
#
# Indices 1 2 3 4 5 6 
#
# 1 150.1684 31.8466 49.3114 0.0000 0.0000 0.0000
# 2 31.8466 47.7995 15.5073 0.0000 0.0000 0.0000
# 3 49.3114 15.5073 132.3543 0.0000 0.0000 0.0000
# 4 0.0000 0.0000 0.0000 7.0163 0.0000 0.0000
# 5 0.0000 0.0000 0.0000 0.0000 45.6536 0.0000
# 6 0.0000 0.0000 0.0000 0.0000 0.0000 28.1124
#
#
#
# Elastic Compliance Matrix: (Units=1/GPa)
#
#
# Indices 1 2 3 4 5 6 
#
# 1 0.008546 -0.004845 -0.002616 0.000000 0.000000 0.000000
# 2 -0.004845 0.024494 -0.001065 0.000000 0.000000 0.000000
# 3 -0.002616 -0.001065 0.008655 0.000000 0.000000 0.000000
# 4 0.000000 0.000000 0.000000 0.142526 0.000000 0.000000
# 5 0.000000 0.000000 0.000000 0.000000 0.021904 0.000000
# 6 0.000000 0.000000 0.000000 0.000000 0.000000 0.035571
#
#
# Mechanical properties :
#
#
# Convention : Reuss Voigt Hill
#
# Bulk Modulus (GPa) = 40.57949 58.18363 49.38156
# Shear Modulus (GPa) = 18.72925 31.73358 25.23141
#
# Velocity S-wave (km/s) = 2.79079 3.63268 3.23920
# Velocity P-wave (km/s) = 5.22107 6.46457 5.87581
#
# Compressibility (1/GPa) = 0.02464299
#
# Stress axis : x y z
#
# Youngs Moduli (GPa) = 117.01700 40.82615 115.54045
#
# Poissons Ratio (x) = 0.19780 0.30228
# Poissons Ratio (y) = 0.56693 0.12303
# Poissons Ratio (z) = 0.30615 0.04347
#
# Static dielectric constant tensor:
#      x y z
#    x 2.082590 0.000000 0.000000 
#    y 0.000000 1.874530 0.000000 
#    z 0.000000 0.000000 1.988040 
# 
# From -- ./inp_files/11577.got.cif
#   From: 2010.05.17/outbox.cif.g08.bks.cpg/sg37_6_cif.got.tgz:11577.got - 2010.06.03 17:53:42.
