data_PCOD9355443
_publ_section_title
;
Structure prediction by ZEFSAII (Michael W. Deem and Ramdas Pophale) SiO2 
 PCOD9355443
Probable space group: C C C 2
;
_chemical_formula_sum "Si O2"
_cell_formula_units_Z 32
_cell_length_a 10.321670
_cell_length_b 16.829967
_cell_length_c 8.661911
_cell_angle_alpha 90.000000
_cell_angle_beta 90.000000
_cell_angle_gamma 90.000000
_cell_volume 1504.689711
_symmetry_space_group_name_H-M "C C C 2"
_symmetry_group_IT_number 37
_symmetry_cell_setting 'orthorhombic'
loop_
_space_group_symop_operation_xyz
x,y,z
-x,-y,z
-x,y,1/2+z
x,-y,1/2+z
1/2+x,1/2+y,z
1/2-x,1/2-y,z
1/2-x,1/2+y,1/2+z
1/2+x,1/2-y,1/2+z
loop_
_atom_site_type_symbol
_atom_site_label
_atom_site_fract_x
_atom_site_fract_y
_atom_site_fract_z
Si Si1 0.146026 0.321515 0.417260
Si Si2 0.323752 0.457902 0.342111
Si Si3 0.077789 0.093561 0.674952
Si Si4 0.614548 0.772261 0.752285
O O1 0.250000 0.250000 0.384680
O O2 0.197378 0.402969 0.340233
O O3 0.139746 0.328379 0.603887
O O4 0.004194 0.300112 0.355146
O O5 0.382732 0.439292 0.509241
O O6 0.326062 0.551120 0.299775
O O7 0.431598 0.427257 0.222467
O O8 0.079631 0.187858 0.675867
O O9 0.750000 0.750000 0.835695
#
# Coordination Sequence:
#
# PCOD9355443 Si02
#       4
#     8   8   8   8
#     4  11  22  42  66  95 128 164 221 269 318 385
#     4  11  22  39  65  98 132 163 216 272 323 385
#     4  11  20  38  65  95 127 167 208 266 321 383
#     4  11  22  42  66  91 127 170 214 262 322 387
#
# _framework density 21.266843000000001
#
# number of rings (size 3 to 8) (size 9 to 14) (size 15 to 20)
#    0.000    1.000    7.500    3.000    0.000    1.000 
#    9.000    1.250    0.000    0.000    0.000    0.000 
#    0.000    0.000    0.000    0.000    0.000    0.000 
#
# Total GULP energy -89241.281505 kJ/mol
# GULP energy per Si atom -5577.580094 kJ/mol
# Density = 2.121844 g / cm^3
# Si number density = 21.266843 Si / 1000 Ang^3
#
#
#
# Elastic Constant Matrix: (Units=GPa)
#
#
# Indices 1 2 3 4 5 6 
#
# 1 160.5196 13.2158 40.2068 0.0000 0.0000 0.0000
# 2 13.2158 55.3345 3.6801 0.0000 0.0000 0.0000
# 3 40.2068 3.6801 57.7932 0.0000 0.0000 0.0000
# 4 0.0000 0.0000 0.0000 4.8970 0.0000 0.0000
# 5 0.0000 0.0000 0.0000 0.0000 40.2146 0.0000
# 6 0.0000 0.0000 0.0000 0.0000 0.0000 38.3564
#
#
#
# Elastic Compliance Matrix: (Units=1/GPa)
#
#
# Indices 1 2 3 4 5 6 
#
# 1 0.007664 -0.001482 -0.005237 0.000000 0.000000 0.000000
# 2 -0.001482 0.018435 -0.000143 0.000000 0.000000 0.000000
# 3 -0.005237 -0.000143 0.020956 0.000000 0.000000 0.000000
# 4 0.000000 0.000000 0.000000 0.204207 0.000000 0.000000
# 5 0.000000 0.000000 0.000000 0.000000 0.024867 0.000000
# 6 0.000000 0.000000 0.000000 0.000000 0.000000 0.026071
#
#
# Mechanical properties :
#
#
# Convention : Reuss Voigt Hill
#
# Bulk Modulus (GPa) = 30.00255 43.09473 36.54864
# Shear Modulus (GPa) = 15.28894 31.12992 23.20943
#
# Velocity S-wave (km/s) = 2.68416 3.83008 3.30713
# Velocity P-wave (km/s) = 4.87284 6.31405 5.63967
#
# Compressibility (1/GPa) = 0.03333050
#
# Stress axis : x y z
#
# Youngs Moduli (GPa) = 130.48700 54.24359 47.71972
#
# Poissons Ratio (x) = 0.08039 0.24992
# Poissons Ratio (y) = 0.19339 0.00682
# Poissons Ratio (z) = 0.68339 0.00775
#
# Static dielectric constant tensor:
#      x y z
#    x 1.819630 0.000000 0.000000 
#    y 0.000000 1.859250 0.000000 
#    z 0.000000 0.000000 1.756590 
# 
# From -- ./inp_files/2674.got.cif
#   From: 2010.05.17/outbox.cif.g08.bks.cpg/sg37_2_cif.got.tgz:2674.got - 2010.06.03 17:53:42.
