data_PCOD9355212
_publ_section_title
;
Structure prediction by ZEFSAII (Michael W. Deem and Ramdas Pophale) SiO2 
 PCOD9355212
Probable space group: C C C 2
;
_chemical_formula_sum "Si O2"
_cell_formula_units_Z 40
_cell_length_a 9.540708
_cell_length_b 10.531312
_cell_length_c 17.285086
_cell_angle_alpha 90.000000
_cell_angle_beta 90.000000
_cell_angle_gamma 90.000000
_cell_volume 1736.739285
_symmetry_space_group_name_H-M "C C C 2"
_symmetry_group_IT_number 37
_symmetry_cell_setting 'orthorhombic'
loop_
_space_group_symop_operation_xyz
x,y,z
-x,-y,z
-x,y,1/2+z
x,-y,1/2+z
1/2+x,1/2+y,z
1/2-x,1/2-y,z
1/2-x,1/2+y,1/2+z
1/2+x,1/2-y,1/2+z
loop_
_atom_site_type_symbol
_atom_site_label
_atom_site_fract_x
_atom_site_fract_y
_atom_site_fract_z
Si Si1 0.764282 0.391032 0.089870
Si Si2 0.500000 0.500000 0.512143
Si Si3 0.139932 0.418924 0.415911
Si Si4 0.912040 0.250838 0.782554
Si Si5 0.500000 0.000000 0.192959
Si Si6 0.855245 0.128395 0.370236
O O1 0.750000 0.250000 0.123106
O O2 0.613892 0.444905 0.069884
O O3 0.862516 0.478702 0.141282
O O4 0.828718 0.387390 0.003901
O O5 0.433247 0.603655 0.452940
O O6 0.111397 0.291629 0.370833
O O7 0.257664 0.501554 0.370302
O O8 0.000000 0.500000 0.414119
O O9 0.750000 0.250000 0.750612
O O10 0.982047 0.371922 0.741614
O O11 0.034201 0.145466 0.798952
O O12 0.750000 0.250000 0.372053
#
# Coordination Sequence:
#
# PCOD9355212 Si02
#       6
#     8   4   8   8   4   8
#     4  11  25  44  69  96 138 179 226 280 347 396
#     4  10  24  40  68 110 130 164 234 290 334 410
#     4  11  20  41  72 101 127 166 229 285 335 411
#     4  12  25  44  67  98 137 178 228 286 347 395
#     4  12  28  46  64  98 138 194 230 268 334 432
#     4  11  21  38  68 101 131 167 216 283 349 394
#
# _framework density 23.031668
#
# number of rings (size 3 to 8) (size 9 to 14) (size 15 to 20)
#    0.000    0.800    4.000    4.200    0.000    4.000 
#    0.000    1.000    0.000    0.000    0.000    0.000 
#    0.000    0.000    0.000    0.000    0.000    0.000 
#
# Total GULP energy -111623.134023 kJ/mol
# GULP energy per Si atom -5581.156701 kJ/mol
# Density = 2.297925 g / cm^3
# Si number density = 23.031668 Si / 1000 Ang^3
#
#
#
# Elastic Constant Matrix: (Units=GPa)
#
#
# Indices 1 2 3 4 5 6 
#
# 1 147.4850 38.5830 23.0555 0.0000 0.0000 0.0000
# 2 38.5830 92.4311 14.4680 0.0000 0.0000 0.0000
# 3 23.0555 14.4680 47.8057 0.0000 0.0000 0.0000
# 4 0.0000 0.0000 0.0000 105.0651 0.0000 0.0000
# 5 0.0000 0.0000 0.0000 0.0000 54.4060 0.0000
# 6 0.0000 0.0000 0.0000 0.0000 0.0000 44.5911
#
#
#
# Elastic Compliance Matrix: (Units=1/GPa)
#
#
# Indices 1 2 3 4 5 6 
#
# 1 0.007999 -0.002871 -0.002989 0.000000 0.000000 0.000000
# 2 -0.002871 0.012387 -0.002364 0.000000 0.000000 0.000000
# 3 -0.002989 -0.002364 0.023075 0.000000 0.000000 0.000000
# 4 0.000000 0.000000 0.000000 0.009518 0.000000 0.000000
# 5 0.000000 0.000000 0.000000 0.000000 0.018380 0.000000
# 6 0.000000 0.000000 0.000000 0.000000 0.000000 0.022426
#
#
# Mechanical properties :
#
#
# Convention : Reuss Voigt Hill
#
# Bulk Modulus (GPa) = 37.01928 48.88164 42.95046
# Shear Modulus (GPa) = 41.93313 54.92013 48.42663
#
# Velocity S-wave (km/s) = 4.27156 4.88848 4.59040
# Velocity P-wave (km/s) = 6.35897 7.28922 6.83993
#
# Compressibility (1/GPa) = 0.02701295
#
# Stress axis : x y z
#
# Youngs Moduli (GPa) = 125.02148 80.72733 43.33707
#
# Poissons Ratio (x) = 0.23177 0.12952
# Poissons Ratio (y) = 0.35894 0.10246
# Poissons Ratio (z) = 0.37365 0.19087
#
# Static dielectric constant tensor:
#      x y z
#    x 1.712610 0.000000 0.000000 
#    y 0.000000 1.619200 0.000000 
#    z 0.000000 0.000000 1.809060 
# 
# From -- ./inp_files/14249.got.cif
#   From: 2010.05.17/outbox.cif.g08.bks.cpg/sg37_8_cif.got.tgz:14249.got - 2010.06.03 17:53:42.
