data_PCOD9355357
_publ_section_title
;
Structure prediction by ZEFSAII (Michael W. Deem and Ramdas Pophale) SiO2 
 PCOD9355357
Probable space group: C C C 2
;
_chemical_formula_sum "Si O2"
_cell_formula_units_Z 40
_cell_length_a 12.770498
_cell_length_b 12.539641
_cell_length_c 10.012102
_cell_angle_alpha 90.000000
_cell_angle_beta 90.000000
_cell_angle_gamma 90.000000
_cell_volume 1603.312587
_symmetry_space_group_name_H-M "C C C 2"
_symmetry_group_IT_number 37
_symmetry_cell_setting 'orthorhombic'
loop_
_space_group_symop_operation_xyz
x,y,z
-x,-y,z
-x,y,1/2+z
x,-y,1/2+z
1/2+x,1/2+y,z
1/2-x,1/2-y,z
1/2-x,1/2+y,1/2+z
1/2+x,1/2-y,1/2+z
loop_
_atom_site_type_symbol
_atom_site_label
_atom_site_fract_x
_atom_site_fract_y
_atom_site_fract_z
Si Si1 0.010649 0.307546 0.264080
Si Si2 0.612213 0.965950 0.057765
Si Si3 0.205607 0.632402 0.231842
Si Si4 0.168465 0.958104 0.447578
Si Si5 0.542761 0.331443 0.005852
O O1 0.076249 0.396101 0.185629
O O2 0.066529 0.251785 0.387718
O O3 0.901136 0.355292 0.318944
O O4 0.975193 0.221947 0.150092
O O5 0.724813 0.917551 0.015503
O O6 0.500000 0.000000 0.992285
O O7 0.656825 0.081632 0.100853
O O8 0.250000 0.750000 0.216005
O O9 0.291595 0.553182 0.294620
O O10 0.070262 0.881504 0.468915
O O11 0.126610 0.073195 0.493937
#
# Coordination Sequence:
#
# PCOD9355357 Si02
#       5
#     8   8   8   8   8
#     4  11  24  46  74 110 150 199 244 316 373 461
#     4  10  25  43  70 106 148 199 254 307 377 456
#     4  11  22  43  69 101 147 197 251 306 381 435
#     4  11  25  43  74 105 149 199 251 314 379 462
#     4  11  26  45  78 112 151 191 257 308 394 451
#
# _framework density 24.948346000000001
#
# number of rings (size 3 to 8) (size 9 to 14) (size 15 to 20)
#    0.000    1.200    2.000    2.400    2.800    7.200 
#    0.000    4.000    0.000    0.000    0.000    0.000 
#    0.000    0.000    0.000    0.000    0.000    0.000 
#
# Total GULP energy -111616.557684 kJ/mol
# GULP energy per Si atom -5580.827884 kJ/mol
# Density = 2.489156 g / cm^3
# Si number density = 24.948346 Si / 1000 Ang^3
#
#
#
# Elastic Constant Matrix: (Units=GPa)
#
#
# Indices 1 2 3 4 5 6 
#
# 1 211.4401 48.0347 49.8375 0.0000 0.0000 0.0000
# 2 48.0347 81.2210 35.9686 0.0000 0.0000 0.0000
# 3 49.8375 35.9686 77.7720 0.0000 0.0000 0.0000
# 4 0.0000 0.0000 0.0000 31.4921 0.0000 0.0000
# 5 0.0000 0.0000 0.0000 0.0000 42.2883 0.0000
# 6 0.0000 0.0000 0.0000 0.0000 0.0000 32.3324
#
#
#
# Elastic Compliance Matrix: (Units=1/GPa)
#
#
# Indices 1 2 3 4 5 6 
#
# 1 0.005888 -0.002278 -0.002720 0.000000 0.000000 0.000000
# 2 -0.002278 0.016364 -0.006109 0.000000 0.000000 0.000000
# 3 -0.002720 -0.006109 0.017426 0.000000 0.000000 0.000000
# 4 0.000000 0.000000 0.000000 0.031754 0.000000 0.000000
# 5 0.000000 0.000000 0.000000 0.000000 0.023647 0.000000
# 6 0.000000 0.000000 0.000000 0.000000 0.000000 0.030929
#
#
# Mechanical properties :
#
#
# Convention : Reuss Voigt Hill
#
# Bulk Modulus (GPa) = 57.25347 70.90165 64.07756
# Shear Modulus (GPa) = 32.45850 36.99536 34.72693
#
# Velocity S-wave (km/s) = 3.61089 3.85499 3.73494
# Velocity P-wave (km/s) = 6.35479 6.94951 6.65879
#
# Compressibility (1/GPa) = 0.01746619
#
# Stress axis : x y z
#
# Youngs Moduli (GPa) = 169.83760 61.10816 57.38515
#
# Poissons Ratio (x) = 0.13919 0.15607
# Poissons Ratio (y) = 0.38686 0.35055
# Poissons Ratio (z) = 0.46190 0.37329
#
# Static dielectric constant tensor:
#      x y z
#    x 2.011220 0.000000 0.000000 
#    y 0.000000 1.994440 0.000000 
#    z 0.000000 0.000000 2.182520 
# 
# From -- ./inp_files/7064.got.cif
#   From: 2010.05.17/outbox.cif.g08.bks.cpg/sg37_4_cif.got.tgz:7064.got - 2010.06.03 17:53:42.
