data_PCOD9355124
_publ_section_title
;
Structure prediction by ZEFSAII (Michael W. Deem and Ramdas Pophale) SiO2 
 PCOD9355124
Probable space group: C C C 2
;
_chemical_formula_sum "Si O2"
_cell_formula_units_Z 60
_cell_length_a 11.717321
_cell_length_b 19.178731
_cell_length_c 10.444739
_cell_angle_alpha 90.000000
_cell_angle_beta 90.000000
_cell_angle_gamma 90.000000
_cell_volume 2347.176712
_symmetry_space_group_name_H-M "C C C 2"
_symmetry_group_IT_number 37
_symmetry_cell_setting 'orthorhombic'
loop_
_space_group_symop_operation_xyz
x,y,z
-x,-y,z
-x,y,1/2+z
x,-y,1/2+z
1/2+x,1/2+y,z
1/2-x,1/2-y,z
1/2-x,1/2+y,1/2+z
1/2+x,1/2-y,1/2+z
loop_
_atom_site_type_symbol
_atom_site_label
_atom_site_fract_x
_atom_site_fract_y
_atom_site_fract_z
Si Si1 0.078204 0.567558 0.133930
Si Si2 0.252757 0.014478 0.274481
Si Si3 0.349800 0.701990 0.622801
Si Si4 0.571137 0.264365 0.996382
Si Si5 0.250000 0.750000 0.218919
Si Si6 0.430406 0.870733 0.850775
Si Si7 0.051061 0.890354 0.834307
Si Si8 0.287697 0.615918 0.397597
O O1 0.205610 0.535368 0.157282
O O2 0.000000 0.500000 0.148314
O O3 0.032468 0.616917 0.249748
O O4 0.055344 0.599435 0.995061
O O5 0.327837 0.083534 0.292766
O O6 0.125817 0.043836 0.292688
O O7 0.277374 0.956832 0.384141
O O8 0.250000 0.750000 0.673854
O O9 0.436176 0.741062 0.526406
O O10 0.433143 0.663611 0.718955
O O11 0.285476 0.643341 0.540633
O O12 0.594221 0.209726 0.882446
O O13 0.597455 0.343871 0.953480
O O14 0.644183 0.246671 0.120748
O O15 0.256734 0.681145 0.306606
O O16 0.919265 0.901664 0.863353
#
# Coordination Sequence:
#
# PCOD9355124 Si02
#       8
#     8   8   8   8   4   8   8   8
#     4  10  23  43  67 106 147 188 244 294 377 439
#     4  11  25  42  70 102 148 190 236 301 366 445
#     4  11  26  43  72 104 142 185 241 303 359 432
#     4  11  26  44  74 102 146 187 244 303 367 433
#     4  12  22  48  74 104 144 190 242 300 368 438
#     4  11  25  43  73 109 144 195 241 315 368 441
#     4  11  26  48  65 108 138 191 240 296 364 432
#     4  11  25  48  72 103 141 189 242 293 361 441
#
# _framework density 25.562626999999999
#
# number of rings (size 3 to 8) (size 9 to 14) (size 15 to 20)
#    0.000    1.067    2.000    3.200    8.400    1.067 
#    0.000    1.333    0.000    0.000    0.000    0.000 
#    0.000    0.000    0.000    0.000    0.000    0.000 
#
# Total GULP energy -167806.682244 kJ/mol
# GULP energy per Si atom -5593.556075 kJ/mol
# Density = 2.550445 g / cm^3
# Si number density = 25.562627 Si / 1000 Ang^3
#
#
#
# Elastic Constant Matrix: (Units=GPa)
#
#
# Indices 1 2 3 4 5 6 
#
# 1 75.9849 30.7484 22.4634 0.0000 0.0000 0.0000
# 2 30.7484 123.4089 30.0738 0.0000 0.0000 0.0000
# 3 22.4634 30.0738 125.2984 0.0000 0.0000 0.0000
# 4 0.0000 0.0000 0.0000 27.2056 0.0000 0.0000
# 5 0.0000 0.0000 0.0000 0.0000 32.9898 0.0000
# 6 0.0000 0.0000 0.0000 0.0000 0.0000 33.7850
#
#
#
# Elastic Compliance Matrix: (Units=1/GPa)
#
#
# Indices 1 2 3 4 5 6 
#
# 1 0.015055 -0.003285 -0.001910 0.000000 0.000000 0.000000
# 2 -0.003285 0.009324 -0.001649 0.000000 0.000000 0.000000
# 3 -0.001910 -0.001649 0.008719 0.000000 0.000000 0.000000
# 4 0.000000 0.000000 0.000000 0.036757 0.000000 0.000000
# 5 0.000000 0.000000 0.000000 0.000000 0.030312 0.000000
# 6 0.000000 0.000000 0.000000 0.000000 0.000000 0.029599
#
#
# Mechanical properties :
#
#
# Convention : Reuss Voigt Hill
#
# Bulk Modulus (GPa) = 51.52482 54.58481 53.05482
# Shear Modulus (GPa) = 33.35005 34.88985 34.11995
#
# Velocity S-wave (km/s) = 3.61590 3.69843 3.65740
# Velocity P-wave (km/s) = 6.13458 6.29584 6.21573
#
# Compressibility (1/GPa) = 0.01940812
#
# Stress axis : x y z
#
# Youngs Moduli (GPa) = 66.42396 107.25531 114.68960
#
# Poissons Ratio (x) = 0.35238 0.21911
# Poissons Ratio (y) = 0.21823 0.18910
# Poissons Ratio (z) = 0.12690 0.17684
#
# Static dielectric constant tensor:
#      x y z
#    x 2.072810 0.000000 0.000000 
#    y 0.000000 2.007850 0.000000 
#    z 0.000000 0.000000 2.055590 
# 
# From -- ./inp_files/7343.got.cif
#   From: 2010.05.17/outbox.cif.g08.bks.cpg/sg37_4_cif.got.tgz:7343.got - 2010.06.03 17:53:42.
