data_PCOD9355943
_publ_section_title
;
Structure prediction by ZEFSAII (Michael W. Deem and Ramdas Pophale) SiO2 
 PCOD9355943
Probable space group: A M M 2
;
_chemical_formula_sum "Si O2"
_cell_formula_units_Z 58
_cell_length_a 15.104668
_cell_length_b 12.373410
_cell_length_c 15.560157
_cell_angle_alpha 90.000000
_cell_angle_beta 90.000000
_cell_angle_gamma 90.000000
_cell_volume 2908.134994
_symmetry_space_group_name_H-M "A M M 2"
_symmetry_group_IT_number 38
_symmetry_cell_setting 'orthorhombic'
loop_
_space_group_symop_operation_xyz
x,y,z
-x,-y,z
-x,y,z
x,-y,z
x,1/2+y,1/2+z
-x,1/2-y,1/2+z
-x,1/2+y,1/2+z
x,1/2-y,1/2+z
loop_
_atom_site_type_symbol
_atom_site_label
_atom_site_fract_x
_atom_site_fract_y
_atom_site_fract_z
Si Si1 0.895013 0.378459 0.251730
Si Si2 0.325281 0.382463 0.944119
Si Si3 0.247984 0.721210 0.780786
Si Si4 0.404123 0.287222 0.547103
Si Si5 0.399272 0.872339 0.711472
Si Si6 0.000000 0.000000 0.491838
Si Si7 0.780484 0.122181 0.092816
Si Si8 0.847930 0.657446 0.051588
O O1 0.877771 0.500000 0.283023
O O2 0.840394 0.288303 0.301721
O O3 0.862980 0.372826 0.151896
O O4 0.000000 0.359848 0.251732
O O5 0.367474 0.500000 0.946307
O O6 0.277636 0.359282 0.854477
O O7 0.391757 0.285498 0.962983
O O8 0.247978 0.376463 0.016069
O O9 0.324296 0.811346 0.765822
O O10 0.230096 0.656987 0.692542
O O11 0.500000 0.341092 0.550898
O O12 0.400406 0.197762 0.623666
O O13 0.318803 0.362643 0.555595
O O14 0.500000 0.865557 0.746642
O O15 0.379607 0.000000 0.698244
O O16 0.077462 0.905617 0.499938
O O17 0.843633 0.212199 0.050120
O O18 0.810821 0.000000 0.083877
#
# Coordination Sequence:
#
# PCOD9355943 Si02
#       8
#     8   8   8   8   8   2   8   8
#     4  10  17  33  57  81 101 130 180 237 279 317
#     4  11  21  35  51  79 112 144 171 221 284 335
#     4  10  21  32  50  77 113 149 180 212 267 338
#     4   9  19  34  57  84 105 136 187 233 271 315
#     4   9  17  33  56  81 106 136 182 238 279 314
#     4  12  16  36  62  92 102 124 184 248 284 312
#     4   9  19  36  55  78 112 150 181 218 267 327
#     4  10  19  33  61  85 104 132 182 236 277 319
#
# _framework density 19.944053
#
# number of rings (size 3 to 8) (size 9 to 14) (size 15 to 20)
#    0.000    2.207    2.069    2.069    0.000    1.655 
#    1.241    5.862    0.000    3.310    0.000    0.000 
#    0.000    0.000    0.000    0.000    0.000    0.000 
#
# Total GULP energy -161449.433322 kJ/mol
# GULP energy per Si atom -5567.221839 kJ/mol
# Density = 1.989866 g / cm^3
# Si number density = 19.944053 Si / 1000 Ang^3
#
#
#
# Elastic Constant Matrix: (Units=GPa)
#
#
# Indices 1 2 3 4 5 6 
#
# 1 77.9859 25.7589 1.1784 0.0000 0.0000 0.0000
# 2 25.7589 132.2141 1.5074 0.0000 0.0000 0.0000
# 3 1.1784 1.5074 18.2257 0.0000 0.0000 0.0000
# 4 0.0000 0.0000 0.0000 4.3077 0.0000 0.0000
# 5 0.0000 0.0000 0.0000 0.0000 7.2129 0.0000
# 6 0.0000 0.0000 0.0000 0.0000 0.0000 23.9276
#
#
#
# Elastic Compliance Matrix: (Units=1/GPa)
#
#
# Indices 1 2 3 4 5 6 
#
# 1 0.013713 -0.002664 -0.000666 0.000000 0.000000 0.000000
# 2 -0.002664 0.008088 -0.000497 0.000000 0.000000 0.000000
# 3 -0.000666 -0.000497 0.054952 0.000000 0.000000 0.000000
# 4 0.000000 0.000000 0.000000 0.232142 0.000000 0.000000
# 5 0.000000 0.000000 0.000000 0.000000 0.138641 0.000000
# 6 0.000000 0.000000 0.000000 0.000000 0.000000 0.041793
#
#
# Mechanical properties :
#
#
# Convention : Reuss Voigt Hill
#
# Bulk Modulus (GPa) = 14.47207 31.70167 23.08687
# Shear Modulus (GPa) = 9.61510 20.42171 15.01841
#
# Velocity S-wave (km/s) = 2.19807 3.20339 2.74711
# Velocity P-wave (km/s) = 3.70325 5.44170 4.65436
#
# Compressibility (1/GPa) = 0.06909863
#
# Stress axis : x y z
#
# Youngs Moduli (GPa) = 72.92443 123.63719 18.19782
#
# Poissons Ratio (x) = 0.32937 0.01212
# Poissons Ratio (y) = 0.19427 0.00904
# Poissons Ratio (z) = 0.04859 0.06141
#
# Static dielectric constant tensor:
#      x y z
#    x 1.708000 0.000000 0.000000 
#    y 0.000000 1.696480 0.000000 
#    z 0.000000 0.000000 1.734240 
# 
# From -- ./inp_files/18419.got.cif
#   From: 2010.05.17/outbox.cif.g08.bks.cpg/sg38_10_cif.got.tgz:18419.got - 2010.06.03 18:07:57.
