data_PCOD9355126
_publ_section_title
;
Structure prediction by ZEFSAII (Michael W. Deem and Ramdas Pophale) SiO2 
 PCOD9355126
Probable space group: C C C 2
;
_chemical_formula_sum "Si O2"
_cell_formula_units_Z 48
_cell_length_a 8.485713
_cell_length_b 29.575741
_cell_length_c 8.765494
_cell_angle_alpha 90.000000
_cell_angle_beta 90.000000
_cell_angle_gamma 90.000000
_cell_volume 2199.886985
_symmetry_space_group_name_H-M "C C C 2"
_symmetry_group_IT_number 37
_symmetry_cell_setting 'orthorhombic'
loop_
_space_group_symop_operation_xyz
x,y,z
-x,-y,z
-x,y,1/2+z
x,-y,1/2+z
1/2+x,1/2+y,z
1/2-x,1/2-y,z
1/2-x,1/2+y,1/2+z
1/2+x,1/2-y,1/2+z
loop_
_atom_site_type_symbol
_atom_site_label
_atom_site_fract_x
_atom_site_fract_y
_atom_site_fract_z
Si Si1 0.641637 0.465068 0.994320
Si Si2 0.788563 0.388604 0.126696
Si Si3 0.381368 0.891275 0.481334
Si Si4 0.686131 0.701431 0.031842
Si Si5 0.341082 0.023350 0.202545
Si Si6 0.845731 0.793326 0.672306
O O1 0.500000 0.500000 0.012053
O O2 0.705708 0.467070 0.824602
O O3 0.633809 0.414950 0.063673
O O4 0.785304 0.483363 0.093998
O O5 0.833893 0.400573 0.303964
O O6 0.757293 0.336093 0.132345
O O7 0.929914 0.392187 0.004001
O O8 0.299916 0.843397 0.533897
O O9 0.341905 0.932374 0.595810
O O10 0.750000 0.750000 0.090994
O O11 0.648413 0.709554 0.854473
O O12 0.519955 0.696280 0.114292
O O13 0.500000 0.000000 0.270995
O O14 0.750000 0.750000 0.612101
#
# Coordination Sequence:
#
# PCOD9355126 Si02
#       6
#     8   8   8   8   8   8
#     4  12  27  45  68  98 138 181 230 290 348 414
#     4  11  24  44  68 102 136 178 229 283 348 409
#     4  11  24  43  71 100 135 178 232 284 340 417
#     4  10  23  43  69 101 137 178 224 277 338 412
#     4  12  25  45  70  98 132 184 233 287 345 414
#     4  10  23  43  68 101 140 176 222 277 342 414
#
# _framework density 21.819300999999999
#
# number of rings (size 3 to 8) (size 9 to 14) (size 15 to 20)
#    0.000    1.000    1.667    4.000    2.333    3.333 
#    0.000    0.833    0.000    0.000    0.000    0.000 
#    0.000    0.000    0.000    0.000    0.000    0.000 
#
# Total GULP energy -133832.874032 kJ/mol
# GULP energy per Si atom -5576.369751 kJ/mol
# Density = 2.176964 g / cm^3
# Si number density = 21.819301 Si / 1000 Ang^3
#
#
#
# Elastic Constant Matrix: (Units=GPa)
#
#
# Indices 1 2 3 4 5 6 
#
# 1 78.4362 23.9597 24.2796 0.0000 0.0000 0.0000
# 2 23.9597 119.7949 42.0611 0.0000 0.0000 0.0000
# 3 24.2796 42.0611 63.5179 0.0000 0.0000 0.0000
# 4 0.0000 0.0000 0.0000 20.9486 0.0000 0.0000
# 5 0.0000 0.0000 0.0000 0.0000 22.3263 0.0000
# 6 0.0000 0.0000 0.0000 0.0000 0.0000 36.7373
#
#
#
# Elastic Compliance Matrix: (Units=1/GPa)
#
#
# Indices 1 2 3 4 5 6 
#
# 1 0.014603 -0.001252 -0.004753 0.000000 0.000000 0.000000
# 2 -0.001252 0.010984 -0.006795 0.000000 0.000000 0.000000
# 3 -0.004753 -0.006795 0.022060 0.000000 0.000000 0.000000
# 4 0.000000 0.000000 0.000000 0.047736 0.000000 0.000000
# 5 0.000000 0.000000 0.000000 0.000000 0.044790 0.000000
# 6 0.000000 0.000000 0.000000 0.000000 0.000000 0.027220
#
#
# Mechanical properties :
#
#
# Convention : Reuss Voigt Hill
#
# Bulk Modulus (GPa) = 45.35721 49.14998 47.25360
# Shear Modulus (GPa) = 24.95744 27.43236 26.19490
#
# Velocity S-wave (km/s) = 3.38572 3.54962 3.46864
# Velocity P-wave (km/s) = 6.00973 6.27492 6.14375
#
# Compressibility (1/GPa) = 0.02204721
#
# Stress axis : x y z
#
# Youngs Moduli (GPa) = 68.47964 91.04398 45.33112
#
# Poissons Ratio (x) = 0.11397 0.21546
# Poissons Ratio (y) = 0.08573 0.30802
# Poissons Ratio (z) = 0.32548 0.61863
#
# Static dielectric constant tensor:
#      x y z
#    x 1.819890 0.000000 0.000000 
#    y 0.000000 1.953010 0.000000 
#    z 0.000000 0.000000 1.786580 
# 
# From -- ./inp_files/2407.got.cif
#   From: 2010.05.17/outbox.cif.g08.bks.cpg/sg37_2_cif.got.tgz:2407.got - 2010.06.03 17:53:42.
