data_PCOD9355566
_publ_section_title
;
Structure prediction by ZEFSAII (Michael W. Deem and Ramdas Pophale) SiO2 
 PCOD9355566
Probable space group: C C C 2
;
_chemical_formula_sum "Si O2"
_cell_formula_units_Z 56
_cell_length_a 5.586023
_cell_length_b 16.822692
_cell_length_c 28.786189
_cell_angle_alpha 90.000000
_cell_angle_beta 90.000000
_cell_angle_gamma 90.000000
_cell_volume 2705.094153
_symmetry_space_group_name_H-M "C C C 2"
_symmetry_group_IT_number 37
_symmetry_cell_setting 'orthorhombic'
loop_
_space_group_symop_operation_xyz
x,y,z
-x,-y,z
-x,y,1/2+z
x,-y,1/2+z
1/2+x,1/2+y,z
1/2-x,1/2-y,z
1/2-x,1/2+y,1/2+z
1/2+x,1/2-y,1/2+z
loop_
_atom_site_type_symbol
_atom_site_label
_atom_site_fract_x
_atom_site_fract_y
_atom_site_fract_z
Si Si1 0.662621 0.430294 0.861840
Si Si2 0.355561 0.660933 0.688287
Si Si3 0.148297 0.916783 0.502133
Si Si4 0.361314 0.833531 0.783817
Si Si5 0.749723 0.549572 0.103910
Si Si6 0.750000 0.250000 0.222641
Si Si7 0.500597 0.298208 0.426726
Si Si8 0.000000 0.500000 0.939532
O O1 0.500000 0.500000 0.841111
O O2 0.851258 0.394827 0.825448
O O3 0.504354 0.359563 0.883456
O O4 0.797759 0.466203 0.906046
O O5 0.250000 0.750000 0.684741
O O6 0.295538 0.633495 0.740633
O O7 0.255963 0.605650 0.648754
O O8 0.633291 0.683464 0.689370
O O9 0.220293 0.903089 0.555352
O O10 0.009263 0.848286 0.474860
O O11 0.386048 0.933323 0.472143
O O12 0.000000 0.000000 0.501042
O O13 0.250000 0.750000 0.801011
O O14 0.596635 0.803728 0.757974
O O15 0.500000 0.500000 0.107448
O O16 0.000000 0.500000 0.102011
O O17 0.750000 0.250000 0.424299
O O18 0.250000 0.250000 0.424608
#
# Coordination Sequence:
#
# PCOD9355566 Si02
#       8
#     8   8   8   8   8   4   8   4
#     4  12  25  42  66 100 131 190 228 281 343 414
#     4   9  21  43  69  95 134 174 219 285 338 413
#     4  11  23  46  67  93 141 185 227 280 349 406
#     4   9  21  42  66  95 134 173 227 282 342 404
#     4  11  26  42  71 104 136 181 226 280 345 407
#     4   8  18  42  70  94 130 178 216 282 354 398
#     4  12  26  44  69 101 137 179 233 291 337 403
#     4  12  20  42  70  86 144 182 232 276 340 402
#
# _framework density 20.701682000000002
#
# number of rings (size 3 to 8) (size 9 to 14) (size 15 to 20)
#    0.000    1.714    3.571    1.286    4.000    3.429 
#   11.571    0.000    0.000    0.000    0.000    0.000 
#    0.000    0.000    0.000    0.000    0.000    0.000 
#
# Total GULP energy -156119.977657 kJ/mol
# GULP energy per Si atom -5575.713488 kJ/mol
# Density = 2.065456 g / cm^3
# Si number density = 20.701682 Si / 1000 Ang^3
#
#
#
# Elastic Constant Matrix: (Units=GPa)
#
#
# Indices 1 2 3 4 5 6 
#
# 1 84.3724 28.9604 6.9273 0.0000 0.0000 0.0000
# 2 28.9604 67.0169 34.3532 0.0000 0.0000 0.0000
# 3 6.9273 34.3532 100.6219 0.0000 0.0000 0.0000
# 4 0.0000 0.0000 0.0000 15.5034 0.0000 0.0000
# 5 0.0000 0.0000 0.0000 0.0000 -28.6301 0.0000
# 6 0.0000 0.0000 0.0000 0.0000 0.0000 29.8625
#
#
#
# Elastic Compliance Matrix: (Units=1/GPa)
#
#
# Indices 1 2 3 4 5 6 
#
# 1 0.014064 -0.006765 0.001341 0.000000 0.000000 0.000000
# 2 -0.006765 0.021341 -0.006820 0.000000 0.000000 0.000000
# 3 0.001341 -0.006820 0.012174 0.000000 0.000000 0.000000
# 4 0.000000 0.000000 0.000000 0.064502 0.000000 0.000000
# 5 0.000000 0.000000 0.000000 0.000000 -0.034928 0.000000
# 6 0.000000 0.000000 0.000000 0.000000 0.000000 0.033487
#
#
# Mechanical properties :
#
#
# Convention : Reuss Voigt Hill
#
# Bulk Modulus (GPa) = 43.30589 43.61033 43.45811
# Shear Modulus (GPa) = 35.00760 15.46516 25.23638
#
# Velocity S-wave (km/s) = 4.11670 2.73618 3.49528
# Velocity P-wave (km/s) = 6.60006 5.57621 6.10962
#
# Compressibility (1/GPa) = 0.02309155
#
# Stress axis : x y z
#
# Youngs Moduli (GPa) = 71.10230 46.85752 82.13978
#
# Poissons Ratio (x) = 0.31701 -0.11019
# Poissons Ratio (y) = 0.48103 0.56022
# Poissons Ratio (z) = -0.09538 0.31958
#
# Static dielectric constant tensor:
#      x y z
#    x 1.991200 0.000000 0.000000 
#    y 0.000000 1.772140 0.000000 
#    z 0.000000 0.000000 1.708210 
# 
# From -- ./inp_files/20224.got.cif
#   From: 2010.05.17/outbox.cif.g08.bks.cpg/sg37_11_cif.got.tgz:20224.got - 2010.06.03 17:53:42.
