data_PCOD9355909
_publ_section_title
;
Structure prediction by ZEFSAII (Michael W. Deem and Ramdas Pophale) SiO2 
 PCOD9355909
Probable space group: A M M 2
;
_chemical_formula_sum "Si O2"
_cell_formula_units_Z 64
_cell_length_a 8.188613
_cell_length_b 31.647731
_cell_length_c 15.074876
_cell_angle_alpha 90.000000
_cell_angle_beta 90.000000
_cell_angle_gamma 90.000000
_cell_volume 3906.669514
_symmetry_space_group_name_H-M "A M M 2"
_symmetry_group_IT_number 38
_symmetry_cell_setting 'orthorhombic'
loop_
_space_group_symop_operation_xyz
x,y,z
-x,-y,z
-x,y,z
x,-y,z
x,1/2+y,1/2+z
-x,1/2-y,1/2+z
-x,1/2+y,1/2+z
x,1/2-y,1/2+z
loop_
_atom_site_type_symbol
_atom_site_label
_atom_site_fract_x
_atom_site_fract_y
_atom_site_fract_z
Si Si1 0.802590 0.133132 0.585890
Si Si2 0.800794 0.547738 0.164359
Si Si3 0.800794 0.547738 0.370089
Si Si4 0.197410 0.866868 0.948559
Si Si5 0.694148 0.208277 0.071707
Si Si6 0.801086 0.322428 0.267224
Si Si7 0.694148 0.208277 0.462742
Si Si8 0.195043 0.773463 0.267224
O O1 0.747987 0.084462 0.596919
O O2 0.749884 0.154418 0.678373
O O3 0.742780 0.164689 0.510357
O O4 0.000000 0.133095 0.581919
O O5 0.747512 0.500000 0.143150
O O6 0.754057 0.556988 0.267224
O O7 0.000000 0.547878 0.164268
O O8 0.747512 0.500000 0.391298
O O9 0.747987 0.584462 0.437529
O O10 0.000000 0.547878 0.370180
O O11 0.250116 0.845581 0.856076
O O12 0.000000 0.866905 0.952529
O O13 0.257220 0.835311 0.024093
O O14 0.500000 0.211786 0.070869
O O15 0.750698 0.207613 0.173550
O O16 0.759276 0.250000 0.017225
O O17 0.741983 0.274675 0.267224
O O18 0.000000 0.322433 0.267224
O O19 0.500000 0.211786 0.463580
O O20 0.750698 0.207614 0.360899
O O21 0.000000 0.772650 0.267224
#
# Coordination Sequence:
#
# PCOD9355909 Si02
#       8
#     8   8   8   8   8   8   8   8
#     4  10  17  29  48  71  97 130 169 201 233 280
#     4   8  13  22  41  71 102 127 155 198 245 281
#     4   8  13  22  41  71 102 127 155 198 245 281
#     4  10  17  29  48  71  97 130 169 201 233 280
#     4  11  23  35  47  68  99 131 162 198 243 289
#     4   9  16  25  44  71  96 122 160 203 231 264
#     4  11  23  35  47  68  99 131 162 198 243 289
#     4  11  21  35  53  70  92 124 166 210 242 275
#
# _framework density 16.382241
#
# number of rings (size 3 to 8) (size 9 to 14) (size 15 to 20)
#    0.000    2.250    3.750    1.875    0.000    1.000 
#    0.000    0.625    0.000    0.750    0.000    2.625 
#    0.000    7.000    0.000    0.000    0.000    0.000 
#
# Total GULP energy -178293.850247 kJ/mol
# GULP energy per Si atom -5571.682820 kJ/mol
# Density = 1.634495 g / cm^3
# Si number density = 16.382241 Si / 1000 Ang^3
#
#
#
# Elastic Constant Matrix: (Units=GPa)
#
#
# Indices 1 2 3 4 5 6 
#
# 1 20.9661 20.9245 19.6748 0.0000 0.0000 0.0000
# 2 20.9245 145.0949 81.1356 0.0000 0.0000 0.0000
# 3 19.6748 81.1356 123.9984 0.0000 0.0000 0.0000
# 4 0.0000 0.0000 0.0000 4.8087 0.0000 0.0000
# 5 0.0000 0.0000 0.0000 0.0000 -12.1334 0.0000
# 6 0.0000 0.0000 0.0000 0.0000 0.0000 7.5816
#
#
#
# Elastic Compliance Matrix: (Units=1/GPa)
#
#
# Indices 1 2 3 4 5 6 
#
# 1 0.058344 -0.005105 -0.005917 0.000000 0.000000 0.000000
# 2 -0.005105 0.011316 -0.006594 0.000000 0.000000 0.000000
# 3 -0.005917 -0.006594 0.013318 0.000000 0.000000 0.000000
# 4 0.000000 0.000000 0.000000 0.207957 0.000000 0.000000
# 5 0.000000 0.000000 0.000000 0.000000 -0.082417 0.000000
# 6 0.000000 0.000000 0.000000 0.000000 0.000000 0.131898
#
#
# Mechanical properties :
#
#
# Convention : Reuss Voigt Hill
#
# Bulk Modulus (GPa) = 20.94459 59.28102 40.11281
# Shear Modulus (GPa) = 12.76937 11.27302 12.02120
#
# Velocity S-wave (km/s) = 2.79492 2.62606 2.71180
# Velocity P-wave (km/s) = 4.81956 6.74237 5.86036
#
# Compressibility (1/GPa) = 0.04774502
#
# Stress axis : x y z
#
# Youngs Moduli (GPa) = 17.13985 88.37337 75.08558
#
# Poissons Ratio (x) = 0.45117 0.44427
# Poissons Ratio (y) = 0.08750 0.49512
# Poissons Ratio (z) = 0.10141 0.58274
#
# Static dielectric constant tensor:
#      x y z
#    x 1.573200 0.000000 0.000000 
#    y 0.000000 1.584460 0.000000 
#    z 0.000000 0.000000 1.543900 
# 
# From -- ./inp_files/13115.got.cif
#   From: 2010.05.17/outbox.cif.g08.bks.cpg/sg38_7_cif.got.tgz:13115.got - 2010.06.03 18:07:57.
