data_PCOD9355451
_publ_section_title
;
Structure prediction by ZEFSAII (Michael W. Deem and Ramdas Pophale) SiO2 
 PCOD9355451
Probable space group: C C C 2
;
_chemical_formula_sum "Si O2"
_cell_formula_units_Z 48
_cell_length_a 15.213782
_cell_length_b 11.648679
_cell_length_c 13.865512
_cell_angle_alpha 90.000000
_cell_angle_beta 90.000000
_cell_angle_gamma 90.000000
_cell_volume 2457.252455
_symmetry_space_group_name_H-M "C C C 2"
_symmetry_group_IT_number 37
_symmetry_cell_setting 'orthorhombic'
loop_
_space_group_symop_operation_xyz
x,y,z
-x,-y,z
-x,y,1/2+z
x,-y,1/2+z
1/2+x,1/2+y,z
1/2-x,1/2-y,z
1/2-x,1/2+y,1/2+z
1/2+x,1/2-y,1/2+z
loop_
_atom_site_type_symbol
_atom_site_label
_atom_site_fract_x
_atom_site_fract_y
_atom_site_fract_z
Si Si1 0.904379 0.964085 0.142510
Si Si2 0.352542 0.119088 0.015926
Si Si3 0.149670 0.868933 0.456153
Si Si4 0.399181 0.021367 0.340022
Si Si5 0.231955 0.114484 0.752561
Si Si6 0.148044 0.281595 0.218042
O O1 0.893074 0.839064 0.189899
O O2 0.823244 0.046565 0.172006
O O3 0.904734 0.948996 0.026605
O O4 0.000000 0.000000 0.175773
O O5 0.247261 0.124128 0.003492
O O6 0.383741 0.238418 0.966764
O O7 0.387899 0.015021 0.952009
O O8 0.371688 0.131650 0.128735
O O9 0.167937 0.895533 0.345790
O O10 0.323963 0.946499 0.283708
O O11 0.500000 0.000000 0.311308
O O12 0.379298 0.153019 0.314234
O O13 0.250000 0.250000 0.734168
O O14 0.250000 0.250000 0.221938
#
# Coordination Sequence:
#
# PCOD9355451 Si02
#       6
#     8   8   8   8   8   8
#     4  11  24  38  65  96 124 165 217 258 313 373
#     4   9  16  36  62  84 111 169 209 239 305 379
#     4   9  16  36  63  81 114 167 208 240 308 375
#     4  11  23  36  63  98 124 159 218 258 309 371
#     4  11  21  40  68  90 128 170 207 257 320 376
#     4  11  20  41  67  87 126 174 208 252 319 379
#
# _framework density 19.534013000000002
#
# number of rings (size 3 to 8) (size 9 to 14) (size 15 to 20)
#    0.000    1.667    8.333    0.000    2.333    1.333 
#    0.000    1.667   11.000    0.000    0.000    0.000 
#    0.000    0.000    0.000    0.000    0.000    0.000 
#
# Total GULP energy -133687.202950 kJ/mol
# GULP energy per Si atom -5570.300123 kJ/mol
# Density = 1.948955 g / cm^3
# Si number density = 19.534013 Si / 1000 Ang^3
#
#
#
# Elastic Constant Matrix: (Units=GPa)
#
#
# Indices 1 2 3 4 5 6 
#
# 1 88.0960 39.1303 19.5136 0.0000 0.0000 0.0000
# 2 39.1303 98.2727 52.9652 0.0000 0.0000 0.0000
# 3 19.5136 52.9652 76.5609 0.0000 0.0000 0.0000
# 4 0.0000 0.0000 0.0000 6.1759 0.0000 0.0000
# 5 0.0000 0.0000 0.0000 0.0000 -238.4114 0.0000
# 6 0.0000 0.0000 0.0000 0.0000 0.0000 14.9991
#
#
#
# Elastic Compliance Matrix: (Units=1/GPa)
#
#
# Indices 1 2 3 4 5 6 
#
# 1 0.013800 -0.005739 0.000453 0.000000 0.000000 0.000000
# 2 -0.005739 0.018612 -0.011413 0.000000 0.000000 0.000000
# 3 0.000453 -0.011413 0.020842 0.000000 0.000000 0.000000
# 4 0.000000 0.000000 0.000000 0.161918 0.000000 0.000000
# 5 0.000000 0.000000 0.000000 0.000000 -0.004194 0.000000
# 6 0.000000 0.000000 0.000000 0.000000 0.000000 0.066670
#
#
# Mechanical properties :
#
#
# Convention : Reuss Voigt Hill
#
# Bulk Modulus (GPa) = 50.36407 54.01640 52.19023
# Shear Modulus (GPa) = 15.73980 -33.35924 -8.80972
#
# Velocity S-wave (km/s) = 2.84168 -4.13698 -2.12597
# Velocity P-wave (km/s) = 6.05025 2.21203 4.55514
#
# Compressibility (1/GPa) = 0.01985543
#
# Stress axis : x y z
#
# Youngs Moduli (GPa) = 72.46332 53.72790 47.98043
#
# Poissons Ratio (x) = 0.30835 -0.02174
# Poissons Ratio (y) = 0.41587 0.54762
# Poissons Ratio (z) = -0.03283 0.61321
#
# Static dielectric constant tensor:
#      x y z
#    x 2.123400 0.000000 0.000000 
#    y 0.000000 1.719030 0.000000 
#    z 0.000000 0.000000 1.742850 
# 
# From -- ./inp_files/12086.got.cif
#   From: 2010.05.17/outbox.cif.g08.bks.cpg/sg37_7_cif.got.tgz:12086.got - 2010.06.03 17:53:42.
