data_PCOD9355425
_publ_section_title
;
Structure prediction by ZEFSAII (Michael W. Deem and Ramdas Pophale) SiO2 
 PCOD9355425
Probable space group: C C C 2
;
_chemical_formula_sum "Si O2"
_cell_formula_units_Z 56
_cell_length_a 15.259369
_cell_length_b 17.449070
_cell_length_c 8.581378
_cell_angle_alpha 90.000000
_cell_angle_beta 90.000000
_cell_angle_gamma 90.000000
_cell_volume 2284.893134
_symmetry_space_group_name_H-M "C C C 2"
_symmetry_group_IT_number 37
_symmetry_cell_setting 'orthorhombic'
loop_
_space_group_symop_operation_xyz
x,y,z
-x,-y,z
-x,y,1/2+z
x,-y,1/2+z
1/2+x,1/2+y,z
1/2-x,1/2-y,z
1/2-x,1/2+y,1/2+z
1/2+x,1/2-y,1/2+z
loop_
_atom_site_type_symbol
_atom_site_label
_atom_site_fract_x
_atom_site_fract_y
_atom_site_fract_z
Si Si1 0.653979 0.789744 0.866470
Si Si2 0.241371 0.531191 0.133780
Si Si3 0.326685 0.185811 0.508926
Si Si4 0.381598 0.637660 0.796990
Si Si5 0.133240 0.036363 0.885929
Si Si6 0.017786 0.170291 0.998876
Si Si7 0.682896 0.128886 0.692286
O O1 0.750000 0.750000 0.865707
O O2 0.632602 0.809954 0.684875
O O3 0.576757 0.734334 0.921414
O O4 0.659343 0.848667 0.014336
O O5 0.208675 0.597762 0.023258
O O6 0.297277 0.572971 0.267440
O O7 0.178093 0.464666 0.199702
O O8 0.310390 0.482356 0.036107
O O9 0.250000 0.250000 0.504730
O O10 0.366714 0.175515 0.331907
O O11 0.389540 0.546561 0.819546
O O12 0.414860 0.674070 0.960603
O O13 0.454449 0.666438 0.677089
O O14 0.284997 0.652662 0.729489
O O15 0.054824 0.090460 0.930099
#
# Coordination Sequence:
#
# PCOD9355425 Si02
#       7
#     8   8   8   8   8   8   8
#     4  11  22  41  63  84 128 171 217 276 336 375
#     4  11  19  36  57  90 124 165 221 262 315 391
#     4  11  23  34  63  96 122 171 224 274 324 384
#     4  11  25  38  58  83 125 175 226 264 315 400
#     4  11  20  35  58  81 125 178 218 254 306 379
#     4  12  25  41  56  90 129 178 219 272 329 392
#     4  11  22  42  65  90 126 180 217 271 330 393
#
# _framework density 24.508807000000001
#
# number of rings (size 3 to 8) (size 9 to 14) (size 15 to 20)
#    0.000    0.857    7.143    3.429    2.000    3.429 
#    0.000    0.000    0.000    0.000    0.000    0.000 
#    0.000    9.143    0.857    0.000    0.000    0.000 
#
# Total GULP energy -156258.440440 kJ/mol
# GULP energy per Si atom -5580.658587 kJ/mol
# Density = 2.445302 g / cm^3
# Si number density = 24.508807 Si / 1000 Ang^3
#
#
#
# Elastic Constant Matrix: (Units=GPa)
#
#
# Indices 1 2 3 4 5 6 
#
# 1 40.0125 23.0832 2.8481 0.0000 0.0000 0.0000
# 2 23.0832 80.6623 29.6537 0.0000 0.0000 0.0000
# 3 2.8481 29.6537 158.9630 0.0000 0.0000 0.0000
# 4 0.0000 0.0000 0.0000 51.1945 0.0000 0.0000
# 5 0.0000 0.0000 0.0000 0.0000 31.5534 0.0000
# 6 0.0000 0.0000 0.0000 0.0000 0.0000 13.3943
#
#
#
# Elastic Compliance Matrix: (Units=1/GPa)
#
#
# Indices 1 2 3 4 5 6 
#
# 1 0.030128 -0.009043 0.001147 0.000000 0.000000 0.000000
# 2 -0.009043 0.016025 -0.002827 0.000000 0.000000 0.000000
# 3 0.001147 -0.002827 0.006798 0.000000 0.000000 0.000000
# 4 0.000000 0.000000 0.000000 0.019533 0.000000 0.000000
# 5 0.000000 0.000000 0.000000 0.000000 0.031692 0.000000
# 6 0.000000 0.000000 0.000000 0.000000 0.000000 0.074659
#
#
# Mechanical properties :
#
#
# Convention : Reuss Voigt Hill
#
# Bulk Modulus (GPa) = 31.74299 43.42309 37.58304
# Shear Modulus (GPa) = 23.72116 34.16530 28.94323
#
# Velocity S-wave (km/s) = 3.11442 3.73768 3.44020
# Velocity P-wave (km/s) = 5.09045 6.03182 5.58102
#
# Compressibility (1/GPa) = 0.03150302
#
# Stress axis : x y z
#
# Youngs Moduli (GPa) = 33.19214 62.40366 147.11005
#
# Poissons Ratio (x) = 0.56434 -0.16876
# Poissons Ratio (y) = 0.30017 0.41592
# Poissons Ratio (z) = -0.03808 0.17643
#
# Static dielectric constant tensor:
#      x y z
#    x 1.963120 0.000000 0.000000 
#    y 0.000000 2.066270 0.000000 
#    z 0.000000 0.000000 2.097960 
# 
# From -- ./inp_files/4385.got.cif
#   From: 2010.05.17/outbox.cif.g08.bks.cpg/sg37_3_cif.got.tgz:4385.got - 2010.06.03 17:53:42.
