data_PCOD9355311
_publ_section_title
;
Structure prediction by ZEFSAII (Michael W. Deem and Ramdas Pophale) SiO2 
 PCOD9355311
Probable space group: C C C 2
;
_chemical_formula_sum "Si O2"
_cell_formula_units_Z 36
_cell_length_a 4.738457
_cell_length_b 26.311612
_cell_length_c 12.824348
_cell_angle_alpha 90.000000
_cell_angle_beta 90.000000
_cell_angle_gamma 90.000000
_cell_volume 1598.894080
_symmetry_space_group_name_H-M "C C C 2"
_symmetry_group_IT_number 37
_symmetry_cell_setting 'orthorhombic'
loop_
_space_group_symop_operation_xyz
x,y,z
-x,-y,z
-x,y,1/2+z
x,-y,1/2+z
1/2+x,1/2+y,z
1/2-x,1/2-y,z
1/2-x,1/2+y,1/2+z
1/2+x,1/2-y,1/2+z
loop_
_atom_site_type_symbol
_atom_site_label
_atom_site_fract_x
_atom_site_fract_y
_atom_site_fract_z
Si Si1 0.750000 0.178630 0.790380
Si Si2 0.250000 0.250000 0.790380
Si Si3 0.971791 0.106122 0.971214
Si Si4 0.971791 0.393878 0.609546
Si Si5 0.000000 0.500000 0.714353
Si Si6 0.000000 0.000000 0.866407
O O1 0.488186 0.211854 0.837826
O O2 0.880091 0.144177 0.881019
O O3 0.619909 0.144177 0.699741
O O4 0.011815 0.211854 0.742933
O O5 0.916841 0.048573 0.933913
O O6 0.793398 0.113474 0.076482
O O7 0.293398 0.113474 0.004278
O O8 0.916841 0.451427 0.646847
O O9 0.750000 0.516762 0.790380
#
# Coordination Sequence:
#
# PCOD9355311 Si02
#       6
#     8   4   8   8   4   4
#     4  11  24  48  69  98 137 174 232 285 348 392
#     4  10  24  46  74  94 130 180 224 302 344 388
#     4  12  25  43  70 103 139 181 224 274 335 409
#     4  12  25  43  70 103 139 181 224 274 335 409
#     4  12  24  42  68 102 144 186 220 270 332 402
#     4  12  24  42  68 102 144 186 220 270 332 402
#
# _framework density 22.515561999999999
#
# number of rings (size 3 to 8) (size 9 to 14) (size 15 to 20)
#    0.000    0.444    2.222    6.667    3.111    0.000 
#    0.000   22.222    0.000    0.000    0.000    0.000 
#    0.000    0.000    0.000    0.000    0.000    0.000 
#
# Total GULP energy -100537.584030 kJ/mol
# GULP energy per Si atom -5585.421335 kJ/mol
# Density = 2.246432 g / cm^3
# Si number density = 22.515562 Si / 1000 Ang^3
#
#
#
# Elastic Constant Matrix: (Units=GPa)
#
#
# Indices 1 2 3 4 5 6 
#
# 1 105.3524 31.2365 12.6683 0.0000 0.0000 0.0000
# 2 31.2365 128.5865 37.4652 0.0000 0.0000 0.0000
# 3 12.6683 37.4652 68.2896 0.0000 0.0000 0.0000
# 4 0.0000 0.0000 0.0000 5.9166 0.0000 0.0000
# 5 0.0000 0.0000 0.0000 0.0000 138.3287 0.0000
# 6 0.0000 0.0000 0.0000 0.0000 0.0000 44.6955
#
#
#
# Elastic Compliance Matrix: (Units=1/GPa)
#
#
# Indices 1 2 3 4 5 6 
#
# 1 0.010252 -0.002305 -0.000637 0.000000 0.000000 0.000000
# 2 -0.002305 0.009775 -0.004935 0.000000 0.000000 0.000000
# 3 -0.000637 -0.004935 0.017469 0.000000 0.000000 0.000000
# 4 0.000000 0.000000 0.000000 0.169016 0.000000 0.000000
# 5 0.000000 0.000000 0.000000 0.000000 0.007229 0.000000
# 6 0.000000 0.000000 0.000000 0.000000 0.000000 0.022374
#
#
# Mechanical properties :
#
#
# Convention : Reuss Voigt Hill
#
# Bulk Modulus (GPa) = 45.99504 51.66319 48.82911
# Shear Modulus (GPa) = 19.29639 52.51207 35.90423
#
# Velocity S-wave (km/s) = 2.93067 4.83458 3.99763
# Velocity P-wave (km/s) = 5.65016 7.35932 6.56064
#
# Compressibility (1/GPa) = 0.02174148
#
# Stress axis : x y z
#
# Youngs Moduli (GPa) = 97.54259 102.30587 57.24354
#
# Poissons Ratio (x) = 0.23578 0.03649
# Poissons Ratio (y) = 0.22481 0.28250
# Poissons Ratio (z) = 0.06217 0.50488
#
# Static dielectric constant tensor:
#      x y z
#    x 1.833870 0.000000 0.000000 
#    y 0.000000 1.861870 0.000000 
#    z 0.000000 0.000000 1.765390 
# 
# From -- ./inp_files/5615.got.cif
#   From: 2010.05.17/outbox.cif.g08.bks.cpg/sg37_3_cif.got.tgz:5615.got - 2010.06.03 17:53:42.
