data_PCOD9355661
_publ_section_title
;
Structure prediction by ZEFSAII (Michael W. Deem and Ramdas Pophale) SiO2 
 PCOD9355661
Probable space group: C C C 2
;
_chemical_formula_sum "Si O2"
_cell_formula_units_Z 24
_cell_length_a 7.141166
_cell_length_b 7.566975
_cell_length_c 17.783818
_cell_angle_alpha 90.000000
_cell_angle_beta 90.000000
_cell_angle_gamma 90.000000
_cell_volume 960.984611
_symmetry_space_group_name_H-M "C C C 2"
_symmetry_group_IT_number 37
_symmetry_cell_setting 'orthorhombic'
loop_
_space_group_symop_operation_xyz
x,y,z
-x,-y,z
-x,y,1/2+z
x,-y,1/2+z
1/2+x,1/2+y,z
1/2-x,1/2-y,z
1/2-x,1/2+y,1/2+z
1/2+x,1/2-y,1/2+z
loop_
_atom_site_type_symbol
_atom_site_label
_atom_site_fract_x
_atom_site_fract_y
_atom_site_fract_z
Si Si1 0.215516 0.449413 0.494710
Si Si2 0.288905 0.943202 0.339363
Si Si3 0.000000 0.000000 0.627283
Si Si4 0.750000 0.250000 0.718190
O O1 0.250000 0.250000 0.468669
O O2 0.297739 0.556177 0.423128
O O3 0.326597 0.467034 0.571847
O O4 0.000000 0.500000 0.508921
O O5 0.250000 0.750000 0.308088
O O6 0.500000 0.000000 0.356851
O O7 0.246222 0.084226 0.275303
O O8 0.070869 0.818085 0.668956
#
# Coordination Sequence:
#
# PCOD9355661 Si02
#       4
#     8   8   4   4
#     4  11  26  48  78 119 156 214 275 339 406 496
#     4  11  26  47  81 112 156 213 277 339 405 493
#     4  12  28  44  82 112 174 206 272 340 428 482
#     4  12  26  50  74 122 156 218 262 352 416 492
#
# _framework density 24.974387
#
# number of rings (size 3 to 8) (size 9 to 14) (size 15 to 20)
#    0.000    0.667    1.667    4.000   11.667    6.667 
#    0.000    0.000    0.000    0.000    0.000    0.000 
#    0.000    0.000    0.000    0.000    0.000    0.000 
#
# Total GULP energy -66913.917067 kJ/mol
# GULP energy per Si atom -5576.159756 kJ/mol
# Density = 2.491754 g / cm^3
# Si number density = 24.974387 Si / 1000 Ang^3
#
#
#
# Elastic Constant Matrix: (Units=GPa)
#
#
# Indices 1 2 3 4 5 6 
#
# 1 160.8514 38.4249 60.9795 0.0000 0.0000 0.0000
# 2 38.4249 228.6596 65.0086 0.0000 0.0000 0.0000
# 3 60.9795 65.0086 148.9863 0.0000 0.0000 0.0000
# 4 0.0000 0.0000 0.0000 85.5160 0.0000 0.0000
# 5 0.0000 0.0000 0.0000 0.0000 -12.7227 0.0000
# 6 0.0000 0.0000 0.0000 0.0000 0.0000 40.4782
#
#
#
# Elastic Compliance Matrix: (Units=1/GPa)
#
#
# Indices 1 2 3 4 5 6 
#
# 1 0.007397 -0.000436 -0.002837 0.000000 0.000000 0.000000
# 2 -0.000436 0.005018 -0.002011 0.000000 0.000000 0.000000
# 3 -0.002837 -0.002011 0.008751 0.000000 0.000000 0.000000
# 4 0.000000 0.000000 0.000000 0.011694 0.000000 0.000000
# 5 0.000000 0.000000 0.000000 0.000000 -0.078600 0.000000
# 6 0.000000 0.000000 0.000000 0.000000 0.000000 0.024705
#
#
# Mechanical properties :
#
#
# Convention : Reuss Voigt Hill
#
# Bulk Modulus (GPa) = 94.36830 96.36924 95.36877
# Shear Modulus (GPa) = -721.05814 47.59325 -336.73245
#
# Velocity S-wave (km/s) = -17.01017 4.37015 -11.62428
# Velocity P-wave (km/s) = 18.65279 8.00845 11.91199
#
# Compressibility (1/GPa) = 0.01059678
#
# Stress axis : x y z
#
# Youngs Moduli (GPa) = 135.19553 199.26615 114.27615
#
# Poissons Ratio (x) = 0.08696 0.32420
# Poissons Ratio (y) = 0.05900 0.22982
# Poissons Ratio (z) = 0.38355 0.40075
#
# Static dielectric constant tensor:
#      x y z
#    x 2.081440 0.000000 0.000000 
#    y 0.000000 1.881110 0.000000 
#    z 0.000000 0.000000 2.171880 
# 
# From -- ./inp_files/9996.got.cif
#   From: 2010.05.17/outbox.cif.g08.bks.cpg/sg37_5_cif.got.tgz:9996.got - 2010.06.03 17:53:42.
