data_PCOD9355153
_publ_section_title
;
Structure prediction by ZEFSAII (Michael W. Deem and Ramdas Pophale) SiO2 
 PCOD9355153
Probable space group: C C C 2
;
_chemical_formula_sum "Si O2"
_cell_formula_units_Z 36
_cell_length_a 6.980115
_cell_length_b 20.540444
_cell_length_c 10.342229
_cell_angle_alpha 90.000000
_cell_angle_beta 90.000000
_cell_angle_gamma 90.000000
_cell_volume 1482.813580
_symmetry_space_group_name_H-M "C C C 2"
_symmetry_group_IT_number 37
_symmetry_cell_setting 'orthorhombic'
loop_
_space_group_symop_operation_xyz
x,y,z
-x,-y,z
-x,y,1/2+z
x,-y,1/2+z
1/2+x,1/2+y,z
1/2-x,1/2-y,z
1/2-x,1/2+y,1/2+z
1/2+x,1/2-y,1/2+z
loop_
_atom_site_type_symbol
_atom_site_label
_atom_site_fract_x
_atom_site_fract_y
_atom_site_fract_z
Si Si1 0.482018 0.243506 0.944090
Si Si2 0.067331 0.337183 0.192850
Si Si3 0.585420 0.376093 0.529609
Si Si4 0.000000 0.000000 0.673593
Si Si5 0.346458 0.048217 0.827769
O O1 0.250000 0.250000 0.931891
O O2 0.555711 0.209317 0.816405
O O3 0.522825 0.200107 0.070077
O O4 0.538426 0.318096 0.970619
O O5 0.285004 0.349748 0.147824
O O6 0.957959 0.403838 0.229245
O O7 0.474716 0.437240 0.584539
O O8 0.734461 0.404922 0.425559
O O9 0.188598 0.002156 0.761049
O O10 0.500000 0.000000 0.892274
#
# Coordination Sequence:
#
# PCOD9355153 Si02
#       5
#     8   8   8   4   8
#     4  10  23  44  73 105 146 188 255 312 374 449
#     4  11  22  47  77 100 146 208 241 313 382 452
#     4  11  26  49  72 112 154 190 264 316 379 466
#     4  12  28  46  76 116 150 200 254 326 380 462
#     4  12  26  48  76 106 154 202 251 309 388 459
#
# _framework density 24.278169999999999
#
# number of rings (size 3 to 8) (size 9 to 14) (size 15 to 20)
#    0.000    0.889    6.667    0.667    6.222    0.000 
#    4.000    3.333    0.000    0.000    0.000    0.000 
#    0.000    0.000    0.000    0.000    0.000    0.000 
#
# Total GULP energy -100828.250338 kJ/mol
# GULP energy per Si atom -5601.569463 kJ/mol
# Density = 2.422291 g / cm^3
# Si number density = 24.278170 Si / 1000 Ang^3
#
#
#
# Elastic Constant Matrix: (Units=GPa)
#
#
# Indices 1 2 3 4 5 6 
#
# 1 65.3031 9.6626 12.8976 0.0000 0.0000 0.0000
# 2 9.6626 111.1933 33.7438 0.0000 0.0000 0.0000
# 3 12.8976 33.7438 127.0165 0.0000 0.0000 0.0000
# 4 0.0000 0.0000 0.0000 42.2163 0.0000 0.0000
# 5 0.0000 0.0000 0.0000 0.0000 9.0200 0.0000
# 6 0.0000 0.0000 0.0000 0.0000 0.0000 34.2264
#
#
#
# Elastic Compliance Matrix: (Units=1/GPa)
#
#
# Indices 1 2 3 4 5 6 
#
# 1 0.015720 -0.000959 -0.001341 0.000000 0.000000 0.000000
# 2 -0.000959 0.009840 -0.002517 0.000000 0.000000 0.000000
# 3 -0.001341 -0.002517 0.008678 0.000000 0.000000 0.000000
# 4 0.000000 0.000000 0.000000 0.023688 0.000000 0.000000
# 5 0.000000 0.000000 0.000000 0.000000 0.110865 0.000000
# 6 0.000000 0.000000 0.000000 0.000000 0.000000 0.029217
#
#
# Mechanical properties :
#
#
# Convention : Reuss Voigt Hill
#
# Bulk Modulus (GPa) = 40.64428 46.23565 43.43996
# Shear Modulus (GPa) = 23.16489 33.57315 28.36902
#
# Velocity S-wave (km/s) = 3.09227 3.72271 3.42204
# Velocity P-wave (km/s) = 5.43387 6.12891 5.79183
#
# Compressibility (1/GPa) = 0.02460371
#
# Stress axis : x y z
#
# Youngs Moduli (GPa) = 63.61306 101.62110 115.23577
#
# Poissons Ratio (x) = 0.09745 0.15459
# Poissons Ratio (y) = 0.06100 0.29004
# Poissons Ratio (z) = 0.08534 0.25577
#
# Static dielectric constant tensor:
#      x y z
#    x 2.009930 0.000000 0.000000 
#    y 0.000000 1.970510 0.000000 
#    z 0.000000 0.000000 1.893340 
# 
# From -- ./inp_files/2120.got.cif
#   From: 2010.05.17/outbox.cif.g08.bks.cpg/sg37_2_cif.got.tgz:2120.got - 2010.06.03 17:53:42.
