data_PCOD9355336
_publ_section_title
;
Structure prediction by ZEFSAII (Michael W. Deem and Ramdas Pophale) SiO2 
 PCOD9355336
Probable space group: C C C 2
;
_chemical_formula_sum "Si O2"
_cell_formula_units_Z 24
_cell_length_a 7.478734
_cell_length_b 10.948856
_cell_length_c 10.458359
_cell_angle_alpha 90.000000
_cell_angle_beta 90.000000
_cell_angle_gamma 90.000000
_cell_volume 856.367893
_symmetry_space_group_name_H-M "C C C 2"
_symmetry_group_IT_number 37
_symmetry_cell_setting 'orthorhombic'
loop_
_space_group_symop_operation_xyz
x,y,z
-x,-y,z
-x,y,1/2+z
x,-y,1/2+z
1/2+x,1/2+y,z
1/2-x,1/2-y,z
1/2-x,1/2+y,1/2+z
1/2+x,1/2-y,1/2+z
loop_
_atom_site_type_symbol
_atom_site_label
_atom_site_fract_x
_atom_site_fract_y
_atom_site_fract_z
Si Si1 0.703058 0.001385 0.490890
Si Si2 0.419379 0.837569 0.689993
Si Si3 0.503393 0.297613 0.939306
O O1 0.667259 0.030855 0.644380
O O2 0.831630 0.114285 0.452977
O O3 0.500000 0.000000 0.435979
O O4 0.824122 0.887759 0.445400
O O5 0.250000 0.750000 0.696665
O O6 0.517364 0.785237 0.814059
O O7 0.519331 0.788334 0.563878
#
# Coordination Sequence:
#
# PCOD9355336 Si02
#       3
#     8   8   8
#     4  10  24  48  76 118 151 221 273 329 420 499
#     4  10  24  49  74 111 159 209 265 337 414 478
#     4  10  24  51  72 109 167 201 265 354 393 487
#
# _framework density 28.025338000000001
#
# number of rings (size 3 to 8) (size 9 to 14) (size 15 to 20)
#    0.000    2.000    0.000    0.000    4.667   10.667 
#   30.000    3.333    0.000    0.000    0.000    0.000 
#    0.000    0.000    0.000    0.000    0.000    0.000 
#
# Total GULP energy -66931.797175 kJ/mol
# GULP energy per Si atom -5577.649765 kJ/mol
# Density = 2.796155 g / cm^3
# Si number density = 28.025338 Si / 1000 Ang^3
#
#
#
# Elastic Constant Matrix: (Units=GPa)
#
#
# Indices 1 2 3 4 5 6 
#
# 1 225.4547 26.4181 47.2573 0.0000 0.0000 0.0000
# 2 26.4181 175.1652 98.4748 0.0000 0.0000 0.0000
# 3 47.2573 98.4748 233.7312 0.0000 0.0000 0.0000
# 4 0.0000 0.0000 0.0000 43.0734 0.0000 0.0000
# 5 0.0000 0.0000 0.0000 0.0000 40.8619 0.0000
# 6 0.0000 0.0000 0.0000 0.0000 0.0000 42.6361
#
#
#
# Elastic Compliance Matrix: (Units=1/GPa)
#
#
# Indices 1 2 3 4 5 6 
#
# 1 0.004639 -0.000226 -0.000843 0.000000 0.000000 0.000000
# 2 -0.000226 0.007492 -0.003111 0.000000 0.000000 0.000000
# 3 -0.000843 -0.003111 0.005759 0.000000 0.000000 0.000000
# 4 0.000000 0.000000 0.000000 0.023216 0.000000 0.000000
# 5 0.000000 0.000000 0.000000 0.000000 0.024473 0.000000
# 6 0.000000 0.000000 0.000000 0.000000 0.000000 0.023454
#
#
# Mechanical properties :
#
#
# Convention : Reuss Voigt Hill
#
# Bulk Modulus (GPa) = 104.91868 108.73905 106.82886
# Shear Modulus (GPa) = 49.71734 56.12768 52.92251
#
# Velocity S-wave (km/s) = 4.21647 4.48006 4.35026
# Velocity P-wave (km/s) = 7.82453 8.10221 7.96458
#
# Compressibility (1/GPa) = 0.00953119
#
# Stress axis : x y z
#
# Youngs Moduli (GPa) = 215.58308 133.47999 173.62889
#
# Poissons Ratio (x) = 0.03014 0.14632
# Poissons Ratio (y) = 0.04868 0.54011
# Poissons Ratio (z) = 0.18168 0.41522
#
# Static dielectric constant tensor:
#      x y z
#    x 2.209810 0.000000 0.000000 
#    y 0.000000 2.326620 0.000000 
#    z 0.000000 0.000000 2.336590 
# 
# From -- ./inp_files/1926.got.cif
#   From: 2010.05.17/outbox.cif.g08.bks.cpg/sg37_1_cif.got.tgz:1926.got - 2010.06.03 17:53:42.
