data_PCOD9355847
_publ_section_title
;
Structure prediction by ZEFSAII (Michael W. Deem and Ramdas Pophale) SiO2 
 PCOD9355847
Probable space group: A M M 2
;
_chemical_formula_sum "Si O2"
_cell_formula_units_Z 56
_cell_length_a 8.857015
_cell_length_b 23.053516
_cell_length_c 18.293996
_cell_angle_alpha 90.000000
_cell_angle_beta 90.000000
_cell_angle_gamma 90.000000
_cell_volume 3735.365739
_symmetry_space_group_name_H-M "A M M 2"
_symmetry_group_IT_number 38
_symmetry_cell_setting 'orthorhombic'
loop_
_space_group_symop_operation_xyz
x,y,z
-x,-y,z
-x,y,z
x,-y,z
x,1/2+y,1/2+z
-x,1/2-y,1/2+z
-x,1/2+y,1/2+z
x,1/2-y,1/2+z
loop_
_atom_site_type_symbol
_atom_site_label
_atom_site_fract_x
_atom_site_fract_y
_atom_site_fract_z
Si Si1 0.181523 0.656633 0.191790
Si Si2 0.674257 0.679888 0.589085
Si Si3 0.675352 0.683878 0.043166
Si Si4 0.317744 0.279492 0.741808
Si Si5 0.180950 0.848720 0.942680
Si Si6 0.184067 0.566210 0.315742
Si Si7 0.818941 0.717384 0.896076
O O1 0.243603 0.651098 0.109615
O O2 0.250006 0.715671 0.225719
O O3 0.224613 0.603438 0.244247
O O4 0.000000 0.662042 0.190878
O O5 0.500000 0.661854 0.587292
O O6 0.680788 0.748108 0.566875
O O7 0.728390 0.680191 0.672908
O O8 0.761945 0.646887 0.525539
O O9 0.500000 0.667578 0.037222
O O10 0.757973 0.681618 0.965370
O O11 0.500000 0.275805 0.741699
O O12 0.255798 0.299721 0.819598
O O13 0.235401 0.898107 0.887176
O O14 0.223625 0.785058 0.911513
O O15 0.000000 0.850065 0.943494
O O16 0.236764 0.500000 0.314219
O O17 0.000000 0.565344 0.317897
O O18 0.000000 0.714171 0.891920
#
# Coordination Sequence:
#
# PCOD9355847 Si02
#       7
#     8   8   8   8   8   8   8
#     4  10  17  28  43  59  80 110 147 183 215 249
#     4   8  16  27  38  55  78 108 139 166 204 251
#     4   9  17  28  40  58  82 111 140 169 213 260
#     4  10  18  27  40  59  85 115 142 170 211 260
#     4   9  16  27  41  58  78 106 141 175 211 245
#     4   9  17  29  44  62  84 111 146 185 221 252
#     4  10  17  26  41  63  85 109 143 176 206 249
#
# _framework density 14.991838
#
# number of rings (size 3 to 8) (size 9 to 14) (size 15 to 20)
#    0.000    2.714    1.429    2.571    0.000    4.571 
#    0.000    0.000    0.000    3.857    0.000    0.000 
#    0.000    1.143    0.000   11.143    0.000    3.143 
#
# Total GULP energy -155916.980642 kJ/mol
# GULP energy per Si atom -5568.463594 kJ/mol
# Density = 1.495772 g / cm^3
# Si number density = 14.991838 Si / 1000 Ang^3
#
#
#
# Elastic Constant Matrix: (Units=GPa)
#
#
# Indices 1 2 3 4 5 6 
#
# 1 41.2641 17.0765 44.4453 0.0000 0.0000 0.0000
# 2 17.0765 50.5244 46.5634 0.0000 0.0000 0.0000
# 3 44.4453 46.5634 171.6432 0.0000 0.0000 0.0000
# 4 0.0000 0.0000 0.0000 13.3657 0.0000 0.0000
# 5 0.0000 0.0000 0.0000 0.0000 27.9068 0.0000
# 6 0.0000 0.0000 0.0000 0.0000 0.0000 6.1831
#
#
#
# Elastic Compliance Matrix: (Units=1/GPa)
#
#
# Indices 1 2 3 4 5 6 
#
# 1 0.034375 -0.004554 -0.007666 0.000000 0.000000 0.000000
# 2 -0.004554 0.026994 -0.006144 0.000000 0.000000 0.000000
# 3 -0.007666 -0.006144 0.009478 0.000000 0.000000 0.000000
# 4 0.000000 0.000000 0.000000 0.074818 0.000000 0.000000
# 5 0.000000 0.000000 0.000000 0.000000 0.035834 0.000000
# 6 0.000000 0.000000 0.000000 0.000000 0.000000 0.161731
#
#
# Mechanical properties :
#
#
# Convention : Reuss Voigt Hill
#
# Bulk Modulus (GPa) = 29.30796 53.28914 41.29855
# Shear Modulus (GPa) = 12.77697 19.84755 16.31226
#
# Velocity S-wave (km/s) = 2.92252 3.64248 3.30218
# Velocity P-wave (km/s) = 5.56596 7.30156 6.49202
#
# Compressibility (1/GPa) = 0.03412042
#
# Stress axis : x y z
#
# Youngs Moduli (GPa) = 29.09052 37.04593 105.51065
#
# Poissons Ratio (x) = 0.16869 0.80883
# Poissons Ratio (y) = 0.13246 0.64823
# Poissons Ratio (z) = 0.22301 0.22760
#
# Static dielectric constant tensor:
#      x y z
#    x 1.504260 0.000000 0.000000 
#    y 0.000000 1.466480 0.000000 
#    z 0.000000 0.000000 1.525620 
# 
# From -- ./inp_files/17079.got.cif
#   From: 2010.05.17/outbox.cif.g08.bks.cpg/sg38_9_cif.got.tgz:17079.got - 2010.06.03 18:07:57.
