data_PCOD9355673
_publ_section_title
;
Structure prediction by ZEFSAII (Michael W. Deem and Ramdas Pophale) SiO2 
 PCOD9355673
Probable space group: C C C 2
;
_chemical_formula_sum "Si O2"
_cell_formula_units_Z 28
_cell_length_a 10.344139
_cell_length_b 8.947350
_cell_length_c 10.178900
_cell_angle_alpha 90.000000
_cell_angle_beta 90.000000
_cell_angle_gamma 90.000000
_cell_volume 942.083987
_symmetry_space_group_name_H-M "C C C 2"
_symmetry_group_IT_number 37
_symmetry_cell_setting 'orthorhombic'
loop_
_space_group_symop_operation_xyz
x,y,z
-x,-y,z
-x,y,1/2+z
x,-y,1/2+z
1/2+x,1/2+y,z
1/2-x,1/2-y,z
1/2-x,1/2+y,1/2+z
1/2+x,1/2-y,1/2+z
loop_
_atom_site_type_symbol
_atom_site_label
_atom_site_fract_x
_atom_site_fract_y
_atom_site_fract_z
Si Si1 0.178113 0.492386 0.613160
Si Si2 0.411996 0.689749 0.564526
Si Si3 0.250000 0.750000 0.897425
Si Si4 0.045920 0.751027 0.284754
O O1 0.297963 0.602998 0.635563
O O2 0.226011 0.388560 0.495753
O O3 0.081738 0.626687 0.567050
O O4 0.127291 0.395272 0.737965
O O5 0.393012 0.761460 0.825880
O O6 0.398964 0.663254 0.409899
O O7 0.539053 0.657259 0.648790
#
# Coordination Sequence:
#
# PCOD9355673 Si02
#       4
#     8   8   4   8
#     4  11  28  54  85 131 182 244 313 385 470 569
#     4  11  28  52  90 126 181 250 309 387 477 566
#     4  12  28  52  88 132 182 248 312 396 476 558
#     4  12  27  54  86 133 182 243 316 389 471 569
#
# _framework density 29.721342
#
# number of rings (size 3 to 8) (size 9 to 14) (size 15 to 20)
#    0.000    0.571    2.857    2.571   12.000    3.429 
#    5.143    0.000    0.000    0.000    0.000    0.000 
#    0.000    0.000    0.000    0.000    0.000    0.000 
#
# Total GULP energy -78090.814673 kJ/mol
# GULP energy per Si atom -5577.915334 kJ/mol
# Density = 2.965370 g / cm^3
# Si number density = 29.721342 Si / 1000 Ang^3
#
#
#
# Elastic Constant Matrix: (Units=GPa)
#
#
# Indices 1 2 3 4 5 6 
#
# 1 161.0824 64.6253 83.0446 0.0000 0.0000 0.0000
# 2 64.6253 175.6979 47.8682 0.0000 0.0000 0.0000
# 3 83.0446 47.8682 172.8913 0.0000 0.0000 0.0000
# 4 0.0000 0.0000 0.0000 38.1593 0.0000 0.0000
# 5 0.0000 0.0000 0.0000 0.0000 52.8281 0.0000
# 6 0.0000 0.0000 0.0000 0.0000 0.0000 72.5882
#
#
#
# Elastic Compliance Matrix: (Units=1/GPa)
#
#
# Indices 1 2 3 4 5 6 
#
# 1 0.009048 -0.002319 -0.003704 0.000000 0.000000 0.000000
# 2 -0.002319 0.006750 -0.000755 0.000000 0.000000 0.000000
# 3 -0.003704 -0.000755 0.007772 0.000000 0.000000 0.000000
# 4 0.000000 0.000000 0.000000 0.026206 0.000000 0.000000
# 5 0.000000 0.000000 0.000000 0.000000 0.018929 0.000000
# 6 0.000000 0.000000 0.000000 0.000000 0.000000 0.013776
#
#
# Mechanical properties :
#
#
# Convention : Reuss Voigt Hill
#
# Bulk Modulus (GPa) = 99.85583 100.08310 99.96946
# Shear Modulus (GPa) = 50.31407 53.65734 51.98571
#
# Velocity S-wave (km/s) = 4.11890 4.25355 4.18677
# Velocity P-wave (km/s) = 7.50272 7.60726 7.55517
#
# Compressibility (1/GPa) = 0.01001444
#
# Stress axis : x y z
#
# Youngs Moduli (GPa) = 110.52361 148.14285 128.66466
#
# Poissons Ratio (x) = 0.34352 0.47656
# Poissons Ratio (y) = 0.25629 0.09716
# Poissons Ratio (z) = 0.40937 0.11186
#
# Static dielectric constant tensor:
#      x y z
#    x 2.598680 0.000000 0.000000 
#    y 0.000000 2.294350 0.000000 
#    z 0.000000 0.000000 2.464640 
# 
# From -- ./inp_files/3189.got.cif
#   From: 2010.05.17/outbox.cif.g08.bks.cpg/sg37_2_cif.got.tgz:3189.got - 2010.06.03 17:53:42.
