data_PCOD9355543
_publ_section_title
;
Structure prediction by ZEFSAII (Michael W. Deem and Ramdas Pophale) SiO2 
 PCOD9355543
Probable space group: C C C 2
;
_chemical_formula_sum "Si O2"
_cell_formula_units_Z 48
_cell_length_a 26.379333
_cell_length_b 7.650963
_cell_length_c 8.897793
_cell_angle_alpha 90.000000
_cell_angle_beta 90.000000
_cell_angle_gamma 90.000000
_cell_volume 1795.817544
_symmetry_space_group_name_H-M "C C C 2"
_symmetry_group_IT_number 37
_symmetry_cell_setting 'orthorhombic'
loop_
_space_group_symop_operation_xyz
x,y,z
-x,-y,z
-x,y,1/2+z
x,-y,1/2+z
1/2+x,1/2+y,z
1/2-x,1/2-y,z
1/2-x,1/2+y,1/2+z
1/2+x,1/2-y,1/2+z
loop_
_atom_site_type_symbol
_atom_site_label
_atom_site_fract_x
_atom_site_fract_y
_atom_site_fract_z
Si Si1 0.607509 0.299286 0.216850
Si Si2 0.398752 0.952028 0.878335
Si Si3 0.452301 0.127549 0.124865
Si Si4 0.695868 0.654789 0.910079
Si Si5 0.809393 0.787135 0.257047
Si Si6 0.055649 0.002219 0.957494
O O1 0.665997 0.267906 0.263120
O O2 0.581907 0.354883 0.062028
O O3 0.594543 0.459213 0.326011
O O4 0.583850 0.131813 0.295289
O O5 0.442251 0.836969 0.800781
O O6 0.345821 0.860402 0.832788
O O7 0.405008 0.021542 0.046042
O O8 0.452682 0.320511 0.056351
O O9 0.500000 0.000000 0.097499
O O10 0.750000 0.750000 0.910312
O O11 0.695113 0.450905 0.870524
O O12 0.673445 0.677084 0.081387
O O13 0.750000 0.750000 0.237276
O O14 0.000000 0.000000 0.886964
#
# Coordination Sequence:
#
# PCOD9355543 Si02
#       6
#     8   8   8   8   8   8
#     4  11  23  42  67  95 134 180 230 288 349 412
#     4  11  24  43  67  96 134 180 229 286 348 412
#     4  11  24  41  65  98 136 182 234 286 348 416
#     4  11  24  44  69 100 135 175 228 281 342 413
#     4  11  25  45  70 101 137 178 228 283 343 413
#     4  11  24  41  64  98 136 179 232 288 348 416
#
# _framework density 26.728770999999998
#
# number of rings (size 3 to 8) (size 9 to 14) (size 15 to 20)
#    0.000    1.000    0.000    7.000    0.000   11.333 
#    0.000    0.000    0.000    0.000    0.000    0.000 
#    0.000    0.000    0.000    0.000    0.000    0.000 
#
# Total GULP energy -133823.015225 kJ/mol
# GULP energy per Si atom -5575.958968 kJ/mol
# Density = 2.666794 g / cm^3
# Si number density = 26.728771 Si / 1000 Ang^3
#
#
#
# Elastic Constant Matrix: (Units=GPa)
#
#
# Indices 1 2 3 4 5 6 
#
# 1 142.5705 22.1209 27.4625 0.0000 0.0000 0.0000
# 2 22.1209 85.2158 8.4841 0.0000 0.0000 0.0000
# 3 27.4625 8.4841 133.1810 0.0000 0.0000 0.0000
# 4 0.0000 0.0000 0.0000 26.3885 0.0000 0.0000
# 5 0.0000 0.0000 0.0000 0.0000 38.5900 0.0000
# 6 0.0000 0.0000 0.0000 0.0000 0.0000 36.0189
#
#
#
# Elastic Compliance Matrix: (Units=1/GPa)
#
#
# Indices 1 2 3 4 5 6 
#
# 1 0.007575 -0.001823 -0.001446 0.000000 0.000000 0.000000
# 2 -0.001823 0.012248 -0.000404 0.000000 0.000000 0.000000
# 3 -0.001446 -0.000404 0.007833 0.000000 0.000000 0.000000
# 4 0.000000 0.000000 0.000000 0.037895 0.000000 0.000000
# 5 0.000000 0.000000 0.000000 0.000000 0.025913 0.000000
# 6 0.000000 0.000000 0.000000 0.000000 0.000000 0.027763
#
#
# Mechanical properties :
#
#
# Convention : Reuss Voigt Hill
#
# Bulk Modulus (GPa) = 49.23610 53.01136 51.12373
# Shear Modulus (GPa) = 37.49698 40.39281 38.94489
#
# Velocity S-wave (km/s) = 3.74955 3.89165 3.82126
# Velocity P-wave (km/s) = 6.09969 6.33004 6.21593
#
# Compressibility (1/GPa) = 0.02031030
#
# Stress axis : x y z
#
# Youngs Moduli (GPa) = 132.00664 81.64413 127.67305
#
# Poissons Ratio (x) = 0.14880 0.18461
# Poissons Ratio (y) = 0.24058 0.05164
# Poissons Ratio (z) = 0.19088 0.03302
#
# Static dielectric constant tensor:
#      x y z
#    x 2.300920 0.000000 0.000000 
#    y 0.000000 2.453690 0.000000 
#    z 0.000000 0.000000 2.214260 
# 
# From -- ./inp_files/4939.got.cif
#   From: 2010.05.17/outbox.cif.g08.bks.cpg/sg37_3_cif.got.tgz:4939.got - 2010.06.03 17:53:42.
