data_PCOD9355287
_publ_section_title
;
Structure prediction by ZEFSAII (Michael W. Deem and Ramdas Pophale) SiO2 
 PCOD9355287
Probable space group: C C C 2
;
_chemical_formula_sum "Si O2"
_cell_formula_units_Z 60
_cell_length_a 11.325302
_cell_length_b 25.192237
_cell_length_c 8.001946
_cell_angle_alpha 90.000000
_cell_angle_beta 90.000000
_cell_angle_gamma 90.000000
_cell_volume 2283.032749
_symmetry_space_group_name_H-M "C C C 2"
_symmetry_group_IT_number 37
_symmetry_cell_setting 'orthorhombic'
loop_
_space_group_symop_operation_xyz
x,y,z
-x,-y,z
-x,y,1/2+z
x,-y,1/2+z
1/2+x,1/2+y,z
1/2-x,1/2-y,z
1/2-x,1/2+y,1/2+z
1/2+x,1/2-y,1/2+z
loop_
_atom_site_type_symbol
_atom_site_label
_atom_site_fract_x
_atom_site_fract_y
_atom_site_fract_z
Si Si1 0.084494 0.448360 0.005070
Si Si2 0.167513 0.942365 0.340608
Si Si3 0.500000 0.500000 0.090394
Si Si4 0.079986 0.149117 0.004392
Si Si5 0.869574 0.735470 0.870891
Si Si6 0.171744 0.845047 0.869388
Si Si7 0.882276 0.720947 0.235999
Si Si8 0.369017 0.894973 0.854005
O O1 0.197445 0.457111 0.886796
O O2 0.125894 0.427661 0.184515
O O3 0.000000 0.500000 0.017118
O O4 0.993215 0.403798 0.938568
O O5 0.155369 0.879361 0.358692
O O6 0.105092 0.972285 0.191798
O O7 0.072153 0.957539 0.484125
O O8 0.131662 0.134276 0.184376
O O9 0.096371 0.211011 0.965212
O O10 0.940072 0.147309 0.990743
O O11 0.750000 0.750000 0.774890
O O12 0.976033 0.716097 0.757853
O O13 0.849499 0.704042 0.045218
O O14 0.152734 0.777722 0.816692
O O15 0.247524 0.900009 0.947112
O O16 0.832684 0.668812 0.335722
#
# Coordination Sequence:
#
# PCOD9355287 Si02
#       8
#     8   8   4   8   8   8   8   8
#     4  12  26  43  73 102 136 178 240 285 351 415
#     4  11  25  46  69 103 135 180 226 287 341 420
#     4  10  26  46  70  94 140 180 220 276 350 408
#     4  12  23  43  72  99 137 185 225 285 347 411
#     4  12  24  44  70 103 137 183 232 290 345 414
#     4  10  24  45  71  96 141 183 232 281 349 415
#     4  10  24  47  68  96 144 182 233 290 345 410
#     4  10  24  47  67  99 139 185 218 297 347 406
#
# _framework density 26.280833999999999
#
# number of rings (size 3 to 8) (size 9 to 14) (size 15 to 20)
#    0.800    0.267    2.667    2.800    5.600    1.067 
#    7.200    0.000    0.000    0.000    0.000    0.000 
#    0.000    0.000    0.000    0.000    0.000    0.000 
#
# Total GULP energy -167158.525324 kJ/mol
# GULP energy per Si atom -5571.950844 kJ/mol
# Density = 2.622102 g / cm^3
# Si number density = 26.280834 Si / 1000 Ang^3
#
#
#
# Elastic Constant Matrix: (Units=GPa)
#
#
# Indices 1 2 3 4 5 6 
#
# 1 218.9145 29.6551 24.7383 0.0000 0.0000 0.0000
# 2 29.6551 64.3208 6.3271 0.0000 0.0000 0.0000
# 3 24.7383 6.3271 9.8302 0.0000 0.0000 0.0000
# 4 0.0000 0.0000 0.0000 -85.7806 0.0000 0.0000
# 5 0.0000 0.0000 0.0000 0.0000 -27.5657 0.0000
# 6 0.0000 0.0000 0.0000 0.0000 0.0000 46.3531
#
#
#
# Elastic Compliance Matrix: (Units=1/GPa)
#
#
# Indices 1 2 3 4 5 6 
#
# 1 0.006513 -0.001485 -0.015436 0.000000 0.000000 0.000000
# 2 -0.001485 0.016936 -0.007165 0.000000 0.000000 0.000000
# 3 -0.015436 -0.007165 0.145184 0.000000 0.000000 0.000000
# 4 0.000000 0.000000 0.000000 -0.011658 0.000000 0.000000
# 5 0.000000 0.000000 0.000000 0.000000 -0.036277 0.000000
# 6 0.000000 0.000000 0.000000 0.000000 0.000000 0.021574
#
#
# Mechanical properties :
#
#
# Convention : Reuss Voigt Hill
#
# Bulk Modulus (GPa) = 8.30127 46.05627 27.17877
# Shear Modulus (GPa) = 21.68274 2.09103 11.88689
#
# Velocity S-wave (km/s) = 2.87547 0.89296 2.12905
# Velocity P-wave (km/s) = 3.76695 4.31577 4.05067
#
# Compressibility (1/GPa) = 0.12046348
#
# Stress axis : x y z
#
# Youngs Moduli (GPa) = 153.52906 59.04458 6.88779
#
# Poissons Ratio (x) = 0.08766 0.10632
# Poissons Ratio (y) = 0.22793 0.04935
# Poissons Ratio (z) = 2.36986 0.42304
#
# Static dielectric constant tensor:
#      x y z
#    x 2.094250 0.000000 0.000000 
#    y 0.000000 10.873850 0.000000 
#    z 0.000000 0.000000 2.167890 
# 
# From -- ./inp_files/3053.got.cif
#   From: 2010.05.17/outbox.cif.g08.bks.cpg/sg37_2_cif.got.tgz:3053.got - 2010.06.03 17:53:42.
