data_PCOD9355903
_publ_section_title
;
Structure prediction by ZEFSAII (Michael W. Deem and Ramdas Pophale) SiO2 
 PCOD9355903
Probable space group: A M M 2
;
_chemical_formula_sum "Si O2"
_cell_formula_units_Z 64
_cell_length_a 7.467232
_cell_length_b 30.091088
_cell_length_c 12.746479
_cell_angle_alpha 90.000000
_cell_angle_beta 90.000000
_cell_angle_gamma 90.000000
_cell_volume 2864.097316
_symmetry_space_group_name_H-M "A M M 2"
_symmetry_group_IT_number 38
_symmetry_cell_setting 'orthorhombic'
loop_
_space_group_symop_operation_xyz
x,y,z
-x,-y,z
-x,y,z
x,-y,z
x,1/2+y,1/2+z
-x,1/2-y,1/2+z
-x,1/2+y,1/2+z
x,1/2-y,1/2+z
loop_
_atom_site_type_symbol
_atom_site_label
_atom_site_fract_x
_atom_site_fract_y
_atom_site_fract_z
Si Si1 0.206161 0.306119 0.386840
Si Si2 0.298603 0.327529 0.980679
Si Si3 0.205718 0.920619 0.390749
Si Si4 0.217882 0.449365 0.660731
Si Si5 0.283790 0.953870 0.609076
Si Si6 0.219096 0.651223 0.603334
Si Si7 0.800607 0.720554 0.780596
Si Si8 0.717271 0.861392 0.697768
O O1 0.279231 0.322717 0.498274
O O2 0.289442 0.267279 0.312993
O O3 0.210618 0.347333 0.308691
O O4 0.000000 0.292619 0.406861
O O5 0.500000 0.309177 0.984755
O O6 0.305253 0.377134 0.932917
O O7 0.190600 0.301000 0.895483
O O8 0.227018 0.330990 0.098585
O O9 0.268963 0.942316 0.283189
O O10 0.215473 0.952255 0.490385
O O11 0.000000 0.906725 0.371730
O O12 0.275914 0.500000 0.627770
O O13 0.274317 0.401219 0.610197
O O14 0.000000 0.450191 0.653949
O O15 0.500000 0.951825 0.603941
O O16 0.221748 0.910514 0.668314
O O17 0.231031 0.000000 0.660393
O O18 0.274828 0.682776 0.701993
O O19 0.000000 0.649811 0.604185
O O20 0.000000 0.730526 0.738554
O O21 0.500000 0.860372 0.699310
#
# Coordination Sequence:
#
# PCOD9355903 Si02
#       8
#     8   8   8   8   8   8   8   8
#     4  10  22  36  57  81 105 142 186 226 272 330
#     4  10  20  34  53  79 110 143 178 217 270 331
#     4  10  17  28  48  77 111 142 177 223 271 324
#     4   9  16  27  48  76 106 142 177 212 266 325
#     4   9  18  33  52  75 107 148 185 223 276 327
#     4   9  18  35  52  76 113 140 175 229 276 326
#     4  10  20  35  57  82 107 140 177 222 277 328
#     4   9  20  37  54  75 109 145 181 222 267 319
#
# _framework density 22.345610000000001
#
# number of rings (size 3 to 8) (size 9 to 14) (size 15 to 20)
#    0.000    2.500    1.250    1.875    1.750    3.750 
#    0.000    1.250    0.000    0.750    0.000    0.000 
#    0.000    0.000    0.000    0.000    0.000    0.000 
#
# Total GULP energy -178261.599902 kJ/mol
# GULP energy per Si atom -5570.674997 kJ/mol
# Density = 2.229475 g / cm^3
# Si number density = 22.345610 Si / 1000 Ang^3
#
#
#
# Elastic Constant Matrix: (Units=GPa)
#
#
# Indices 1 2 3 4 5 6 
#
# 1 63.3609 1.0971 5.6940 0.0000 0.0000 0.0000
# 2 1.0971 128.4309 52.5713 0.0000 0.0000 0.0000
# 3 5.6940 52.5713 110.2489 0.0000 0.0000 0.0000
# 4 0.0000 0.0000 0.0000 8.7479 0.0000 0.0000
# 5 0.0000 0.0000 0.0000 0.0000 19.3548 0.0000
# 6 0.0000 0.0000 0.0000 0.0000 0.0000 3.5186
#
#
#
# Elastic Compliance Matrix: (Units=1/GPa)
#
#
# Indices 1 2 3 4 5 6 
#
# 1 0.015863 0.000248 -0.000938 0.000000 0.000000 0.000000
# 2 0.000248 0.009679 -0.004628 0.000000 0.000000 0.000000
# 3 -0.000938 -0.004628 0.011326 0.000000 0.000000 0.000000
# 4 0.000000 0.000000 0.000000 0.114313 0.000000 0.000000
# 5 0.000000 0.000000 0.000000 0.000000 0.051667 0.000000
# 6 0.000000 0.000000 0.000000 0.000000 0.000000 0.284205
#
#
# Mechanical properties :
#
#
# Convention : Reuss Voigt Hill
#
# Bulk Modulus (GPa) = 38.12120 46.75172 42.43646
# Shear Modulus (GPa) = 9.87304 22.50283 16.18794
#
# Velocity S-wave (km/s) = 2.10426 3.17683 2.69445
# Velocity P-wave (km/s) = 4.79591 5.86718 5.35838
#
# Compressibility (1/GPa) = 0.02623212
#
# Stress axis : x y z
#
# Youngs Moduli (GPa) = 63.04154 103.32113 88.29531
#
# Poissons Ratio (x) = -0.02566 0.08279
# Poissons Ratio (y) = -0.01565 0.40863
# Poissons Ratio (z) = 0.05911 0.47817
#
# Static dielectric constant tensor:
#      x y z
#    x 1.865560 0.000000 0.000000 
#    y 0.000000 1.919800 0.000000 
#    z 0.000000 0.000000 1.774430 
# 
# From -- ./inp_files/8662.got.cif
#   From: 2010.05.17/outbox.cif.g08.bks.cpg/sg38_5_cif.got.tgz:8662.got - 2010.06.03 18:07:57.
