data_PCOD9355764
_publ_section_title
;
Structure prediction by ZEFSAII (Michael W. Deem and Ramdas Pophale) SiO2 
 PCOD9355764
Probable space group: C C C 2
;
_chemical_formula_sum "Si O2"
_cell_formula_units_Z 32
_cell_length_a 9.000000
_cell_length_b 15.000000
_cell_length_c 24.000000
_cell_angle_alpha 90.000000
_cell_angle_beta 90.000000
_cell_angle_gamma 90.000000
_cell_volume 3240.000000
_symmetry_space_group_name_H-M "C C C 2"
_symmetry_group_IT_number 37
_symmetry_cell_setting 'orthorhombic'
loop_
_space_group_symop_operation_xyz
x,y,z
-x,-y,z
-x,y,1/2+z
x,-y,1/2+z
1/2+x,1/2+y,z
1/2-x,1/2-y,z
1/2-x,1/2+y,1/2+z
1/2+x,1/2-y,1/2+z
loop_
_atom_site_type_symbol
_atom_site_label
_atom_site_fract_x
_atom_site_fract_y
_atom_site_fract_z
Si Si1 0.710254 0.910041 0.094350
Si Si2 0.062810 0.705504 0.110283
Si Si3 0.881034 0.824638 0.192122
Si Si4 0.763283 0.905514 0.538117
Si Si5 0.085177 0.095347 0.317495
Si Si6 0.935505 0.828437 0.016921
Si Si7 0.079632 0.239097 0.891202
Si Si8 0.315782 0.148543 0.411267
O O1 0.553088 0.876486 0.116983
O O2 0.825486 0.895636 0.145506
O O3 0.779255 0.850587 0.044451
O O4 0.706620 0.004068 0.064658
O O5 0.217360 0.663283 0.088175
O O6 0.021526 0.771642 0.162488
O O7 0.003776 0.749877 0.053465
O O8 0.750000 0.750000 0.195717
O O9 0.893159 0.871334 0.252999
O O10 0.700777 0.887163 0.475055
O O11 0.940036 0.903622 0.528194
O O12 0.227567 0.097107 0.361239
O O13 0.987976 0.172474 0.346127
O O14 0.000000 0.000000 0.318369
O O15 0.929868 0.805614 0.952408
O O16 0.250000 0.250000 0.877797
O O17 0.986008 0.330887 0.894883
O O18 0.250000 0.250000 0.413261
#
# Coordination Sequence:
#
# PCOD9355764 Si02
#       8
#     8   8   8   8   8   8   8   8
#     4  10  23  35  58  92 125 161 204 259 323 367
#     4  10  20  38  59  90 121 165 204 254 311 388
#     4   9  20  43  66  84 122 174 219 258 320 398
#     4  12  20  34  58  95 129 159 201 259 323 379
#     4  11  24  42  67  94 123 165 227 277 329 386
#     4  11  20  35  56  84 125 166 203 244 313 390
#     4  11  22  40  64  89 125 169 219 261 316 400
#     4  10  20  39  61  90 128 171 210 257 326 396
#
# _framework density 9.8765429999999999
#
# number of rings (size 3 to 8) (size 9 to 14) (size 15 to 20)
#    0.000    1.500    3.750    4.125    1.750    2.000 
#    0.000    4.375    0.000    3.000    0.000    0.000 
#    0.000    0.000    0.000    0.000    0.000    0.000 
#
# Total GULP energy -178183.562333 kJ/mol
# GULP energy per Si atom -5568.236323 kJ/mol
# Density = 0.985406 g / cm^3
# Si number density = 9.876543 Si / 1000 Ang^3
#
#
#
# Elastic Constant Matrix: (Units=GPa)
#
#
# Indices 1 2 3 4 5 6 
#
# 1 100.4069 17.0345 26.1496 0.0000 0.0000 0.0000
# 2 17.0345 81.1224 47.3418 0.0000 0.0000 0.0000
# 3 26.1496 47.3418 166.4316 0.0000 0.0000 0.0000
# 4 0.0000 0.0000 0.0000 31.0543 0.0000 0.0000
# 5 0.0000 0.0000 0.0000 0.0000 21.2457 0.0000
# 6 0.0000 0.0000 0.0000 0.0000 0.0000 21.4954
#
#
#
# Elastic Compliance Matrix: (Units=1/GPa)
#
#
# Indices 1 2 3 4 5 6 
#
# 1 0.010533 -0.001494 -0.001230 0.000000 0.000000 0.000000
# 2 -0.001494 0.014993 -0.004030 0.000000 0.000000 0.000000
# 3 -0.001230 -0.004030 0.007348 0.000000 0.000000 0.000000
# 4 0.000000 0.000000 0.000000 0.032202 0.000000 0.000000
# 5 0.000000 0.000000 0.000000 0.000000 0.047068 0.000000
# 6 0.000000 0.000000 0.000000 0.000000 0.000000 0.046522
#
#
# Mechanical properties :
#
#
# Convention : Reuss Voigt Hill
#
# Bulk Modulus (GPa) = 51.63688 58.77919 55.20803
# Shear Modulus (GPa) = 27.99105 31.92144 29.95624
#
# Velocity S-wave (km/s) = 3.76845 4.02434 3.89850
# Velocity P-wave (km/s) = 6.71810 7.17045 6.94796
#
# Compressibility (1/GPa) = 0.01936600
#
# Stress axis : x y z
#
# Youngs Moduli (GPa) = 94.93715 66.69970 136.09051
#
# Poissons Ratio (x) = 0.09965 0.16739
# Poissons Ratio (y) = 0.14184 0.54843
# Poissons Ratio (z) = 0.11677 0.26879
#
# Static dielectric constant tensor:
#      x y z
#    x 1.826570 0.000000 0.000000 
#    y 0.000000 1.818080 0.000000 
#    z 0.000000 0.000000 1.639650 
# 
# From -- ./inp_files/18508.got.cif
#   From: 2010.05.17/outbox.ucp.g08.bks.cvg/sg37_10_cif.got.tgz:18508.got - 2010.06.11 10:38:43.
