data_PCOD9355858
_publ_section_title
;
Structure prediction by ZEFSAII (Michael W. Deem and Ramdas Pophale) SiO2 
 PCOD9355858
Probable space group: A M M 2
;
_chemical_formula_sum "Si O2"
_cell_formula_units_Z 64
_cell_length_a 14.697336
_cell_length_b 7.698342
_cell_length_c 32.756759
_cell_angle_alpha 90.000000
_cell_angle_beta 90.000000
_cell_angle_gamma 90.000000
_cell_volume 3706.267396
_symmetry_space_group_name_H-M "A M M 2"
_symmetry_group_IT_number 38
_symmetry_cell_setting 'orthorhombic'
loop_
_space_group_symop_operation_xyz
x,y,z
-x,-y,z
-x,y,z
x,-y,z
x,1/2+y,1/2+z
-x,1/2-y,1/2+z
-x,1/2+y,1/2+z
x,1/2-y,1/2+z
loop_
_atom_site_type_symbol
_atom_site_label
_atom_site_fract_x
_atom_site_fract_y
_atom_site_fract_z
Si Si1 0.389302 0.701130 0.212160
Si Si2 0.605825 0.713158 0.123094
Si Si3 0.898045 0.209479 0.009188
Si Si4 0.708640 0.296103 0.880960
Si Si5 0.397163 0.792892 0.800244
Si Si6 0.605759 0.787164 0.461704
Si Si7 0.898133 0.790580 0.915602
Si Si8 0.291949 0.206292 0.543047
O O1 0.500000 0.700499 0.212276
O O2 0.358509 0.500000 0.211637
O O3 0.363653 0.776359 0.168028
O O4 0.363990 0.778377 0.256256
O O5 0.500000 0.760335 0.116633
O O6 0.607975 0.500000 0.124460
O O7 0.666050 0.774038 0.085168
O O8 0.815158 0.265823 0.037256
O O9 0.000000 0.267258 0.020771
O O10 0.898700 0.000000 0.008492
O O11 0.880816 0.268876 0.962375
O O12 0.691964 0.500000 0.881479
O O13 0.667718 0.233114 0.838506
O O14 0.656262 0.223522 0.920819
O O15 0.815420 0.264899 0.887350
O O16 0.500000 0.727018 0.808908
O O17 0.404823 0.000000 0.794429
O O18 0.500000 0.737752 0.461853
O O19 0.657129 0.725701 0.502512
O O20 0.609149 0.000000 0.461755
O O21 0.000000 0.732478 0.903987
O O22 0.898999 0.000000 0.916321
O O23 0.308800 0.000000 0.543453
#
# Coordination Sequence:
#
# PCOD9355858 Si02
#       8
#     8   8   8   8   8   8   8   8
#     4   7  11  22  40  62  86 112 145 185 222 252
#     4   8  13  22  40  66  92 116 144 179 218 257
#     4   9  18  32  47  61  82 114 147 181 221 261
#     4  11  20  29  43  65  92 120 147 179 219 263
#     4   9  17  29  45  64  88 119 154 188 219 256
#     4   9  17  27  37  55  88 123 147 167 198 245
#     4   9  18  33  50  64  81 110 149 190 226 261
#     4  10  17  26  43  67  89 113 146 181 214 251
#
# _framework density 17.268045999999998
#
# number of rings (size 3 to 8) (size 9 to 14) (size 15 to 20)
#    0.000    3.000    1.250    3.375    0.000    2.750 
#    0.000    1.250    0.000    3.000    0.000    2.625 
#    0.000    3.000    0.000    0.000    0.000    0.000 
#
# Total GULP energy -178277.544742 kJ/mol
# GULP energy per Si atom -5571.173273 kJ/mol
# Density = 1.722874 g / cm^3
# Si number density = 17.268046 Si / 1000 Ang^3
#
#
#
# Elastic Constant Matrix: (Units=GPa)
#
#
# Indices 1 2 3 4 5 6 
#
# 1 103.8091 -3.5947 87.9766 0.0000 0.0000 0.0000
# 2 -3.5947 26.0463 8.8854 0.0000 0.0000 0.0000
# 3 87.9766 8.8854 177.0711 0.0000 0.0000 0.0000
# 4 0.0000 0.0000 0.0000 8.2427 0.0000 0.0000
# 5 0.0000 0.0000 0.0000 0.0000 11.2608 0.0000
# 6 0.0000 0.0000 0.0000 0.0000 0.0000 1.6965
#
#
#
# Elastic Compliance Matrix: (Units=1/GPa)
#
#
# Indices 1 2 3 4 5 6 
#
# 1 0.017363 0.005432 -0.008899 0.000000 0.000000 0.000000
# 2 0.005432 0.040761 -0.004744 0.000000 0.000000 0.000000
# 3 -0.008899 -0.004744 0.010307 0.000000 0.000000 0.000000
# 4 0.000000 0.000000 0.000000 0.121320 0.000000 0.000000
# 5 0.000000 0.000000 0.000000 0.000000 0.088804 0.000000
# 6 0.000000 0.000000 0.000000 0.000000 0.000000 0.589462
#
#
# Mechanical properties :
#
#
# Convention : Reuss Voigt Hill
#
# Bulk Modulus (GPa) = 19.22757 54.82903 37.02830
# Shear Modulus (GPa) = 5.54461 18.48393 12.01427
#
# Velocity S-wave (km/s) = 1.79384 3.27527 2.64057
# Velocity P-wave (km/s) = 3.93058 6.79145 5.54857
#
# Compressibility (1/GPa) = 0.05200867
#
# Stress axis : x y z
#
# Youngs Moduli (GPa) = 57.59273 24.53306 97.02006
#
# Poissons Ratio (x) = -0.13327 0.86342
# Poissons Ratio (y) = -0.31286 0.46030
# Poissons Ratio (z) = 0.51254 0.11639
#
# Static dielectric constant tensor:
#      x y z
#    x 1.567440 0.000000 0.000000 
#    y 0.000000 1.655080 0.000000 
#    z 0.000000 0.000000 1.621580 
# 
# From -- ./inp_files/25087.got.cif
#   From: 2010.05.17/outbox.cif.g08.bks.cpg/sg38_13_cif.got.tgz:25087.got - 2010.06.03 18:07:57.
