data_PCOD9355031
_publ_section_title
;
Structure prediction by ZEFSAII (Michael W. Deem and Ramdas Pophale) SiO2 
 PCOD9355031
Probable space group: C C C 2
;
_chemical_formula_sum "Si O2"
_cell_formula_units_Z 40
_cell_length_a 5.946808
_cell_length_b 23.007759
_cell_length_c 12.290977
_cell_angle_alpha 90.000000
_cell_angle_beta 90.000000
_cell_angle_gamma 90.000000
_cell_volume 1681.684970
_symmetry_space_group_name_H-M "C C C 2"
_symmetry_group_IT_number 37
_symmetry_cell_setting 'orthorhombic'
loop_
_space_group_symop_operation_xyz
x,y,z
-x,-y,z
-x,y,1/2+z
x,-y,1/2+z
1/2+x,1/2+y,z
1/2-x,1/2-y,z
1/2-x,1/2+y,1/2+z
1/2+x,1/2-y,1/2+z
loop_
_atom_site_type_symbol
_atom_site_label
_atom_site_fract_x
_atom_site_fract_y
_atom_site_fract_z
Si Si1 0.380206 0.192037 0.607090
Si Si2 0.566891 0.647773 0.416294
Si Si3 0.061484 0.402223 0.257395
Si Si4 0.698697 0.464196 0.407504
Si Si5 0.500000 0.000000 0.583243
Si Si6 0.250000 0.250000 0.961032
O O1 0.250000 0.250000 0.639234
O O2 0.229332 0.160411 0.516998
O O3 0.429405 0.152746 0.710187
O O4 0.603711 0.209634 0.541355
O O5 0.717658 0.623547 0.316102
O O6 0.404853 0.595556 0.449731
O O7 0.422983 0.707118 0.398221
O O8 0.905084 0.440031 0.337276
O O9 0.077832 0.445972 0.155794
O O10 0.500000 0.500000 0.347583
O O11 0.790016 0.506692 0.501324
#
# Coordination Sequence:
#
# PCOD9355031 Si02
#       6
#     8   8   8   8   4   4
#     4  10  24  48  70 102 145 193 243 300 368 435
#     4  11  24  45  73 104 146 189 249 306 374 442
#     4  12  25  45  72 112 142 189 255 302 378 449
#     4  12  26  46  71 104 144 192 239 308 374 439
#     4  12  26  46  74 100 150 192 242 308 376 450
#     4  10  22  48  70  98 146 198 238 302 372 426
#
# _framework density 23.785668999999999
#
# number of rings (size 3 to 8) (size 9 to 14) (size 15 to 20)
#    0.000    0.800    0.000    7.800    0.000    8.800 
#   23.400    0.000    0.000    0.000    0.000    0.000 
#    0.000    0.000    0.000    0.000    0.000    0.000 
#
# Total GULP energy -111859.254460 kJ/mol
# GULP energy per Si atom -5592.962723 kJ/mol
# Density = 2.373153 g / cm^3
# Si number density = 23.785669 Si / 1000 Ang^3
#
#
#
# Elastic Constant Matrix: (Units=GPa)
#
#
# Indices 1 2 3 4 5 6 
#
# 1 116.4790 57.8298 60.0653 0.0000 0.0000 0.0000
# 2 57.8298 144.6643 61.2109 0.0000 0.0000 0.0000
# 3 60.0653 61.2109 97.5702 0.0000 0.0000 0.0000
# 4 0.0000 0.0000 0.0000 44.6218 0.0000 0.0000
# 5 0.0000 0.0000 0.0000 0.0000 5.2596 0.0000
# 6 0.0000 0.0000 0.0000 0.0000 0.0000 69.8724
#
#
#
# Elastic Compliance Matrix: (Units=1/GPa)
#
#
# Indices 1 2 3 4 5 6 
#
# 1 0.013213 -0.002505 -0.006563 0.000000 0.000000 0.000000
# 2 -0.002505 0.009886 -0.004659 0.000000 0.000000 0.000000
# 3 -0.006563 -0.004659 0.017212 0.000000 0.000000 0.000000
# 4 0.000000 0.000000 0.000000 0.022411 0.000000 0.000000
# 5 0.000000 0.000000 0.000000 0.000000 0.190129 0.000000
# 6 0.000000 0.000000 0.000000 0.000000 0.000000 0.014312
#
#
# Mechanical properties :
#
#
# Convention : Reuss Voigt Hill
#
# Bulk Modulus (GPa) = 77.78226 79.65839 78.72033
# Shear Modulus (GPa) = 16.72787 35.92459 26.32623
#
# Velocity S-wave (km/s) = 2.65481 3.89053 3.33049
# Velocity P-wave (km/s) = 6.49382 7.33106 6.92510
#
# Compressibility (1/GPa) = 0.01285640
#
# Stress axis : x y z
#
# Youngs Moduli (GPa) = 75.68214 101.15759 58.09861
#
# Poissons Ratio (x) = 0.25342 0.38127
# Poissons Ratio (y) = 0.18960 0.27071
# Poissons Ratio (z) = 0.49666 0.47134
#
# Static dielectric constant tensor:
#      x y z
#    x 1.988000 0.000000 0.000000 
#    y 0.000000 1.912170 0.000000 
#    z 0.000000 0.000000 1.892940 
# 
# From -- ./inp_files/5574.got.cif
#   From: 2010.05.17/outbox.cif.g08.bks.cpg/sg37_3_cif.got.tgz:5574.got - 2010.06.03 17:53:42.
