data_PCOD9355213
_publ_section_title
;
Structure prediction by ZEFSAII (Michael W. Deem and Ramdas Pophale) SiO2 
 PCOD9355213
Probable space group: C C C 2
;
_chemical_formula_sum "Si O2"
_cell_formula_units_Z 52
_cell_length_a 9.733009
_cell_length_b 18.239316
_cell_length_c 13.914344
_cell_angle_alpha 90.000000
_cell_angle_beta 90.000000
_cell_angle_gamma 90.000000
_cell_volume 2470.122028
_symmetry_space_group_name_H-M "C C C 2"
_symmetry_group_IT_number 37
_symmetry_cell_setting 'orthorhombic'
loop_
_space_group_symop_operation_xyz
x,y,z
-x,-y,z
-x,y,1/2+z
x,-y,1/2+z
1/2+x,1/2+y,z
1/2-x,1/2-y,z
1/2-x,1/2+y,1/2+z
1/2+x,1/2-y,1/2+z
loop_
_atom_site_type_symbol
_atom_site_label
_atom_site_fract_x
_atom_site_fract_y
_atom_site_fract_z
Si Si1 0.319899 0.670669 0.516710
Si Si2 0.250000 0.750000 0.819182
Si Si3 0.180101 0.329331 0.621654
Si Si4 0.750000 0.591514 0.819182
Si Si5 0.617497 0.863284 0.171453
Si Si6 0.500000 0.500000 0.851477
Si Si7 0.500000 0.000000 0.286887
Si Si8 0.117497 0.136716 0.466912
O O1 0.250000 0.750000 0.525198
O O2 0.286700 0.639397 0.411478
O O3 0.245065 0.625484 0.600392
O O4 0.484121 0.666507 0.523985
O O5 0.340181 0.802974 0.751227
O O6 0.159820 0.802975 0.887138
O O7 0.250000 0.250000 0.613166
O O8 0.213300 0.360603 0.726886
O O9 0.254935 0.374517 0.537973
O O10 0.015879 0.333493 0.614379
O O11 0.618885 0.541451 0.794441
O O12 0.881115 0.541451 0.843923
O O13 0.573828 0.938582 0.221976
O O14 0.426172 0.561417 0.916389
#
# Coordination Sequence:
#
# PCOD9355213 Si02
#       8
#     8   4   8   8   8   4   4   8
#     4  11  24  42  66 101 128 175 220 283 331 404
#     4  12  26  44  70 104 136 182 222 296 330 414
#     4  11  24  42  66 101 128 175 220 283 331 404
#     4  10  24  40  68  90 140 172 224 270 339 405
#     4  11  26  42  71  95 139 172 230 274 347 394
#     4  10  24  44  62 104 130 190 218 278 338 410
#     4  10  24  44  62 104 130 190 218 278 338 410
#     4  11  26  42  71  95 139 172 230 274 347 394
#
# _framework density 21.051591999999999
#
# number of rings (size 3 to 8) (size 9 to 14) (size 15 to 20)
#    0.000    1.231    1.538    2.308    8.615    8.615 
#    0.000    0.000    0.000    0.000    0.000    0.000 
#    0.000    0.000    0.000    0.000    0.000    0.000 
#
# Total GULP energy -145373.103910 kJ/mol
# GULP energy per Si atom -5591.273227 kJ/mol
# Density = 2.100368 g / cm^3
# Si number density = 21.051592 Si / 1000 Ang^3
#
#
#
# Elastic Constant Matrix: (Units=GPa)
#
#
# Indices 1 2 3 4 5 6 
#
# 1 132.1808 12.9449 31.3874 0.0000 0.0000 0.0000
# 2 12.9449 78.7602 2.7871 0.0000 0.0000 0.0000
# 3 31.3874 2.7871 67.4719 0.0000 0.0000 0.0000
# 4 0.0000 0.0000 0.0000 -11.7509 0.0000 0.0000
# 5 0.0000 0.0000 0.0000 0.0000 1023.9778 0.0000
# 6 0.0000 0.0000 0.0000 0.0000 0.0000 35.5405
#
#
#
# Elastic Compliance Matrix: (Units=1/GPa)
#
#
# Indices 1 2 3 4 5 6 
#
# 1 0.008632 -0.001278 -0.003963 0.000000 0.000000 0.000000
# 2 -0.001278 0.012905 0.000062 0.000000 0.000000 0.000000
# 3 -0.003963 0.000062 0.016662 0.000000 0.000000 0.000000
# 4 0.000000 0.000000 0.000000 -0.085100 0.000000 0.000000
# 5 0.000000 0.000000 0.000000 0.000000 0.000977 0.000000
# 6 0.000000 0.000000 0.000000 0.000000 0.000000 0.028137
#
#
# Mechanical properties :
#
#
# Convention : Reuss Voigt Hill
#
# Bulk Modulus (GPa) = 35.92032 41.40575 38.66304
# Shear Modulus (GPa) = 2702.53877 224.97304 1463.75590
#
# Velocity S-wave (km/s) = 35.86860 10.34889 26.39750
# Velocity P-wave (km/s) = 41.62341 12.74797 30.78164
#
# Compressibility (1/GPa) = 0.02783940
#
# Stress axis : x y z
#
# Youngs Moduli (GPa) = 115.85437 77.49110 60.01770
#
# Poissons Ratio (x) = 0.09907 0.23782
# Poissons Ratio (y) = 0.14811 -0.00370
# Poissons Ratio (z) = 0.45907 -0.00478
#
# Static dielectric constant tensor:
#      x y z
#    x 1.789740 0.000000 0.000000 
#    y 0.000000 1.990850 0.000000 
#    z 0.000000 0.000000 1.719360 
# 
# From -- ./inp_files/10794.got.cif
#   From: 2010.05.17/outbox.cif.g08.bks.cpg/sg37_6_cif.got.tgz:10794.got - 2010.06.03 17:53:42.
