data_PCOD9355636
_publ_section_title
;
Structure prediction by ZEFSAII (Michael W. Deem and Ramdas Pophale) SiO2 
 PCOD9355636
Probable space group: C C C 2
;
_chemical_formula_sum "Si O2"
_cell_formula_units_Z 28
_cell_length_a 17.726542
_cell_length_b 7.137352
_cell_length_c 8.528879
_cell_angle_alpha 90.000000
_cell_angle_beta 90.000000
_cell_angle_gamma 90.000000
_cell_volume 1079.078633
_symmetry_space_group_name_H-M "C C C 2"
_symmetry_group_IT_number 37
_symmetry_cell_setting 'orthorhombic'
loop_
_space_group_symop_operation_xyz
x,y,z
-x,-y,z
-x,y,1/2+z
x,-y,1/2+z
1/2+x,1/2+y,z
1/2-x,1/2-y,z
1/2-x,1/2+y,1/2+z
1/2+x,1/2-y,1/2+z
loop_
_atom_site_type_symbol
_atom_site_label
_atom_site_fract_x
_atom_site_fract_y
_atom_site_fract_z
Si Si1 0.904780 0.631472 0.109450
Si Si2 0.821265 0.938093 0.947884
Si Si3 0.437002 0.233094 0.460452
Si Si4 0.750000 0.250000 0.142171
O O1 0.836609 0.763164 0.061316
O O2 0.925843 0.652788 0.288481
O O3 0.894912 0.411918 0.075842
O O4 0.976669 0.709303 0.011527
O O5 0.897149 0.066775 0.955133
O O6 0.758636 0.079848 0.013907
O O7 0.804066 0.851023 0.777018
#
# Coordination Sequence:
#
# PCOD9355636 Si02
#       4
#     8   8   8   4
#     4  11  25  45  79 117 154 195 250 323 398 469
#     4  12  29  50  78 108 155 206 272 320 382 460
#     4  11  25  45  79 117 154 195 250 323 398 469
#     4  12  32  52  78 112 154 220 270 324 380 460
#
# _framework density 25.948062
#
# number of rings (size 3 to 8) (size 9 to 14) (size 15 to 20)
#    0.000    0.571    2.857    4.286   12.000    3.429 
#    0.000    0.000    0.000    0.000    0.000    0.000 
#    0.000    0.000    0.000    0.000    0.000    0.000 
#
# Total GULP energy -78212.294244 kJ/mol
# GULP energy per Si atom -5586.592446 kJ/mol
# Density = 2.588900 g / cm^3
# Si number density = 25.948062 Si / 1000 Ang^3
#
#
#
# Elastic Constant Matrix: (Units=GPa)
#
#
# Indices 1 2 3 4 5 6 
#
# 1 73.7646 44.8888 1.2385 0.0000 0.0000 0.0000
# 2 44.8888 218.9320 54.0774 0.0000 0.0000 0.0000
# 3 1.2385 54.0774 165.5943 0.0000 0.0000 0.0000
# 4 0.0000 0.0000 0.0000 -285.9453 0.0000 0.0000
# 5 0.0000 0.0000 0.0000 0.0000 12.8317 0.0000
# 6 0.0000 0.0000 0.0000 0.0000 0.0000 117.5519
#
#
#
# Elastic Compliance Matrix: (Units=1/GPa)
#
#
# Indices 1 2 3 4 5 6 
#
# 1 0.015644 -0.003458 0.001012 0.000000 0.000000 0.000000
# 2 -0.003458 0.005733 -0.001846 0.000000 0.000000 0.000000
# 3 0.001012 -0.001846 0.006634 0.000000 0.000000 0.000000
# 4 0.000000 0.000000 0.000000 -0.003497 0.000000 0.000000
# 5 0.000000 0.000000 0.000000 0.000000 0.077932 0.000000
# 6 0.000000 0.000000 0.000000 0.000000 0.000000 0.008507
#
#
# Mechanical properties :
#
#
# Convention : Reuss Voigt Hill
#
# Bulk Modulus (GPa) = 51.47412 73.18891 62.33151
# Shear Modulus (GPa) = 39.67906 -7.23994 16.21956
#
# Velocity S-wave (km/s) = 3.91471 -1.67219 2.50287
# Velocity P-wave (km/s) = 6.34930 4.95367 5.69441
#
# Compressibility (1/GPa) = 0.01942724
#
# Stress axis : x y z
#
# Youngs Moduli (GPa) = 63.92355 174.44214 150.73427
#
# Poissons Ratio (x) = 0.60313 -0.15256
# Poissons Ratio (y) = 0.22102 0.27829
# Poissons Ratio (z) = -0.06470 0.32205
#
# Static dielectric constant tensor:
#      x y z
#    x 2.291810 0.000000 0.000000 
#    y 0.000000 3.074020 0.000000 
#    z 0.000000 0.000000 1.933910 
# 
# From -- ./inp_files/4217.got.cif
#   From: 2010.05.17/outbox.cif.g08.bks.cpg/sg37_3_cif.got.tgz:4217.got - 2010.06.03 17:53:42.
