data_PCOD9355303
_publ_section_title
;
Structure prediction by ZEFSAII (Michael W. Deem and Ramdas Pophale) SiO2 
 PCOD9355303
Probable space group: C C C 2
;
_chemical_formula_sum "Si O2"
_cell_formula_units_Z 40
_cell_length_a 7.833230
_cell_length_b 17.601875
_cell_length_c 13.120815
_cell_angle_alpha 90.000000
_cell_angle_beta 90.000000
_cell_angle_gamma 90.000000
_cell_volume 1809.091875
_symmetry_space_group_name_H-M "C C C 2"
_symmetry_group_IT_number 37
_symmetry_cell_setting 'orthorhombic'
loop_
_space_group_symop_operation_xyz
x,y,z
-x,-y,z
-x,y,1/2+z
x,-y,1/2+z
1/2+x,1/2+y,z
1/2-x,1/2-y,z
1/2-x,1/2+y,1/2+z
1/2+x,1/2-y,1/2+z
loop_
_atom_site_type_symbol
_atom_site_label
_atom_site_fract_x
_atom_site_fract_y
_atom_site_fract_z
Si Si1 0.500000 0.500000 0.779960
Si Si2 0.490465 0.635952 0.625064
Si Si3 0.796545 0.912976 0.944484
Si Si4 0.750000 0.250000 0.062974
Si Si5 0.750000 0.250000 0.728247
Si Si6 0.521831 0.833048 0.394800
Si Si7 0.000000 0.500000 0.457044
O O1 0.470073 0.569369 0.704800
O O2 0.352985 0.467206 0.853191
O O3 0.459498 0.609053 0.509686
O O4 0.663495 0.683796 0.628294
O O5 0.338939 0.691116 0.654970
O O6 0.683691 0.841607 0.905691
O O7 0.663234 0.963174 0.012361
O O8 0.607471 0.209855 0.991083
O O9 0.607513 0.209364 0.799561
O O10 0.562706 0.924208 0.397098
#
# Coordination Sequence:
#
# PCOD9355303 Si02
#       7
#     4   8   8   4   4   8   4
#     4  12  28  44  74 106 142 192 252 302 344 448
#     4  12  28  45  73 108 146 190 246 301 354 449
#     4  10  24  46  72 100 146 188 243 294 371 402
#     4  11  26  44  71 104 150 192 237 294 379 414
#     4  11  24  46  67 114 140 188 253 292 363 434
#     4   9  22  44  75  95 149 192 238 296 363 428
#     4   8  20  42  72  96 128 200 226 294 352 428
#
# _framework density 22.110541000000001
#
# number of rings (size 3 to 8) (size 9 to 14) (size 15 to 20)
#    1.200    0.400    0.000    3.000   14.000    0.000 
#    3.600    0.000    0.000    0.000    0.000    0.000 
#    0.000    0.000    0.000    0.000    0.000    0.000 
#
# Total GULP energy -111415.775292 kJ/mol
# GULP energy per Si atom -5570.788765 kJ/mol
# Density = 2.206022 g / cm^3
# Si number density = 22.110541 Si / 1000 Ang^3
#
#
#
# Elastic Constant Matrix: (Units=GPa)
#
#
# Indices 1 2 3 4 5 6 
#
# 1 72.3787 29.6107 21.1958 0.0000 0.0000 0.0000
# 2 29.6107 127.7872 32.9089 0.0000 0.0000 0.0000
# 3 21.1958 32.9089 62.2412 0.0000 0.0000 0.0000
# 4 0.0000 0.0000 0.0000 -10.3216 0.0000 0.0000
# 5 0.0000 0.0000 0.0000 0.0000 17.4887 0.0000
# 6 0.0000 0.0000 0.0000 0.0000 0.0000 57.3053
#
#
#
# Elastic Compliance Matrix: (Units=1/GPa)
#
#
# Indices 1 2 3 4 5 6 
#
# 1 0.016105 -0.002685 -0.004065 0.000000 0.000000 0.000000
# 2 -0.002685 0.009507 -0.004112 0.000000 0.000000 0.000000
# 3 -0.004065 -0.004112 0.019625 0.000000 0.000000 0.000000
# 4 0.000000 0.000000 0.000000 -0.096884 0.000000 0.000000
# 5 0.000000 0.000000 0.000000 0.000000 0.057180 0.000000
# 6 0.000000 0.000000 0.000000 0.000000 0.000000 0.017450
#
#
# Mechanical properties :
#
#
# Convention : Reuss Voigt Hill
#
# Bulk Modulus (GPa) = 42.53006 47.75979 45.14492
# Shear Modulus (GPa) = 95.15867 24.80727 59.98297
#
# Velocity S-wave (km/s) = 6.56743 3.35321 5.21417
# Velocity P-wave (km/s) = 8.76271 6.05305 7.53075
#
# Compressibility (1/GPa) = 0.02351278
#
# Stress axis : x y z
#
# Youngs Moduli (GPa) = 62.09234 105.18935 50.95552
#
# Poissons Ratio (x) = 0.28244 0.20712
# Poissons Ratio (y) = 0.16672 0.20953
# Poissons Ratio (z) = 0.25239 0.43255
#
# Static dielectric constant tensor:
#      x y z
#    x 1.883270 0.000000 0.000000 
#    y 0.000000 1.847890 0.000000 
#    z 0.000000 0.000000 1.782350 
# 
# From -- ./inp_files/6187.got.cif
#   From: 2010.05.17/outbox.cif.g08.bks.cpg/sg37_4_cif.got.tgz:6187.got - 2010.06.03 17:53:42.
