data_PCOD9355883
_publ_section_title
;
Structure prediction by ZEFSAII (Michael W. Deem and Ramdas Pophale) SiO2 
 PCOD9355883
Probable space group: A M M 2
;
_chemical_formula_sum "Si O2"
_cell_formula_units_Z 64
_cell_length_a 14.816613
_cell_length_b 8.548513
_cell_length_c 32.170289
_cell_angle_alpha 90.000000
_cell_angle_beta 90.000000
_cell_angle_gamma 90.000000
_cell_volume 4074.689089
_symmetry_space_group_name_H-M "A M M 2"
_symmetry_group_IT_number 38
_symmetry_cell_setting 'orthorhombic'
loop_
_space_group_symop_operation_xyz
x,y,z
-x,-y,z
-x,y,z
x,-y,z
x,1/2+y,1/2+z
-x,1/2-y,1/2+z
-x,1/2+y,1/2+z
x,1/2-y,1/2+z
loop_
_atom_site_type_symbol
_atom_site_label
_atom_site_fract_x
_atom_site_fract_y
_atom_site_fract_z
Si Si1 0.390498 0.180674 0.014810
Si Si2 0.285198 0.686639 0.680124
Si Si3 0.101498 0.811438 0.711552
Si Si4 0.603966 0.685880 0.102995
Si Si5 0.289310 0.810514 0.842076
Si Si6 0.100405 0.809605 0.808353
Si Si7 0.604555 0.691236 0.423575
Si Si8 0.604819 0.189261 0.261801
O O1 0.500000 0.182257 0.013056
O O2 0.364719 0.270391 0.056488
O O3 0.362029 0.000000 0.018937
O O4 0.362677 0.242373 0.969373
O O5 0.286249 0.500000 0.680676
O O6 0.183037 0.744741 0.684994
O O7 0.333783 0.743897 0.638604
O O8 0.341381 0.742418 0.720699
O O9 0.114178 0.764574 0.760012
O O10 0.000000 0.763363 0.699130
O O11 0.105029 0.000000 0.710297
O O12 0.500000 0.743666 0.107786
O O13 0.602985 0.500000 0.107149
O O14 0.186205 0.757287 0.834875
O O15 0.334345 0.757654 0.885130
O O16 0.347897 0.754474 0.802939
O O17 0.289914 0.000000 0.842105
O O18 0.000000 0.757300 0.821266
O O19 0.099653 0.000000 0.809122
O O20 0.500000 0.738876 0.417264
O O21 0.604544 0.500000 0.424675
O O22 0.500000 0.236636 0.259711
O O23 0.608020 0.000000 0.263122
#
# Coordination Sequence:
#
# PCOD9355883 Si02
#       8
#     8   8   8   8   8   8   8   8
#     4   8  14  27  45  62  85 116 147 183 230 277
#     4  11  21  32  47  66  91 123 156 188 227 277
#     4   9  17  31  49  67  90 119 152 193 236 272
#     4  10  20  32  47  68  92 117 152 195 232 272
#     4  10  17  27  46  67  87 116 156 192 219 259
#     4   8  14  25  42  64  89 116 147 187 230 263
#     4   8  14  24  40  65  91 113 144 187 228 266
#     4  10  21  33  41  56  89 126 153 179 217 265
#
# _framework density 15.706720000000001
#
# number of rings (size 3 to 8) (size 9 to 14) (size 15 to 20)
#    0.000    2.750    1.250    3.000    0.000    2.750 
#    0.000    0.625    0.000    2.625    0.000    0.875 
#    0.000    3.000    0.000    0.000    0.000    0.000 
#
# Total GULP energy -178298.672834 kJ/mol
# GULP energy per Si atom -5571.833526 kJ/mol
# Density = 1.567097 g / cm^3
# Si number density = 15.706720 Si / 1000 Ang^3
#
#
#
# Elastic Constant Matrix: (Units=GPa)
#
#
# Indices 1 2 3 4 5 6 
#
# 1 124.2187 21.0124 80.3160 0.0000 0.0000 0.0000
# 2 21.0124 11.7984 21.6490 0.0000 0.0000 0.0000
# 3 80.3160 21.6490 137.4915 0.0000 0.0000 0.0000
# 4 0.0000 0.0000 0.0000 18.5266 0.0000 0.0000
# 5 0.0000 0.0000 0.0000 0.0000 8.4921 0.0000
# 6 0.0000 0.0000 0.0000 0.0000 0.0000 14.8238
#
#
#
# Elastic Compliance Matrix: (Units=1/GPa)
#
#
# Indices 1 2 3 4 5 6 
#
# 1 0.014501 -0.014461 -0.006194 0.000000 0.000000 0.000000
# 2 -0.014461 0.133615 -0.012591 0.000000 0.000000 0.000000
# 3 -0.006194 -0.012591 0.012874 0.000000 0.000000 0.000000
# 4 0.000000 0.000000 0.000000 0.053977 0.000000 0.000000
# 5 0.000000 0.000000 0.000000 0.000000 0.117756 0.000000
# 6 0.000000 0.000000 0.000000 0.000000 0.000000 0.067459
#
#
# Mechanical properties :
#
#
# Convention : Reuss Voigt Hill
#
# Bulk Modulus (GPa) = 10.58222 57.71818 34.15020
# Shear Modulus (GPa) = 10.03666 18.40391 14.22028
#
# Velocity S-wave (km/s) = 2.53060 3.42676 3.01219
# Velocity P-wave (km/s) = 3.91031 7.24459 5.82128
#
# Compressibility (1/GPa) = 0.09449809
#
# Stress axis : x y z
#
# Youngs Moduli (GPa) = 68.95928 7.48419 77.67568
#
# Poissons Ratio (x) = 0.10823 0.48113
# Poissons Ratio (y) = 0.99720 0.97805
# Poissons Ratio (z) = 0.42714 0.09424
#
# Static dielectric constant tensor:
#      x y z
#    x 1.522530 0.000000 0.000000 
#    y 0.000000 1.537300 0.000000 
#    z 0.000000 0.000000 1.518320 
# 
# From -- ./inp_files/25108.got.cif
#   From: 2010.05.17/outbox.cif.g08.bks.cpg/sg38_13_cif.got.tgz:25108.got - 2010.06.03 18:07:57.
