data_PCOD9355103
_publ_section_title
;
Structure prediction by ZEFSAII (Michael W. Deem and Ramdas Pophale) SiO2 
 PCOD9355103
Probable space group: C C C 2
;
_chemical_formula_sum "Si O2"
_cell_formula_units_Z 64
_cell_length_a 22.239725
_cell_length_b 15.077198
_cell_length_c 9.642591
_cell_angle_alpha 90.000000
_cell_angle_beta 90.000000
_cell_angle_gamma 90.000000
_cell_volume 3233.283583
_symmetry_space_group_name_H-M "C C C 2"
_symmetry_group_IT_number 37
_symmetry_cell_setting 'orthorhombic'
loop_
_space_group_symop_operation_xyz
x,y,z
-x,-y,z
-x,y,1/2+z
x,-y,1/2+z
1/2+x,1/2+y,z
1/2-x,1/2-y,z
1/2-x,1/2+y,1/2+z
1/2+x,1/2-y,1/2+z
loop_
_atom_site_type_symbol
_atom_site_label
_atom_site_fract_x
_atom_site_fract_y
_atom_site_fract_z
Si Si1 0.675372 0.503768 0.359460
Si Si2 0.600602 0.091381 0.316597
Si Si3 0.497480 0.647753 0.678702
Si Si4 0.262561 0.148844 0.481495
Si Si5 0.405366 0.508854 0.109523
Si Si6 0.399582 0.088962 0.484281
Si Si7 0.502828 0.771629 0.928891
Si Si8 0.237964 0.350851 0.814368
O O1 0.716686 0.585792 0.401594
O O2 0.653930 0.502964 0.201622
O O3 0.615212 0.505726 0.451232
O O4 0.714837 0.416411 0.384919
O O5 0.557078 0.169442 0.369145
O O6 0.669762 0.119444 0.342150
O O7 0.587773 0.001815 0.402085
O O8 0.593086 0.077405 0.150854
O O9 0.561413 0.600825 0.646920
O O10 0.449427 0.571772 0.645682
O O11 0.494444 0.685268 0.833013
O O12 0.486508 0.732262 0.581014
O O13 0.250000 0.250000 0.441293
O O14 0.331041 0.118909 0.456067
O O15 0.253010 0.142709 0.647684
O O16 0.444754 0.165507 0.434915
O O17 0.250000 0.250000 0.855769
#
# Coordination Sequence:
#
# PCOD9355103 Si02
#       8
#     8   8   8   8   8   8   8   8
#     4  12  22  43  70 103 128 180 218 282 338 406
#     4  11  25  44  67  96 135 177 221 279 333 394
#     4  11  26  46  63 102 132 178 219 286 322 407
#     4  10  23  42  67  97 134 177 224 272 335 400
#     4  11  26  42  70  94 142 169 224 272 348 393
#     4  11  25  44  67  96 135 177 221 279 333 394
#     4  12  25  43  72  94 132 178 234 267 335 392
#     4  10  23  42  67  97 134 177 224 272 335 400
#
# _framework density 19.794119999999999
#
# number of rings (size 3 to 8) (size 9 to 14) (size 15 to 20)
#    0.000    1.000    3.750    1.875    8.750    3.000 
#    0.000    0.625    0.000    0.000    0.000    0.000 
#    0.000    0.000    0.000    0.000    0.000    0.000 
#
# Total GULP energy -178940.527395 kJ/mol
# GULP energy per Si atom -5591.891481 kJ/mol
# Density = 1.974907 g / cm^3
# Si number density = 19.794120 Si / 1000 Ang^3
#
#
#
# Elastic Constant Matrix: (Units=GPa)
#
#
# Indices 1 2 3 4 5 6 
#
# 1 71.0573 33.7019 7.1747 0.0000 0.0000 0.0000
# 2 33.7019 114.5836 6.1016 0.0000 0.0000 0.0000
# 3 7.1747 6.1016 34.2271 0.0000 0.0000 0.0000
# 4 0.0000 0.0000 0.0000 33.8307 0.0000 0.0000
# 5 0.0000 0.0000 0.0000 0.0000 32.3723 0.0000
# 6 0.0000 0.0000 0.0000 0.0000 0.0000 618.7928
#
#
#
# Elastic Compliance Matrix: (Units=1/GPa)
#
#
# Indices 1 2 3 4 5 6 
#
# 1 0.016586 -0.004738 -0.002632 0.000000 0.000000 0.000000
# 2 -0.004738 0.010164 -0.000819 0.000000 0.000000 0.000000
# 3 -0.002632 -0.000819 0.029914 0.000000 0.000000 0.000000
# 4 0.000000 0.000000 0.000000 0.029559 0.000000 0.000000
# 5 0.000000 0.000000 0.000000 0.000000 0.030891 0.000000
# 6 0.000000 0.000000 0.000000 0.000000 0.000000 0.001616
#
#
# Mechanical properties :
#
#
# Convention : Reuss Voigt Hill
#
# Bulk Modulus (GPa) = 24.82206 34.86936 29.84571
# Shear Modulus (GPa) = 33.66142 148.52514 91.09328
#
# Velocity S-wave (km/s) = 4.12828 8.67167 6.79119
# Velocity P-wave (km/s) = 5.94062 10.85901 8.75240
#
# Compressibility (1/GPa) = 0.04028674
#
# Stress axis : x y z
#
# Youngs Moduli (GPa) = 60.29092 98.38173 33.42877
#
# Poissons Ratio (x) = 0.46616 0.08799
# Poissons Ratio (y) = 0.28567 0.02737
# Poissons Ratio (z) = 0.15870 0.08055
#
# Static dielectric constant tensor:
#      x y z
#    x 1.687250 0.000000 0.000000 
#    y 0.000000 1.658780 0.000000 
#    z 0.000000 0.000000 1.656890 
# 
# From -- ./inp_files/3770.got.cif
#   From: 2010.05.17/outbox.cif.g08.bks.cpg/sg37_2_cif.got.tgz:3770.got - 2010.06.03 17:53:42.
