data_PCOD9355088
_publ_section_title
;
Structure prediction by ZEFSAII (Michael W. Deem and Ramdas Pophale) SiO2 
 PCOD9355088
Probable space group: C C C 2
;
_chemical_formula_sum "Si O2"
_cell_formula_units_Z 32
_cell_length_a 13.291095
_cell_length_b 9.668694
_cell_length_c 9.690142
_cell_angle_alpha 90.000000
_cell_angle_beta 90.000000
_cell_angle_gamma 90.000000
_cell_volume 1245.256218
_symmetry_space_group_name_H-M "C C C 2"
_symmetry_group_IT_number 37
_symmetry_cell_setting 'orthorhombic'
loop_
_space_group_symop_operation_xyz
x,y,z
-x,-y,z
-x,y,1/2+z
x,-y,1/2+z
1/2+x,1/2+y,z
1/2-x,1/2-y,z
1/2-x,1/2+y,1/2+z
1/2+x,1/2-y,1/2+z
loop_
_atom_site_type_symbol
_atom_site_label
_atom_site_fract_x
_atom_site_fract_y
_atom_site_fract_z
Si Si1 0.986429 0.840011 0.517770
Si Si2 0.112818 0.189208 0.777701
Si Si3 0.287819 0.973708 0.382352
Si Si4 0.397378 0.907621 0.649946
O O1 0.004878 0.816964 0.355739
O O2 0.070190 0.738730 0.585944
O O3 0.890464 0.807792 0.612590
O O4 0.000000 0.000000 0.548944
O O5 0.173401 0.060177 0.843480
O O6 0.159952 0.333948 0.823221
O O7 0.319592 0.975935 0.540942
O O8 0.340587 0.093604 0.295337
O O9 0.500000 0.000000 0.656880
#
# Coordination Sequence:
#
# PCOD9355088 Si02
#       4
#     8   8   8   8
#     4  11  24  42  68  95 135 178 218 275 346 404
#     4  10  23  44  65  98 137 178 220 285 334 398
#     4  10  23  41  68 100 135 168 232 286 326 397
#     4  11  22  42  73  95 129 178 226 274 340 402
#
# _framework density 25.697524999999999
#
# number of rings (size 3 to 8) (size 9 to 14) (size 15 to 20)
#    0.000    1.500    2.500    1.500    7.000    0.000 
#    0.000    0.000    0.000    0.000    0.000    0.000 
#    0.000    0.000    0.000    0.000    0.000    0.000 
#
# Total GULP energy -89350.653087 kJ/mol
# GULP energy per Si atom -5584.415818 kJ/mol
# Density = 2.563904 g / cm^3
# Si number density = 25.697525 Si / 1000 Ang^3
#
#
#
# Elastic Constant Matrix: (Units=GPa)
#
#
# Indices 1 2 3 4 5 6 
#
# 1 85.7380 5.1286 39.3747 0.0000 0.0000 0.0000
# 2 5.1286 92.5149 -13.5084 0.0000 0.0000 0.0000
# 3 39.3747 -13.5084 96.9174 0.0000 0.0000 0.0000
# 4 0.0000 0.0000 0.0000 17.1696 0.0000 0.0000
# 5 0.0000 0.0000 0.0000 0.0000 24.8163 0.0000
# 6 0.0000 0.0000 0.0000 0.0000 0.0000 40.0064
#
#
#
# Elastic Compliance Matrix: (Units=1/GPa)
#
#
# Indices 1 2 3 4 5 6 
#
# 1 0.014599 -0.001710 -0.006170 0.000000 0.000000 0.000000
# 2 -0.001710 0.011234 0.002261 0.000000 0.000000 0.000000
# 3 -0.006170 0.002261 0.013140 0.000000 0.000000 0.000000
# 4 0.000000 0.000000 0.000000 0.058243 0.000000 0.000000
# 5 0.000000 0.000000 0.000000 0.000000 0.040296 0.000000
# 6 0.000000 0.000000 0.000000 0.000000 0.000000 0.024996
#
#
# Mechanical properties :
#
#
# Convention : Reuss Voigt Hill
#
# Bulk Modulus (GPa) = 36.05625 37.46225 36.75925
# Shear Modulus (GPa) = 27.32384 32.67681 30.00033
#
# Velocity S-wave (km/s) = 3.26435 3.56981 3.42049
# Velocity P-wave (km/s) = 5.31690 5.62149 5.47132
#
# Compressibility (1/GPa) = 0.02773444
#
# Stress axis : x y z
#
# Youngs Moduli (GPa) = 68.49761 89.01593 76.10559
#
# Poissons Ratio (x) = 0.15223 0.46954
# Poissons Ratio (y) = 0.11714 -0.17204
# Poissons Ratio (z) = 0.42260 -0.20123
#
# Static dielectric constant tensor:
#      x y z
#    x 2.196710 0.000000 0.000000 
#    y 0.000000 2.042510 0.000000 
#    z 0.000000 0.000000 2.036380 
# 
# From -- ./inp_files/2572.got.cif
#   From: 2010.05.17/outbox.cif.g08.bks.cpg/sg37_2_cif.got.tgz:2572.got - 2010.06.03 17:53:42.
