data_PCOD9355485
_publ_section_title
;
Structure prediction by ZEFSAII (Michael W. Deem and Ramdas Pophale) SiO2 
 PCOD9355485
Probable space group: C C C 2
;
_chemical_formula_sum "Si O2"
_cell_formula_units_Z 48
_cell_length_a 16.438054
_cell_length_b 17.802311
_cell_length_c 8.633856
_cell_angle_alpha 90.000000
_cell_angle_beta 90.000000
_cell_angle_gamma 90.000000
_cell_volume 2526.571468
_symmetry_space_group_name_H-M "C C C 2"
_symmetry_group_IT_number 37
_symmetry_cell_setting 'orthorhombic'
loop_
_space_group_symop_operation_xyz
x,y,z
-x,-y,z
-x,y,1/2+z
x,-y,1/2+z
1/2+x,1/2+y,z
1/2-x,1/2-y,z
1/2-x,1/2+y,1/2+z
1/2+x,1/2-y,1/2+z
loop_
_atom_site_type_symbol
_atom_site_label
_atom_site_fract_x
_atom_site_fract_y
_atom_site_fract_z
Si Si1 0.451232 0.290710 0.660850
Si Si2 0.923435 0.956808 0.551377
Si Si3 0.689650 0.493088 0.299895
Si Si4 0.746502 0.645282 0.220398
Si Si5 0.800203 0.822378 0.865507
Si Si6 0.386277 0.249204 0.342305
O O1 0.451408 0.372018 0.578144
O O2 0.390645 0.302719 0.806826
O O3 0.415589 0.239794 0.520356
O O4 0.536822 0.264908 0.731040
O O5 0.839217 0.973703 0.463558
O O6 0.897016 0.992954 0.713296
O O7 0.000000 0.000000 0.487013
O O8 0.748371 0.555691 0.230581
O O9 0.718220 0.406604 0.302652
O O10 0.675836 0.680172 0.329628
O O11 0.830800 0.682227 0.274131
O O12 0.717643 0.669601 0.048390
O O13 0.750000 0.750000 0.808094
#
# Coordination Sequence:
#
# PCOD9355485 Si02
#       6
#     8   8   8   8   8   8
#     4  11  25  38  60  93 129 167 212 260 324 388
#     4  11  22  32  54  87 127 163 198 254 318 398
#     4  11  22  37  57  88 125 164 211 256 325 382
#     4  11  22  42  61  91 130 170 211 262 322 381
#     4  11  24  41  66  92 126 167 218 265 325 390
#     4  11  23  38  63  90 130 169 210 261 319 385
#
# _framework density 18.998079000000001
#
# number of rings (size 3 to 8) (size 9 to 14) (size 15 to 20)
#    0.000    1.000    5.000    2.500    7.000    0.000 
#    0.000    0.000    0.000    1.000    0.000    0.000 
#    0.000    0.000    0.000    0.000    0.000    0.000 
#
# Total GULP energy -133688.112652 kJ/mol
# GULP energy per Si atom -5570.338027 kJ/mol
# Density = 1.895484 g / cm^3
# Si number density = 18.998079 Si / 1000 Ang^3
#
#
#
# Elastic Constant Matrix: (Units=GPa)
#
#
# Indices 1 2 3 4 5 6 
#
# 1 116.3883 71.4017 45.1730 0.0000 0.0000 0.0000
# 2 71.4017 139.7671 28.9825 0.0000 0.0000 0.0000
# 3 45.1730 28.9825 76.5607 0.0000 0.0000 0.0000
# 4 0.0000 0.0000 0.0000 22.4474 0.0000 0.0000
# 5 0.0000 0.0000 0.0000 0.0000 22.0878 0.0000
# 6 0.0000 0.0000 0.0000 0.0000 0.0000 18.7804
#
#
#
# Elastic Compliance Matrix: (Units=1/GPa)
#
#
# Indices 1 2 3 4 5 6 
#
# 1 0.014961 -0.006308 -0.006440 0.000000 0.000000 0.000000
# 2 -0.006308 0.010424 -0.000224 0.000000 0.000000 0.000000
# 3 -0.006440 -0.000224 0.016946 0.000000 0.000000 0.000000
# 4 0.000000 0.000000 0.000000 0.044549 0.000000 0.000000
# 5 0.000000 0.000000 0.000000 0.000000 0.045274 0.000000
# 6 0.000000 0.000000 0.000000 0.000000 0.000000 0.053247
#
#
# Mechanical properties :
#
#
# Convention : Reuss Voigt Hill
#
# Bulk Modulus (GPa) = 61.02183 69.31450 65.16816
# Shear Modulus (GPa) = 23.06220 25.14039 24.10129
#
# Velocity S-wave (km/s) = 3.48792 3.64168 3.56563
# Velocity P-wave (km/s) = 6.95777 7.36523 7.16440
#
# Compressibility (1/GPa) = 0.01638758
#
# Stress axis : x y z
#
# Youngs Moduli (GPa) = 66.84121 95.93637 59.01122
#
# Poissons Ratio (x) = 0.60513 0.38000
# Poissons Ratio (y) = 0.42161 0.01323
# Poissons Ratio (z) = 0.43043 0.02151
#
# Static dielectric constant tensor:
#      x y z
#    x 1.627980 0.000000 0.000000 
#    y 0.000000 1.692820 0.000000 
#    z 0.000000 0.000000 1.765320 
# 
# From -- ./inp_files/3473.got.cif
#   From: 2010.05.17/outbox.cif.g08.bks.cpg/sg37_2_cif.got.tgz:3473.got - 2010.06.03 17:53:42.
