data_PCOD9355949
_publ_section_title
;
Structure prediction by ZEFSAII (Michael W. Deem and Ramdas Pophale) SiO2 
 PCOD9355949
Probable space group: A M M 2
;
_chemical_formula_sum "Si O2"
_cell_formula_units_Z 52
_cell_length_a 7.817281
_cell_length_b 13.006908
_cell_length_c 33.876268
_cell_angle_alpha 90.000000
_cell_angle_beta 90.000000
_cell_angle_gamma 90.000000
_cell_volume 3444.493359
_symmetry_space_group_name_H-M "A M M 2"
_symmetry_group_IT_number 38
_symmetry_cell_setting 'orthorhombic'
loop_
_space_group_symop_operation_xyz
x,y,z
-x,-y,z
-x,y,z
x,-y,z
x,1/2+y,1/2+z
-x,1/2-y,1/2+z
-x,1/2+y,1/2+z
x,1/2-y,1/2+z
loop_
_atom_site_type_symbol
_atom_site_label
_atom_site_fract_x
_atom_site_fract_y
_atom_site_fract_z
Si Si1 0.192481 0.758034 0.866360
Si Si2 0.500000 0.124246 0.559096
Si Si3 0.199344 0.121054 0.946703
Si Si4 0.500000 0.759793 0.476432
Si Si5 0.197054 0.125278 0.618114
Si Si6 0.702535 0.380896 0.290559
Si Si7 0.500000 0.877931 0.393882
Si Si8 0.206342 0.117854 0.704742
O O1 0.219739 0.841509 0.901339
O O2 0.212943 0.814211 0.824638
O O3 0.334167 0.671466 0.873108
O O4 0.000000 0.717579 0.870688
O O5 0.500000 0.179142 0.517135
O O6 0.332510 0.153000 0.584716
O O7 0.500000 0.000000 0.554377
O O8 0.332674 0.188192 0.971503
O O9 0.000000 0.138730 0.957453
O O10 0.235089 0.000000 0.949744
O O11 0.500000 0.837276 0.439069
O O12 0.253066 0.162311 0.661918
O O13 0.000000 0.156624 0.610516
O O14 0.195701 0.000000 0.620352
O O15 0.500000 0.382140 0.297892
O O16 0.764879 0.500000 0.291763
O O17 0.734464 0.337971 0.246465
O O18 0.500000 0.000000 0.392408
O O19 0.000000 0.115168 0.705033
O O20 0.271542 0.000000 0.705145
#
# Coordination Sequence:
#
# PCOD9355949 Si02
#       8
#     8   4   8   4   8   8   4   8
#     4  10  19  32  49  69  92 122 157 188 221 263
#     4  10  19  29  44  63  86 119 155 189 226 262
#     4   9  18  32  50  70  93 121 148 178 220 269
#     4  10  20  32  48  70  90 116 148 188 228 272
#     4   8  15  27  41  58  83 118 156 187 217 258
#     4  10  18  25  39  67 100 129 154 182 218 262
#     4  10  21  37  50  63  88 117 153 199 236 268
#     4   8  14  24  37  56  86 123 155 180 212 258
#
# _framework density 15.096560999999999
#
# number of rings (size 3 to 8) (size 9 to 14) (size 15 to 20)
#    0.000    2.769    0.769    2.308    1.077    2.462 
#    0.000    0.000    0.000    2.769    0.000    0.000 
#    0.000    4.923    0.000    8.615    0.000    0.615 
#
# Total GULP energy -144800.109625 kJ/mol
# GULP energy per Si atom -5569.234986 kJ/mol
# Density = 1.506220 g / cm^3
# Si number density = 15.096561 Si / 1000 Ang^3
#
#
#
# Elastic Constant Matrix: (Units=GPa)
#
#
# Indices 1 2 3 4 5 6 
#
# 1 88.6081 44.0254 58.0115 0.0000 0.0000 0.0000
# 2 44.0254 67.2251 39.3707 0.0000 0.0000 0.0000
# 3 58.0115 39.3707 118.3928 0.0000 0.0000 0.0000
# 4 0.0000 0.0000 0.0000 19.9734 0.0000 0.0000
# 5 0.0000 0.0000 0.0000 0.0000 22.7606 0.0000
# 6 0.0000 0.0000 0.0000 0.0000 0.0000 8.3663
#
#
#
# Elastic Compliance Matrix: (Units=1/GPa)
#
#
# Indices 1 2 3 4 5 6 
#
# 1 0.020458 -0.009347 -0.006916 0.000000 0.000000 0.000000
# 2 -0.009347 0.022744 -0.002983 0.000000 0.000000 0.000000
# 3 -0.006916 -0.002983 0.012827 0.000000 0.000000 0.000000
# 4 0.000000 0.000000 0.000000 0.050067 0.000000 0.000000
# 5 0.000000 0.000000 0.000000 0.000000 0.043936 0.000000
# 6 0.000000 0.000000 0.000000 0.000000 0.000000 0.119527
#
#
# Mechanical properties :
#
#
# Convention : Reuss Voigt Hill
#
# Bulk Modulus (GPa) = 57.02469 61.89345 59.45907
# Shear Modulus (GPa) = 15.92885 19.07463 17.50174
#
# Velocity S-wave (km/s) = 3.25180 3.55844 3.40857
# Velocity P-wave (km/s) = 7.20793 7.61385 7.41367
#
# Compressibility (1/GPa) = 0.01753626
#
# Stress axis : x y z
#
# Youngs Moduli (GPa) = 48.88164 43.96743 77.95979
#
# Poissons Ratio (x) = 0.41098 0.53914
# Poissons Ratio (y) = 0.45692 0.23257
# Poissons Ratio (z) = 0.33805 0.13117
#
# Static dielectric constant tensor:
#      x y z
#    x 1.528540 0.000000 0.000000 
#    y 0.000000 1.460800 0.000000 
#    z 0.000000 0.000000 1.510850 
# 
# From -- ./inp_files/23451.got.cif
#   From: 2010.05.17/outbox.cif.g08.bks.cpg/sg38_12_cif.got.tgz:23451.got - 2010.06.03 18:07:57.
