data_PCOD9355150
_publ_section_title
;
Structure prediction by ZEFSAII (Michael W. Deem and Ramdas Pophale) SiO2 
 PCOD9355150
Probable space group: C C C 2
;
_chemical_formula_sum "Si O2"
_cell_formula_units_Z 48
_cell_length_a 15.661183
_cell_length_b 11.360524
_cell_length_c 12.279120
_cell_angle_alpha 90.000000
_cell_angle_beta 90.000000
_cell_angle_gamma 90.000000
_cell_volume 2184.691764
_symmetry_space_group_name_H-M "C C C 2"
_symmetry_group_IT_number 37
_symmetry_cell_setting 'orthorhombic'
loop_
_space_group_symop_operation_xyz
x,y,z
-x,-y,z
-x,y,1/2+z
x,-y,1/2+z
1/2+x,1/2+y,z
1/2-x,1/2-y,z
1/2-x,1/2+y,1/2+z
1/2+x,1/2-y,1/2+z
loop_
_atom_site_type_symbol
_atom_site_label
_atom_site_fract_x
_atom_site_fract_y
_atom_site_fract_z
Si Si1 0.613757 0.765132 0.163870
Si Si2 0.841822 0.053240 0.793926
Si Si3 0.658176 0.946760 0.343798
Si Si4 0.079283 0.322168 0.925247
Si Si5 0.613757 0.265133 0.973853
Si Si6 0.579283 0.677832 0.712476
O O1 0.672865 0.661784 0.210950
O O2 0.622189 0.883248 0.235635
O O3 0.519012 0.712743 0.188056
O O4 0.626068 0.789572 0.037335
O O5 0.749999 0.997876 0.818861
O O6 0.877809 0.116750 0.902090
O O7 0.903558 0.957079 0.742507
O O8 0.672865 0.838216 0.426774
O O9 0.596441 0.042921 0.395218
O O10 0.106518 0.250001 0.818861
O O11 0.980987 0.287256 0.949666
O O12 0.626069 0.289572 0.100389
#
# Coordination Sequence:
#
# PCOD9355150 Si02
#       6
#     8   8   8   8   8   8
#     4  10  23  44  71  96 133 178 229 277 331 398
#     4  11  24  46  68  98 138 176 218 279 344 401
#     4  11  24  46  68  98 138 176 218 279 344 401
#     4  11  24  42  69 102 130 174 232 277 329 402
#     4  10  23  44  71  96 133 178 229 277 331 398
#     4  11  24  42  69 102 130 174 232 277 329 402
#
# _framework density 21.971063000000001
#
# number of rings (size 3 to 8) (size 9 to 14) (size 15 to 20)
#    0.000    1.333    3.333    3.000    4.667    2.000 
#    6.000    0.000    0.000    0.000    0.000    0.000 
#    0.000    0.000    0.000    0.000    0.000    0.000 
#
# Total GULP energy -134145.829550 kJ/mol
# GULP energy per Si atom -5589.409565 kJ/mol
# Density = 2.192106 g / cm^3
# Si number density = 21.971063 Si / 1000 Ang^3
#
#
#
# Elastic Constant Matrix: (Units=GPa)
#
#
# Indices 1 2 3 4 5 6 
#
# 1 72.5788 24.6653 17.8232 0.0000 0.0000 0.0000
# 2 24.6653 117.0699 76.0667 0.0000 0.0000 0.0000
# 3 17.8232 76.0667 211.5485 0.0000 0.0000 0.0000
# 4 0.0000 0.0000 0.0000 11.6153 0.0000 0.0000
# 5 0.0000 0.0000 0.0000 0.0000 5.5819 0.0000
# 6 0.0000 0.0000 0.0000 0.0000 0.0000 30.6453
#
#
#
# Elastic Compliance Matrix: (Units=1/GPa)
#
#
# Indices 1 2 3 4 5 6 
#
# 1 0.014845 -0.003021 -0.000165 0.000000 0.000000 0.000000
# 2 -0.003021 0.011761 -0.003974 0.000000 0.000000 0.000000
# 3 -0.000165 -0.003974 0.006170 0.000000 0.000000 0.000000
# 4 0.000000 0.000000 0.000000 0.086094 0.000000 0.000000
# 5 0.000000 0.000000 0.000000 0.000000 0.179151 0.000000
# 6 0.000000 0.000000 0.000000 0.000000 0.000000 0.032631
#
#
# Mechanical properties :
#
#
# Convention : Reuss Voigt Hill
#
# Bulk Modulus (GPa) = 54.18142 70.92306 62.55224
# Shear Modulus (GPa) = 14.24002 28.41129 21.32565
#
# Velocity S-wave (km/s) = 2.54859 3.59990 3.11886
# Velocity P-wave (km/s) = 5.77705 7.04481 6.44219
#
# Compressibility (1/GPa) = 0.01845651
#
# Stress axis : x y z
#
# Youngs Moduli (GPa) = 67.36219 85.02924 162.07598
#
# Poissons Ratio (x) = 0.25686 0.02667
# Poissons Ratio (y) = 0.20349 0.64414
# Poissons Ratio (z) = 0.01108 0.33793
#
# Static dielectric constant tensor:
#      x y z
#    x 1.873350 0.000000 0.000000 
#    y 0.000000 1.788920 0.000000 
#    z 0.000000 0.000000 1.783190 
# 
# From -- ./inp_files/8247.got.cif
#   From: 2010.05.17/outbox.cif.g08.bks.cpg/sg37_5_cif.got.tgz:8247.got - 2010.06.03 17:53:42.
