data_PCOD9355214
_publ_section_title
;
Structure prediction by ZEFSAII (Michael W. Deem and Ramdas Pophale) SiO2 
 PCOD9355214
Probable space group: C C C 2
;
_chemical_formula_sum "Si O2"
_cell_formula_units_Z 40
_cell_length_a 18.432087
_cell_length_b 8.548688
_cell_length_c 12.149999
_cell_angle_alpha 90.000000
_cell_angle_beta 90.000000
_cell_angle_gamma 90.000000
_cell_volume 1914.477298
_symmetry_space_group_name_H-M "C C C 2"
_symmetry_group_IT_number 37
_symmetry_cell_setting 'orthorhombic'
loop_
_space_group_symop_operation_xyz
x,y,z
-x,-y,z
-x,y,1/2+z
x,-y,1/2+z
1/2+x,1/2+y,z
1/2-x,1/2-y,z
1/2-x,1/2+y,1/2+z
1/2+x,1/2-y,1/2+z
loop_
_atom_site_type_symbol
_atom_site_label
_atom_site_fract_x
_atom_site_fract_y
_atom_site_fract_z
Si Si1 0.330712 0.774960 0.171980
Si Si2 0.618326 0.752541 0.903728
Si Si3 0.919884 0.573082 0.111663
Si Si4 0.083225 0.939996 0.006510
Si Si5 0.470438 0.676368 0.787968
O O1 0.250000 0.750000 0.126087
O O2 0.328755 0.741737 0.301672
O O3 0.384531 0.658557 0.105928
O O4 0.365811 0.946541 0.163084
O O5 0.540691 0.759311 0.840260
O O6 0.614927 0.886126 0.994114
O O7 0.625748 0.596320 0.976337
O O8 0.935298 0.724393 0.189742
O O9 0.000000 0.500000 0.095604
O O10 0.082296 0.841676 0.892946
O O11 0.000000 0.000000 0.022021
O O12 0.500000 0.500000 0.761896
#
# Coordination Sequence:
#
# PCOD9355214 Si02
#       5
#     8   8   8   8   8
#     4  12  28  45  66 104 151 180 227 295 359 421
#     4  10  24  40  68  97 136 177 235 289 350 407
#     4  12  24  39  74 104 141 178 242 291 350 409
#     4   9  22  43  73  96 133 183 240 282 345 417
#     4   9  21  39  71 108 135 176 237 297 342 408
#
# _framework density 20.893433000000002
#
# number of rings (size 3 to 8) (size 9 to 14) (size 15 to 20)
#    0.000    2.000    2.000    2.400   11.200    3.200 
#    0.000    0.000    0.000    0.000    0.000    0.000 
#    0.000    0.000    0.000    0.000    0.000    0.000 
#
# Total GULP energy -111595.199425 kJ/mol
# GULP energy per Si atom -5579.759971 kJ/mol
# Density = 2.084588 g / cm^3
# Si number density = 20.893433 Si / 1000 Ang^3
#
#
#
# Elastic Constant Matrix: (Units=GPa)
#
#
# Indices 1 2 3 4 5 6 
#
# 1 63.0691 42.3935 20.0177 0.0000 0.0000 0.0000
# 2 42.3935 97.1011 66.5188 0.0000 0.0000 0.0000
# 3 20.0177 66.5188 143.7067 0.0000 0.0000 0.0000
# 4 0.0000 0.0000 0.0000 29.3617 0.0000 0.0000
# 5 0.0000 0.0000 0.0000 0.0000 9.1040 0.0000
# 6 0.0000 0.0000 0.0000 0.0000 0.0000 8.0532
#
#
#
# Elastic Compliance Matrix: (Units=1/GPa)
#
#
# Indices 1 2 3 4 5 6 
#
# 1 0.022867 -0.011424 0.002103 0.000000 0.000000 0.000000
# 2 -0.011424 0.020788 -0.008031 0.000000 0.000000 0.000000
# 3 0.002103 -0.008031 0.010383 0.000000 0.000000 0.000000
# 4 0.000000 0.000000 0.000000 0.034058 0.000000 0.000000
# 5 0.000000 0.000000 0.000000 0.000000 0.109842 0.000000
# 6 0.000000 0.000000 0.000000 0.000000 0.000000 0.124175
#
#
# Mechanical properties :
#
#
# Convention : Reuss Voigt Hill
#
# Bulk Modulus (GPa) = 51.72384 62.41521 57.06952
# Shear Modulus (GPa) = 13.76420 20.96690 17.36555
#
# Velocity S-wave (km/s) = 2.56946 3.17127 2.88609
# Velocity P-wave (km/s) = 5.79764 6.58386 6.20322
#
# Compressibility (1/GPa) = 0.01933344
#
# Stress axis : x y z
#
# Youngs Moduli (GPa) = 43.73073 48.10539 96.31077
#
# Poissons Ratio (x) = 0.54956 -0.20251
# Poissons Ratio (y) = 0.49958 0.77346
# Poissons Ratio (z) = -0.09195 0.38633
#
# Static dielectric constant tensor:
#      x y z
#    x 1.776290 0.000000 0.000000 
#    y 0.000000 1.786080 0.000000 
#    z 0.000000 0.000000 1.806610 
# 
# From -- ./inp_files/6266.got.cif
#   From: 2010.05.17/outbox.cif.g08.bks.cpg/sg37_4_cif.got.tgz:6266.got - 2010.06.03 17:53:42.
