data_PCOD9355806
_publ_section_title
;
Structure prediction by ZEFSAII (Michael W. Deem and Ramdas Pophale) SiO2 
 PCOD9355806
Probable space group: A M M 2
;
_chemical_formula_sum "Si O2"
_cell_formula_units_Z 64
_cell_length_a 7.576680
_cell_length_b 31.670342
_cell_length_c 15.087244
_cell_angle_alpha 90.000000
_cell_angle_beta 90.000000
_cell_angle_gamma 90.000000
_cell_volume 3620.275428
_symmetry_space_group_name_H-M "A M M 2"
_symmetry_group_IT_number 38
_symmetry_cell_setting 'orthorhombic'
loop_
_space_group_symop_operation_xyz
x,y,z
-x,-y,z
-x,y,z
x,-y,z
x,1/2+y,1/2+z
-x,1/2-y,1/2+z
-x,1/2+y,1/2+z
x,1/2-y,1/2+z
loop_
_atom_site_type_symbol
_atom_site_label
_atom_site_fract_x
_atom_site_fract_y
_atom_site_fract_z
Si Si1 0.716093 0.368632 0.443350
Si Si2 0.700674 0.680152 0.273103
Si Si3 0.715457 0.047452 0.861484
Si Si4 0.283888 0.225315 0.266226
Si Si5 0.287833 0.790065 0.465318
Si Si6 0.287342 0.452261 0.156982
Si Si7 0.715861 0.294910 0.571662
Si Si8 0.201860 0.363409 0.098590
O O1 0.500000 0.369768 0.445991
O O2 0.778415 0.346283 0.352808
O O3 0.773311 0.416922 0.430528
O O4 0.771968 0.337348 0.521179
O O5 0.500000 0.688578 0.302659
O O6 0.777239 0.726152 0.258812
O O7 0.694377 0.654293 0.182971
O O8 0.500000 0.047784 0.859899
O O9 0.769127 0.056573 0.759186
O O10 0.771987 0.000000 0.882958
O O11 0.500000 0.223447 0.265323
O O12 0.226565 0.209739 0.363180
O O13 0.227309 0.204485 0.174028
O O14 0.500000 0.786920 0.463825
O O15 0.227220 0.748051 0.519605
O O16 0.242919 0.833335 0.515927
O O17 0.500000 0.452773 0.157256
O O18 0.228012 0.500000 0.134132
O O19 0.232095 0.413608 0.094406
O O20 0.500000 0.293652 0.570122
O O21 0.000000 0.356444 0.122056
#
# Coordination Sequence:
#
# PCOD9355806 Si02
#       8
#     8   8   8   8   8   8   8   8
#     4   9  14  21  39  66  91 115 147 188 232 270
#     4  10  16  27  47  66  88 120 157 194 226 265
#     4   8  13  21  37  63  91 117 146 179 217 266
#     4   9  16  26  44  68  87 110 153 202 238 267
#     4  10  18  30  48  65  85 116 156 197 234 276
#     4   9  17  31  51  70  88 116 155 194 230 272
#     4   9  15  23  41  68  89 109 150 200 238 271
#     4  12  23  31  42  66  98 129 155 183 228 278
#
# _framework density 17.678213
#
# number of rings (size 3 to 8) (size 9 to 14) (size 15 to 20)
#    0.000    2.500    3.750    1.875    0.000    0.250 
#    0.000    0.625    0.000    0.000    0.000    0.875 
#    0.000    5.000    0.000    0.000    0.000    0.000 
#
# Total GULP energy -178295.272149 kJ/mol
# GULP energy per Si atom -5571.727255 kJ/mol
# Density = 1.763798 g / cm^3
# Si number density = 17.678213 Si / 1000 Ang^3
#
#
#
# Elastic Constant Matrix: (Units=GPa)
#
#
# Indices 1 2 3 4 5 6 
#
# 1 40.3635 0.8720 1.4015 0.0000 0.0000 0.0000
# 2 0.8720 151.6192 77.2062 0.0000 0.0000 0.0000
# 3 1.4015 77.2062 117.9715 0.0000 0.0000 0.0000
# 4 0.0000 0.0000 0.0000 24.4995 0.0000 0.0000
# 5 0.0000 0.0000 0.0000 0.0000 -39.7170 0.0000
# 6 0.0000 0.0000 0.0000 0.0000 0.0000 7.2080
#
#
#
# Elastic Compliance Matrix: (Units=1/GPa)
#
#
# Indices 1 2 3 4 5 6 
#
# 1 0.024785 0.000011 -0.000302 0.000000 0.000000 0.000000
# 2 0.000011 0.009892 -0.006474 0.000000 0.000000 0.000000
# 3 -0.000302 -0.006474 0.012717 0.000000 0.000000 0.000000
# 4 0.000000 0.000000 0.000000 0.040817 0.000000 0.000000
# 5 0.000000 0.000000 0.000000 0.000000 -0.025178 0.000000
# 6 0.000000 0.000000 0.000000 0.000000 0.000000 0.138735
#
#
# Mechanical properties :
#
#
# Convention : Reuss Voigt Hill
#
# Bulk Modulus (GPa) = 29.52894 52.10151 40.81523
# Shear Modulus (GPa) = 22.06670 13.76307 17.91488
#
# Velocity S-wave (km/s) = 3.53688 2.79325 3.18683
# Velocity P-wave (km/s) = 5.78094 6.31974 6.05633
#
# Compressibility (1/GPa) = 0.03386508
#
# Stress axis : x y z
#
# Youngs Moduli (GPa) = 40.34681 101.09170 78.63455
#
# Poissons Ratio (x) = -0.00112 0.02372
# Poissons Ratio (y) = -0.00045 0.50907
# Poissons Ratio (z) = 0.01217 0.65446
#
# Static dielectric constant tensor:
#      x y z
#    x 1.661910 0.000000 0.000000 
#    y 0.000000 1.626220 0.000000 
#    z 0.000000 0.000000 1.593160 
# 
# From -- ./inp_files/13131.got.cif
#   From: 2010.05.17/outbox.cif.g08.bks.cpg/sg38_7_cif.got.tgz:13131.got - 2010.06.03 18:07:57.
