data_PCOD9355799
_publ_section_title
;
Structure prediction by ZEFSAII (Michael W. Deem and Ramdas Pophale) SiO2 
 PCOD9355799
Probable space group: A M M 2
;
_chemical_formula_sum "Si O2"
_cell_formula_units_Z 36
_cell_length_a 19.026612
_cell_length_b 16.426353
_cell_length_c 5.417303
_cell_angle_alpha 90.000000
_cell_angle_beta 90.000000
_cell_angle_gamma 90.000000
_cell_volume 1693.112206
_symmetry_space_group_name_H-M "A M M 2"
_symmetry_group_IT_number 38
_symmetry_cell_setting 'orthorhombic'
loop_
_space_group_symop_operation_xyz
x,y,z
-x,-y,z
-x,y,z
x,-y,z
x,1/2+y,1/2+z
-x,1/2-y,1/2+z
-x,1/2+y,1/2+z
x,1/2-y,1/2+z
loop_
_atom_site_type_symbol
_atom_site_label
_atom_site_fract_x
_atom_site_fract_y
_atom_site_fract_z
Si Si1 0.500000 0.802191 0.052570
Si Si2 0.580171 0.592189 0.872294
Si Si3 0.299763 0.197363 0.590895
Si Si4 0.858002 0.652710 0.062853
Si Si5 0.083539 0.660681 0.562841
O O1 0.500000 0.740365 0.289421
O O2 0.432915 0.858771 0.116105
O O3 0.500000 0.590345 0.976167
O O4 0.602329 0.500000 0.828268
O O5 0.634047 0.639584 0.042026
O O6 0.300803 0.241034 0.856314
O O7 0.225756 0.150512 0.571928
O O8 0.888675 0.618493 0.809622
O O9 0.881430 0.748800 0.059835
O O10 0.892039 0.618785 0.311273
O O11 0.000000 0.670832 0.570012
#
# Coordination Sequence:
#
# PCOD9355799 Si02
#       5
#     4   8   8   8   8
#     4  10  19  38  61  88 108 138 188 228 273 326
#     4   9  22  42  60  85 117 149 191 237 284 336
#     4  12  21  36  58  81 115 150 187 237 281 332
#     4  10  16  27  40  72 104 140 175 221 270 327
#     4  10  16  26  43  67 109 146 170 216 285 329
#
# _framework density 21.262618
#
# number of rings (size 3 to 8) (size 9 to 14) (size 15 to 20)
#    0.667    1.111    4.444    4.667    0.000    0.000 
#    0.000    5.556    0.000    0.000    0.000    0.000 
#    0.000    9.778    0.000    0.000    0.000    0.000 
#
# Total GULP energy -100425.139678 kJ/mol
# GULP energy per Si atom -5579.174427 kJ/mol
# Density = 2.121422 g / cm^3
# Si number density = 21.262618 Si / 1000 Ang^3
#
#
#
# Elastic Constant Matrix: (Units=GPa)
#
#
# Indices 1 2 3 4 5 6 
#
# 1 138.6878 4.8446 24.0486 0.0000 0.0000 0.0000
# 2 4.8446 38.1054 22.7116 0.0000 0.0000 0.0000
# 3 24.0486 22.7116 164.2914 0.0000 0.0000 0.0000
# 4 0.0000 0.0000 0.0000 -0.8716 0.0000 0.0000
# 5 0.0000 0.0000 0.0000 0.0000 30.6207 0.0000
# 6 0.0000 0.0000 0.0000 0.0000 0.0000 0.4069
#
#
#
# Elastic Compliance Matrix: (Units=1/GPa)
#
#
# Indices 1 2 3 4 5 6 
#
# 1 0.007402 -0.000322 -0.001039 0.000000 0.000000 0.000000
# 2 -0.000322 0.028613 -0.003908 0.000000 0.000000 0.000000
# 3 -0.001039 -0.003908 0.006779 0.000000 0.000000 0.000000
# 4 0.000000 0.000000 0.000000 -1.147251 0.000000 0.000000
# 5 0.000000 0.000000 0.000000 0.000000 0.032658 0.000000
# 6 0.000000 0.000000 0.000000 0.000000 0.000000 2.457727
#
#
# Mechanical properties :
#
#
# Convention : Reuss Voigt Hill
#
# Bulk Modulus (GPa) = 31.00197 49.36603 40.18400
# Shear Modulus (GPa) = 3.55311 25.32983 14.44147
#
# Velocity S-wave (km/s) = 1.29410 3.45524 2.60896
# Velocity P-wave (km/s) = 4.10427 6.25987 5.29297
#
# Compressibility (1/GPa) = 0.03225602
#
# Stress axis : x y z
#
# Youngs Moduli (GPa) = 135.10149 34.94862 147.51154
#
# Poissons Ratio (x) = 0.01125 0.15326
# Poissons Ratio (y) = 0.04348 0.57654
# Poissons Ratio (z) = 0.14037 0.13659
#
# Static dielectric constant tensor:
#      x y z
#    x 1.756830 0.000000 0.000000 
#    y 0.000000 1.776460 0.000000 
#    z 0.000000 0.000000 1.885140 
# 
# From -- ./inp_files/1838.got.cif
#   From: 2010.05.17/outbox.cif.g08.bks.cpg/sg38_1_cif.got.tgz:1838.got - 2010.06.03 18:07:57.
