data_PCOD9355497
_publ_section_title
;
Structure prediction by ZEFSAII (Michael W. Deem and Ramdas Pophale) SiO2 
 PCOD9355497
Probable space group: C C C 2
;
_chemical_formula_sum "Si O2"
_cell_formula_units_Z 64
_cell_length_a 27.390638
_cell_length_b 11.622336
_cell_length_c 9.161880
_cell_angle_alpha 90.000000
_cell_angle_beta 90.000000
_cell_angle_gamma 90.000000
_cell_volume 2916.622180
_symmetry_space_group_name_H-M "C C C 2"
_symmetry_group_IT_number 37
_symmetry_cell_setting 'orthorhombic'
loop_
_space_group_symop_operation_xyz
x,y,z
-x,-y,z
-x,y,1/2+z
x,-y,1/2+z
1/2+x,1/2+y,z
1/2-x,1/2-y,z
1/2-x,1/2+y,1/2+z
1/2+x,1/2-y,1/2+z
loop_
_atom_site_type_symbol
_atom_site_label
_atom_site_fract_x
_atom_site_fract_y
_atom_site_fract_z
Si Si1 0.843567 0.924133 0.404610
Si Si2 0.112911 0.347741 0.793809
Si Si3 0.250868 0.117468 0.584603
Si Si4 0.946564 0.913641 0.508553
Si Si5 0.806320 0.750461 0.170562
Si Si6 0.465652 0.649253 0.339262
Si Si7 0.350506 0.017435 0.075415
Si Si8 0.186811 0.840898 0.341017
O O1 0.795291 0.936771 0.502570
O O2 0.889794 0.884393 0.495776
O O3 0.834682 0.836704 0.274345
O O4 0.849520 0.051194 0.339472
O O5 0.068177 0.262968 0.835072
O O6 0.111444 0.434451 0.657810
O O7 0.159258 0.264075 0.763441
O O8 0.126865 0.426351 0.931838
O O9 0.250000 0.250000 0.539766
O O10 0.235394 0.120133 0.755836
O O11 0.300682 0.054009 0.548206
O O12 0.963913 0.897409 0.673895
O O13 0.979137 0.835629 0.399098
O O14 0.950155 0.045308 0.449236
O O15 0.750000 0.750000 0.216275
O O16 0.831352 0.625851 0.170965
O O17 0.805948 0.798107 0.005195
#
# Coordination Sequence:
#
# PCOD9355497 Si02
#       8
#     8   8   8   8   8   8   8   8
#     4  12  25  39  67 104 139 181 240 302 375 436
#     4  11  25  47  71 101 148 201 249 307 365 445
#     4  12  25  39  64  99 143 197 248 296 354 440
#     4  11  25  43  79 110 144 181 232 313 391 458
#     4  11  25  41  62  97 140 197 249 303 351 436
#     4  11  24  48  75 114 148 181 238 311 396 450
#     4  11  27  43  67  99 149 203 254 291 366 440
#     4  11  22  41  64  93 144 188 242 304 367 422
#
# _framework density 21.943192
#
# number of rings (size 3 to 8) (size 9 to 14) (size 15 to 20)
#    0.000    0.750    2.500    5.250    8.750    2.000 
#    0.000    0.000    0.000    6.000    0.000    0.000 
#    0.000    0.000    0.000    0.000    0.000    0.000 
#
# Total GULP energy -178982.671514 kJ/mol
# GULP energy per Si atom -5593.208485 kJ/mol
# Density = 2.189325 g / cm^3
# Si number density = 21.943192 Si / 1000 Ang^3
#
#
#
# Elastic Constant Matrix: (Units=GPa)
#
#
# Indices 1 2 3 4 5 6 
#
# 1 90.2794 48.3098 39.1358 0.0000 0.0000 0.0000
# 2 48.3098 134.8373 52.2621 0.0000 0.0000 0.0000
# 3 39.1358 52.2621 130.7300 0.0000 0.0000 0.0000
# 4 0.0000 0.0000 0.0000 34.5904 0.0000 0.0000
# 5 0.0000 0.0000 0.0000 0.0000 22.1673 0.0000
# 6 0.0000 0.0000 0.0000 0.0000 0.0000 41.0698
#
#
#
# Elastic Compliance Matrix: (Units=1/GPa)
#
#
# Indices 1 2 3 4 5 6 
#
# 1 0.014451 -0.004143 -0.002670 0.000000 0.000000 0.000000
# 2 -0.004143 0.009964 -0.002743 0.000000 0.000000 0.000000
# 3 -0.002670 -0.002743 0.009545 0.000000 0.000000 0.000000
# 4 0.000000 0.000000 0.000000 0.028910 0.000000 0.000000
# 5 0.000000 0.000000 0.000000 0.000000 0.045112 0.000000
# 6 0.000000 0.000000 0.000000 0.000000 0.000000 0.024349
#
#
# Mechanical properties :
#
#
# Convention : Reuss Voigt Hill
#
# Bulk Modulus (GPa) = 67.34652 70.58467 68.96559
# Shear Modulus (GPa) = 31.97117 33.97478 32.97298
#
# Velocity S-wave (km/s) = 3.82120 3.93912 3.88061
# Velocity P-wave (km/s) = 7.08708 7.27501 7.18166
#
# Compressibility (1/GPa) = 0.01484858
#
# Stress axis : x y z
#
# Youngs Moduli (GPa) = 69.19973 100.36354 104.76420
#
# Poissons Ratio (x) = 0.41577 0.27972
# Poissons Ratio (y) = 0.28667 0.28738
# Poissons Ratio (z) = 0.18476 0.27530
#
# Static dielectric constant tensor:
#      x y z
#    x 1.911660 0.000000 0.000000 
#    y 0.000000 1.851280 0.000000 
#    z 0.000000 0.000000 1.830190 
# 
# From -- ./inp_files/5016.got.cif
#   From: 2010.05.17/outbox.cif.g08.bks.cpg/sg37_3_cif.got.tgz:5016.got - 2010.06.03 17:53:42.
