data_PCOD9355076
_publ_section_title
;
Structure prediction by ZEFSAII (Michael W. Deem and Ramdas Pophale) SiO2 
 PCOD9355076
Probable space group: C C C 2
;
_chemical_formula_sum "Si O2"
_cell_formula_units_Z 48
_cell_length_a 8.955838
_cell_length_b 16.654829
_cell_length_c 16.467550
_cell_angle_alpha 90.000000
_cell_angle_beta 90.000000
_cell_angle_gamma 90.000000
_cell_volume 2456.266007
_symmetry_space_group_name_H-M "C C C 2"
_symmetry_group_IT_number 37
_symmetry_cell_setting 'orthorhombic'
loop_
_space_group_symop_operation_xyz
x,y,z
-x,-y,z
-x,y,1/2+z
x,-y,1/2+z
1/2+x,1/2+y,z
1/2-x,1/2-y,z
1/2-x,1/2+y,1/2+z
1/2+x,1/2-y,1/2+z
loop_
_atom_site_type_symbol
_atom_site_label
_atom_site_fract_x
_atom_site_fract_y
_atom_site_fract_z
Si Si1 0.624533 0.684383 0.516670
Si Si2 0.425540 0.767206 0.377462
Si Si3 0.685446 0.337494 0.592019
Si Si4 0.153109 0.954946 0.907265
Si Si5 0.862357 0.182219 0.777868
Si Si6 0.384043 0.068393 0.960559
O O1 0.750000 0.750000 0.539440
O O2 0.522910 0.717400 0.442410
O O3 0.493260 0.661365 0.578463
O O4 0.697194 0.603640 0.481591
O O5 0.250000 0.750000 0.383805
O O6 0.483289 0.731677 0.291255
O O7 0.451487 0.858073 0.408308
O O8 0.750000 0.250000 0.569433
O O9 0.697010 0.341413 0.689212
O O10 0.781561 0.397417 0.534970
O O11 0.135032 0.898527 0.829765
O O12 0.275336 0.022772 0.898557
O O13 0.000000 0.000000 0.926816
O O14 0.750000 0.250000 0.812217
O O15 0.500000 0.000000 0.988291
#
# Coordination Sequence:
#
# PCOD9355076 Si02
#       6
#     8   8   8   8   8   8
#     4  11  20  37  63  88 119 163 215 252 309 387
#     4  11  19  39  66  90 118 162 219 257 298 391
#     4  11  22  42  61  90 129 168 211 271 316 380
#     4  11  21  38  60  91 122 156 203 266 309 379
#     4  10  23  41  61  86 126 166 206 255 322 370
#     4  12  21  36  65  94 121 160 215 260 319 380
#
# _framework density 19.541857
#
# number of rings (size 3 to 8) (size 9 to 14) (size 15 to 20)
#    0.000    1.000    5.000    5.000    0.000    0.667 
#    3.000    4.167    0.000    0.000    0.000    0.000 
#    0.000    0.000    0.000    0.000    0.000    0.000 
#
# Total GULP energy -133666.038827 kJ/mol
# GULP energy per Si atom -5569.418284 kJ/mol
# Density = 1.949738 g / cm^3
# Si number density = 19.541857 Si / 1000 Ang^3
#
#
#
# Elastic Constant Matrix: (Units=GPa)
#
#
# Indices 1 2 3 4 5 6 
#
# 1 86.1985 27.5627 17.5722 0.0000 0.0000 0.0000
# 2 27.5627 113.7576 39.0447 0.0000 0.0000 0.0000
# 3 17.5722 39.0447 55.1813 0.0000 0.0000 0.0000
# 4 0.0000 0.0000 0.0000 5.0843 0.0000 0.0000
# 5 0.0000 0.0000 0.0000 0.0000 5.4841 0.0000
# 6 0.0000 0.0000 0.0000 0.0000 0.0000 50.0818
#
#
#
# Elastic Compliance Matrix: (Units=1/GPa)
#
#
# Indices 1 2 3 4 5 6 
#
# 1 0.012830 -0.002254 -0.002491 0.000000 0.000000 0.000000
# 2 -0.002254 0.012006 -0.007778 0.000000 0.000000 0.000000
# 3 -0.002491 -0.007778 0.024418 0.000000 0.000000 0.000000
# 4 0.000000 0.000000 0.000000 0.196684 0.000000 0.000000
# 5 0.000000 0.000000 0.000000 0.000000 0.182347 0.000000
# 6 0.000000 0.000000 0.000000 0.000000 0.000000 0.019967
#
#
# Mechanical properties :
#
#
# Convention : Reuss Voigt Hill
#
# Bulk Modulus (GPa) = 41.30522 47.05518 44.18020
# Shear Modulus (GPa) = 10.38709 23.52721 16.95715
#
# Velocity S-wave (km/s) = 2.30800 3.47355 2.94893
# Velocity P-wave (km/s) = 5.31838 6.34183 5.85252
#
# Compressibility (1/GPa) = 0.02421001
#
# Stress axis : x y z
#
# Youngs Moduli (GPa) = 77.94521 83.29107 40.95265
#
# Poissons Ratio (x) = 0.18770 0.10201
# Poissons Ratio (y) = 0.17565 0.31851
# Poissons Ratio (z) = 0.19416 0.64780
#
# Static dielectric constant tensor:
#      x y z
#    x 1.793220 0.000000 0.000000 
#    y 0.000000 1.704430 0.000000 
#    z 0.000000 0.000000 1.726150 
# 
# From -- ./inp_files/12553.got.cif
#   From: 2010.05.17/outbox.cif.g08.bks.cpg/sg37_7_cif.got.tgz:12553.got - 2010.06.03 17:53:42.
