data_PCOD9355077
_publ_section_title
;
Structure prediction by ZEFSAII (Michael W. Deem and Ramdas Pophale) SiO2 
 PCOD9355077
Probable space group: C C C 2
;
_chemical_formula_sum "Si O2"
_cell_formula_units_Z 40
_cell_length_a 25.608679
_cell_length_b 5.247976
_cell_length_c 13.084247
_cell_angle_alpha 90.000000
_cell_angle_beta 90.000000
_cell_angle_gamma 90.000000
_cell_volume 1758.440795
_symmetry_space_group_name_H-M "C C C 2"
_symmetry_group_IT_number 37
_symmetry_cell_setting 'orthorhombic'
loop_
_space_group_symop_operation_xyz
x,y,z
-x,-y,z
-x,y,1/2+z
x,-y,1/2+z
1/2+x,1/2+y,z
1/2-x,1/2-y,z
1/2-x,1/2+y,1/2+z
1/2+x,1/2-y,1/2+z
loop_
_atom_site_type_symbol
_atom_site_label
_atom_site_fract_x
_atom_site_fract_y
_atom_site_fract_z
Si Si1 0.940742 0.932117 0.343560
Si Si2 0.440742 0.932117 0.265805
Si Si3 0.164945 0.750000 0.554683
Si Si4 0.750000 0.250000 0.733049
Si Si5 0.094361 0.750000 0.054683
Si Si6 0.750000 0.250000 0.376317
O O1 0.915340 0.711505 0.274362
O O2 0.939740 0.813769 0.455708
O O3 0.000000 0.500000 0.297189
O O4 0.915340 0.211505 0.335003
O O5 0.500000 0.500000 0.312176
O O6 0.439740 0.813769 0.153658
O O7 0.201190 0.732213 0.655234
O O8 0.130279 0.497462 0.542463
O O9 0.201190 0.767787 0.454131
O O10 0.130279 0.002538 0.566902
O O11 0.750000 0.500000 0.804683
#
# Coordination Sequence:
#
# PCOD9355077 Si02
#       6
#     8   8   8   4   8   4
#     4  10  23  41  61  89 125 167 211 252 306 371
#     4  10  23  41  61  89 125 167 211 252 306 371
#     4  11  26  41  62 101 124 157 220 257 310 395
#     4  11  24  45  68  88 128 171 200 257 326 380
#     4  12  24  40  66  95 130 163 208 272 314 362
#     4  11  24  45  68  88 128 171 200 257 326 380
#
# _framework density 22.747426000000001
#
# number of rings (size 3 to 8) (size 9 to 14) (size 15 to 20)
#    0.000    1.200    0.000    4.800    0.000   19.200 
#    0.000    0.000    0.000    0.000    0.000    0.000 
#    0.000    0.000    0.000    0.000    0.000    0.000 
#
# Total GULP energy -111787.343904 kJ/mol
# GULP energy per Si atom -5589.367195 kJ/mol
# Density = 2.269565 g / cm^3
# Si number density = 22.747426 Si / 1000 Ang^3
#
#
#
# Elastic Constant Matrix: (Units=GPa)
#
#
# Indices 1 2 3 4 5 6 
#
# 1 45.8400 41.8768 29.2278 0.0000 0.0000 0.0000
# 2 41.8768 260.9108 85.0730 0.0000 0.0000 0.0000
# 3 29.2278 85.0730 162.2474 0.0000 0.0000 0.0000
# 4 0.0000 0.0000 0.0000 47.9254 0.0000 0.0000
# 5 0.0000 0.0000 0.0000 0.0000 -19.0614 0.0000
# 6 0.0000 0.0000 0.0000 0.0000 0.0000 25.8971
#
#
#
# Elastic Compliance Matrix: (Units=1/GPa)
#
#
# Indices 1 2 3 4 5 6 
#
# 1 0.026798 -0.003290 -0.003103 0.000000 0.000000 0.000000
# 2 -0.003290 0.005027 -0.002043 0.000000 0.000000 0.000000
# 3 -0.003103 -0.002043 0.007794 0.000000 0.000000 0.000000
# 4 0.000000 0.000000 0.000000 0.020866 0.000000 0.000000
# 5 0.000000 0.000000 0.000000 0.000000 -0.052462 0.000000
# 6 0.000000 0.000000 0.000000 0.000000 0.000000 0.038614
#
#
# Mechanical properties :
#
#
# Convention : Reuss Voigt Hill
#
# Bulk Modulus (GPa) = 43.95974 86.81706 65.38840
# Shear Modulus (GPa) = 70.33269 31.80695 51.06982
#
# Velocity S-wave (km/s) = 5.56652 3.74340 4.74337
# Velocity P-wave (km/s) = 7.78986 7.54537 7.66859
#
# Compressibility (1/GPa) = 0.02274809
#
# Stress axis : x y z
#
# Youngs Moduli (GPa) = 37.31561 198.92874 128.30849
#
# Poissons Ratio (x) = 0.65438 0.39811
# Poissons Ratio (y) = 0.12275 0.26216
# Poissons Ratio (z) = 0.11578 0.40646
#
# Static dielectric constant tensor:
#      x y z
#    x 1.850070 0.000000 0.000000 
#    y 0.000000 1.991510 0.000000 
#    z 0.000000 0.000000 1.850950 
# 
# From -- ./inp_files/8999.got.cif
#   From: 2010.05.17/outbox.cif.g08.bks.cpg/sg37_5_cif.got.tgz:8999.got - 2010.06.03 17:53:42.
