data_PCOD9355057
_publ_section_title
;
Structure prediction by ZEFSAII (Michael W. Deem and Ramdas Pophale) SiO2 
 PCOD9355057
Probable space group: C C C 2
;
_chemical_formula_sum "Si O2"
_cell_formula_units_Z 44
_cell_length_a 20.972404
_cell_length_b 9.075580
_cell_length_c 11.168546
_cell_angle_alpha 90.000000
_cell_angle_beta 90.000000
_cell_angle_gamma 90.000000
_cell_volume 2125.784528
_symmetry_space_group_name_H-M "C C C 2"
_symmetry_group_IT_number 37
_symmetry_cell_setting 'orthorhombic'
loop_
_space_group_symop_operation_xyz
x,y,z
-x,-y,z
-x,y,1/2+z
x,-y,1/2+z
1/2+x,1/2+y,z
1/2-x,1/2-y,z
1/2-x,1/2+y,1/2+z
1/2+x,1/2-y,1/2+z
loop_
_atom_site_type_symbol
_atom_site_label
_atom_site_fract_x
_atom_site_fract_y
_atom_site_fract_z
Si Si1 0.250000 0.750000 0.067770
Si Si2 0.116695 0.727522 0.652743
Si Si3 0.626870 0.898371 0.596405
Si Si4 0.650421 0.321880 0.892897
Si Si5 0.436869 0.420018 0.957887
Si Si6 0.515566 0.160861 0.286912
O O1 0.304613 0.834584 0.139022
O O2 0.288305 0.644130 0.975288
O O3 0.130368 0.573785 0.587075
O O4 0.164164 0.762590 0.761214
O O5 0.108529 0.859216 0.560828
O O6 0.047912 0.710120 0.717561
O O7 0.618048 0.810120 0.471669
O O8 0.571003 0.860989 0.688423
O O9 0.603158 0.459484 0.884823
O O10 0.500000 0.500000 0.007809
O O11 0.461220 0.283014 0.879620
O O12 0.500000 0.000000 0.341992
#
# Coordination Sequence:
#
# PCOD9355057 Si02
#       6
#     4   8   8   8   8   8
#     4   8  22  48  70  92 142 176 228 292 326 406
#     4  11  24  40  69  98 137 179 223 284 353 406
#     4   9  22  45  68  97 132 182 231 278 341 412
#     4  10  23  44  65  98 135 178 229 287 331 403
#     4  12  25  38  67 102 142 174 231 279 355 403
#     4  10  23  39  68  99 137 178 222 289 347 417
#
# _framework density 20.698242
#
# number of rings (size 3 to 8) (size 9 to 14) (size 15 to 20)
#    1.091    0.727    1.818    1.091   10.182    0.727 
#    6.545    0.000    0.000    0.000    0.000    0.000 
#    0.000    0.000    0.000    0.000    0.000    0.000 
#
# Total GULP energy -122702.136188 kJ/mol
# GULP energy per Si atom -5577.369827 kJ/mol
# Density = 2.065113 g / cm^3
# Si number density = 20.698242 Si / 1000 Ang^3
#
#
#
# Elastic Constant Matrix: (Units=GPa)
#
#
# Indices 1 2 3 4 5 6 
#
# 1 55.9359 1.7003 -12.9195 0.0000 0.0000 0.0000
# 2 1.7003 109.2365 39.8060 0.0000 0.0000 0.0000
# 3 -12.9195 39.8060 55.2264 0.0000 0.0000 0.0000
# 4 0.0000 0.0000 0.0000 20.4601 0.0000 0.0000
# 5 0.0000 0.0000 0.0000 0.0000 23.4634 0.0000
# 6 0.0000 0.0000 0.0000 0.0000 0.0000 23.7165
#
#
#
# Elastic Compliance Matrix: (Units=1/GPa)
#
#
# Indices 1 2 3 4 5 6 
#
# 1 0.019452 -0.002660 0.006468 0.000000 0.000000 0.000000
# 2 -0.002660 0.012779 -0.009833 0.000000 0.000000 0.000000
# 3 0.006468 -0.009833 0.026708 0.000000 0.000000 0.000000
# 4 0.000000 0.000000 0.000000 0.048876 0.000000 0.000000
# 5 0.000000 0.000000 0.000000 0.000000 0.042620 0.000000
# 6 0.000000 0.000000 0.000000 0.000000 0.000000 0.042165
#
#
# Mechanical properties :
#
#
# Convention : Reuss Voigt Hill
#
# Bulk Modulus (GPa) = 21.32702 30.84140 26.08421
# Shear Modulus (GPa) = 22.69856 26.31549 24.50702
#
# Velocity S-wave (km/s) = 3.31515 3.56952 3.44468
# Velocity P-wave (km/s) = 4.99798 5.64991 5.33391
#
# Compressibility (1/GPa) = 0.04688887
#
# Stress axis : x y z
#
# Youngs Moduli (GPa) = 51.40797 78.25335 37.44243
#
# Poissons Ratio (x) = 0.20812 -0.24216
# Poissons Ratio (y) = 0.13672 0.36817
# Poissons Ratio (z) = -0.33248 0.76946
#
# Static dielectric constant tensor:
#      x y z
#    x 1.765040 0.000000 0.000000 
#    y 0.000000 1.738050 0.000000 
#    z 0.000000 0.000000 1.720020 
# 
# From -- ./inp_files/8811.got.cif
#   From: 2010.05.17/outbox.cif.g08.bks.cpg/sg37_5_cif.got.tgz:8811.got - 2010.06.03 17:53:42.
