data_PCOD9355609
_publ_section_title
;
Structure prediction by ZEFSAII (Michael W. Deem and Ramdas Pophale) SiO2 
 PCOD9355609
Probable space group: C C C 2
;
_chemical_formula_sum "Si O2"
_cell_formula_units_Z 48
_cell_length_a 15.590555
_cell_length_b 8.309761
_cell_length_c 17.410891
_cell_angle_alpha 90.000000
_cell_angle_beta 90.000000
_cell_angle_gamma 90.000000
_cell_volume 2255.646845
_symmetry_space_group_name_H-M "C C C 2"
_symmetry_group_IT_number 37
_symmetry_cell_setting 'orthorhombic'
loop_
_space_group_symop_operation_xyz
x,y,z
-x,-y,z
-x,y,1/2+z
x,-y,1/2+z
1/2+x,1/2+y,z
1/2-x,1/2-y,z
1/2-x,1/2+y,1/2+z
1/2+x,1/2-y,1/2+z
loop_
_atom_site_type_symbol
_atom_site_label
_atom_site_fract_x
_atom_site_fract_y
_atom_site_fract_z
Si Si1 0.250000 0.250000 0.919160
Si Si2 0.000000 0.000000 0.949346
Si Si3 0.007974 0.693410 0.704295
Si Si4 0.187283 0.871439 0.709816
Si Si5 0.110117 0.138513 0.820624
Si Si6 0.759792 0.492475 0.051483
Si Si7 0.902084 0.755442 0.553185
O O1 0.171308 0.266956 0.860777
O O2 0.254139 0.396387 0.978099
O O3 0.922453 0.965256 0.891955
O O4 0.027954 0.843245 0.998615
O O5 0.969425 0.776344 0.779887
O O6 0.946887 0.749502 0.635356
O O7 0.000000 0.500000 0.709174
O O8 0.101404 0.770427 0.690385
O O9 0.250000 0.750000 0.754876
O O10 0.159363 0.025342 0.759822
O O11 0.240720 0.923958 0.633908
O O12 0.855632 0.418130 0.043423
O O13 0.681656 0.366795 0.050276
#
# Coordination Sequence:
#
# PCOD9355609 Si02
#       7
#     4   4   8   8   8   8   8
#     4  12  28  46  74 110 148 192 246 314 370 446
#     4  12  24  48  72 104 144 206 244 306 376 442
#     4  12  27  45  74 113 141 195 250 308 369 447
#     4  12  25  46  76 105 150 193 249 301 373 454
#     4  12  28  46  72 106 154 194 244 308 380 433
#     4  11  24  45  73 109 142 193 245 300 377 445
#     4  11  25  44  76 103 145 192 247 300 369 453
#
# _framework density 21.279928000000002
#
# number of rings (size 3 to 8) (size 9 to 14) (size 15 to 20)
#    0.000    0.333    5.833    2.000    4.667    2.667 
#    0.000    0.000    0.000    0.000    0.000    0.000 
#    0.000    0.000    0.000    0.000    0.000    0.000 
#
# Total GULP energy -133924.403229 kJ/mol
# GULP energy per Si atom -5580.183468 kJ/mol
# Density = 2.123149 g / cm^3
# Si number density = 21.279928 Si / 1000 Ang^3
#
#
#
# Elastic Constant Matrix: (Units=GPa)
#
#
# Indices 1 2 3 4 5 6 
#
# 1 97.9532 31.1405 43.3571 0.0000 0.0000 0.0000
# 2 31.1405 88.6051 53.6269 0.0000 0.0000 0.0000
# 3 43.3571 53.6269 91.6869 0.0000 0.0000 0.0000
# 4 0.0000 0.0000 0.0000 16.5869 0.0000 0.0000
# 5 0.0000 0.0000 0.0000 0.0000 16.9763 0.0000
# 6 0.0000 0.0000 0.0000 0.0000 0.0000 43.2013
#
#
#
# Elastic Compliance Matrix: (Units=1/GPa)
#
#
# Indices 1 2 3 4 5 6 
#
# 1 0.013010 -0.001314 -0.005383 0.000000 0.000000 0.000000
# 2 -0.001314 0.017603 -0.009675 0.000000 0.000000 0.000000
# 3 -0.005383 -0.009675 0.019111 0.000000 0.000000 0.000000
# 4 0.000000 0.000000 0.000000 0.060289 0.000000 0.000000
# 5 0.000000 0.000000 0.000000 0.000000 0.058906 0.000000
# 6 0.000000 0.000000 0.000000 0.000000 0.000000 0.023147
#
#
# Mechanical properties :
#
#
# Convention : Reuss Voigt Hill
#
# Bulk Modulus (GPa) = 58.89383 59.38824 59.14103
# Shear Modulus (GPa) = 21.69482 25.36094 23.52788
#
# Velocity S-wave (km/s) = 3.19642 3.45596 3.32872
# Velocity P-wave (km/s) = 6.43107 6.62522 6.52887
#
# Compressibility (1/GPa) = 0.01697971
#
# Stress axis : x y z
#
# Youngs Moduli (GPa) = 76.86654 56.80764 52.32588
#
# Poissons Ratio (x) = 0.07465 0.28169
# Poissons Ratio (y) = 0.10100 0.50623
# Poissons Ratio (z) = 0.41381 0.54959
#
# Static dielectric constant tensor:
#      x y z
#    x 1.840810 0.000000 0.000000 
#    y 0.000000 1.863060 0.000000 
#    z 0.000000 0.000000 1.718910 
# 
# From -- ./inp_files/15243.got.cif
#   From: 2010.05.17/outbox.cif.g08.bks.cpg/sg37_8_cif.got.tgz:15243.got - 2010.06.03 17:53:42.
