data_PCOD9355397
_publ_section_title
;
Structure prediction by ZEFSAII (Michael W. Deem and Ramdas Pophale) SiO2 
 PCOD9355397
Probable space group: C C C 2
;
_chemical_formula_sum "Si O2"
_cell_formula_units_Z 36
_cell_length_a 19.174609
_cell_length_b 4.962111
_cell_length_c 16.109695
_cell_angle_alpha 90.000000
_cell_angle_beta 90.000000
_cell_angle_gamma 90.000000
_cell_volume 1532.781711
_symmetry_space_group_name_H-M "C C C 2"
_symmetry_group_IT_number 37
_symmetry_cell_setting 'orthorhombic'
loop_
_space_group_symop_operation_xyz
x,y,z
-x,-y,z
-x,y,1/2+z
x,-y,1/2+z
1/2+x,1/2+y,z
1/2-x,1/2-y,z
1/2-x,1/2+y,1/2+z
1/2+x,1/2-y,1/2+z
loop_
_atom_site_type_symbol
_atom_site_label
_atom_site_fract_x
_atom_site_fract_y
_atom_site_fract_z
Si Si1 0.070397 0.388439 0.821250
Si Si2 0.882763 0.435523 0.997102
Si Si3 0.143410 0.108167 0.274611
Si Si4 0.750000 0.750000 0.404173
Si Si5 0.581010 0.560952 0.104204
O O1 0.075096 0.475677 0.916272
O O2 0.129614 0.571586 0.777848
O O3 0.000000 0.500000 0.782344
O O4 0.082296 0.073346 0.814136
O O5 0.803416 0.412818 0.962946
O O6 0.903558 0.642760 0.069043
O O7 0.902644 0.142922 0.029979
O O8 0.206214 0.066285 0.339136
O O9 0.136013 0.019396 0.179447
O O10 0.500000 0.500000 0.128920
#
# Coordination Sequence:
#
# PCOD9355397 Si02
#       5
#     8   8   8   4   8
#     4  11  21  40  65  96 129 178 227 276 337 397
#     4  11  25  41  68  95 137 177 222 285 329 410
#     4  11  25  41  68  94 136 178 223 285 328 409
#     4  10  26  48  66 100 136 192 242 258 336 412
#     4  12  24  43  68 104 134 171 223 289 356 391
#
# _framework density 23.486709999999999
#
# number of rings (size 3 to 8) (size 9 to 14) (size 15 to 20)
#    0.000    0.889    0.000    8.000    0.000    9.778 
#    0.000    0.000    0.000    0.000    0.000    0.000 
#    0.000    0.000    0.000    0.000    0.000    0.000 
#
# Total GULP energy -100471.523690 kJ/mol
# GULP energy per Si atom -5581.751316 kJ/mol
# Density = 2.343325 g / cm^3
# Si number density = 23.486710 Si / 1000 Ang^3
#
#
#
# Elastic Constant Matrix: (Units=GPa)
#
#
# Indices 1 2 3 4 5 6 
#
# 1 119.5891 18.4131 7.5977 0.0000 0.0000 0.0000
# 2 18.4131 62.2878 -5.5480 0.0000 0.0000 0.0000
# 3 7.5977 -5.5480 85.6149 0.0000 0.0000 0.0000
# 4 0.0000 0.0000 0.0000 30.7066 0.0000 0.0000
# 5 0.0000 0.0000 0.0000 0.0000 15.1689 0.0000
# 6 0.0000 0.0000 0.0000 0.0000 0.0000 35.1360
#
#
#
# Elastic Compliance Matrix: (Units=1/GPa)
#
#
# Indices 1 2 3 4 5 6 
#
# 1 0.008838 -0.002698 -0.000959 0.000000 0.000000 0.000000
# 2 -0.002698 0.016971 0.001339 0.000000 0.000000 0.000000
# 3 -0.000959 0.001339 0.011852 0.000000 0.000000 0.000000
# 4 0.000000 0.000000 0.000000 0.032566 0.000000 0.000000
# 5 0.000000 0.000000 0.000000 0.000000 0.065924 0.000000
# 6 0.000000 0.000000 0.000000 0.000000 0.000000 0.028461
#
#
# Mechanical properties :
#
#
# Convention : Reuss Voigt Hill
#
# Bulk Modulus (GPa) = 30.27954 34.26860 32.27407
# Shear Modulus (GPa) = 27.73798 32.67089 30.20444
#
# Velocity S-wave (km/s) = 3.44031 3.73371 3.59001
# Velocity P-wave (km/s) = 5.35734 5.76279 5.56376
#
# Compressibility (1/GPa) = 0.03302560
#
# Stress axis : x y z
#
# Youngs Moduli (GPa) = 113.14344 58.92260 84.37315
#
# Poissons Ratio (x) = 0.15898 0.08093
# Poissons Ratio (y) = 0.30528 -0.11299
# Poissons Ratio (z) = 0.10853 -0.07891
#
# Static dielectric constant tensor:
#      x y z
#    x 2.001400 0.000000 0.000000 
#    y 0.000000 1.840010 0.000000 
#    z 0.000000 0.000000 1.893500 
# 
# From -- ./inp_files/12785.got.cif
#   From: 2010.05.17/outbox.cif.g08.bks.cpg/sg37_7_cif.got.tgz:12785.got - 2010.06.03 17:53:42.
