data_PCOD9355306
_publ_section_title
;
Structure prediction by ZEFSAII (Michael W. Deem and Ramdas Pophale) SiO2 
 PCOD9355306
Probable space group: C C C 2
;
_chemical_formula_sum "Si O2"
_cell_formula_units_Z 40
_cell_length_a 5.879783
_cell_length_b 23.620956
_cell_length_c 12.618348
_cell_angle_alpha 90.000000
_cell_angle_beta 90.000000
_cell_angle_gamma 90.000000
_cell_volume 1752.513086
_symmetry_space_group_name_H-M "C C C 2"
_symmetry_group_IT_number 37
_symmetry_cell_setting 'orthorhombic'
loop_
_space_group_symop_operation_xyz
x,y,z
-x,-y,z
-x,y,1/2+z
x,-y,1/2+z
1/2+x,1/2+y,z
1/2-x,1/2-y,z
1/2-x,1/2+y,1/2+z
1/2+x,1/2-y,1/2+z
loop_
_atom_site_type_symbol
_atom_site_label
_atom_site_fract_x
_atom_site_fract_y
_atom_site_fract_z
Si Si1 0.355804 0.891289 0.129610
Si Si2 0.855615 0.692126 0.244580
Si Si3 0.130558 0.188774 0.464050
Si Si4 0.000000 0.500000 0.997512
Si Si5 0.750000 0.750000 0.876452
Si Si6 0.751326 0.027130 0.297695
O O1 0.577484 0.855408 0.161950
O O2 0.248382 0.912700 0.239767
O O3 0.197362 0.852419 0.057249
O O4 0.409522 0.947225 0.063134
O O5 0.750000 0.750000 0.199033
O O6 0.713444 0.669695 0.346261
O O7 0.080562 0.716506 0.300823
O O8 0.250000 0.250000 0.481996
O O9 0.870159 0.203893 0.449525
O O10 0.796690 0.523825 0.922746
O O11 0.500000 0.000000 0.262909
O O12 0.000000 0.000000 0.274214
#
# Coordination Sequence:
#
# PCOD9355306 Si02
#       6
#     8   8   8   4   4   8
#     4  12  22  44  77 110 142 198 255 308 373 471
#     4   9  21  43  68  98 147 185 239 301 374 429
#     4   9  21  42  66  99 140 189 237 296 372 431
#     4  10  24  46  72 106 152 196 254 310 392 444
#     4   8  18  44  58  94 144 186 226 304 366 436
#     4  10  25  51  71 106 155 194 251 316 379 448
#
# _framework density 22.824365
#
# number of rings (size 3 to 8) (size 9 to 14) (size 15 to 20)
#    0.600    2.000    1.000    1.200    1.400    2.400 
#   18.000    0.000    0.000    0.000    0.000    0.000 
#    0.000    0.000    0.000    0.000    0.000    0.000 
#
# Total GULP energy -111535.601500 kJ/mol
# GULP energy per Si atom -5576.780075 kJ/mol
# Density = 2.277242 g / cm^3
# Si number density = 22.824365 Si / 1000 Ang^3
#
#
#
# Elastic Constant Matrix: (Units=GPa)
#
#
# Indices 1 2 3 4 5 6 
#
# 1 98.9652 32.3324 28.0453 0.0000 0.0000 0.0000
# 2 32.3324 113.1822 69.7666 0.0000 0.0000 0.0000
# 3 28.0453 69.7666 101.6907 0.0000 0.0000 0.0000
# 4 0.0000 0.0000 0.0000 -5.8110 0.0000 0.0000
# 5 0.0000 0.0000 0.0000 0.0000 -3.6042 0.0000
# 6 0.0000 0.0000 0.0000 0.0000 0.0000 29.5833
#
#
#
# Elastic Compliance Matrix: (Units=1/GPa)
#
#
# Indices 1 2 3 4 5 6 
#
# 1 0.011286 -0.002262 -0.001561 0.000000 0.000000 0.000000
# 2 -0.002262 0.015763 -0.010191 0.000000 0.000000 0.000000
# 3 -0.001561 -0.010191 0.017256 0.000000 0.000000 0.000000
# 4 0.000000 0.000000 0.000000 -0.172087 0.000000 0.000000
# 5 0.000000 0.000000 0.000000 0.000000 -0.277453 0.000000
# 6 0.000000 0.000000 0.000000 0.000000 0.000000 0.033803
#
#
# Mechanical properties :
#
#
# Convention : Reuss Voigt Hill
#
# Bulk Modulus (GPa) = 61.43294 63.79185 62.61240
# Shear Modulus (GPa) = -14.79378 16.27987 0.74304
#
# Velocity S-wave (km/s) = -2.54866 2.67360 0.57119
# Velocity P-wave (km/s) = 4.27938 6.12704 5.28458
#
# Compressibility (1/GPa) = 0.01627791
#
# Stress axis : x y z
#
# Youngs Moduli (GPa) = 88.60668 63.43914 57.95195
#
# Poissons Ratio (x) = 0.14350 0.09044
# Poissons Ratio (y) = 0.20043 0.59057
# Poissons Ratio (z) = 0.13828 0.64649
#
# Static dielectric constant tensor:
#      x y z
#    x 1.934010 0.000000 0.000000 
#    y 0.000000 1.866740 0.000000 
#    z 0.000000 0.000000 1.896590 
# 
# From -- ./inp_files/9627.got.cif
#   From: 2010.05.17/outbox.cif.g08.bks.cpg/sg37_5_cif.got.tgz:9627.got - 2010.06.03 17:53:42.
