data_PCOD9355527
_publ_section_title
;
Structure prediction by ZEFSAII (Michael W. Deem and Ramdas Pophale) SiO2 
 PCOD9355527
Probable space group: C C C 2
;
_chemical_formula_sum "Si O2"
_cell_formula_units_Z 64
_cell_length_a 11.076736
_cell_length_b 10.283116
_cell_length_c 25.676465
_cell_angle_alpha 90.000000
_cell_angle_beta 90.000000
_cell_angle_gamma 90.000000
_cell_volume 2924.635667
_symmetry_space_group_name_H-M "C C C 2"
_symmetry_group_IT_number 37
_symmetry_cell_setting 'orthorhombic'
loop_
_space_group_symop_operation_xyz
x,y,z
-x,-y,z
-x,y,1/2+z
x,-y,1/2+z
1/2+x,1/2+y,z
1/2-x,1/2-y,z
1/2-x,1/2+y,1/2+z
1/2+x,1/2-y,1/2+z
loop_
_atom_site_type_symbol
_atom_site_label
_atom_site_fract_x
_atom_site_fract_y
_atom_site_fract_z
Si Si1 0.443670 0.239497 0.206760
Si Si2 0.120126 0.915169 0.014105
Si Si3 0.303344 0.962773 0.436782
Si Si4 0.250021 0.031054 0.211646
Si Si5 0.204683 0.512410 0.324902
Si Si6 0.897297 0.884489 0.631818
Si Si7 0.979996 0.710039 0.321232
Si Si8 0.977143 0.713364 0.432660
O O1 0.381970 0.097190 0.207077
O O2 0.340309 0.348558 0.202861
O O3 0.536654 0.264837 0.160385
O O4 0.496457 0.267796 0.264282
O O5 0.144999 0.868756 0.072650
O O6 0.221590 0.001085 0.985632
O O7 0.000000 0.000000 0.017027
O O8 0.086168 0.797592 0.976249
O O9 0.234701 0.961079 0.380787
O O10 0.396026 0.083239 0.428555
O O11 0.387140 0.835994 0.444670
O O12 0.231119 0.972858 0.269544
O O13 0.213119 0.929153 0.167978
O O14 0.090048 0.608825 0.326615
O O15 0.146955 0.368291 0.320421
O O16 0.000000 0.000000 0.632246
O O17 0.977381 0.783134 0.376217
#
# Coordination Sequence:
#
# PCOD9355527 Si02
#       8
#     8   8   8   8   8   8   8   8
#     4   9  17  31  53  77  99 135 183 226 276 334
#     4  11  23  37  55  81 115 155 195 234 285 340
#     4   9  19  37  59  82 111 148 190 238 289 343
#     4   9  17  31  53  77  99 135 183 226 276 334
#     4   8  15  30  52  77 105 135 169 218 282 341
#     4   9  20  37  51  73 109 145 185 230 269 328
#     4   8  15  30  52  77 105 135 169 218 282 341
#     4   9  19  37  59  82 111 148 190 238 289 343
#
# _framework density 21.883068999999999
#
# number of rings (size 3 to 8) (size 9 to 14) (size 15 to 20)
#    0.000    3.000    0.000    1.875    1.750    1.500 
#    2.250    5.625    0.000    3.000    0.000    0.000 
#    0.000    0.000    0.000    0.000    0.000    0.000 
#
# Total GULP energy -178449.330490 kJ/mol
# GULP energy per Si atom -5576.541578 kJ/mol
# Density = 2.183326 g / cm^3
# Si number density = 21.883069 Si / 1000 Ang^3
#
#
#
# Elastic Constant Matrix: (Units=GPa)
#
#
# Indices 1 2 3 4 5 6 
#
# 1 66.6682 15.0734 52.6901 0.0000 0.0000 0.0000
# 2 15.0734 17.1097 14.5774 0.0000 0.0000 0.0000
# 3 52.6901 14.5774 207.7343 0.0000 0.0000 0.0000
# 4 0.0000 0.0000 0.0000 13.1622 0.0000 0.0000
# 5 0.0000 0.0000 0.0000 0.0000 25.6196 0.0000
# 6 0.0000 0.0000 0.0000 0.0000 0.0000 27.6229
#
#
#
# Elastic Compliance Matrix: (Units=1/GPa)
#
#
# Indices 1 2 3 4 5 6 
#
# 1 0.022095 -0.015625 -0.004508 0.000000 0.000000 0.000000
# 2 -0.015625 0.073212 -0.001174 0.000000 0.000000 0.000000
# 3 -0.004508 -0.001174 0.006040 0.000000 0.000000 0.000000
# 4 0.000000 0.000000 0.000000 0.075975 0.000000 0.000000
# 5 0.000000 0.000000 0.000000 0.000000 0.039033 0.000000
# 6 0.000000 0.000000 0.000000 0.000000 0.000000 0.036202
#
#
# Mechanical properties :
#
#
# Convention : Reuss Voigt Hill
#
# Bulk Modulus (GPa) = 17.02626 50.68823 33.85725
# Shear Modulus (GPa) = 15.88572 27.22569 21.55571
#
# Velocity S-wave (km/s) = 2.69724 3.53107 3.14194
# Velocity P-wave (km/s) = 4.18302 6.31174 5.35424
#
# Compressibility (1/GPa) = 0.05873279
#
# Stress axis : x y z
#
# Youngs Moduli (GPa) = 45.25906 13.65893 165.57336
#
# Poissons Ratio (x) = 0.21342 0.74637
# Poissons Ratio (y) = 0.70716 0.19445
# Poissons Ratio (z) = 0.20402 0.01604
#
# Static dielectric constant tensor:
#      x y z
#    x 1.829070 0.000000 0.000000 
#    y 0.000000 1.885600 0.000000 
#    z 0.000000 0.000000 1.817600 
# 
# From -- ./inp_files/18731.got.cif
#   From: 2010.05.17/outbox.cif.g08.bks.cpg/sg37_10_cif.got.tgz:18731.got - 2010.06.03 17:53:42.
