data_PCOD9355229
_publ_section_title
;
Structure prediction by ZEFSAII (Michael W. Deem and Ramdas Pophale) SiO2 
 PCOD9355229
Probable space group: C C C 2
;
_chemical_formula_sum "Si O2"
_cell_formula_units_Z 48
_cell_length_a 5.515200
_cell_length_b 19.912820
_cell_length_c 22.027339
_cell_angle_alpha 90.000000
_cell_angle_beta 90.000000
_cell_angle_gamma 90.000000
_cell_volume 2419.112523
_symmetry_space_group_name_H-M "C C C 2"
_symmetry_group_IT_number 37
_symmetry_cell_setting 'orthorhombic'
loop_
_space_group_symop_operation_xyz
x,y,z
-x,-y,z
-x,y,1/2+z
x,-y,1/2+z
1/2+x,1/2+y,z
1/2-x,1/2-y,z
1/2-x,1/2+y,1/2+z
1/2+x,1/2-y,1/2+z
loop_
_atom_site_type_symbol
_atom_site_label
_atom_site_fract_x
_atom_site_fract_y
_atom_site_fract_z
Si Si1 0.999859 0.792484 0.157120
Si Si2 0.246856 0.960075 0.980272
Si Si3 0.820231 0.172268 0.401958
Si Si4 0.083527 0.426710 0.355581
Si Si5 0.850051 0.826301 0.283500
Si Si6 0.122727 0.823492 0.024012
O O1 0.750000 0.750000 0.155931
O O2 0.977668 0.835213 0.218799
O O3 0.250000 0.750000 0.162731
O O4 0.013160 0.826003 0.091223
O O5 0.219972 0.942732 0.908340
O O6 0.500000 0.000000 0.985890
O O7 0.282628 0.890038 0.015830
O O8 0.000000 0.000000 0.998497
O O9 0.750000 0.250000 0.398255
O O10 0.608548 0.118647 0.392623
O O11 0.985296 0.164537 0.342508
O O12 0.937841 0.167348 0.468337
O O13 0.149057 0.381863 0.297602
O O14 0.000000 0.500000 0.335830
O O15 0.750000 0.750000 0.285657
O O16 0.250000 0.750000 0.017010
#
# Coordination Sequence:
#
# PCOD9355229 Si02
#       6
#     8   8   8   8   8   8
#     4  10  24  42  66  98 136 175 218 274 343 396
#     4  11  24  42  64  96 137 175 207 265 345 398
#     4  12  21  36  67  97 130 166 224 281 328 390
#     4  11  24  38  63  98 132 174 217 278 333 390
#     4  11  22  40  64  95 129 176 221 275 333 395
#     4  11  22  41  69 102 130 171 226 283 325 395
#
# _framework density 19.841989000000002
#
# number of rings (size 3 to 8) (size 9 to 14) (size 15 to 20)
#    0.000    1.000    3.333    4.500    2.333    4.000 
#    0.000    0.000    3.667    1.000    0.000    0.000 
#    0.000    0.000    0.000    0.000    0.000    0.000 
#
# Total GULP energy -133784.929332 kJ/mol
# GULP energy per Si atom -5574.372055 kJ/mol
# Density = 1.979683 g / cm^3
# Si number density = 19.841989 Si / 1000 Ang^3
#
#
#
# Elastic Constant Matrix: (Units=GPa)
#
#
# Indices 1 2 3 4 5 6 
#
# 1 84.4797 47.6759 50.2793 0.0000 0.0000 0.0000
# 2 47.6759 154.4643 49.2950 0.0000 0.0000 0.0000
# 3 50.2793 49.2950 177.2802 0.0000 0.0000 0.0000
# 4 0.0000 0.0000 0.0000 3.5264 0.0000 0.0000
# 5 0.0000 0.0000 0.0000 0.0000 38.2001 0.0000
# 6 0.0000 0.0000 0.0000 0.0000 0.0000 32.0799
#
#
#
# Elastic Compliance Matrix: (Units=1/GPa)
#
#
# Indices 1 2 3 4 5 6 
#
# 1 0.016089 -0.003851 -0.003492 0.000000 0.000000 0.000000
# 2 -0.003851 0.008026 -0.001140 0.000000 0.000000 0.000000
# 3 -0.003492 -0.001140 0.006948 0.000000 0.000000 0.000000
# 4 0.000000 0.000000 0.000000 0.283578 0.000000 0.000000
# 5 0.000000 0.000000 0.000000 0.000000 0.026178 0.000000
# 6 0.000000 0.000000 0.000000 0.000000 0.000000 0.031172
#
#
# Mechanical properties :
#
#
# Convention : Reuss Voigt Hill
#
# Bulk Modulus (GPa) = 70.93548 78.96939 74.95244
# Shear Modulus (GPa) = 12.70141 32.69285 22.69713
#
# Velocity S-wave (km/s) = 2.53282 4.06354 3.38582
# Velocity P-wave (km/s) = 6.66193 7.86778 7.28984
#
# Compressibility (1/GPa) = 0.01409732
#
# Stress axis : x y z
#
# Youngs Moduli (GPa) = 62.15362 124.58853 143.92472
#
# Poissons Ratio (x) = 0.47985 0.50261
# Poissons Ratio (y) = 0.23938 0.16400
# Poissons Ratio (z) = 0.21705 0.14197
#
# Static dielectric constant tensor:
#      x y z
#    x 1.684450 0.000000 0.000000 
#    y 0.000000 1.699940 0.000000 
#    z 0.000000 0.000000 1.693460 
# 
# From -- ./inp_files/15775.got.cif
#   From: 2010.05.17/outbox.cif.g08.bks.cpg/sg37_8_cif.got.tgz:15775.got - 2010.06.03 17:53:42.
