data_PCOD9355547
_publ_section_title
;
Structure prediction by ZEFSAII (Michael W. Deem and Ramdas Pophale) SiO2 
 PCOD9355547
Probable space group: C C C 2
;
_chemical_formula_sum "Si O2"
_cell_formula_units_Z 60
_cell_length_a 16.947890
_cell_length_b 18.918889
_cell_length_c 8.784935
_cell_angle_alpha 90.000000
_cell_angle_beta 90.000000
_cell_angle_gamma 90.000000
_cell_volume 2816.759827
_symmetry_space_group_name_H-M "C C C 2"
_symmetry_group_IT_number 37
_symmetry_cell_setting 'orthorhombic'
loop_
_space_group_symop_operation_xyz
x,y,z
-x,-y,z
-x,y,1/2+z
x,-y,1/2+z
1/2+x,1/2+y,z
1/2-x,1/2-y,z
1/2-x,1/2+y,1/2+z
1/2+x,1/2-y,1/2+z
loop_
_atom_site_type_symbol
_atom_site_label
_atom_site_fract_x
_atom_site_fract_y
_atom_site_fract_z
Si Si1 0.687564 0.130258 0.195920
Si Si2 0.680816 0.518295 0.605685
Si Si3 0.962620 0.578110 0.528930
Si Si4 0.869726 0.193552 0.746421
Si Si5 0.906312 0.646425 0.215593
Si Si6 0.426386 0.447920 0.348560
Si Si7 0.247603 0.626190 0.530130
Si Si8 0.250000 0.750000 0.989021
O O1 0.756398 0.077620 0.142327
O O2 0.606070 0.090485 0.154883
O O3 0.706558 0.147479 0.371789
O O4 0.695673 0.200521 0.094025
O O5 0.606029 0.551010 0.519098
O O6 0.645297 0.480405 0.752353
O O7 0.721488 0.453783 0.515646
O O8 0.928723 0.602853 0.366605
O O9 0.000000 0.500000 0.523731
O O10 0.034052 0.627070 0.581878
O O11 0.908742 0.269876 0.739699
O O12 0.931313 0.131589 0.786023
O O13 0.820164 0.173587 0.593677
O O14 0.804621 0.201742 0.880541
O O15 0.818693 0.627689 0.160466
O O16 0.500000 0.500000 0.335211
#
# Coordination Sequence:
#
# PCOD9355547 Si02
#       8
#     8   8   8   8   8   8   8   4
#     4  12  25  44  73 109 142 188 254 299 363 448
#     4  11  23  42  69 104 135 183 240 299 351 425
#     4  12  27  46  72 105 148 198 246 305 373 448
#     4  11  23  47  74 101 145 194 233 309 366 433
#     4  12  25  48  67 105 147 191 243 300 377 430
#     4  11  24  46  69 103 139 187 237 292 371 432
#     4  11  24  43  76 103 142 190 249 301 364 440
#     4  12  22  44  76 102 140 184 244 302 360 432
#
# _framework density 21.301069999999999
#
# number of rings (size 3 to 8) (size 9 to 14) (size 15 to 20)
#    0.000    0.533    5.333    2.400    3.733    2.133 
#    9.600    0.667    0.000    0.000    0.000    0.000 
#    0.000    0.000    0.000    0.000    0.000    0.000 
#
# Total GULP energy -167722.914334 kJ/mol
# GULP energy per Si atom -5590.763811 kJ/mol
# Density = 2.125259 g / cm^3
# Si number density = 21.301070 Si / 1000 Ang^3
#
#
#
# Elastic Constant Matrix: (Units=GPa)
#
#
# Indices 1 2 3 4 5 6 
#
# 1 67.4119 59.6063 -0.4436 0.0000 0.0000 0.0000
# 2 59.6063 129.4990 53.7610 0.0000 0.0000 0.0000
# 3 -0.4436 53.7610 77.3899 0.0000 0.0000 0.0000
# 4 0.0000 0.0000 0.0000 17.6074 0.0000 0.0000
# 5 0.0000 0.0000 0.0000 0.0000 25.7312 0.0000
# 6 0.0000 0.0000 0.0000 0.0000 0.0000 40.8847
#
#
#
# Elastic Compliance Matrix: (Units=1/GPa)
#
#
# Indices 1 2 3 4 5 6 
#
# 1 0.035143 -0.022849 0.016074 0.000000 0.000000 0.000000
# 2 -0.022849 0.025707 -0.017989 0.000000 0.000000 0.000000
# 3 0.016074 -0.017989 0.025510 0.000000 0.000000 0.000000
# 4 0.000000 0.000000 0.000000 0.056794 0.000000 0.000000
# 5 0.000000 0.000000 0.000000 0.000000 0.038863 0.000000
# 6 0.000000 0.000000 0.000000 0.000000 0.000000 0.024459
#
#
# Mechanical properties :
#
#
# Convention : Reuss Voigt Hill
#
# Bulk Modulus (GPa) = 27.14971 55.57201 41.36086
# Shear Modulus (GPa) = 18.63701 27.60314 23.12007
#
# Velocity S-wave (km/s) = 2.96114 3.60371 3.29811
# Velocity P-wave (km/s) = 4.94616 6.59250 5.82776
#
# Compressibility (1/GPa) = 0.03683280
#
# Stress axis : x y z
#
# Youngs Moduli (GPa) = 28.45489 38.89950 39.19969
#
# Poissons Ratio (x) = 0.88882 -0.63010
# Poissons Ratio (y) = 0.65017 0.70517
# Poissons Ratio (z) = -0.45739 0.69977
#
# Static dielectric constant tensor:
#      x y z
#    x 1.756220 0.000000 0.000000 
#    y 0.000000 1.851580 0.000000 
#    z 0.000000 0.000000 1.804560 
# 
# From -- ./inp_files/4076.got.cif
#   From: 2010.05.17/outbox.cif.g08.bks.cpg/sg37_3_cif.got.tgz:4076.got - 2010.06.03 17:53:42.
