data_PCOD9355237
_publ_section_title
;
Structure prediction by ZEFSAII (Michael W. Deem and Ramdas Pophale) SiO2 
 PCOD9355237
Probable space group: C C C 2
;
_chemical_formula_sum "Si O2"
_cell_formula_units_Z 44
_cell_length_a 13.459548
_cell_length_b 17.321316
_cell_length_c 9.072226
_cell_angle_alpha 90.000000
_cell_angle_beta 90.000000
_cell_angle_gamma 90.000000
_cell_volume 2115.072316
_symmetry_space_group_name_H-M "C C C 2"
_symmetry_group_IT_number 37
_symmetry_cell_setting 'orthorhombic'
loop_
_space_group_symop_operation_xyz
x,y,z
-x,-y,z
-x,y,1/2+z
x,-y,1/2+z
1/2+x,1/2+y,z
1/2-x,1/2-y,z
1/2-x,1/2+y,1/2+z
1/2+x,1/2-y,1/2+z
loop_
_atom_site_type_symbol
_atom_site_label
_atom_site_fract_x
_atom_site_fract_y
_atom_site_fract_z
Si Si1 0.023395 0.610306 0.830160
Si Si2 0.628024 0.548693 0.875449
Si Si3 0.500000 0.000000 0.587115
Si Si4 0.694675 0.828609 0.881638
Si Si5 0.929148 0.086715 0.701722
Si Si6 0.357037 0.759498 0.704605
O O1 0.059998 0.553465 0.699835
O O2 0.906403 0.633137 0.816937
O O3 0.077429 0.690153 0.811879
O O4 0.046070 0.562783 0.977454
O O5 0.723185 0.604033 0.875693
O O6 0.539649 0.580069 0.769384
O O7 0.640784 0.461717 0.814382
O O8 0.587519 0.550213 0.041427
O O9 0.750000 0.750000 0.821642
O O10 0.661129 0.801824 0.046989
O O11 0.902515 0.175694 0.682797
O O12 0.250000 0.750000 0.774634
#
# Coordination Sequence:
#
# PCOD9355237 Si02
#       6
#     8   8   4   8   8   8
#     4  11  23  44  68 100 137 184 227 295 338 424
#     4  11  23  42  69 102 136 182 222 285 345 415
#     4  10  24  42  68  96 136 182 228 280 362 396
#     4  11  22  43  70  99 138 185 229 282 351 408
#     4  11  23  42  69 100 141 174 226 283 343 409
#     4  11  23  43  68  97 133 184 223 285 346 406
#
# _framework density 20.803072
#
# number of rings (size 3 to 8) (size 9 to 14) (size 15 to 20)
#    0.000    1.091    5.455    3.273    0.000    4.364 
#    0.000    2.727    0.000    0.000    0.000    0.000 
#    0.000    0.000    0.000    0.000    0.000    0.000 
#
# Total GULP energy -122618.510104 kJ/mol
# GULP energy per Si atom -5573.568641 kJ/mol
# Density = 2.075572 g / cm^3
# Si number density = 20.803072 Si / 1000 Ang^3
#
#
#
# Elastic Constant Matrix: (Units=GPa)
#
#
# Indices 1 2 3 4 5 6 
#
# 1 88.5368 60.4196 35.8534 0.0000 0.0000 0.0000
# 2 60.4196 124.6055 39.8912 0.0000 0.0000 0.0000
# 3 35.8534 39.8912 114.3003 0.0000 0.0000 0.0000
# 4 0.0000 0.0000 0.0000 12.4299 0.0000 0.0000
# 5 0.0000 0.0000 0.0000 0.0000 4.4829 0.0000
# 6 0.0000 0.0000 0.0000 0.0000 0.0000 42.6130
#
#
#
# Elastic Compliance Matrix: (Units=1/GPa)
#
#
# Indices 1 2 3 4 5 6 
#
# 1 0.017682 -0.007653 -0.002875 0.000000 0.000000 0.000000
# 2 -0.007653 0.012347 -0.001909 0.000000 0.000000 0.000000
# 3 -0.002875 -0.001909 0.010317 0.000000 0.000000 0.000000
# 4 0.000000 0.000000 0.000000 0.080451 0.000000 0.000000
# 5 0.000000 0.000000 0.000000 0.000000 0.223068 0.000000
# 6 0.000000 0.000000 0.000000 0.000000 0.000000 0.023467
#
#
# Mechanical properties :
#
#
# Convention : Reuss Voigt Hill
#
# Bulk Modulus (GPa) = 64.63422 66.64122 65.63772
# Shear Modulus (GPa) = 12.58293 24.65705 18.61999
#
# Velocity S-wave (km/s) = 2.46206 3.44650 2.99500
# Velocity P-wave (km/s) = 6.26253 6.92399 6.60155
#
# Compressibility (1/GPa) = 0.01547168
#
# Stress axis : x y z
#
# Youngs Moduli (GPa) = 56.55512 80.98949 96.92781
#
# Poissons Ratio (x) = 0.61983 0.27871
# Poissons Ratio (y) = 0.43283 0.18500
# Poissons Ratio (z) = 0.16262 0.15458
#
# Static dielectric constant tensor:
#      x y z
#    x 1.814770 0.000000 0.000000 
#    y 0.000000 1.851960 0.000000 
#    z 0.000000 0.000000 1.754630 
# 
# From -- ./inp_files/3441.got.cif
#   From: 2010.05.17/outbox.cif.g08.bks.cpg/sg37_2_cif.got.tgz:3441.got - 2010.06.03 17:53:42.
