data_PCOD9355254
_publ_section_title
;
Structure prediction by ZEFSAII (Michael W. Deem and Ramdas Pophale) SiO2 
 PCOD9355254
Probable space group: C C C 2
;
_chemical_formula_sum "Si O2"
_cell_formula_units_Z 60
_cell_length_a 26.396744
_cell_length_b 8.603402
_cell_length_c 10.764125
_cell_angle_alpha 90.000000
_cell_angle_beta 90.000000
_cell_angle_gamma 90.000000
_cell_volume 2444.552164
_symmetry_space_group_name_H-M "C C C 2"
_symmetry_group_IT_number 37
_symmetry_cell_setting 'orthorhombic'
loop_
_space_group_symop_operation_xyz
x,y,z
-x,-y,z
-x,y,1/2+z
x,-y,1/2+z
1/2+x,1/2+y,z
1/2-x,1/2-y,z
1/2-x,1/2+y,1/2+z
1/2+x,1/2-y,1/2+z
loop_
_atom_site_type_symbol
_atom_site_label
_atom_site_fract_x
_atom_site_fract_y
_atom_site_fract_z
Si Si1 0.583868 0.811616 0.485320
Si Si2 0.553458 0.542586 0.635584
Si Si3 0.916096 0.731087 0.836079
Si Si4 0.670010 0.482412 0.394873
Si Si5 0.109515 0.766494 0.750890
Si Si6 0.234361 0.938782 0.650771
Si Si7 0.500000 0.000000 0.965890
Si Si8 0.346143 0.032375 0.644662
O O1 0.586309 0.644765 0.545062
O O2 0.568991 0.812137 0.341528
O O3 0.535354 0.890523 0.549463
O O4 0.632295 0.914954 0.512471
O O5 0.500000 0.500000 0.579657
O O6 0.549743 0.644622 0.760092
O O7 0.583253 0.389636 0.666831
O O8 0.956418 0.617246 0.905460
O O9 0.879102 0.632620 0.743052
O O10 0.873293 0.847293 0.896327
O O11 0.643863 0.646875 0.353978
O O12 0.701602 0.466616 0.523707
O O13 0.706213 0.484107 0.270869
O O14 0.139093 0.643375 0.672713
O O15 0.250000 0.750000 0.662465
O O16 0.286354 0.035610 0.644249
#
# Coordination Sequence:
#
# PCOD9355254 Si02
#       8
#     8   8   8   8   8   8   4   8
#     4  11  27  43  73 110 145 208 259 333 404 496
#     4  10  24  43  72 105 148 197 262 317 401 483
#     4  10  25  48  75 112 157 207 265 344 405 505
#     4  11  29  50  81 117 161 212 280 339 419 496
#     4  11  24  49  71 104 157 198 256 336 403 486
#     4  12  29  50  83 120 160 215 273 348 426 490
#     4  12  24  42  78 110 156 208 274 326 426 488
#     4  11  26  47  76 109 155 204 264 341 411 487
#
# _framework density 24.544374000000001
#
# number of rings (size 3 to 8) (size 9 to 14) (size 15 to 20)
#    0.000    1.067    2.667    0.800   13.067    3.733 
#    0.000    0.000    0.000    0.000    0.000    0.000 
#    0.000    0.000    0.000    0.000    0.000    0.000 
#
# Total GULP energy -167310.774719 kJ/mol
# GULP energy per Si atom -5577.025824 kJ/mol
# Density = 2.448851 g / cm^3
# Si number density = 24.544374 Si / 1000 Ang^3
#
#
#
# Elastic Constant Matrix: (Units=GPa)
#
#
# Indices 1 2 3 4 5 6 
#
# 1 127.0474 43.7939 58.3385 0.0000 0.0000 0.0000
# 2 43.7939 117.1833 39.0098 0.0000 0.0000 0.0000
# 3 58.3385 39.0098 97.1405 0.0000 0.0000 0.0000
# 4 0.0000 0.0000 0.0000 32.1989 0.0000 0.0000
# 5 0.0000 0.0000 0.0000 0.0000 24.8300 0.0000
# 6 0.0000 0.0000 0.0000 0.0000 0.0000 26.6919
#
#
#
# Elastic Compliance Matrix: (Units=1/GPa)
#
#
# Indices 1 2 3 4 5 6 
#
# 1 0.011373 -0.002282 -0.005914 0.000000 0.000000 0.000000
# 2 -0.002282 0.010308 -0.002769 0.000000 0.000000 0.000000
# 3 -0.005914 -0.002769 0.014958 0.000000 0.000000 0.000000
# 4 0.000000 0.000000 0.000000 0.031057 0.000000 0.000000
# 5 0.000000 0.000000 0.000000 0.000000 0.040274 0.000000
# 6 0.000000 0.000000 0.000000 0.000000 0.000000 0.037465
#
#
# Mechanical properties :
#
#
# Convention : Reuss Voigt Hill
#
# Bulk Modulus (GPa) = 67.98257 69.29506 68.63882
# Shear Modulus (GPa) = 29.02451 30.09276 29.55864
#
# Velocity S-wave (km/s) = 3.44253 3.50531 3.47406
# Velocity P-wave (km/s) = 6.59995 6.68407 6.64214
#
# Compressibility (1/GPa) = 0.01470965
#
# Stress axis : x y z
#
# Youngs Moduli (GPa) = 87.92587 97.00973 66.85312
#
# Poissons Ratio (x) = 0.22134 0.39537
# Poissons Ratio (y) = 0.20062 0.18514
# Poissons Ratio (z) = 0.51999 0.26865
#
# Static dielectric constant tensor:
#      x y z
#    x 2.018570 0.000000 0.000000 
#    y 0.000000 2.061090 0.000000 
#    z 0.000000 0.000000 2.100490 
# 
# From -- ./inp_files/9069.got.cif
#   From: 2010.05.17/outbox.cif.g08.bks.cpg/sg37_5_cif.got.tgz:9069.got - 2010.06.03 17:53:42.
