data_PCOD9355008
_publ_section_title
;
Structure prediction by ZEFSAII (Michael W. Deem and Ramdas Pophale) SiO2 
 PCOD9355008
Probable space group: C C C 2
;
_chemical_formula_sum "Si O2"
_cell_formula_units_Z 24
_cell_length_a 10.098559
_cell_length_b 7.924612
_cell_length_c 13.718580
_cell_angle_alpha 90.000000
_cell_angle_beta 90.000000
_cell_angle_gamma 90.000000
_cell_volume 1097.859022
_symmetry_space_group_name_H-M "C C C 2"
_symmetry_group_IT_number 37
_symmetry_cell_setting 'orthorhombic'
loop_
_space_group_symop_operation_xyz
x,y,z
-x,-y,z
-x,y,1/2+z
x,-y,1/2+z
1/2+x,1/2+y,z
1/2-x,1/2-y,z
1/2-x,1/2+y,1/2+z
1/2+x,1/2-y,1/2+z
loop_
_atom_site_type_symbol
_atom_site_label
_atom_site_fract_x
_atom_site_fract_y
_atom_site_fract_z
Si Si1 0.283373 0.446878 0.153880
Si Si2 0.897306 0.192355 0.319824
Si Si3 0.000000 0.500000 0.196452
Si Si4 0.000000 0.000000 0.992229
O O1 0.250000 0.250000 0.169852
O O2 0.355277 0.538975 0.245749
O O3 0.134979 0.513154 0.136711
O O4 0.374807 0.489400 0.062759
O O5 0.750000 0.250000 0.351041
O O6 0.980489 0.334280 0.263003
O O7 0.980939 0.149914 0.415334
#
# Coordination Sequence:
#
# PCOD9355008 Si02
#       4
#     8   8   4   4
#     4  11  23  43  68  96 135 174 220 280 339 403
#     4  10  23  43  66  95 134 178 226 278 336 405
#     4  10  22  46  68  90 132 182 224 276 340 400
#     4  12  22  40  68  98 130 170 220 280 342 406
#
# _framework density 21.86073
#
# number of rings (size 3 to 8) (size 9 to 14) (size 15 to 20)
#    0.000    1.333    0.000    6.000    0.000    0.000 
#    0.000   61.667    0.000    0.000    0.000    0.000 
#    0.000    0.000    0.000    0.000    0.000    0.000 
#
# Total GULP energy -66890.623679 kJ/mol
# GULP energy per Si atom -5574.218640 kJ/mol
# Density = 2.181097 g / cm^3
# Si number density = 21.860730 Si / 1000 Ang^3
#
#
#
# Elastic Constant Matrix: (Units=GPa)
#
#
# Indices 1 2 3 4 5 6 
#
# 1 197.8329 54.1336 79.0067 0.0000 0.0000 0.0000
# 2 54.1336 118.2571 69.0208 0.0000 0.0000 0.0000
# 3 79.0067 69.0208 113.1448 0.0000 0.0000 0.0000
# 4 0.0000 0.0000 0.0000 -0.3487 0.0000 0.0000
# 5 0.0000 0.0000 0.0000 0.0000 21.4130 0.0000
# 6 0.0000 0.0000 0.0000 0.0000 0.0000 42.5252
#
#
#
# Elastic Compliance Matrix: (Units=1/GPa)
#
#
# Indices 1 2 3 4 5 6 
#
# 1 0.007032 -0.000548 -0.004576 0.000000 0.000000 0.000000
# 2 -0.000548 0.013174 -0.007654 0.000000 0.000000 0.000000
# 3 -0.004576 -0.007654 0.016703 0.000000 0.000000 0.000000
# 4 0.000000 0.000000 0.000000 -2.867673 0.000000 0.000000
# 5 0.000000 0.000000 0.000000 0.000000 0.046701 0.000000
# 6 0.000000 0.000000 0.000000 0.000000 0.000000 0.023515
#
#
# Mechanical properties :
#
#
# Convention : Reuss Voigt Hill
#
# Bulk Modulus (GPa) = 88.08276 92.61743 90.35009
# Shear Modulus (GPa) = -1.83069 27.85616 13.01273
#
# Velocity S-wave (km/s) = -0.91611 3.57354 2.44243
# Velocity P-wave (km/s) = 6.26587 7.71271 7.02663
#
# Compressibility (1/GPa) = 0.01135296
#
# Stress axis : x y z
#
# Youngs Moduli (GPa) = 142.20117 75.90571 59.87125
#
# Poissons Ratio (x) = 0.04162 0.27397
# Poissons Ratio (y) = 0.07797 0.45824
# Poissons Ratio (z) = 0.65072 0.58096
#
# Static dielectric constant tensor:
#      x y z
#    x 1.857950 0.000000 0.000000 
#    y 0.000000 1.962340 0.000000 
#    z 0.000000 0.000000 1.762140 
# 
# From -- ./inp_files/6729.got.cif
#   From: 2010.05.17/outbox.cif.g08.bks.cpg/sg37_4_cif.got.tgz:6729.got - 2010.06.03 17:53:42.
