data_PCOD9355770
_publ_section_title
;
Structure prediction by ZEFSAII (Michael W. Deem and Ramdas Pophale) SiO2 
 PCOD9355770
Probable space group: C C C 2
;
_chemical_formula_sum "Si O2"
_cell_formula_units_Z 30
_cell_length_a 12.000000
_cell_length_b 21.000000
_cell_length_c 12.000000
_cell_angle_alpha 90.000000
_cell_angle_beta 90.000000
_cell_angle_gamma 90.000000
_cell_volume 3024.000000
_symmetry_space_group_name_H-M "C C C 2"
_symmetry_group_IT_number 37
_symmetry_cell_setting 'orthorhombic'
loop_
_space_group_symop_operation_xyz
x,y,z
-x,-y,z
-x,y,1/2+z
x,-y,1/2+z
1/2+x,1/2+y,z
1/2-x,1/2-y,z
1/2-x,1/2+y,1/2+z
1/2+x,1/2-y,1/2+z
loop_
_atom_site_type_symbol
_atom_site_label
_atom_site_fract_x
_atom_site_fract_y
_atom_site_fract_z
Si Si1 0.250000 0.250000 0.349470
Si Si2 0.444720 0.340391 0.756245
Si Si3 0.832409 0.847786 0.520404
Si Si4 0.964462 0.569194 0.922776
Si Si5 0.600656 0.885085 0.619872
Si Si6 0.749356 0.936838 0.817194
Si Si7 0.526450 0.801966 0.283483
Si Si8 0.596315 0.551931 0.348122
O O1 0.172774 0.207104 0.429031
O O2 0.340585 0.209406 0.281683
O O3 0.408442 0.334460 0.627218
O O4 0.341876 0.380398 0.812117
O O5 0.469048 0.268460 0.800300
O O6 0.547543 0.390273 0.772380
O O7 0.704645 0.854638 0.556317
O O8 0.869490 0.912925 0.461445
O O9 0.830183 0.567732 0.924512
O O10 0.000000 0.500000 0.871130
O O11 0.000439 0.637532 0.865847
O O12 0.026754 0.572362 0.039990
O O13 0.661863 0.923736 0.718116
O O14 0.524642 0.829434 0.669993
O O15 0.804705 0.006315 0.805322
O O16 0.500000 0.500000 0.367318
#
# Coordination Sequence:
#
# PCOD9355770 Si02
#       8
#     4   8   8   8   8   8   8   8
#     4  12  22  40  66  92 128 172 210 270 330 390
#     4  10  22  41  67 100 125 163 222 273 331 387
#     4  11  21  39  70  93 124 173 216 260 332 398
#     4  11  23  41  61  90 128 172 219 260 326 397
#     4  10  22  40  62  93 124 172 220 262 324 394
#     4   9  22  40  67  92 131 174 212 275 327 383
#     4  11  24  41  65  93 127 166 219 279 323 392
#     4  10  21  41  66 100 134 166 215 276 330 381
#
# _framework density 9.9206350000000008
#
# number of rings (size 3 to 8) (size 9 to 14) (size 15 to 20)
#    0.000    1.600    2.667    1.600    0.000    9.067 
#    0.000    4.000    0.000    0.000    0.000    0.000 
#    0.000    0.000    0.000    0.000    0.000    0.000 
#
# Total GULP energy -167098.527629 kJ/mol
# GULP energy per Si atom -5569.950921 kJ/mol
# Density = 0.989806 g / cm^3
# Si number density = 9.920635 Si / 1000 Ang^3
#
#
#
# Elastic Constant Matrix: (Units=GPa)
#
#
# Indices 1 2 3 4 5 6 
#
# 1 121.4160 53.4420 49.8890 0.0000 0.0000 0.0000
# 2 53.4420 164.8839 33.2275 0.0000 0.0000 0.0000
# 3 49.8890 33.2275 51.1840 0.0000 0.0000 0.0000
# 4 0.0000 0.0000 0.0000 33.1435 0.0000 0.0000
# 5 0.0000 0.0000 0.0000 0.0000 32.4981 0.0000
# 6 0.0000 0.0000 0.0000 0.0000 0.0000 51.8430
#
#
#
# Elastic Compliance Matrix: (Units=1/GPa)
#
#
# Indices 1 2 3 4 5 6 
#
# 1 0.014348 -0.002108 -0.012617 0.000000 0.000000 0.000000
# 2 -0.002108 0.007287 -0.002676 0.000000 0.000000 0.000000
# 3 -0.012617 -0.002676 0.033572 0.000000 0.000000 0.000000
# 4 0.000000 0.000000 0.000000 0.030172 0.000000 0.000000
# 5 0.000000 0.000000 0.000000 0.000000 0.030771 0.000000
# 6 0.000000 0.000000 0.000000 0.000000 0.000000 0.019289
#
#
# Mechanical properties :
#
#
# Convention : Reuss Voigt Hill
#
# Bulk Modulus (GPa) = 49.00516 67.84455 58.42486
# Shear Modulus (GPa) = 28.24178 36.89197 32.56687
#
# Velocity S-wave (km/s) = 3.77687 4.31670 4.05578
# Velocity P-wave (km/s) = 6.61603 7.68850 7.17234
#
# Compressibility (1/GPa) = 0.02040601
#
# Stress axis : x y z
#
# Youngs Moduli (GPa) = 69.69595 137.22281 29.78674
#
# Poissons Ratio (x) = 0.28926 0.37581
# Poissons Ratio (y) = 0.14692 0.07971
# Poissons Ratio (z) = 0.87932 0.36723
#
# Static dielectric constant tensor:
#      x y z
#    x 1.735580 0.000000 0.000000 
#    y 0.000000 1.710260 0.000000 
#    z 0.000000 0.000000 1.778980 
# 
# From -- ./inp_files/7333.got.cif
#   From: 2010.05.17/outbox.ucp.g08.bks.cvg/sg37_4_cif.got.tgz:7333.got - 2010.06.11 10:38:43.
