data_PCOD9355599
_publ_section_title
;
Structure prediction by ZEFSAII (Michael W. Deem and Ramdas Pophale) SiO2 
 PCOD9355599
Probable space group: C C C 2
;
_chemical_formula_sum "Si O2"
_cell_formula_units_Z 32
_cell_length_a 14.974421
_cell_length_b 12.215982
_cell_length_c 7.945627
_cell_angle_alpha 90.000000
_cell_angle_beta 90.000000
_cell_angle_gamma 90.000000
_cell_volume 1453.471755
_symmetry_space_group_name_H-M "C C C 2"
_symmetry_group_IT_number 37
_symmetry_cell_setting 'orthorhombic'
loop_
_space_group_symop_operation_xyz
x,y,z
-x,-y,z
-x,y,1/2+z
x,-y,1/2+z
1/2+x,1/2+y,z
1/2-x,1/2-y,z
1/2-x,1/2+y,1/2+z
1/2+x,1/2-y,1/2+z
loop_
_atom_site_type_symbol
_atom_site_label
_atom_site_fract_x
_atom_site_fract_y
_atom_site_fract_z
Si Si1 0.443731 0.887843 0.308950
Si Si2 0.256006 0.871312 0.430089
Si Si3 0.214957 0.098958 0.307074
Si Si4 0.888248 0.287699 0.956602
O O1 0.361798 0.899537 0.439467
O O2 0.400199 0.841381 0.139257
O O3 0.515849 0.801276 0.372091
O O4 0.500000 0.000000 0.286080
O O5 0.250000 0.750000 0.355791
O O6 0.208985 0.869229 0.611795
O O7 0.212278 0.968869 0.325405
O O8 0.147302 0.164880 0.427025
O O9 0.312691 0.140468 0.363872
#
# Coordination Sequence:
#
# PCOD9355599 Si02
#       4
#     8   8   8   8
#     4  12  25  42  74 112 144 190 252 310 367 431
#     4  12  26  46  76 105 145 194 249 310 371 445
#     4  11  25  46  69 105 147 189 244 302 375 448
#     4  11  24  43  69 105 145 184 241 305 364 438
#
# _framework density 22.016252999999999
#
# number of rings (size 3 to 8) (size 9 to 14) (size 15 to 20)
#    0.000    0.500    5.000    3.750    7.000    0.000 
#    0.000    1.250    0.000    0.000    0.000    0.000 
#    0.000    0.000    0.000    0.000    0.000    0.000 
#
# Total GULP energy -89461.266131 kJ/mol
# GULP energy per Si atom -5591.329133 kJ/mol
# Density = 2.196614 g / cm^3
# Si number density = 22.016253 Si / 1000 Ang^3
#
#
#
# Elastic Constant Matrix: (Units=GPa)
#
#
# Indices 1 2 3 4 5 6 
#
# 1 60.7778 26.2219 3.3141 0.0000 0.0000 0.0000
# 2 26.2219 186.0891 10.7481 0.0000 0.0000 0.0000
# 3 3.3141 10.7481 55.2194 0.0000 0.0000 0.0000
# 4 0.0000 0.0000 0.0000 23.5121 0.0000 0.0000
# 5 0.0000 0.0000 0.0000 0.0000 28.1517 0.0000
# 6 0.0000 0.0000 0.0000 0.0000 0.0000 44.3622
#
#
#
# Elastic Compliance Matrix: (Units=1/GPa)
#
#
# Indices 1 2 3 4 5 6 
#
# 1 0.017537 -0.002438 -0.000578 0.000000 0.000000 0.000000
# 2 -0.002438 0.005774 -0.000978 0.000000 0.000000 0.000000
# 3 -0.000578 -0.000978 0.018335 0.000000 0.000000 0.000000
# 4 0.000000 0.000000 0.000000 0.042531 0.000000 0.000000
# 5 0.000000 0.000000 0.000000 0.000000 0.035522 0.000000
# 6 0.000000 0.000000 0.000000 0.000000 0.000000 0.022542
#
#
# Mechanical properties :
#
#
# Convention : Reuss Voigt Hill
#
# Bulk Modulus (GPa) = 29.71026 42.51718 36.11372
# Shear Modulus (GPa) = 30.97019 36.65868 33.81443
#
# Velocity S-wave (km/s) = 3.75466 4.08496 3.92329
# Velocity P-wave (km/s) = 5.68513 6.45003 6.07962
#
# Compressibility (1/GPa) = 0.03365841
#
# Stress axis : x y z
#
# Youngs Moduli (GPa) = 57.02350 173.19827 54.54190
#
# Poissons Ratio (x) = 0.42221 0.03153
# Poissons Ratio (y) = 0.13901 0.05332
# Poissons Ratio (z) = 0.03296 0.16930
#
# Static dielectric constant tensor:
#      x y z
#    x 1.807430 0.000000 0.000000 
#    y 0.000000 1.852800 0.000000 
#    z 0.000000 0.000000 1.829780 
# 
# From -- ./inp_files/2571.got.cif
#   From: 2010.05.17/outbox.cif.g08.bks.cpg/sg37_2_cif.got.tgz:2571.got - 2010.06.03 17:53:42.
