data_PCOD9355968
_publ_section_title
;
Structure prediction by ZEFSAII (Michael W. Deem and Ramdas Pophale) SiO2 
 PCOD9355968
Probable space group: A M M 2
;
_chemical_formula_sum "Si O2"
_cell_formula_units_Z 64
_cell_length_a 7.999797
_cell_length_b 27.346168
_cell_length_c 19.233072
_cell_angle_alpha 90.000000
_cell_angle_beta 90.000000
_cell_angle_gamma 90.000000
_cell_volume 4207.499777
_symmetry_space_group_name_H-M "A M M 2"
_symmetry_group_IT_number 38
_symmetry_cell_setting 'orthorhombic'
loop_
_space_group_symop_operation_xyz
x,y,z
-x,-y,z
-x,y,z
x,-y,z
x,1/2+y,1/2+z
-x,1/2-y,1/2+z
-x,1/2+y,1/2+z
x,1/2-y,1/2+z
loop_
_atom_site_type_symbol
_atom_site_label
_atom_site_fract_x
_atom_site_fract_y
_atom_site_fract_z
Si Si1 0.307728 0.195940 0.028250
Si Si2 0.807073 0.288350 0.110662
Si Si3 0.201740 0.055619 0.407923
Si Si4 0.298807 0.647241 0.661204
Si Si5 0.798521 0.444663 0.749901
Si Si6 0.301496 0.850685 0.492268
Si Si7 0.702066 0.743489 0.744773
Si Si8 0.294918 0.743593 0.903502
O O1 0.500000 0.181859 0.015278
O O2 0.302314 0.246461 0.072770
O O3 0.233139 0.157296 0.082928
O O4 0.234836 0.212854 0.954438
O O5 0.761779 0.285256 0.191557
O O6 0.000000 0.274435 0.102224
O O7 0.774797 0.337332 0.067181
O O8 0.258219 0.067330 0.328801
O O9 0.259281 0.096891 0.460824
O O10 0.000000 0.055621 0.407473
O O11 0.256270 0.000000 0.423931
O O12 0.500000 0.651177 0.657536
O O13 0.256005 0.596036 0.695663
O O14 0.241221 0.691829 0.710952
O O15 0.742034 0.500000 0.733753
O O16 0.000000 0.445165 0.751152
O O17 0.500000 0.846377 0.498475
O O18 0.243798 0.807960 0.438581
O O19 0.500000 0.743579 0.745254
O O20 0.759833 0.747851 0.824039
O O21 0.500000 0.744215 0.904255
#
# Coordination Sequence:
#
# PCOD9355968 Si02
#       8
#     8   8   8   8   8   8   8   8
#     4   8  15  28  41  56  79 105 133 165 200 237
#     4  10  18  27  39  57  80 106 134 163 197 235
#     4   9  18  31  43  57  80 107 134 168 207 240
#     4   9  16  25  39  58  80 105 135 170 201 233
#     4   9  18  30  41  55  79 109 138 169 204 239
#     4  10  18  29  44  60  79 106 139 170 200 235
#     4   9  16  27  41  58  80 105 133 163 197 236
#     4   8  14  25  42  59  77 104 134 163 196 235
#
# _framework density 15.210934
#
# number of rings (size 3 to 8) (size 9 to 14) (size 15 to 20)
#    0.000    3.000    0.000    4.500    0.000    4.000 
#    0.000    4.375    0.000    0.000    0.000    0.000 
#    0.000    1.000    0.000    9.250    0.000    3.125 
#
# Total GULP energy -178136.953264 kJ/mol
# GULP energy per Si atom -5566.779789 kJ/mol
# Density = 1.517631 g / cm^3
# Si number density = 15.210934 Si / 1000 Ang^3
#
#
#
# Elastic Constant Matrix: (Units=GPa)
#
#
# Indices 1 2 3 4 5 6 
#
# 1 21.3265 6.1152 10.3982 0.0000 0.0000 0.0000
# 2 6.1152 82.6775 60.5641 0.0000 0.0000 0.0000
# 3 10.3982 60.5641 125.8893 0.0000 0.0000 0.0000
# 4 0.0000 0.0000 0.0000 29.0843 0.0000 0.0000
# 5 0.0000 0.0000 0.0000 0.0000 11.7119 0.0000
# 6 0.0000 0.0000 0.0000 0.0000 0.0000 22.9232
#
#
#
# Elastic Compliance Matrix: (Units=1/GPa)
#
#
# Indices 1 2 3 4 5 6 
#
# 1 0.048913 -0.001017 -0.003551 0.000000 0.000000 0.000000
# 2 -0.001017 0.018699 -0.008912 0.000000 0.000000 0.000000
# 3 -0.003551 -0.008912 0.012524 0.000000 0.000000 0.000000
# 4 0.000000 0.000000 0.000000 0.034383 0.000000 0.000000
# 5 0.000000 0.000000 0.000000 0.000000 0.085383 0.000000
# 6 0.000000 0.000000 0.000000 0.000000 0.000000 0.043624
#
#
# Mechanical properties :
#
#
# Convention : Reuss Voigt Hill
#
# Bulk Modulus (GPa) = 18.80512 42.67202 30.73857
# Shear Modulus (GPa) = 17.34848 22.93161 20.14005
#
# Velocity S-wave (km/s) = 3.38083 3.88696 3.64270
# Velocity P-wave (km/s) = 5.25640 6.94687 6.15990
#
# Compressibility (1/GPa) = 0.05317701
#
# Stress axis : x y z
#
# Youngs Moduli (GPa) = 20.44447 53.48021 79.84590
#
# Poissons Ratio (x) = 0.05437 0.28354
# Poissons Ratio (y) = 0.02078 0.71156
# Poissons Ratio (z) = 0.07260 0.47660
#
# Static dielectric constant tensor:
#      x y z
#    x 1.545840 0.000000 0.000000 
#    y 0.000000 1.495050 0.000000 
#    z 0.000000 0.000000 1.533560 
# 
# From -- ./inp_files/17328.got.cif
#   From: 2010.05.17/outbox.cif.g08.bks.cpg/sg38_9_cif.got.tgz:17328.got - 2010.06.03 18:07:57.
