data_PCOD9355852
_publ_section_title
;
Structure prediction by ZEFSAII (Michael W. Deem and Ramdas Pophale) SiO2 
 PCOD9355852
Probable space group: A M M 2
;
_chemical_formula_sum "Si O2"
_cell_formula_units_Z 64
_cell_length_a 8.736982
_cell_length_b 27.524284
_cell_length_c 18.871902
_cell_angle_alpha 90.000000
_cell_angle_beta 90.000000
_cell_angle_gamma 90.000000
_cell_volume 4538.299402
_symmetry_space_group_name_H-M "A M M 2"
_symmetry_group_IT_number 38
_symmetry_cell_setting 'orthorhombic'
loop_
_space_group_symop_operation_xyz
x,y,z
-x,-y,z
-x,y,z
x,-y,z
x,1/2+y,1/2+z
-x,1/2-y,1/2+z
-x,1/2+y,1/2+z
x,1/2-y,1/2+z
loop_
_atom_site_type_symbol
_atom_site_label
_atom_site_fract_x
_atom_site_fract_y
_atom_site_fract_z
Si Si1 0.183689 0.352206 0.812870
Si Si2 0.677079 0.701034 0.272548
Si Si3 0.186231 0.554696 0.061477
Si Si4 0.315366 0.758062 0.555687
Si Si5 0.676280 0.302351 0.684355
Si Si6 0.816549 0.255484 0.899369
Si Si7 0.813340 0.554797 0.897917
Si Si8 0.184200 0.150742 0.641784
O O1 0.236834 0.340433 0.733461
O O2 0.230115 0.306940 0.863142
O O3 0.240566 0.402514 0.846454
O O4 0.000000 0.353006 0.813367
O O5 0.500000 0.688923 0.285190
O O6 0.681264 0.751479 0.227821
O O7 0.762028 0.713631 0.345398
O O8 0.755300 0.662504 0.220349
O O9 0.236463 0.500000 0.080702
O O10 0.234939 0.598437 0.112014
O O11 0.000000 0.554450 0.062245
O O12 0.231355 0.564199 0.979697
O O13 0.500000 0.760691 0.559033
O O14 0.265660 0.713499 0.607035
O O15 0.258553 0.751669 0.476105
O O16 0.247543 0.807335 0.589593
O O17 0.500000 0.317482 0.678564
O O18 0.000000 0.255100 0.905432
O O19 0.765149 0.500000 0.878897
O O20 0.000000 0.555266 0.896825
O O21 0.000000 0.153165 0.641250
#
# Coordination Sequence:
#
# PCOD9355852 Si02
#       8
#     8   8   8   8   8   8   8   8
#     4   9  16  25  39  58  77 100 131 164 195 226
#     4   9  17  29  41  55  79 108 134 161 200 245
#     4   8  14  24  38  57  81 107 135 170 208 238
#     4  10  19  29  40  56  80 109 137 163 200 247
#     4   8  16  28  39  52  73 103 133 159 190 232
#     4  10  18  27  41  61  81 102 134 171 201 232
#     4   8  13  22  36  55  79 104 130 161 196 231
#     4  10  17  26  42  61  80 105 140 175 202 233
#
# _framework density 14.102199000000001
#
# number of rings (size 3 to 8) (size 9 to 14) (size 15 to 20)
#    0.000    3.000    0.000    3.750    0.000    6.000 
#    0.000    0.000    0.000    1.875    0.000    3.500 
#    0.000    1.000    0.000    9.750    0.000    2.750 
#
# Total GULP energy -178138.125818 kJ/mol
# GULP energy per Si atom -5566.816432 kJ/mol
# Density = 1.407010 g / cm^3
# Si number density = 14.102199 Si / 1000 Ang^3
#
#
#
# Elastic Constant Matrix: (Units=GPa)
#
#
# Indices 1 2 3 4 5 6 
#
# 1 29.0273 22.6516 27.2674 0.0000 0.0000 0.0000
# 2 22.6516 98.3805 63.3179 0.0000 0.0000 0.0000
# 3 27.2674 63.3179 108.4442 0.0000 0.0000 0.0000
# 4 0.0000 0.0000 0.0000 26.8000 0.0000 0.0000
# 5 0.0000 0.0000 0.0000 0.0000 22.8823 0.0000
# 6 0.0000 0.0000 0.0000 0.0000 0.0000 5.0857
#
#
#
# Elastic Compliance Matrix: (Units=1/GPa)
#
#
# Indices 1 2 3 4 5 6 
#
# 1 0.046656 -0.005114 -0.008746 0.000000 0.000000 0.000000
# 2 -0.005114 0.016844 -0.008549 0.000000 0.000000 0.000000
# 3 -0.008746 -0.008549 0.016412 0.000000 0.000000 0.000000
# 4 0.000000 0.000000 0.000000 0.037313 0.000000 0.000000
# 5 0.000000 0.000000 0.000000 0.000000 0.043702 0.000000
# 6 0.000000 0.000000 0.000000 0.000000 0.000000 0.196628
#
#
# Mechanical properties :
#
#
# Convention : Reuss Voigt Hill
#
# Bulk Modulus (GPa) = 28.49360 51.36955 39.93157
# Shear Modulus (GPa) = 12.07521 19.12794 15.60158
#
# Velocity S-wave (km/s) = 2.92937 3.68690 3.32975
# Velocity P-wave (km/s) = 5.62944 7.39121 6.56965
#
# Compressibility (1/GPa) = 0.03509560
#
# Stress axis : x y z
#
# Youngs Moduli (GPa) = 21.43341 59.36736 60.93105
#
# Poissons Ratio (x) = 0.30358 0.53288
# Poissons Ratio (y) = 0.10960 0.52091
# Poissons Ratio (z) = 0.18745 0.50754
#
# Static dielectric constant tensor:
#      x y z
#    x 1.478510 0.000000 0.000000 
#    y 0.000000 1.460950 0.000000 
#    z 0.000000 0.000000 1.461100 
# 
# From -- ./inp_files/17324.got.cif
#   From: 2010.05.17/outbox.cif.g08.bks.cpg/sg38_9_cif.got.tgz:17324.got - 2010.06.03 18:07:57.
