data_PCOD9355752
_publ_section_title
;
Structure prediction by ZEFSAII (Michael W. Deem and Ramdas Pophale) SiO2 
 PCOD9355752
Probable space group: C C C 2
;
_chemical_formula_sum "Si O2"
_cell_formula_units_Z 20
_cell_length_a 7.396663
_cell_length_b 10.189476
_cell_length_c 10.198740
_cell_angle_alpha 90.000000
_cell_angle_beta 90.000000
_cell_angle_gamma 90.000000
_cell_volume 768.659861
_symmetry_space_group_name_H-M "C C C 2"
_symmetry_group_IT_number 37
_symmetry_cell_setting 'orthorhombic'
loop_
_space_group_symop_operation_xyz
x,y,z
-x,-y,z
-x,y,1/2+z
x,-y,1/2+z
1/2+x,1/2+y,z
1/2-x,1/2-y,z
1/2-x,1/2+y,1/2+z
1/2+x,1/2-y,1/2+z
loop_
_atom_site_type_symbol
_atom_site_label
_atom_site_fract_x
_atom_site_fract_y
_atom_site_fract_z
Si Si1 0.654481 0.611232 0.743390
Si Si2 0.500000 0.000000 0.616390
Si Si3 0.539390 0.279422 0.990302
O O1 0.750000 0.750000 0.739704
O O2 0.546812 0.631889 0.877154
O O3 0.522185 0.633092 0.620807
O O4 0.821298 0.516302 0.707759
O O5 0.528520 0.131529 0.527505
O O6 0.750000 0.250000 0.957537
#
# Coordination Sequence:
#
# PCOD9355752 Si02
#       3
#     8   4   8
#     4   9  19  37  67 101 142 189 239 298 361 438
#     4   8  18  38  66 106 150 190 236 306 374 426
#     4   9  19  36  66 105 143 188 241 297 365 443
#
# _framework density 26.019310999999998
#
# number of rings (size 3 to 8) (size 9 to 14) (size 15 to 20)
#    0.000    4.000    0.000    0.000    0.000    8.000 
#    0.000    0.000    0.000  115.200    0.000    0.000 
#    0.000    0.000    0.000    0.000    0.000    0.000 
#
# Total GULP energy -55705.721841 kJ/mol
# GULP energy per Si atom -5570.572184 kJ/mol
# Density = 2.596009 g / cm^3
# Si number density = 26.019311 Si / 1000 Ang^3
#
#
#
# Elastic Constant Matrix: (Units=GPa)
#
#
# Indices 1 2 3 4 5 6 
#
# 1 142.8239 75.5909 92.3186 0.0000 0.0000 0.0000
# 2 75.5909 209.4004 64.9324 0.0000 0.0000 0.0000
# 3 92.3186 64.9324 269.9248 0.0000 0.0000 0.0000
# 4 0.0000 0.0000 0.0000 13.8929 0.0000 0.0000
# 5 0.0000 0.0000 0.0000 0.0000 67.4749 0.0000
# 6 0.0000 0.0000 0.0000 0.0000 0.0000 54.4158
#
#
#
# Elastic Compliance Matrix: (Units=1/GPa)
#
#
# Indices 1 2 3 4 5 6 
#
# 1 0.010358 -0.002853 -0.002856 0.000000 0.000000 0.000000
# 2 -0.002853 0.005947 -0.000455 0.000000 0.000000 0.000000
# 3 -0.002856 -0.000455 0.004791 0.000000 0.000000 0.000000
# 4 0.000000 0.000000 0.000000 0.071979 0.000000 0.000000
# 5 0.000000 0.000000 0.000000 0.000000 0.014820 0.000000
# 6 0.000000 0.000000 0.000000 0.000000 0.000000 0.018377
#
#
# Mechanical properties :
#
#
# Convention : Reuss Voigt Hill
#
# Bulk Modulus (GPa) = 114.06249 120.87031 117.46640
# Shear Modulus (GPa) = 35.32993 53.11052 44.22023
#
# Velocity S-wave (km/s) = 3.68888 4.52286 4.12699
# Velocity P-wave (km/s) = 7.87887 8.59244 8.24338
#
# Compressibility (1/GPa) = 0.00876712
#
# Stress axis : x y z
#
# Youngs Moduli (GPa) = 96.54344 168.16471 208.72700
#
# Poissons Ratio (x) = 0.47985 0.59616
# Poissons Ratio (y) = 0.27548 0.09488
# Poissons Ratio (z) = 0.27575 0.07644
#
# Static dielectric constant tensor:
#      x y z
#    x 1.241830 0.000000 0.000000 
#    y 0.000000 2.004550 0.000000 
#    z 0.000000 0.000000 2.181480 
# 
# From -- ./inp_files/1850.got.cif
#   From: 2010.05.17/outbox.cif.g08.bks.cpg/sg37_1_cif.got.tgz:1850.got - 2010.06.03 17:53:42.
