data_PCOD9355748
_publ_section_title
;
Structure prediction by ZEFSAII (Michael W. Deem and Ramdas Pophale) SiO2 
 PCOD9355748
Probable space group: C C C 2
;
_chemical_formula_sum "Si O2"
_cell_formula_units_Z 24
_cell_length_a 9.203661
_cell_length_b 9.176156
_cell_length_c 8.965368
_cell_angle_alpha 90.000000
_cell_angle_beta 90.000000
_cell_angle_gamma 90.000000
_cell_volume 757.163243
_symmetry_space_group_name_H-M "C C C 2"
_symmetry_group_IT_number 37
_symmetry_cell_setting 'orthorhombic'
loop_
_space_group_symop_operation_xyz
x,y,z
-x,-y,z
-x,y,1/2+z
x,-y,1/2+z
1/2+x,1/2+y,z
1/2-x,1/2-y,z
1/2-x,1/2+y,1/2+z
1/2+x,1/2-y,1/2+z
loop_
_atom_site_type_symbol
_atom_site_label
_atom_site_fract_x
_atom_site_fract_y
_atom_site_fract_z
Si Si1 0.067547 0.181905 0.863440
Si Si2 0.750000 0.250000 0.818232
Si Si3 0.000000 0.500000 0.927185
Si Si4 0.731640 0.499256 0.113642
O O1 0.417953 0.143022 0.862920
O O2 0.106646 0.832986 0.875892
O O3 0.135571 0.108722 0.715423
O O4 0.137091 0.105484 0.007179
O O5 0.813800 0.381492 0.717411
O O6 0.134396 0.570501 0.022867
#
# Coordination Sequence:
#
# PCOD9355748 Si02
#       4
#     8   4   4   8
#     4  12  30  60 100 145 198 259 335 413 499 595
#     4  12  28  54  98 144 190 266 334 402 498 598
#     4  12  28  62  98 150 192 272 332 406 510 608
#     4  12  29  61 100 145 201 261 334 419 497 596
#
# _framework density 31.697258000000001
#
# number of rings (size 3 to 8) (size 9 to 14) (size 15 to 20)
#    0.000    0.000    3.333    3.000    0.000   18.667 
#    6.000    0.000   14.667    4.000    0.000    0.000 
#    0.000    0.000    0.000    0.000    0.000    0.000 
#
# Total GULP energy -67346.702589 kJ/mol
# GULP energy per Si atom -5612.225216 kJ/mol
# Density = 3.162511 g / cm^3
# Si number density = 31.697258 Si / 1000 Ang^3
#
#
#
# Elastic Constant Matrix: (Units=GPa)
#
#
# Indices 1 2 3 4 5 6 
#
# 1 286.3237 48.1523 86.2586 0.0000 0.0000 0.0000
# 2 48.1523 307.6376 100.7544 0.0000 0.0000 0.0000
# 3 86.2586 100.7544 197.5879 0.0000 0.0000 0.0000
# 4 0.0000 0.0000 0.0000 57.2860 0.0000 0.0000
# 5 0.0000 0.0000 0.0000 0.0000 55.0895 0.0000
# 6 0.0000 0.0000 0.0000 0.0000 0.0000 54.0086
#
#
#
# Elastic Compliance Matrix: (Units=1/GPa)
#
#
# Indices 1 2 3 4 5 6 
#
# 1 0.004023 -0.000065 -0.001723 0.000000 0.000000 0.000000
# 2 -0.000065 0.003903 -0.001962 0.000000 0.000000 0.000000
# 3 -0.001723 -0.001962 0.006813 0.000000 0.000000 0.000000
# 4 0.000000 0.000000 0.000000 0.017456 0.000000 0.000000
# 5 0.000000 0.000000 0.000000 0.000000 0.018152 0.000000
# 6 0.000000 0.000000 0.000000 0.000000 0.000000 0.018516
#
#
# Mechanical properties :
#
#
# Convention : Reuss Voigt Hill
#
# Bulk Modulus (GPa) = 138.13246 140.20887 139.17067
# Shear Modulus (GPa) = 63.47062 70.36907 66.91985
#
# Velocity S-wave (km/s) = 4.47967 4.71684 4.59978
# Velocity P-wave (km/s) = 8.39225 8.60201 8.49778
#
# Compressibility (1/GPa) = 0.00723943
#
# Stress axis : x y z
#
# Youngs Moduli (GPa) = 248.59899 256.19090 146.76757
#
# Poissons Ratio (x) = 0.01676 0.25284
# Poissons Ratio (y) = 0.01626 0.28793
# Poissons Ratio (z) = 0.42827 0.50261
#
# Static dielectric constant tensor:
#      x y z
#    x 2.528540 0.000000 0.000000 
#    y 0.000000 2.442840 0.000000 
#    z 0.000000 0.000000 2.724460 
# 
# From -- ./inp_files/1656.got.cif
#   From: 2010.05.17/outbox.cif.g08.bks.cpg/sg37_1_cif.got.tgz:1656.got - 2010.06.03 17:53:42.
