data_PCOD9355004
_publ_section_title
;
Structure prediction by ZEFSAII (Michael W. Deem and Ramdas Pophale) SiO2 
 PCOD9355004
Probable space group: C C C 2
;
_chemical_formula_sum "Si O2"
_cell_formula_units_Z 56
_cell_length_a 5.284165
_cell_length_b 30.344026
_cell_length_c 14.281269
_cell_angle_alpha 90.000000
_cell_angle_beta 90.000000
_cell_angle_gamma 90.000000
_cell_volume 2289.899232
_symmetry_space_group_name_H-M "C C C 2"
_symmetry_group_IT_number 37
_symmetry_cell_setting 'orthorhombic'
loop_
_space_group_symop_operation_xyz
x,y,z
-x,-y,z
-x,y,1/2+z
x,-y,1/2+z
1/2+x,1/2+y,z
1/2-x,1/2-y,z
1/2-x,1/2+y,1/2+z
1/2+x,1/2-y,1/2+z
loop_
_atom_site_type_symbol
_atom_site_label
_atom_site_fract_x
_atom_site_fract_y
_atom_site_fract_z
Si Si1 0.567922 0.613115 0.765140
Si Si2 0.500000 0.000000 0.786585
Si Si3 0.553392 0.907450 0.371743
Si Si4 0.400039 0.542137 0.639881
Si Si5 0.126485 0.375076 0.052767
Si Si6 0.933804 0.211374 0.504618
Si Si7 0.715432 0.184747 0.164232
Si Si8 0.250000 0.750000 0.322011
O O1 0.812917 0.617836 0.828986
O O2 0.605163 0.570927 0.697168
O O3 0.547601 0.657448 0.705488
O O4 0.313836 0.603136 0.820612
O O5 0.528726 0.958074 0.855287
O O6 0.282933 0.981299 0.716452
O O7 0.577415 0.891244 0.477258
O O8 0.500000 0.500000 0.583235
O O9 0.266239 0.580306 0.581797
O O10 0.986095 0.352184 0.138529
O O11 0.297171 0.335941 0.010481
O O12 0.750000 0.250000 0.546647
O O13 0.942030 0.226389 0.395526
O O14 0.184265 0.205919 0.567349
O O15 0.627705 0.216483 0.247360
#
# Coordination Sequence:
#
# PCOD9355004 Si02
#       8
#     8   4   8   8   8   8   8   4
#     4  11  24  47  77 106 152 216 257 328 407 476
#     4  10  22  46  66 104 150 206 258 320 402 480
#     4  11  26  44  73 110 154 204 269 327 400 487
#     4  11  23  45  73 106 153 209 269 327 401 488
#     4  12  27  45  75 115 153 208 273 338 406 499
#     4  10  25  49  72 112 154 200 272 334 413 500
#     4  12  24  48  78 112 157 209 272 342 407 505
#     4  10  26  48  80 110 156 208 266 342 430 482
#
# _framework density 24.455223
#
# number of rings (size 3 to 8) (size 9 to 14) (size 15 to 20)
#    0.429    0.571    2.857    3.429    4.000    0.571 
#    7.714    1.429    0.000    0.000    0.000    0.000 
#    0.000    0.000    0.000    0.000    0.000    0.000 
#
# Total GULP energy -156425.197057 kJ/mol
# GULP energy per Si atom -5586.614181 kJ/mol
# Density = 2.439956 g / cm^3
# Si number density = 24.455223 Si / 1000 Ang^3
#
#
#
# Elastic Constant Matrix: (Units=GPa)
#
#
# Indices 1 2 3 4 5 6 
#
# 1 67.4852 32.9394 27.1381 0.0000 0.0000 0.0000
# 2 32.9394 173.6131 71.9690 0.0000 0.0000 0.0000
# 3 27.1381 71.9690 123.9328 0.0000 0.0000 0.0000
# 4 0.0000 0.0000 0.0000 41.9000 0.0000 0.0000
# 5 0.0000 0.0000 0.0000 0.0000 10.4609 0.0000
# 6 0.0000 0.0000 0.0000 0.0000 0.0000 33.1776
#
#
#
# Elastic Compliance Matrix: (Units=1/GPa)
#
#
# Indices 1 2 3 4 5 6 
#
# 1 0.016862 -0.002198 -0.002416 0.000000 0.000000 0.000000
# 2 -0.002198 0.007873 -0.004090 0.000000 0.000000 0.000000
# 3 -0.002416 -0.004090 0.010973 0.000000 0.000000 0.000000
# 4 0.000000 0.000000 0.000000 0.023866 0.000000 0.000000
# 5 0.000000 0.000000 0.000000 0.000000 0.095594 0.000000
# 6 0.000000 0.000000 0.000000 0.000000 0.000000 0.030141
#
#
# Mechanical properties :
#
#
# Convention : Reuss Voigt Hill
#
# Bulk Modulus (GPa) = 54.64596 69.90270 62.27433
# Shear Modulus (GPa) = 23.94435 32.64001 28.29218
#
# Velocity S-wave (km/s) = 3.13247 3.65730 3.40501
# Velocity P-wave (km/s) = 5.95625 6.81766 6.40146
#
# Compressibility (1/GPa) = 0.01829962
#
# Stress axis : x y z
#
# Youngs Moduli (GPa) = 59.30361 127.02403 91.13009
#
# Poissons Ratio (x) = 0.27916 0.22019
# Poissons Ratio (y) = 0.13033 0.37276
# Poissons Ratio (z) = 0.14329 0.51958
#
# Static dielectric constant tensor:
#      x y z
#    x 1.990620 0.000000 0.000000 
#    y 0.000000 2.009180 0.000000 
#    z 0.000000 0.000000 2.004130 
# 
# From -- ./inp_files/9950.got.cif
#   From: 2010.05.17/outbox.cif.g08.bks.cpg/sg37_5_cif.got.tgz:9950.got - 2010.06.03 17:53:42.
