data_PCOD9355926
_publ_section_title
;
Structure prediction by ZEFSAII (Michael W. Deem and Ramdas Pophale) SiO2 
 PCOD9355926
Probable space group: A M M 2
;
_chemical_formula_sum "Si O2"
_cell_formula_units_Z 64
_cell_length_a 7.481356
_cell_length_b 16.038737
_cell_length_c 24.694857
_cell_angle_alpha 90.000000
_cell_angle_beta 90.000000
_cell_angle_gamma 90.000000
_cell_volume 2963.172966
_symmetry_space_group_name_H-M "A M M 2"
_symmetry_group_IT_number 38
_symmetry_cell_setting 'orthorhombic'
loop_
_space_group_symop_operation_xyz
x,y,z
-x,-y,z
-x,y,z
x,-y,z
x,1/2+y,1/2+z
-x,1/2-y,1/2+z
-x,1/2+y,1/2+z
x,1/2-y,1/2+z
loop_
_atom_site_type_symbol
_atom_site_label
_atom_site_fract_x
_atom_site_fract_y
_atom_site_fract_z
Si Si1 0.284590 0.907205 0.606500
Si Si2 0.781556 0.407808 0.840429
Si Si3 0.219583 0.749744 0.410243
Si Si4 0.787713 0.753172 0.033534
Si Si5 0.786084 0.649597 0.723217
Si Si6 0.218861 0.407151 0.605824
Si Si7 0.711996 0.346711 0.223508
Si Si8 0.791205 0.908310 0.842292
O O1 0.500000 0.908884 0.608897
O O2 0.238247 0.832872 0.565795
O O3 0.219469 0.885028 0.667165
O O4 0.223162 0.000000 0.590674
O O5 0.726467 0.500000 0.857947
O O6 0.723509 0.333026 0.878983
O O7 0.720521 0.389999 0.779053
O O8 0.000000 0.406336 0.839851
O O9 0.280243 0.749515 0.472267
O O10 0.281908 0.668491 0.377151
O O11 0.000000 0.750024 0.409427
O O12 0.718073 0.831480 0.068165
O O13 0.000000 0.765956 0.029323
O O14 0.720709 0.609925 0.667365
O O15 0.749228 0.748132 0.723319
O O16 0.000000 0.638501 0.723280
O O17 0.271378 0.500000 0.588253
O O18 0.000000 0.404982 0.606187
O O19 0.500000 0.359763 0.224684
O O20 0.782815 0.386299 0.278717
O O21 0.000000 0.912862 0.856919
O O22 0.712235 0.000000 0.851658
#
# Coordination Sequence:
#
# PCOD9355926 Si02
#       8
#     8   8   8   8   8   8   8   8
#     4  10  22  39  56  75 105 144 180 219 274 330
#     4   9  16  27  48  75 102 132 165 207 258 308
#     4   9  18  32  50  78 110 136 169 215 261 305
#     4  10  20  34  55  81 107 138 180 224 261 309
#     4  10  17  30  53  77 102 133 174 216 263 318
#     4   9  17  29  49  79 109 134 167 214 264 312
#     4  11  21  34  55  80 108 140 176 218 271 323
#     4  10  20  35  56  81 109 142 177 215 262 316
#
# _framework density 21.598469999999999
#
# number of rings (size 3 to 8) (size 9 to 14) (size 15 to 20)
#    0.000    2.250    2.500    1.125    0.000    4.000 
#    0.000    4.375    0.000    2.625    0.000    0.000 
#    0.000    0.000    0.000    0.000    0.000    0.000 
#
# Total GULP energy -178779.146218 kJ/mol
# GULP energy per Si atom -5586.848319 kJ/mol
# Density = 2.154931 g / cm^3
# Si number density = 21.598470 Si / 1000 Ang^3
#
#
#
# Elastic Constant Matrix: (Units=GPa)
#
#
# Indices 1 2 3 4 5 6 
#
# 1 60.5568 -1.3199 2.8653 0.0000 0.0000 0.0000
# 2 -1.3199 231.3785 116.4341 0.0000 0.0000 0.0000
# 3 2.8653 116.4341 188.2928 0.0000 0.0000 0.0000
# 4 0.0000 0.0000 0.0000 1.0077 0.0000 0.0000
# 5 0.0000 0.0000 0.0000 0.0000 0.1253 0.0000
# 6 0.0000 0.0000 0.0000 0.0000 0.0000 -337.0111
#
#
#
# Elastic Compliance Matrix: (Units=1/GPa)
#
#
# Indices 1 2 3 4 5 6 
#
# 1 0.016542 0.000321 -0.000450 0.000000 0.000000 0.000000
# 2 0.000321 0.006281 -0.003889 0.000000 0.000000 0.000000
# 3 -0.000450 -0.003889 0.007722 0.000000 0.000000 0.000000
# 4 0.000000 0.000000 0.000000 0.992312 0.000000 0.000000
# 5 0.000000 0.000000 0.000000 0.000000 7.980274 0.000000
# 6 0.000000 0.000000 0.000000 0.000000 0.000000 -0.002967
#
#
# Mechanical properties :
#
#
# Convention : Reuss Voigt Hill
#
# Bulk Modulus (GPa) = 44.42691 79.57636 62.00163
# Shear Modulus (GPa) = 0.55459 -43.02571 -21.23556
#
# Velocity S-wave (km/s) = 0.50728 -4.46811 -3.13900
# Velocity P-wave (km/s) = 4.57791 3.21012 3.95361
#
# Compressibility (1/GPa) = 0.02250888
#
# Stress axis : x y z
#
# Youngs Moduli (GPa) = 60.45326 159.22155 129.49520
#
# Poissons Ratio (x) = -0.05109 0.05829
# Poissons Ratio (y) = -0.01940 0.50355
# Poissons Ratio (z) = 0.02721 0.61914
#
# Static dielectric constant tensor:
#      x y z
#    x 1.830420 0.000000 0.000000 
#    y 0.000000 1.758160 0.000000 
#    z 0.000000 0.000000 1.744060 
# 
# From -- ./inp_files/22127.got.cif
#   From: 2010.05.17/outbox.cif.g08.bks.cpg/sg38_12_cif.got.tgz:22127.got - 2010.06.03 18:07:57.
