data_PCOD9355591
_publ_section_title
;
Structure prediction by ZEFSAII (Michael W. Deem and Ramdas Pophale) SiO2 
 PCOD9355591
Probable space group: C C C 2
;
_chemical_formula_sum "Si O2"
_cell_formula_units_Z 52
_cell_length_a 15.221321
_cell_length_b 8.701832
_cell_length_c 19.121652
_cell_angle_alpha 90.000000
_cell_angle_beta 90.000000
_cell_angle_gamma 90.000000
_cell_volume 2532.727403
_symmetry_space_group_name_H-M "C C C 2"
_symmetry_group_IT_number 37
_symmetry_cell_setting 'orthorhombic'
loop_
_space_group_symop_operation_xyz
x,y,z
-x,-y,z
-x,y,1/2+z
x,-y,1/2+z
1/2+x,1/2+y,z
1/2-x,1/2-y,z
1/2-x,1/2+y,1/2+z
1/2+x,1/2-y,1/2+z
loop_
_atom_site_type_symbol
_atom_site_label
_atom_site_fract_x
_atom_site_fract_y
_atom_site_fract_z
Si Si1 0.547473 0.668151 0.276720
Si Si2 0.987120 0.181666 0.936355
Si Si3 0.343896 0.825590 0.034870
Si Si4 0.659516 0.843324 0.966854
Si Si5 0.194540 0.589588 0.309816
Si Si6 0.569066 0.126966 0.179951
Si Si7 0.750000 0.250000 0.788786
O O1 0.500000 0.500000 0.279253
O O2 0.530283 0.731458 0.355606
O O3 0.490201 0.749486 0.218459
O O4 0.650736 0.705736 0.258719
O O5 0.071868 0.246281 0.976930
O O6 0.905231 0.236628 0.980907
O O7 0.000000 0.000000 0.934293
O O8 0.250000 0.750000 0.030380
O O9 0.378774 0.813536 0.113580
O O10 0.340564 0.003354 0.012061
O O11 0.750000 0.750000 0.977101
O O12 0.651169 0.880186 0.884345
O O13 0.250000 0.750000 0.297734
O O14 0.134406 0.570657 0.241455
O O15 0.236562 0.420097 0.322354
O O16 0.500000 0.000000 0.155214
#
# Coordination Sequence:
#
# PCOD9355591 Si02
#       7
#     8   8   8   8   8   8   4
#     4  11  25  43  74 109 150 188 250 315 375 451
#     4  11  24  44  71 108 146 191 243 304 369 444
#     4  12  28  46  73 102 147 196 244 298 381 459
#     4  11  24  44  71 107 144 189 244 309 366 443
#     4  11  24  42  72 106 150 188 249 310 371 446
#     4  12  24  48  67 101 145 195 238 302 376 440
#     4  12  24  40  70 110 138 194 244 308 378 454
#
# _framework density 20.531227000000001
#
# number of rings (size 3 to 8) (size 9 to 14) (size 15 to 20)
#    0.000    0.615    3.077    4.615   10.769    0.615 
#    1.385    1.538    0.000    0.000    0.000    0.000 
#    0.000    0.000    0.000    0.000    0.000    0.000 
#
# Total GULP energy -144860.139687 kJ/mol
# GULP energy per Si atom -5571.543834 kJ/mol
# Density = 2.048450 g / cm^3
# Si number density = 20.531227 Si / 1000 Ang^3
#
#
#
# Elastic Constant Matrix: (Units=GPa)
#
#
# Indices 1 2 3 4 5 6 
#
# 1 154.6457 60.3294 64.6076 0.0000 0.0000 0.0000
# 2 60.3294 109.7307 24.0566 0.0000 0.0000 0.0000
# 3 64.6076 24.0566 94.6672 0.0000 0.0000 0.0000
# 4 0.0000 0.0000 0.0000 45.4964 0.0000 0.0000
# 5 0.0000 0.0000 0.0000 0.0000 31.6678 0.0000
# 6 0.0000 0.0000 0.0000 0.0000 0.0000 -244.9954
#
#
#
# Elastic Compliance Matrix: (Units=1/GPa)
#
#
# Indices 1 2 3 4 5 6 
#
# 1 0.010876 -0.004609 -0.006251 0.000000 0.000000 0.000000
# 2 -0.004609 0.011604 0.000197 0.000000 0.000000 0.000000
# 3 -0.006251 0.000197 0.014780 0.000000 0.000000 0.000000
# 4 0.000000 0.000000 0.000000 0.021980 0.000000 0.000000
# 5 0.000000 0.000000 0.000000 0.000000 0.031578 0.000000
# 6 0.000000 0.000000 0.000000 0.000000 0.000000 -0.004082
#
#
# Mechanical properties :
#
#
# Convention : Reuss Voigt Hill
#
# Bulk Modulus (GPa) = 62.76471 73.00342 67.88406
# Shear Modulus (GPa) = 44.10169 -19.56290 12.26940
#
# Velocity S-wave (km/s) = 4.63971 -3.09015 2.44723
# Velocity P-wave (km/s) = 7.70320 4.78564 6.41255
#
# Compressibility (1/GPa) = 0.01593252
#
# Stress axis : x y z
#
# Youngs Moduli (GPa) = 91.94397 86.17592 67.66029
#
# Poissons Ratio (x) = 0.39720 0.42297
# Poissons Ratio (y) = 0.42378 -0.01331
# Poissons Ratio (z) = 0.57478 -0.01696
#
# Static dielectric constant tensor:
#      x y z
#    x 1.802070 0.000000 0.000000 
#    y 0.000000 2.230850 0.000000 
#    z 0.000000 0.000000 1.694840 
# 
# From -- ./inp_files/17123.got.cif
#   From: 2010.05.17/outbox.cif.g08.bks.cpg/sg37_9_cif.got.tgz:17123.got - 2010.06.03 17:53:42.
