data_PCOD9355006
_publ_section_title
;
Structure prediction by ZEFSAII (Michael W. Deem and Ramdas Pophale) SiO2 
 PCOD9355006
Probable space group: C C C 2
;
_chemical_formula_sum "Si O2"
_cell_formula_units_Z 44
_cell_length_a 8.834422
_cell_length_b 17.861333
_cell_length_c 13.639995
_cell_angle_alpha 90.000000
_cell_angle_beta 90.000000
_cell_angle_gamma 90.000000
_cell_volume 2152.316917
_symmetry_space_group_name_H-M "C C C 2"
_symmetry_group_IT_number 37
_symmetry_cell_setting 'orthorhombic'
loop_
_space_group_symop_operation_xyz
x,y,z
-x,-y,z
-x,y,1/2+z
x,-y,1/2+z
1/2+x,1/2+y,z
1/2-x,1/2-y,z
1/2-x,1/2+y,1/2+z
1/2+x,1/2-y,1/2+z
loop_
_atom_site_type_symbol
_atom_site_label
_atom_site_fract_x
_atom_site_fract_y
_atom_site_fract_z
Si Si1 0.500000 0.000000 0.689461
Si Si2 0.028025 0.119662 0.548127
Si Si3 0.748799 0.991230 0.022682
Si Si4 0.903141 0.398626 0.359018
Si Si5 0.641435 0.685142 0.744829
Si Si6 0.069734 0.253742 0.405821
O O1 0.644307 0.001101 0.618271
O O2 0.487913 0.070185 0.763129
O O3 0.075369 0.134364 0.659720
O O4 0.017737 0.198214 0.492198
O O5 0.874628 0.072571 0.541254
O O6 0.160215 0.067633 0.502676
O O7 0.650196 0.964066 0.931127
O O8 0.750318 0.359301 0.319093
O O9 0.003879 0.337409 0.415515
O O10 0.750000 0.750000 0.701112
O O11 0.507772 0.722626 0.806872
O O12 0.250000 0.250000 0.400816
#
# Coordination Sequence:
#
# PCOD9355006 Si02
#       6
#     4   8   8   8   8   8
#     4  12  26  44  72 100 140 180 238 286 350 424
#     4  11  24  46  70 101 139 178 233 286 349 423
#     4  11  26  44  72 103 135 186 229 290 354 412
#     4  11  25  47  68 101 143 181 232 290 348 422
#     4  10  22  46  67  96 136 179 225 282 341 409
#     4  11  26  43  70 100 135 184 229 289 349 415
#
# _framework density 20.443087999999999
#
# number of rings (size 3 to 8) (size 9 to 14) (size 15 to 20)
#    0.000    1.091    3.636    1.091    7.636    2.909 
#    0.000    0.000    0.000    0.000    0.000    0.000 
#    0.000    0.000    0.000    0.000    0.000    0.000 
#
# Total GULP energy -123028.872318 kJ/mol
# GULP energy per Si atom -5592.221469 kJ/mol
# Density = 2.039656 g / cm^3
# Si number density = 20.443088 Si / 1000 Ang^3
#
#
#
# Elastic Constant Matrix: (Units=GPa)
#
#
# Indices 1 2 3 4 5 6 
#
# 1 88.0346 13.0048 23.4846 0.0000 0.0000 0.0000
# 2 13.0048 45.8833 16.4251 0.0000 0.0000 0.0000
# 3 23.4846 16.4251 61.7724 0.0000 0.0000 0.0000
# 4 0.0000 0.0000 0.0000 43.0676 0.0000 0.0000
# 5 0.0000 0.0000 0.0000 0.0000 26.5851 0.0000
# 6 0.0000 0.0000 0.0000 0.0000 0.0000 29.4533
#
#
#
# Elastic Compliance Matrix: (Units=1/GPa)
#
#
# Indices 1 2 3 4 5 6 
#
# 1 0.012820 -0.002087 -0.004319 0.000000 0.000000 0.000000
# 2 -0.002087 0.024427 -0.005701 0.000000 0.000000 0.000000
# 3 -0.004319 -0.005701 0.019346 0.000000 0.000000 0.000000
# 4 0.000000 0.000000 0.000000 0.023219 0.000000 0.000000
# 5 0.000000 0.000000 0.000000 0.000000 0.037615 0.000000
# 6 0.000000 0.000000 0.000000 0.000000 0.000000 0.033952
#
#
# Mechanical properties :
#
#
# Convention : Reuss Voigt Hill
#
# Bulk Modulus (GPa) = 30.88544 33.50214 32.19379
# Shear Modulus (GPa) = 26.82585 29.33959 28.08272
#
# Velocity S-wave (km/s) = 3.62639 3.79249 3.71037
# Velocity P-wave (km/s) = 5.71621 5.96665 5.84277
#
# Compressibility (1/GPa) = 0.03237771
#
# Stress axis : x y z
#
# Youngs Moduli (GPa) = 78.00544 40.93820 51.68932
#
# Poissons Ratio (x) = 0.08546 0.22323
# Poissons Ratio (y) = 0.16284 0.29471
# Poissons Ratio (z) = 0.33688 0.23341
#
# Static dielectric constant tensor:
#      x y z
#    x 1.705890 0.000000 0.000000 
#    y 0.000000 1.765070 0.000000 
#    z 0.000000 0.000000 1.679970 
# 
# From -- ./inp_files/10541.got.cif
#   From: 2010.05.17/outbox.cif.g08.bks.cpg/sg37_6_cif.got.tgz:10541.got - 2010.06.03 17:53:42.
