data_PCOD9355629
_publ_section_title
;
Structure prediction by ZEFSAII (Michael W. Deem and Ramdas Pophale) SiO2 
 PCOD9355629
Probable space group: C C C 2
;
_chemical_formula_sum "Si O2"
_cell_formula_units_Z 60
_cell_length_a 25.020383
_cell_length_b 8.082017
_cell_length_c 12.142600
_cell_angle_alpha 90.000000
_cell_angle_beta 90.000000
_cell_angle_gamma 90.000000
_cell_volume 2455.417811
_symmetry_space_group_name_H-M "C C C 2"
_symmetry_group_IT_number 37
_symmetry_cell_setting 'orthorhombic'
loop_
_space_group_symop_operation_xyz
x,y,z
-x,-y,z
-x,y,1/2+z
x,-y,1/2+z
1/2+x,1/2+y,z
1/2-x,1/2-y,z
1/2-x,1/2+y,1/2+z
1/2+x,1/2-y,1/2+z
loop_
_atom_site_type_symbol
_atom_site_label
_atom_site_fract_x
_atom_site_fract_y
_atom_site_fract_z
Si Si1 0.090405 0.216186 0.937680
Si Si2 0.128370 0.734918 0.016847
Si Si3 0.888327 0.598056 0.743397
Si Si4 0.299513 0.001750 0.381931
Si Si5 0.049228 0.103343 0.357273
Si Si6 0.539855 0.837973 0.157395
Si Si7 0.803872 0.930347 0.021738
Si Si8 0.250000 0.750000 0.719794
O O1 0.077087 0.358044 0.849908
O O2 0.089744 0.052202 0.858855
O O3 0.051664 0.252134 0.040738
O O4 0.149632 0.199454 0.990242
O O5 0.105586 0.712192 0.138420
O O6 0.168156 0.890732 0.020852
O O7 0.160998 0.574827 0.975689
O O8 0.078917 0.768633 0.936155
O O9 0.829709 0.615946 0.795720
O O10 0.904704 0.419035 0.700315
O O11 0.288817 0.157393 0.302860
O O12 0.245500 0.938445 0.436893
O O13 0.029391 0.194543 0.247515
O O14 0.000000 0.000000 0.406811
O O15 0.500000 0.000000 0.153053
O O16 0.779789 0.877868 0.139175
#
# Coordination Sequence:
#
# PCOD9355629 Si02
#       8
#     8   8   8   8   8   8   8   4
#     4  11  28  47  78 112 156 202 270 335 397 491
#     4  11  25  46  73 110 158 204 261 331 398 484
#     4  12  26  46  78 109 157 204 266 329 410 480
#     4  12  23  45  70 105 151 207 257 331 394 483
#     4  11  27  50  80 111 155 202 266 324 408 484
#     4  12  28  51  82 115 160 209 271 339 418 488
#     4  11  25  44  69 109 152 206 267 321 407 470
#     4  12  24  40  70  98 154 200 260 318 394 468
#
# _framework density 24.435758
#
# number of rings (size 3 to 8) (size 9 to 14) (size 15 to 20)
#    0.000    0.533    2.667    4.000    7.467    1.067 
#    0.000    0.000    0.000    0.000    0.000    0.000 
#    0.000    0.000    0.000    0.000    0.000    0.000 
#
# Total GULP energy -167554.035045 kJ/mol
# GULP energy per Si atom -5585.134501 kJ/mol
# Density = 2.438014 g / cm^3
# Si number density = 24.435758 Si / 1000 Ang^3
#
#
#
# Elastic Constant Matrix: (Units=GPa)
#
#
# Indices 1 2 3 4 5 6 
#
# 1 94.6511 25.5341 44.8796 0.0000 0.0000 0.0000
# 2 25.5341 108.6746 60.3087 0.0000 0.0000 0.0000
# 3 44.8796 60.3087 167.3456 0.0000 0.0000 0.0000
# 4 0.0000 0.0000 0.0000 44.8533 0.0000 0.0000
# 5 0.0000 0.0000 0.0000 0.0000 20.2784 0.0000
# 6 0.0000 0.0000 0.0000 0.0000 0.0000 43.3479
#
#
#
# Elastic Compliance Matrix: (Units=1/GPa)
#
#
# Indices 1 2 3 4 5 6 
#
# 1 0.012254 -0.001319 -0.002811 0.000000 0.000000 0.000000
# 2 -0.001319 0.011644 -0.003843 0.000000 0.000000 0.000000
# 3 -0.002811 -0.003843 0.008114 0.000000 0.000000 0.000000
# 4 0.000000 0.000000 0.000000 0.022295 0.000000 0.000000
# 5 0.000000 0.000000 0.000000 0.000000 0.049314 0.000000
# 6 0.000000 0.000000 0.000000 0.000000 0.000000 0.023069
#
#
# Mechanical properties :
#
#
# Convention : Reuss Voigt Hill
#
# Bulk Modulus (GPa) = 62.23977 70.23514 66.23745
# Shear Modulus (GPa) = 33.78584 37.69249 35.73917
#
# Velocity S-wave (km/s) = 3.72242 3.93175 3.82851
# Velocity P-wave (km/s) = 6.63335 7.02970 6.83440
#
# Compressibility (1/GPa) = 0.01606690
#
# Stress axis : x y z
#
# Youngs Moduli (GPa) = 81.60729 85.87973 123.23941
#
# Poissons Ratio (x) = 0.11330 0.34641
# Poissons Ratio (y) = 0.10766 0.47356
# Poissons Ratio (z) = 0.22939 0.33000
#
# Static dielectric constant tensor:
#      x y z
#    x 2.129880 0.000000 0.000000 
#    y 0.000000 2.100260 0.000000 
#    z 0.000000 0.000000 1.872650 
# 
# From -- ./inp_files/9087.got.cif
#   From: 2010.05.17/outbox.cif.g08.bks.cpg/sg37_5_cif.got.tgz:9087.got - 2010.06.03 17:53:42.
