data_PCOD9355695
_publ_section_title
;
Structure prediction by ZEFSAII (Michael W. Deem and Ramdas Pophale) SiO2 
 PCOD9355695
Probable space group: C C C 2
;
_chemical_formula_sum "Si O2"
_cell_formula_units_Z 24
_cell_length_a 12.073105
_cell_length_b 7.375536
_cell_length_c 13.786947
_cell_angle_alpha 90.000000
_cell_angle_beta 90.000000
_cell_angle_gamma 90.000000
_cell_volume 1227.667251
_symmetry_space_group_name_H-M "C C C 2"
_symmetry_group_IT_number 37
_symmetry_cell_setting 'orthorhombic'
loop_
_space_group_symop_operation_xyz
x,y,z
-x,-y,z
-x,y,1/2+z
x,-y,1/2+z
1/2+x,1/2+y,z
1/2-x,1/2-y,z
1/2-x,1/2+y,1/2+z
1/2+x,1/2-y,1/2+z
loop_
_atom_site_type_symbol
_atom_site_label
_atom_site_fract_x
_atom_site_fract_y
_atom_site_fract_z
Si Si1 0.750000 0.750000 0.189481
Si Si2 0.000000 0.000000 0.917605
Si Si3 0.844174 0.895296 0.590203
Si Si4 0.994968 0.717633 0.255562
O O1 0.722203 0.571802 0.127368
O O2 0.862876 0.742795 0.249328
O O3 0.033328 0.168751 0.849162
O O4 0.903685 0.058968 0.990229
O O5 0.750000 0.750000 0.576078
O O6 0.935831 0.810318 0.666190
O O7 0.000000 0.500000 0.257131
#
# Coordination Sequence:
#
# PCOD9355695 Si02
#       4
#     4   4   8   8
#     4  12  22  48  72  94 142 186 232 288 348 426
#     4  12  26  46  68 116 138 172 248 294 336 424
#     4  12  26  46  73 102 143 189 232 291 359 414
#     4  12  26  46  73 103 143 188 232 290 358 416
#
# _framework density 19.549271000000001
#
# number of rings (size 3 to 8) (size 9 to 14) (size 15 to 20)
#    0.000    0.000   10.000    0.000    2.333    4.000 
#    3.000    0.000    0.000    0.000    0.000    0.000 
#    0.000    0.000    0.000    0.000    0.000    0.000 
#
# Total GULP energy -66916.832561 kJ/mol
# GULP energy per Si atom -5576.402713 kJ/mol
# Density = 1.950478 g / cm^3
# Si number density = 19.549271 Si / 1000 Ang^3
#
#
#
# Elastic Constant Matrix: (Units=GPa)
#
#
# Indices 1 2 3 4 5 6 
#
# 1 141.5860 44.4814 58.3602 0.0000 0.0000 0.0000
# 2 44.4814 181.5371 69.7532 0.0000 0.0000 0.0000
# 3 58.3602 69.7532 140.0861 0.0000 0.0000 0.0000
# 4 0.0000 0.0000 0.0000 21.5967 0.0000 0.0000
# 5 0.0000 0.0000 0.0000 0.0000 23.3191 0.0000
# 6 0.0000 0.0000 0.0000 0.0000 0.0000 42.8861
#
#
#
# Elastic Compliance Matrix: (Units=1/GPa)
#
#
# Indices 1 2 3 4 5 6 
#
# 1 0.008647 -0.000908 -0.003150 0.000000 0.000000 0.000000
# 2 -0.000908 0.006907 -0.003061 0.000000 0.000000 0.000000
# 3 -0.003150 -0.003061 0.009975 0.000000 0.000000 0.000000
# 4 0.000000 0.000000 0.000000 0.046303 0.000000 0.000000
# 5 0.000000 0.000000 0.000000 0.000000 0.042883 0.000000
# 6 0.000000 0.000000 0.000000 0.000000 0.000000 0.023318
#
#
# Mechanical properties :
#
#
# Convention : Reuss Voigt Hill
#
# Bulk Modulus (GPa) = 88.57118 89.82209 89.19663
# Shear Modulus (GPa) = 32.04421 36.93467 34.48944
#
# Velocity S-wave (km/s) = 4.05304 4.35134 4.20483
# Velocity P-wave (km/s) = 8.20413 8.44345 8.32465
#
# Compressibility (1/GPa) = 0.01129035
#
# Stress axis : x y z
#
# Youngs Moduli (GPa) = 115.65289 144.77673 100.25229
#
# Poissons Ratio (x) = 0.13150 0.31578
# Poissons Ratio (y) = 0.10505 0.30686
# Poissons Ratio (z) = 0.36429 0.44315
#
# Static dielectric constant tensor:
#      x y z
#    x 1.678230 0.000000 0.000000 
#    y 0.000000 1.823690 0.000000 
#    z 0.000000 0.000000 1.681630 
# 
# From -- ./inp_files/5795.got.cif
#   From: 2010.05.17/outbox.cif.g08.bks.cpg/sg37_3_cif.got.tgz:5795.got - 2010.06.03 17:53:42.
