data_PCOD9355022
_publ_section_title
;
Structure prediction by ZEFSAII (Michael W. Deem and Ramdas Pophale) SiO2 
 PCOD9355022
Probable space group: C C C 2
;
_chemical_formula_sum "Si O2"
_cell_formula_units_Z 28
_cell_length_a 13.561837
_cell_length_b 5.107872
_cell_length_c 14.447727
_cell_angle_alpha 90.000000
_cell_angle_beta 90.000000
_cell_angle_gamma 90.000000
_cell_volume 1000.824787
_symmetry_space_group_name_H-M "C C C 2"
_symmetry_group_IT_number 37
_symmetry_cell_setting 'orthorhombic'
loop_
_space_group_symop_operation_xyz
x,y,z
-x,-y,z
-x,y,1/2+z
x,-y,1/2+z
1/2+x,1/2+y,z
1/2-x,1/2-y,z
1/2-x,1/2+y,1/2+z
1/2+x,1/2-y,1/2+z
loop_
_atom_site_type_symbol
_atom_site_label
_atom_site_fract_x
_atom_site_fract_y
_atom_site_fract_z
Si Si1 0.178844 0.952098 0.443130
Si Si2 0.000000 0.000000 0.342675
Si Si3 0.178843 0.952097 0.742219
Si Si4 0.928099 0.250983 0.092675
O O1 0.250000 0.750000 0.492888
O O2 0.073607 0.836562 0.407135
O O3 0.143194 0.198923 0.503789
O O4 0.227264 0.000001 0.342675
O O5 0.926393 0.836561 0.278215
O O6 0.250000 0.750000 0.692462
O O7 0.856807 0.801079 0.681560
O O8 0.000000 0.500000 0.092674
O O9 0.000000 0.000000 0.092674
#
# Coordination Sequence:
#
# PCOD9355022 Si02
#       4
#     8   4   8   8
#     4  10  22  46  76 117 163 222 281 345 420 500
#     4   8  20  46  74 110 168 216 278 354 410 498
#     4  10  22  46  76 117 163 222 281 345 420 500
#     4  12  25  48  79 117 166 220 274 347 420 494
#
# _framework density 27.976924
#
# number of rings (size 3 to 8) (size 9 to 14) (size 15 to 20)
#    1.714    0.000    2.857    0.857    0.000    4.571 
#    0.000   10.000    0.000    0.000    0.000    0.000 
#    0.000    0.000    0.000    0.000    0.000    0.000 
#
# Total GULP energy -77998.227707 kJ/mol
# GULP energy per Si atom -5571.301979 kJ/mol
# Density = 2.791325 g / cm^3
# Si number density = 27.976924 Si / 1000 Ang^3
#
#
#
# Elastic Constant Matrix: (Units=GPa)
#
#
# Indices 1 2 3 4 5 6 
#
# 1 180.1607 97.0988 31.3669 0.0000 0.0000 0.0000
# 2 97.0988 202.5962 67.8335 0.0000 0.0000 0.0000
# 3 31.3669 67.8335 228.9963 0.0000 0.0000 0.0000
# 4 0.0000 0.0000 0.0000 17.0774 0.0000 0.0000
# 5 0.0000 0.0000 0.0000 0.0000 -10.1727 0.0000
# 6 0.0000 0.0000 0.0000 0.0000 0.0000 75.6570
#
#
#
# Elastic Compliance Matrix: (Units=1/GPa)
#
#
# Indices 1 2 3 4 5 6 
#
# 1 0.007484 -0.003601 0.000041 0.000000 0.000000 0.000000
# 2 -0.003601 0.007212 -0.001643 0.000000 0.000000 0.000000
# 3 0.000041 -0.001643 0.004848 0.000000 0.000000 0.000000
# 4 0.000000 0.000000 0.000000 0.058557 0.000000 0.000000
# 5 0.000000 0.000000 0.000000 0.000000 -0.098302 0.000000
# 6 0.000000 0.000000 0.000000 0.000000 0.000000 0.013218
#
#
# Mechanical properties :
#
#
# Convention : Reuss Voigt Hill
#
# Bulk Modulus (GPa) = 109.42060 111.59463 110.50761
# Shear Modulus (GPa) = 773.11416 44.20928 408.66172
#
# Velocity S-wave (km/s) = 16.64151 3.97949 12.09910
# Velocity P-wave (km/s) = 20.21012 7.81600 15.32219
#
# Compressibility (1/GPa) = 0.00913905
#
# Stress axis : x y z
#
# Youngs Moduli (GPa) = 133.61758 138.66122 206.27441
#
# Poissons Ratio (x) = 0.49929 -0.00856
# Poissons Ratio (y) = 0.48113 0.33892
# Poissons Ratio (z) = -0.00554 0.22783
#
# Static dielectric constant tensor:
#      x y z
#    x 2.321380 0.000000 0.000000 
#    y 0.000000 2.364830 0.000000 
#    z 0.000000 0.000000 2.281680 
# 
# From -- ./inp_files/12321.got.cif
#   From: 2010.05.17/outbox.cif.g08.bks.cpg/sg37_7_cif.got.tgz:12321.got - 2010.06.03 17:53:42.
