data_PCOD9355722
_publ_section_title
;
Structure prediction by ZEFSAII (Michael W. Deem and Ramdas Pophale) SiO2 
 PCOD9355722
Probable space group: C C C 2
;
_chemical_formula_sum "Si O2"
_cell_formula_units_Z 56
_cell_length_a 9.287610
_cell_length_b 13.461107
_cell_length_c 21.489867
_cell_angle_alpha 90.000000
_cell_angle_beta 90.000000
_cell_angle_gamma 90.000000
_cell_volume 2686.695665
_symmetry_space_group_name_H-M "C C C 2"
_symmetry_group_IT_number 37
_symmetry_cell_setting 'orthorhombic'
loop_
_space_group_symop_operation_xyz
x,y,z
-x,-y,z
-x,y,1/2+z
x,-y,1/2+z
1/2+x,1/2+y,z
1/2-x,1/2-y,z
1/2-x,1/2+y,1/2+z
1/2+x,1/2-y,1/2+z
loop_
_atom_site_type_symbol
_atom_site_label
_atom_site_fract_x
_atom_site_fract_y
_atom_site_fract_z
Si Si1 0.513576 0.757315 0.649600
Si Si2 0.765290 0.580106 0.791990
Si Si3 0.662713 0.539904 0.028730
Si Si4 0.250000 0.250000 0.061703
Si Si5 0.750000 0.750000 0.379221
Si Si6 0.337287 0.960096 0.912193
Si Si7 0.765290 0.919894 0.648934
Si Si8 0.486424 0.257315 0.791323
O O1 0.383217 0.780309 0.604847
O O2 0.632188 0.843663 0.642749
O O3 0.594801 0.651561 0.639876
O O4 0.462486 0.750000 0.720462
O O5 0.774205 0.498918 0.845962
O O6 0.750000 0.541979 0.720462
O O7 0.632188 0.656337 0.798174
O O8 0.905199 0.651560 0.801048
O O9 0.500000 0.500000 0.025028
O O10 0.685061 0.657760 0.024822
O O11 0.725794 0.501082 0.094961
O O12 0.750000 0.500000 0.970462
O O13 0.685062 0.842240 0.416101
O O14 0.616782 0.719691 0.336076
O O15 0.500000 0.000000 0.915895
#
# Coordination Sequence:
#
# PCOD9355722 Si02
#       8
#     8   8   8   4   4   8   8   8
#     4   9  19  38  70 107 138 179 227 282 347 417
#     4   9  20  44  71  98 143 183 223 286 351 413
#     4  12  29  49  68 102 139 186 238 292 356 423
#     4  12  25  42  70 100 137 180 232 300 336 432
#     4  12  25  42  70 100 137 180 232 300 336 432
#     4  12  29  49  68 102 139 186 238 292 356 423
#     4   9  20  44  71  98 143 183 223 286 351 413
#     4   9  19  38  70 107 138 179 227 282 347 417
#
# _framework density 20.843446
#
# number of rings (size 3 to 8) (size 9 to 14) (size 15 to 20)
#    0.000    1.714    2.857    2.143    4.000    5.714 
#    0.000    0.000    0.000    0.000    0.000    0.000 
#    0.000    0.000    0.000    0.000    0.000    0.000 
#
# Total GULP energy -156391.328187 kJ/mol
# GULP energy per Si atom -5585.404578 kJ/mol
# Density = 2.079601 g / cm^3
# Si number density = 20.843446 Si / 1000 Ang^3
#
#
#
# Elastic Constant Matrix: (Units=GPa)
#
#
# Indices 1 2 3 4 5 6 
#
# 1 99.1271 33.9345 57.3323 0.0000 0.0000 0.0000
# 2 33.9345 114.0223 51.3315 0.0000 0.0000 0.0000
# 3 57.3323 51.3315 97.0401 0.0000 0.0000 0.0000
# 4 0.0000 0.0000 0.0000 9.8951 0.0000 0.0000
# 5 0.0000 0.0000 0.0000 0.0000 195.3214 0.0000
# 6 0.0000 0.0000 0.0000 0.0000 0.0000 17.8282
#
#
#
# Elastic Compliance Matrix: (Units=1/GPa)
#
#
# Indices 1 2 3 4 5 6 
#
# 1 0.015360 -0.000638 -0.008737 0.000000 0.000000 0.000000
# 2 -0.000638 0.011538 -0.005726 0.000000 0.000000 0.000000
# 3 -0.008737 -0.005726 0.018496 0.000000 0.000000 0.000000
# 4 0.000000 0.000000 0.000000 0.101060 0.000000 0.000000
# 5 0.000000 0.000000 0.000000 0.000000 0.005120 0.000000
# 6 0.000000 0.000000 0.000000 0.000000 0.000000 0.056091
#
#
# Mechanical properties :
#
#
# Convention : Reuss Voigt Hill
#
# Bulk Modulus (GPa) = 65.82907 66.15400 65.99154
# Shear Modulus (GPa) = 20.58189 55.78168 38.18179
#
# Velocity S-wave (km/s) = 3.14578 5.17883 4.28464
# Velocity P-wave (km/s) = 6.69670 8.21997 7.49712
#
# Compressibility (1/GPa) = 0.01519086
#
# Stress axis : x y z
#
# Youngs Moduli (GPa) = 65.10481 86.67002 54.06500
#
# Poissons Ratio (x) = 0.05528 0.47238
# Poissons Ratio (y) = 0.04153 0.30960
# Poissons Ratio (z) = 0.56884 0.49631
#
# Static dielectric constant tensor:
#      x y z
#    x 1.725470 0.000000 0.000000 
#    y 0.000000 1.754090 0.000000 
#    z 0.000000 0.000000 1.737180 
# 
# From -- ./inp_files/16478.got.cif
#   From: 2010.05.17/outbox.cif.g08.bks.cpg/sg37_9_cif.got.tgz:16478.got - 2010.06.03 17:53:42.
