data_PCOD9355592
_publ_section_title
;
Structure prediction by ZEFSAII (Michael W. Deem and Ramdas Pophale) SiO2 
 PCOD9355592
Probable space group: C C C 2
;
_chemical_formula_sum "Si O2"
_cell_formula_units_Z 40
_cell_length_a 20.189668
_cell_length_b 9.275830
_cell_length_c 9.924083
_cell_angle_alpha 90.000000
_cell_angle_beta 90.000000
_cell_angle_gamma 90.000000
_cell_volume 1858.541855
_symmetry_space_group_name_H-M "C C C 2"
_symmetry_group_IT_number 37
_symmetry_cell_setting 'orthorhombic'
loop_
_space_group_symop_operation_xyz
x,y,z
-x,-y,z
-x,y,1/2+z
x,-y,1/2+z
1/2+x,1/2+y,z
1/2-x,1/2-y,z
1/2-x,1/2+y,1/2+z
1/2+x,1/2-y,1/2+z
loop_
_atom_site_type_symbol
_atom_site_label
_atom_site_fract_x
_atom_site_fract_y
_atom_site_fract_z
Si Si1 0.413342 0.527019 0.222360
Si Si2 0.076027 0.447864 0.144996
Si Si3 0.894302 0.758693 0.389310
Si Si4 0.176224 0.713881 0.127903
Si Si5 0.962724 0.811329 0.983214
O O1 0.380798 0.410045 0.320050
O O2 0.362582 0.641262 0.165998
O O3 0.442662 0.427602 0.099564
O O4 0.455109 0.622245 0.332572
O O5 0.083790 0.351790 0.276694
O O6 0.131569 0.572524 0.160724
O O7 0.078772 0.333862 0.018471
O O8 0.000000 0.500000 0.142057
O O9 0.829824 0.707321 0.466529
O O10 0.959254 0.772844 0.486225
O O11 0.250000 0.750000 0.175387
#
# Coordination Sequence:
#
# PCOD9355592 Si02
#       5
#     8   8   8   8   8
#     4  11  25  44  70 107 142 187 236 302 361 435
#     4  11  25  44  72 108 143 186 243 309 359 429
#     4  11  25  42  73 103 143 183 241 301 368 428
#     4  12  28  47  68 102 150 198 242 293 370 451
#     4  11  24  42  75 111 142 178 240 306 368 418
#
# _framework density 21.52225
#
# number of rings (size 3 to 8) (size 9 to 14) (size 15 to 20)
#    0.000    0.800    4.000    1.800   11.200    1.600 
#    0.000    3.000    0.000    0.000    0.000    0.000 
#    0.000    0.000    0.000    0.000    0.000    0.000 
#
# Total GULP energy -111394.671577 kJ/mol
# GULP energy per Si atom -5569.733579 kJ/mol
# Density = 2.147326 g / cm^3
# Si number density = 21.522250 Si / 1000 Ang^3
#
#
#
# Elastic Constant Matrix: (Units=GPa)
#
#
# Indices 1 2 3 4 5 6 
#
# 1 101.8455 63.3642 26.9139 0.0000 0.0000 0.0000
# 2 63.3642 158.6268 26.2945 0.0000 0.0000 0.0000
# 3 26.9139 26.2945 73.1080 0.0000 0.0000 0.0000
# 4 0.0000 0.0000 0.0000 32.6140 0.0000 0.0000
# 5 0.0000 0.0000 0.0000 0.0000 10.7246 0.0000
# 6 0.0000 0.0000 0.0000 0.0000 0.0000 23.6566
#
#
#
# Elastic Compliance Matrix: (Units=1/GPa)
#
#
# Indices 1 2 3 4 5 6 
#
# 1 0.013771 -0.004956 -0.003287 0.000000 0.000000 0.000000
# 2 -0.004956 0.008487 -0.001228 0.000000 0.000000 0.000000
# 3 -0.003287 -0.001228 0.015330 0.000000 0.000000 0.000000
# 4 0.000000 0.000000 0.000000 0.030662 0.000000 0.000000
# 5 0.000000 0.000000 0.000000 0.000000 0.093244 0.000000
# 6 0.000000 0.000000 0.000000 0.000000 0.000000 0.042272
#
#
# Mechanical properties :
#
#
# Convention : Reuss Voigt Hill
#
# Bulk Modulus (GPa) = 53.63065 62.96951 58.30008
# Shear Modulus (GPa) = 21.84138 27.86621 24.85380
#
# Velocity S-wave (km/s) = 3.18909 3.60219 3.40191
# Velocity P-wave (km/s) = 6.20751 6.82806 6.52517
#
# Compressibility (1/GPa) = 0.01864605
#
# Stress axis : x y z
#
# Youngs Moduli (GPa) = 72.61721 117.82220 65.23068
#
# Poissons Ratio (x) = 0.58392 0.21442
# Poissons Ratio (y) = 0.35989 0.08011
# Poissons Ratio (z) = 0.23870 0.14470
#
# Static dielectric constant tensor:
#      x y z
#    x 1.849360 0.000000 0.000000 
#    y 0.000000 1.862150 0.000000 
#    z 0.000000 0.000000 1.879140 
# 
# From -- ./inp_files/8155.got.cif
#   From: 2010.05.17/outbox.cif.g08.bks.cpg/sg37_5_cif.got.tgz:8155.got - 2010.06.03 17:53:42.
