data_PCOD9355889
_publ_section_title
;
Structure prediction by ZEFSAII (Michael W. Deem and Ramdas Pophale) SiO2 
 PCOD9355889
Probable space group: A M M 2
;
_chemical_formula_sum "Si O2"
_cell_formula_units_Z 64
_cell_length_a 14.540796
_cell_length_b 7.497607
_cell_length_c 29.214522
_cell_angle_alpha 90.000000
_cell_angle_beta 90.000000
_cell_angle_gamma 90.000000
_cell_volume 3185.001483
_symmetry_space_group_name_H-M "A M M 2"
_symmetry_group_IT_number 38
_symmetry_cell_setting 'orthorhombic'
loop_
_space_group_symop_operation_xyz
x,y,z
-x,-y,z
-x,y,z
x,-y,z
x,1/2+y,1/2+z
-x,1/2-y,1/2+z
-x,1/2+y,1/2+z
x,1/2-y,1/2+z
loop_
_atom_site_type_symbol
_atom_site_label
_atom_site_fract_x
_atom_site_fract_y
_atom_site_fract_z
Si Si1 0.260427 0.786753 0.813310
Si Si2 0.248179 0.301782 0.066513
Si Si3 0.605123 0.706229 0.635451
Si Si4 0.893953 0.717845 0.245246
Si Si5 0.892006 0.282918 0.141689
Si Si6 0.395854 0.715629 0.235902
Si Si7 0.398730 0.287004 0.891330
Si Si8 0.396666 0.781860 0.497210
O O1 0.166741 0.722156 0.788734
O O2 0.336989 0.720731 0.777863
O O3 0.307331 0.752251 0.862201
O O4 0.254216 0.000000 0.810961
O O5 0.216313 0.500000 0.052098
O O6 0.330590 0.314990 0.102868
O O7 0.168031 0.217960 0.098268
O O8 0.305977 0.218414 0.024484
O O9 0.500000 0.769674 0.635151
O O10 0.607148 0.500000 0.621305
O O11 0.639408 0.721373 0.687168
O O12 0.891158 0.500000 0.244284
O O13 0.863808 0.773467 0.193540
O O14 0.000000 0.770541 0.250505
O O15 0.883584 0.500000 0.141122
O O16 0.000000 0.239600 0.136556
O O17 0.500000 0.776892 0.240453
O O18 0.394401 0.500000 0.235461
O O19 0.500000 0.221361 0.873385
O O20 0.404783 0.500000 0.892238
O O21 0.391164 0.228272 0.944077
O O22 0.500000 0.728720 0.514367
O O23 0.395088 0.000000 0.499678
#
# Coordination Sequence:
#
# PCOD9355889 Si02
#       8
#     8   8   8   8   8   8   8   8
#     4  10  18  28  46  69  87 108 147 194 229 256
#     4  10  17  27  48  70  86 112 150 187 220 256
#     4  10  20  30  39  58  91 123 147 175 214 261
#     4   8  14  25  41  63  92 120 143 174 220 269
#     4   8  14  25  43  69  95 114 139 180 224 261
#     4   9  17  28  41  59  85 115 146 179 215 260
#     4   9  18  32  47  63  88 122 153 180 219 273
#     4   8  15  28  45  65  88 116 151 184 215 263
#
# _framework density 20.094183000000001
#
# number of rings (size 3 to 8) (size 9 to 14) (size 15 to 20)
#    0.000    3.000    0.000    3.375    0.000    4.500 
#    0.000    1.875    0.000    2.250    0.000    3.500 
#    0.000    0.000    0.000    0.000    0.000    0.000 
#
# Total GULP energy -178192.280063 kJ/mol
# GULP energy per Si atom -5568.508752 kJ/mol
# Density = 2.004845 g / cm^3
# Si number density = 20.094183 Si / 1000 Ang^3
#
#
#
# Elastic Constant Matrix: (Units=GPa)
#
#
# Indices 1 2 3 4 5 6 
#
# 1 120.9448 5.1128 67.0249 0.0000 0.0000 0.0000
# 2 5.1128 52.0103 1.1974 0.0000 0.0000 0.0000
# 3 67.0249 1.1974 100.6066 0.0000 0.0000 0.0000
# 4 0.0000 0.0000 0.0000 16.3909 0.0000 0.0000
# 5 0.0000 0.0000 0.0000 0.0000 40.4171 0.0000
# 6 0.0000 0.0000 0.0000 0.0000 0.0000 1.2209
#
#
#
# Elastic Compliance Matrix: (Units=1/GPa)
#
#
# Indices 1 2 3 4 5 6 
#
# 1 0.013169 -0.001093 -0.008760 0.000000 0.000000 0.000000
# 2 -0.001093 0.019323 0.000498 0.000000 0.000000 0.000000
# 3 -0.008760 0.000498 0.015770 0.000000 0.000000 0.000000
# 4 0.000000 0.000000 0.000000 0.061009 0.000000 0.000000
# 5 0.000000 0.000000 0.000000 0.000000 0.024742 0.000000
# 6 0.000000 0.000000 0.000000 0.000000 0.000000 0.819065
#
#
# Mechanical properties :
#
#
# Convention : Reuss Voigt Hill
#
# Bulk Modulus (GPa) = 33.83888 46.69242 40.26565
# Shear Modulus (GPa) = 5.09352 24.95423 15.02387
#
# Velocity S-wave (km/s) = 1.59384 3.52783 2.73733
# Velocity P-wave (km/s) = 4.50153 6.31517 5.48385
#
# Compressibility (1/GPa) = 0.02955180
#
# Stress axis : x y z
#
# Youngs Moduli (GPa) = 75.93422 51.75195 63.41126
#
# Poissons Ratio (x) = 0.05656 0.55551
# Poissons Ratio (y) = 0.08299 -0.03159
# Poissons Ratio (z) = 0.66522 -0.02578
#
# Static dielectric constant tensor:
#      x y z
#    x 1.735080 0.000000 0.000000 
#    y 0.000000 1.789550 0.000000 
#    z 0.000000 0.000000 1.739480 
# 
# From -- ./inp_files/25107.got.cif
#   From: 2010.05.17/outbox.cif.g08.bks.cpg/sg38_13_cif.got.tgz:25107.got - 2010.06.03 18:07:57.
