data_PCOD9355914
_publ_section_title
;
Structure prediction by ZEFSAII (Michael W. Deem and Ramdas Pophale) SiO2 
 PCOD9355914
Probable space group: A M M 2
;
_chemical_formula_sum "Si O2"
_cell_formula_units_Z 48
_cell_length_a 18.183930
_cell_length_b 7.601851
_cell_length_c 15.710578
_cell_angle_alpha 90.000000
_cell_angle_beta 90.000000
_cell_angle_gamma 90.000000
_cell_volume 2171.697178
_symmetry_space_group_name_H-M "A M M 2"
_symmetry_group_IT_number 38
_symmetry_cell_setting 'orthorhombic'
loop_
_space_group_symop_operation_xyz
x,y,z
-x,-y,z
-x,y,z
x,-y,z
x,1/2+y,1/2+z
-x,1/2-y,1/2+z
-x,1/2+y,1/2+z
x,1/2-y,1/2+z
loop_
_atom_site_type_symbol
_atom_site_label
_atom_site_fract_x
_atom_site_fract_y
_atom_site_fract_z
Si Si1 0.000000 0.216163 0.748340
Si Si2 0.157365 0.298082 0.239284
Si Si3 0.842436 0.793405 0.435170
Si Si4 0.317691 0.212911 0.692330
Si Si5 0.686559 0.214860 0.504040
Si Si6 0.000000 0.709198 0.447384
Si Si7 0.582841 0.209218 0.352758
O O1 0.078182 0.277904 0.711943
O O2 0.000000 0.269334 0.848081
O O3 0.000000 0.000000 0.746647
O O4 0.157688 0.500000 0.208794
O O5 0.156347 0.297275 0.342570
O O6 0.235098 0.219580 0.211980
O O7 0.770959 0.732477 0.486308
O O8 0.920927 0.769534 0.481221
O O9 0.833384 0.000000 0.417651
O O10 0.338372 0.269736 0.597536
O O11 0.374506 0.265419 0.764657
O O12 0.314720 0.000000 0.694336
O O13 0.633909 0.279078 0.428906
O O14 0.686096 0.000000 0.502989
O O15 0.000000 0.500000 0.448646
O O16 0.500000 0.280794 0.351458
O O17 0.577548 0.000000 0.366613
#
# Coordination Sequence:
#
# PCOD9355914 Si02
#       7
#     4   8   8   8   8   4   8
#     4   7  12  23  40  65  97 132 168 206 253 303
#     4   9  16  28  48  74 105 141 180 223 268 315
#     4  10  17  29  51  76 106 143 186 225 266 322
#     4  10  20  35  57  84 112 143 184 226 270 326
#     4   9  19  35  55  82 113 146 181 222 273 332
#     4   9  17  29  46  73 109 144 184 228 275 315
#     4  10  21  39  60  80 107 144 181 222 279 338
#
# _framework density 22.102529000000001
#
# number of rings (size 3 to 8) (size 9 to 14) (size 15 to 20)
#    0.000    2.667    1.667    1.750    0.000    1.000 
#    0.000    5.000    0.000    4.000    0.000    0.000 
#    0.000    0.000    0.000    0.000    0.000    0.000 
#
# Total GULP energy -133913.729513 kJ/mol
# GULP energy per Si atom -5579.738730 kJ/mol
# Density = 2.205222 g / cm^3
# Si number density = 22.102529 Si / 1000 Ang^3
#
#
#
# Elastic Constant Matrix: (Units=GPa)
#
#
# Indices 1 2 3 4 5 6 
#
# 1 215.9445 6.2584 87.2959 0.0000 0.0000 0.0000
# 2 6.2584 52.0122 -7.7495 0.0000 0.0000 0.0000
# 3 87.2959 -7.7495 116.0389 0.0000 0.0000 0.0000
# 4 0.0000 0.0000 0.0000 8.8040 0.0000 0.0000
# 5 0.0000 0.0000 0.0000 0.0000 -10.2252 0.0000
# 6 0.0000 0.0000 0.0000 0.0000 0.0000 16.2489
#
#
#
# Elastic Compliance Matrix: (Units=1/GPa)
#
#
# Indices 1 2 3 4 5 6 
#
# 1 0.006783 -0.001592 -0.005209 0.000000 0.000000 0.000000
# 2 -0.001592 0.019793 0.002520 0.000000 0.000000 0.000000
# 3 -0.005209 0.002520 0.012705 0.000000 0.000000 0.000000
# 4 0.000000 0.000000 0.000000 0.113585 0.000000 0.000000
# 5 0.000000 0.000000 0.000000 0.000000 -0.097797 0.000000
# 6 0.000000 0.000000 0.000000 0.000000 0.000000 0.061542
#
#
# Mechanical properties :
#
#
# Convention : Reuss Voigt Hill
#
# Bulk Modulus (GPa) = 32.55446 61.73390 47.14418
# Shear Modulus (GPa) = 36.92402 22.84493 29.88447
#
# Velocity S-wave (km/s) = 4.09171 3.21844 3.68106
# Velocity P-wave (km/s) = 6.08963 6.46548 6.28037
#
# Compressibility (1/GPa) = 0.03071776
#
# Stress axis : x y z
#
# Youngs Moduli (GPa) = 147.43428 50.52224 78.71077
#
# Poissons Ratio (x) = 0.08044 0.41000
# Poissons Ratio (y) = 0.23475 -0.19833
# Poissons Ratio (z) = 0.76798 -0.12730
#
# Static dielectric constant tensor:
#      x y z
#    x 1.840280 0.000000 0.000000 
#    y 0.000000 1.857360 0.000000 
#    z 0.000000 0.000000 1.783910 
# 
# From -- ./inp_files/15045.got.cif
#   From: 2010.05.17/outbox.cif.g08.bks.cpg/sg38_8_cif.got.tgz:15045.got - 2010.06.03 18:07:57.
