data_PCOD9355669
_publ_section_title
;
Structure prediction by ZEFSAII (Michael W. Deem and Ramdas Pophale) SiO2 
 PCOD9355669
Probable space group: C C C 2
;
_chemical_formula_sum "Si O2"
_cell_formula_units_Z 28
_cell_length_a 4.987159
_cell_length_b 16.035533
_cell_length_c 14.450516
_cell_angle_alpha 90.000000
_cell_angle_beta 90.000000
_cell_angle_gamma 90.000000
_cell_volume 1155.633092
_symmetry_space_group_name_H-M "C C C 2"
_symmetry_group_IT_number 37
_symmetry_cell_setting 'orthorhombic'
loop_
_space_group_symop_operation_xyz
x,y,z
-x,-y,z
-x,y,1/2+z
x,-y,1/2+z
1/2+x,1/2+y,z
1/2-x,1/2-y,z
1/2-x,1/2+y,1/2+z
1/2+x,1/2-y,1/2+z
loop_
_atom_site_type_symbol
_atom_site_label
_atom_site_fract_x
_atom_site_fract_y
_atom_site_fract_z
Si Si1 0.923173 0.403445 0.286900
Si Si2 0.616393 0.093443 0.491665
Si Si3 0.371768 0.355148 0.604467
Si Si4 0.250000 0.250000 0.218036
O O1 0.153140 0.332701 0.272059
O O2 0.000000 0.500000 0.294272
O O3 0.800145 0.382698 0.387299
O O4 0.744269 0.400448 0.195146
O O5 0.365707 0.147282 0.529237
O O6 0.873108 0.100658 0.556966
O O7 0.500000 0.000000 0.494057
O O8 0.508458 0.274922 0.651103
#
# Coordination Sequence:
#
# PCOD9355669 Si02
#       4
#     8   8   8   4
#     4  11  28  52  81 117 159 209 267 332 394 480
#     4  11  27  48  83 116 153 207 267 320 402 467
#     4  12  26  50  75 115 158 202 260 328 388 474
#     4  12  28  48  78 116 164 212 262 318 414 458
#
# _framework density 24.229144999999999
#
# number of rings (size 3 to 8) (size 9 to 14) (size 15 to 20)
#    0.000    0.571    2.857    2.571    8.000    2.286 
#    0.000    0.000    0.000    0.000    0.000    0.000 
#    0.000    0.000    0.000    0.000    0.000    0.000 
#
# Total GULP energy -78269.300750 kJ/mol
# GULP energy per Si atom -5590.664339 kJ/mol
# Density = 2.417400 g / cm^3
# Si number density = 24.229145 Si / 1000 Ang^3
#
#
#
# Elastic Constant Matrix: (Units=GPa)
#
#
# Indices 1 2 3 4 5 6 
#
# 1 141.2880 20.1169 66.5705 0.0000 0.0000 0.0000
# 2 20.1169 119.3495 29.3387 0.0000 0.0000 0.0000
# 3 66.5705 29.3387 175.2665 0.0000 0.0000 0.0000
# 4 0.0000 0.0000 0.0000 276.8689 0.0000 0.0000
# 5 0.0000 0.0000 0.0000 0.0000 64.5250 0.0000
# 6 0.0000 0.0000 0.0000 0.0000 0.0000 36.6183
#
#
#
# Elastic Compliance Matrix: (Units=1/GPa)
#
#
# Indices 1 2 3 4 5 6 
#
# 1 0.008673 -0.000680 -0.003180 0.000000 0.000000 0.000000
# 2 -0.000680 0.008792 -0.001213 0.000000 0.000000 0.000000
# 3 -0.003180 -0.001213 0.007117 0.000000 0.000000 0.000000
# 4 0.000000 0.000000 0.000000 0.003612 0.000000 0.000000
# 5 0.000000 0.000000 0.000000 0.000000 0.015498 0.000000
# 6 0.000000 0.000000 0.000000 0.000000 0.000000 0.027309
#
#
# Mechanical properties :
#
#
# Convention : Reuss Voigt Hill
#
# Bulk Modulus (GPa) = 69.28210 74.21735 71.74973
# Shear Modulus (GPa) = 58.16740 96.92765 77.54753
#
# Velocity S-wave (km/s) = 4.90503 6.33178 5.66351
# Velocity P-wave (km/s) = 7.79331 9.17350 8.51143
#
# Compressibility (1/GPa) = 0.01443374
#
# Stress axis : x y z
#
# Youngs Moduli (GPa) = 115.29925 113.74427 140.51444
#
# Poissons Ratio (x) = 0.07735 0.44689
# Poissons Ratio (y) = 0.07841 0.17050
# Poissons Ratio (z) = 0.36670 0.13801
#
# Static dielectric constant tensor:
#      x y z
#    x 1.838500 0.000000 0.000000 
#    y 0.000000 1.761050 0.000000 
#    z 0.000000 0.000000 1.891760 
# 
# From -- ./inp_files/9391.got.cif
#   From: 2010.05.17/outbox.cif.g08.bks.cpg/sg37_5_cif.got.tgz:9391.got - 2010.06.03 17:53:42.
