data_PCOD9355420
_publ_section_title
;
Structure prediction by ZEFSAII (Michael W. Deem and Ramdas Pophale) SiO2 
 PCOD9355420
Probable space group: C C C 2
;
_chemical_formula_sum "Si O2"
_cell_formula_units_Z 32
_cell_length_a 10.884381
_cell_length_b 13.074710
_cell_length_c 8.411564
_cell_angle_alpha 90.000000
_cell_angle_beta 90.000000
_cell_angle_gamma 90.000000
_cell_volume 1197.050725
_symmetry_space_group_name_H-M "C C C 2"
_symmetry_group_IT_number 37
_symmetry_cell_setting 'orthorhombic'
loop_
_space_group_symop_operation_xyz
x,y,z
-x,-y,z
-x,y,1/2+z
x,-y,1/2+z
1/2+x,1/2+y,z
1/2-x,1/2-y,z
1/2-x,1/2+y,1/2+z
1/2+x,1/2-y,1/2+z
loop_
_atom_site_type_symbol
_atom_site_label
_atom_site_fract_x
_atom_site_fract_y
_atom_site_fract_z
Si Si1 0.500000 0.500000 0.956820
Si Si2 0.861641 0.101184 0.208119
Si Si3 0.425498 0.106801 0.284780
Si Si4 0.750000 0.250000 0.978207
Si Si5 0.658770 0.154169 0.433671
O O1 0.530418 0.591438 0.837233
O O2 0.387648 0.514871 0.076632
O O3 0.739169 0.086182 0.310966
O O4 0.847347 0.199518 0.098579
O O5 0.310984 0.156511 0.381000
O O6 0.535848 0.181876 0.338460
O O7 0.500000 0.000000 0.319044
O O8 0.385341 0.109509 0.101441
O O9 0.750000 0.250000 0.463260
#
# Coordination Sequence:
#
# PCOD9355420 Si02
#       5
#     4   8   8   4   8
#     4  10  28  50  84 116 170 228 294 362 452 556
#     4  11  27  50  82 122 166 230 293 367 459 542
#     4  12  30  55  85 126 173 233 303 373 460 558
#     4  12  28  54  88 120 178 232 290 378 458 540
#     4  12  28  51  83 123 169 229 294 373 460 545
#
# _framework density 26.73237
#
# number of rings (size 3 to 8) (size 9 to 14) (size 15 to 20)
#    0.000    0.500    2.500    2.250   10.500    2.000 
#    0.000    1.250    0.000    0.000    0.000    0.000 
#    0.000    0.000    0.000    0.000    0.000    0.000 
#
# Total GULP energy -89366.152901 kJ/mol
# GULP energy per Si atom -5585.384556 kJ/mol
# Density = 2.667153 g / cm^3
# Si number density = 26.732370 Si / 1000 Ang^3
#
#
#
# Elastic Constant Matrix: (Units=GPa)
#
#
# Indices 1 2 3 4 5 6 
#
# 1 127.2085 44.9610 87.4235 0.0000 0.0000 0.0000
# 2 44.9610 147.1171 87.3462 0.0000 0.0000 0.0000
# 3 87.4235 87.3462 251.7409 0.0000 0.0000 0.0000
# 4 0.0000 0.0000 0.0000 33.0093 0.0000 0.0000
# 5 0.0000 0.0000 0.0000 0.0000 61.6635 0.0000
# 6 0.0000 0.0000 0.0000 0.0000 0.0000 44.3748
#
#
#
# Elastic Compliance Matrix: (Units=1/GPa)
#
#
# Indices 1 2 3 4 5 6 
#
# 1 0.010524 -0.001318 -0.003198 0.000000 0.000000 0.000000
# 2 -0.001318 0.008726 -0.002570 0.000000 0.000000 0.000000
# 3 -0.003198 -0.002570 0.005974 0.000000 0.000000 0.000000
# 4 0.000000 0.000000 0.000000 0.030295 0.000000 0.000000
# 5 0.000000 0.000000 0.000000 0.000000 0.016217 0.000000
# 6 0.000000 0.000000 0.000000 0.000000 0.000000 0.022535
#
#
# Mechanical properties :
#
#
# Convention : Reuss Voigt Hill
#
# Bulk Modulus (GPa) = 90.46586 107.28088 98.87337
# Shear Modulus (GPa) = 44.59218 48.23191 46.41205
#
# Velocity S-wave (km/s) = 4.08866 4.25226 4.17126
# Velocity P-wave (km/s) = 7.49696 8.02044 7.76311
#
# Compressibility (1/GPa) = 0.01105389
#
# Stress axis : x y z
#
# Youngs Moduli (GPa) = 95.01668 114.60136 167.37878
#
# Poissons Ratio (x) = 0.15104 0.53521
# Poissons Ratio (y) = 0.12523 0.43015
# Poissons Ratio (z) = 0.30383 0.29452
#
# Static dielectric constant tensor:
#      x y z
#    x 2.131600 0.000000 0.000000 
#    y 0.000000 2.218280 0.000000 
#    z 0.000000 0.000000 1.994900 
# 
# From -- ./inp_files/2607.got.cif
#   From: 2010.05.17/outbox.cif.g08.bks.cpg/sg37_2_cif.got.tgz:2607.got - 2010.06.03 17:53:42.
