data_PCOD9355947
_publ_section_title
;
Structure prediction by ZEFSAII (Michael W. Deem and Ramdas Pophale) SiO2 
 PCOD9355947
Probable space group: A M M 2
;
_chemical_formula_sum "Si O2"
_cell_formula_units_Z 48
_cell_length_a 17.237543
_cell_length_b 15.104907
_cell_length_c 9.730350
_cell_angle_alpha 90.000000
_cell_angle_beta 90.000000
_cell_angle_gamma 90.000000
_cell_volume 2533.505669
_symmetry_space_group_name_H-M "A M M 2"
_symmetry_group_IT_number 38
_symmetry_cell_setting 'orthorhombic'
loop_
_space_group_symop_operation_xyz
x,y,z
-x,-y,z
-x,y,z
x,-y,z
x,1/2+y,1/2+z
-x,1/2-y,1/2+z
-x,1/2+y,1/2+z
x,1/2-y,1/2+z
loop_
_atom_site_type_symbol
_atom_site_label
_atom_site_fract_x
_atom_site_fract_y
_atom_site_fract_z
Si Si1 0.302517 0.102185 0.556320
Si Si2 0.589104 0.391785 0.288950
Si Si3 0.788370 0.839651 0.289709
Si Si4 0.087051 0.000000 0.650674
Si Si5 0.903374 0.500000 0.836373
Si Si6 0.290866 0.602631 0.523640
Si Si7 0.822307 0.638840 0.291679
O O1 0.377549 0.137221 0.639902
O O2 0.263295 0.150154 0.427697
O O3 0.240326 0.106156 0.679399
O O4 0.316559 0.000000 0.515185
O O5 0.500000 0.366440 0.307463
O O6 0.594190 0.500000 0.287467
O O7 0.643177 0.363307 0.417659
O O8 0.856076 0.914142 0.280306
O O9 0.728048 0.847546 0.163687
O O10 0.827156 0.743664 0.288465
O O11 0.122978 0.000000 0.498082
O O12 0.104258 0.085348 0.742064
O O13 0.000000 0.000000 0.610812
O O14 0.000000 0.500000 0.817441
O O15 0.308211 0.500000 0.555722
O O16 0.211593 0.608511 0.436411
#
# Coordination Sequence:
#
# PCOD9355947 Si02
#       7
#     8   8   8   4   4   8   8
#     4  10  17  35  59  79 112 154 199 234 277 338
#     4   8  16  31  56  87 117 153 197 237 284 343
#     4  12  21  35  59  86 116 150 196 239 285 343
#     4  11  22  41  63  83 110 152 197 238 293 355
#     4  11  24  41  59  81 118 156 189 234 299 349
#     4  10  19  33  57  83 114 150 188 236 293 330
#     4  11  20  36  59  84 110 147 195 242 275 343
#
# _framework density 18.946079999999998
#
# number of rings (size 3 to 8) (size 9 to 14) (size 15 to 20)
#    0.000    1.667    5.000    2.000    0.000    0.667 
#    0.000    2.500    0.000   20.000    0.000    0.000 
#    0.000    0.000    0.000    0.167    0.000    0.000 
#
# Total GULP energy -133657.275753 kJ/mol
# GULP energy per Si atom -5569.053156 kJ/mol
# Density = 1.890296 g / cm^3
# Si number density = 18.946080 Si / 1000 Ang^3
#
#
#
# Elastic Constant Matrix: (Units=GPa)
#
#
# Indices 1 2 3 4 5 6 
#
# 1 72.6112 20.2821 19.6571 0.0000 0.0000 0.0000
# 2 20.2821 105.5761 15.4588 0.0000 0.0000 0.0000
# 3 19.6571 15.4588 102.7930 0.0000 0.0000 0.0000
# 4 0.0000 0.0000 0.0000 250.5730 0.0000 0.0000
# 5 0.0000 0.0000 0.0000 0.0000 22.5560 0.0000
# 6 0.0000 0.0000 0.0000 0.0000 0.0000 -18.1810
#
#
#
# Elastic Compliance Matrix: (Units=1/GPa)
#
#
# Indices 1 2 3 4 5 6 
#
# 1 0.015164 -0.002545 -0.002517 0.000000 0.000000 0.000000
# 2 -0.002545 0.010112 -0.001034 0.000000 0.000000 0.000000
# 3 -0.002517 -0.001034 0.010365 0.000000 0.000000 0.000000
# 4 0.000000 0.000000 0.000000 0.003991 0.000000 0.000000
# 5 0.000000 0.000000 0.000000 0.000000 0.044334 0.000000
# 6 0.000000 0.000000 0.000000 0.000000 0.000000 -0.055002
#
#
# Mechanical properties :
#
#
# Convention : Reuss Voigt Hill
#
# Bulk Modulus (GPa) = 42.64456 43.53070 43.08763
# Shear Modulus (GPa) = 102.09851 66.02843 84.06347
#
# Velocity S-wave (km/s) = 7.34888 5.90985 6.66830
# Velocity P-wave (km/s) = 9.72446 8.34233 9.05979
#
# Compressibility (1/GPa) = 0.02344965
#
# Stress axis : x y z
#
# Youngs Moduli (GPa) = 65.94485 98.89139 96.47696
#
# Poissons Ratio (x) = 0.25164 0.24285
# Poissons Ratio (y) = 0.16780 0.09977
# Poissons Ratio (z) = 0.16599 0.10227
#
# Static dielectric constant tensor:
#      x y z
#    x 1.689740 0.000000 0.000000 
#    y 0.000000 1.700210 0.000000 
#    z 0.000000 0.000000 1.666850 
# 
# From -- ./inp_files/6208.got.cif
#   From: 2010.05.17/outbox.cif.g08.bks.cpg/sg38_4_cif.got.tgz:6208.got - 2010.06.03 18:07:57.
