data_PCOD9355421
_publ_section_title
;
Structure prediction by ZEFSAII (Michael W. Deem and Ramdas Pophale) SiO2 
 PCOD9355421
Probable space group: C C C 2
;
_chemical_formula_sum "Si O2"
_cell_formula_units_Z 60
_cell_length_a 9.158322
_cell_length_b 23.981123
_cell_length_c 11.707197
_cell_angle_alpha 90.000000
_cell_angle_beta 90.000000
_cell_angle_gamma 90.000000
_cell_volume 2571.214757
_symmetry_space_group_name_H-M "C C C 2"
_symmetry_group_IT_number 37
_symmetry_cell_setting 'orthorhombic'
loop_
_space_group_symop_operation_xyz
x,y,z
-x,-y,z
-x,y,1/2+z
x,-y,1/2+z
1/2+x,1/2+y,z
1/2-x,1/2-y,z
1/2-x,1/2+y,1/2+z
1/2+x,1/2-y,1/2+z
loop_
_atom_site_type_symbol
_atom_site_label
_atom_site_fract_x
_atom_site_fract_y
_atom_site_fract_z
Si Si1 0.750000 0.250000 0.417400
Si Si2 0.242508 0.140148 0.294977
Si Si3 0.913085 0.335393 0.572757
Si Si4 0.807982 0.571159 0.896310
Si Si5 0.883349 0.478385 0.747243
Si Si6 0.401022 0.342869 0.766988
Si Si7 0.168015 0.983724 0.062167
Si Si8 0.256445 0.854226 0.049298
O O1 0.862734 0.284694 0.494303
O O2 0.650002 0.290655 0.341882
O O3 0.320403 0.169269 0.188296
O O4 0.325129 0.080618 0.293665
O O5 0.262979 0.166704 0.419608
O O6 0.068742 0.139110 0.275952
O O7 0.870382 0.389401 0.495565
O O8 0.083115 0.343214 0.600040
O O9 0.924235 0.538372 0.817060
O O10 0.701538 0.607630 0.817134
O O11 0.730642 0.520106 0.958421
O O12 0.734651 0.496343 0.681211
O O13 0.000000 0.500000 0.647393
O O14 0.360455 0.329201 0.636354
O O15 0.208210 0.919153 0.043906
O O16 0.000000 0.000000 0.064749
#
# Coordination Sequence:
#
# PCOD9355421 Si02
#       8
#     4   8   8   8   8   8   8   8
#     4  10  28  56  80 100 152 188 262 336 400 430
#     4  12  26  45  75 111 153 193 251 302 378 457
#     4  11  27  49  75 107 147 200 254 321 381 448
#     4  11  24  39  70  96 156 201 240 295 364 444
#     4  12  24  38  63 102 151 196 239 287 357 445
#     4  11  27  49  75 107 147 200 254 321 381 448
#     4  12  24  38  63 102 151 196 239 287 357 445
#     4  12  26  45  75 111 153 193 251 302 378 457
#
# _framework density 23.335274999999999
#
# number of rings (size 3 to 8) (size 9 to 14) (size 15 to 20)
#    0.000    0.533    4.000    3.200    7.467    1.067 
#    0.000    0.000    0.000    0.000    0.000    0.000 
#    0.000    0.000    0.000    0.000    0.000    0.000 
#
# Total GULP energy -167531.356304 kJ/mol
# GULP energy per Si atom -5584.378543 kJ/mol
# Density = 2.328216 g / cm^3
# Si number density = 23.335275 Si / 1000 Ang^3
#
#
#
# Elastic Constant Matrix: (Units=GPa)
#
#
# Indices 1 2 3 4 5 6 
#
# 1 158.1168 47.0412 14.8441 0.0000 0.0000 0.0000
# 2 47.0412 103.9806 42.5211 0.0000 0.0000 0.0000
# 3 14.8441 42.5211 118.3087 0.0000 0.0000 0.0000
# 4 0.0000 0.0000 0.0000 20.6681 0.0000 0.0000
# 5 0.0000 0.0000 0.0000 0.0000 21.7118 0.0000
# 6 0.0000 0.0000 0.0000 0.0000 0.0000 18.2784
#
#
#
# Elastic Compliance Matrix: (Units=1/GPa)
#
#
# Indices 1 2 3 4 5 6 
#
# 1 0.007318 -0.003441 0.000319 0.000000 0.000000 0.000000
# 2 -0.003441 0.012892 -0.004202 0.000000 0.000000 0.000000
# 3 0.000319 -0.004202 0.009923 0.000000 0.000000 0.000000
# 4 0.000000 0.000000 0.000000 0.048384 0.000000 0.000000
# 5 0.000000 0.000000 0.000000 0.000000 0.046058 0.000000
# 6 0.000000 0.000000 0.000000 0.000000 0.000000 0.054709
#
#
# Mechanical properties :
#
#
# Convention : Reuss Voigt Hill
#
# Bulk Modulus (GPa) = 64.58100 65.46877 65.02488
# Shear Modulus (GPa) = 25.11375 30.53165 27.82270
#
# Velocity S-wave (km/s) = 3.28413 3.62109 3.45672
# Velocity P-wave (km/s) = 6.48969 6.75275 6.62253
#
# Compressibility (1/GPa) = 0.01548443
#
# Stress axis : x y z
#
# Youngs Moduli (GPa) = 136.64399 77.56634 100.77944
#
# Poissons Ratio (x) = 0.26691 -0.03210
# Poissons Ratio (y) = 0.47020 0.42346
# Poissons Ratio (z) = -0.04352 0.32592
#
# Static dielectric constant tensor:
#      x y z
#    x 1.738570 0.000000 0.000000 
#    y 0.000000 1.081690 0.000000 
#    z 0.000000 0.000000 1.922970 
# 
# From -- ./inp_files/6548.got.cif
#   From: 2010.05.17/outbox.cif.g08.bks.cpg/sg37_4_cif.got.tgz:6548.got - 2010.06.03 17:53:42.
