data_PCOD9355884
_publ_section_title
;
Structure prediction by ZEFSAII (Michael W. Deem and Ramdas Pophale) SiO2 
 PCOD9355884
Probable space group: A M M 2
;
_chemical_formula_sum "Si O2"
_cell_formula_units_Z 64
_cell_length_a 7.580473
_cell_length_b 31.749470
_cell_length_c 14.824243
_cell_angle_alpha 90.000000
_cell_angle_beta 90.000000
_cell_angle_gamma 90.000000
_cell_volume 3567.839510
_symmetry_space_group_name_H-M "A M M 2"
_symmetry_group_IT_number 38
_symmetry_cell_setting 'orthorhombic'
loop_
_space_group_symop_operation_xyz
x,y,z
-x,-y,z
-x,y,z
x,-y,z
x,1/2+y,1/2+z
-x,1/2-y,1/2+z
-x,1/2+y,1/2+z
x,1/2-y,1/2+z
loop_
_atom_site_type_symbol
_atom_site_label
_atom_site_fract_x
_atom_site_fract_y
_atom_site_fract_z
Si Si1 0.711370 0.953018 0.653970
Si Si2 0.213025 0.547782 0.943630
Si Si3 0.713459 0.270796 0.563495
Si Si4 0.799201 0.368935 0.862023
Si Si5 0.708741 0.800483 0.874481
Si Si6 0.205665 0.785907 0.270533
Si Si7 0.284572 0.368294 0.234419
Si Si8 0.287107 0.173664 0.544933
O O1 0.500000 0.954514 0.664423
O O2 0.743183 0.942602 0.548407
O O3 0.776849 0.916128 0.719446
O O4 0.782307 0.000000 0.670137
O O5 0.274768 0.500000 0.925246
O O6 0.280215 0.584513 0.877180
O O7 0.000000 0.547951 0.937590
O O8 0.500000 0.272768 0.566217
O O9 0.778773 0.296163 0.476119
O O10 0.775638 0.282766 0.663004
O O11 0.761094 0.222473 0.544005
O O12 0.716345 0.330458 0.805286
O O13 0.800242 0.350602 0.963205
O O14 0.000000 0.374822 0.828422
O O15 0.500000 0.807710 0.883479
O O16 0.724632 0.756277 0.819634
O O17 0.780928 0.839238 0.815843
O O18 0.000000 0.786739 0.294947
O O19 0.500000 0.368958 0.239243
O O20 0.239309 0.344846 0.141564
O O21 0.500000 0.170029 0.534354
#
# Coordination Sequence:
#
# PCOD9355884 Si02
#       8
#     8   8   8   8   8   8   8   8
#     4   9  16  26  42  65  92 118 144 177 220 267
#     4   9  17  29  44  62  87 117 148 181 216 261
#     4  10  20  33  48  64  86 120 159 192 219 256
#     4  10  20  31  43  65  93 121 150 181 223 269
#     4  10  19  33  50  66  87 118 158 193 219 260
#     4  11  22  32  45  66  94 121 147 185 230 273
#     4   9  16  27  43  65  90 116 147 181 217 258
#     4  10  17  27  46  67  89 118 150 185 220 256
#
# _framework density 17.938027000000002
#
# number of rings (size 3 to 8) (size 9 to 14) (size 15 to 20)
#    0.000    2.250    3.750    0.375    0.000    1.500 
#    0.000    0.625    0.000    0.000    0.000    0.875 
#    0.000    1.000    0.000    0.000    0.000    0.000 
#
# Total GULP energy -178399.372241 kJ/mol
# GULP energy per Si atom -5574.980383 kJ/mol
# Density = 1.789720 g / cm^3
# Si number density = 17.938027 Si / 1000 Ang^3
#
#
#
# Elastic Constant Matrix: (Units=GPa)
#
#
# Indices 1 2 3 4 5 6 
#
# 1 37.8826 -0.7792 -6.2846 0.0000 0.0000 0.0000
# 2 -0.7792 119.3741 26.6727 0.0000 0.0000 0.0000
# 3 -6.2846 26.6727 64.5558 0.0000 0.0000 0.0000
# 4 0.0000 0.0000 0.0000 28.3568 0.0000 0.0000
# 5 0.0000 0.0000 0.0000 0.0000 133.5635 0.0000
# 6 0.0000 0.0000 0.0000 0.0000 0.0000 5.1338
#
#
#
# Elastic Compliance Matrix: (Units=1/GPa)
#
#
# Indices 1 2 3 4 5 6 
#
# 1 0.026853 -0.000450 0.002800 0.000000 0.000000 0.000000
# 2 -0.000450 0.009237 -0.003860 0.000000 0.000000 0.000000
# 3 0.002800 -0.003860 0.017358 0.000000 0.000000 0.000000
# 4 0.000000 0.000000 0.000000 0.035265 0.000000 0.000000
# 5 0.000000 0.000000 0.000000 0.000000 0.007487 0.000000
# 6 0.000000 0.000000 0.000000 0.000000 0.000000 0.194786
#
#
# Mechanical properties :
#
#
# Convention : Reuss Voigt Hill
#
# Bulk Modulus (GPa) = 19.83079 29.00335 24.41707
# Shear Modulus (GPa) = 16.08674 46.89108 31.48891
#
# Velocity S-wave (km/s) = 2.99790 5.11833 4.19433
# Velocity P-wave (km/s) = 4.80233 7.15077 6.09081
#
# Compressibility (1/GPa) = 0.05042663
#
# Stress axis : x y z
#
# Youngs Moduli (GPa) = 37.24028 108.26506 57.61031
#
# Poissons Ratio (x) = 0.04876 -0.16132
# Poissons Ratio (y) = 0.01677 0.22238
# Poissons Ratio (z) = -0.10428 0.41792
#
# Static dielectric constant tensor:
#      x y z
#    x 1.638130 0.000000 0.000000 
#    y 0.000000 1.667180 0.000000 
#    z 0.000000 0.000000 1.590680 
# 
# From -- ./inp_files/13097.got.cif
#   From: 2010.05.17/outbox.cif.g08.bks.cpg/sg38_7_cif.got.tgz:13097.got - 2010.06.03 18:07:57.
