data_PCOD9355846
_publ_section_title
;
Structure prediction by ZEFSAII (Michael W. Deem and Ramdas Pophale) SiO2 
 PCOD9355846
Probable space group: A M M 2
;
_chemical_formula_sum "Si O2"
_cell_formula_units_Z 64
_cell_length_a 7.429222
_cell_length_b 31.576166
_cell_length_c 15.206208
_cell_angle_alpha 90.000000
_cell_angle_beta 90.000000
_cell_angle_gamma 90.000000
_cell_volume 3567.168788
_symmetry_space_group_name_H-M "A M M 2"
_symmetry_group_IT_number 38
_symmetry_cell_setting 'orthorhombic'
loop_
_space_group_symop_operation_xyz
x,y,z
-x,-y,z
-x,y,z
x,-y,z
x,1/2+y,1/2+z
-x,1/2-y,1/2+z
-x,1/2+y,1/2+z
x,1/2-y,1/2+z
loop_
_atom_site_type_symbol
_atom_site_label
_atom_site_fract_x
_atom_site_fract_y
_atom_site_fract_z
Si Si1 0.780111 0.707055 0.349590
Si Si2 0.211811 0.452656 0.551081
Si Si3 0.220177 0.707891 0.958251
Si Si4 0.779969 0.632519 0.475578
Si Si5 0.780930 0.726278 0.154731
Si Si6 0.780832 0.324010 0.656214
Si Si7 0.785360 0.133239 0.333886
Si Si8 0.713391 0.047597 0.253197
O O1 0.725567 0.749817 0.403115
O O2 0.722805 0.664104 0.398531
O O3 0.722312 0.707175 0.247924
O O4 0.000000 0.708097 0.350699
O O5 0.289519 0.500000 0.542990
O O6 0.282962 0.415827 0.487587
O O7 0.223768 0.440023 0.654531
O O8 0.000000 0.455663 0.532392
O O9 0.279588 0.664605 0.910364
O O10 0.000000 0.708976 0.958397
O O11 0.278546 0.709171 0.059918
O O12 0.724538 0.654887 0.566071
O O13 0.000000 0.631657 0.473054
O O14 0.728863 0.775361 0.158304
O O15 0.000000 0.724218 0.154288
O O16 0.715015 0.347941 0.742126
O O17 0.000000 0.325298 0.657400
O O18 0.754435 0.083099 0.325804
O O19 0.000000 0.138404 0.334177
O O20 0.500000 0.045200 0.247199
O O21 0.783144 0.000000 0.271361
#
# Coordination Sequence:
#
# PCOD9355846 Si02
#       8
#     8   8   8   8   8   8   8   8
#     4   9  14  19  30  51  82 114 137 165 206 240
#     4   9  16  26  41  60  82 108 138 171 204 240
#     4   9  15  21  32  53  80 108 137 168 201 238
#     4   9  14  20  32  53  79 108 136 164 200 241
#     4   9  14  20  29  49  84 114 135 167 205 235
#     4   9  13  18  32  53  80 106 132 165 196 228
#     4  10  17  26  41  61  82 109 140 167 199 238
#     4  10  20  31  42  59  83 107 132 165 205 248
#
# _framework density 17.941399000000001
#
# number of rings (size 3 to 8) (size 9 to 14) (size 15 to 20)
#    0.000    2.750    3.750    0.375    0.000    0.750 
#    0.000    0.000    0.000    0.000    0.000    4.375 
#    0.000    5.000    0.000    3.375    0.000    3.000 
#
# Total GULP energy -178331.987371 kJ/mol
# GULP energy per Si atom -5572.874605 kJ/mol
# Density = 1.790056 g / cm^3
# Si number density = 17.941399 Si / 1000 Ang^3
#
#
#
# Elastic Constant Matrix: (Units=GPa)
#
#
# Indices 1 2 3 4 5 6 
#
# 1 55.9994 2.7842 4.7022 0.0000 0.0000 0.0000
# 2 2.7842 149.6303 81.4506 0.0000 0.0000 0.0000
# 3 4.7022 81.4506 133.3740 0.0000 0.0000 0.0000
# 4 0.0000 0.0000 0.0000 24.1763 0.0000 0.0000
# 5 0.0000 0.0000 0.0000 0.0000 -72.1338 0.0000
# 6 0.0000 0.0000 0.0000 0.0000 0.0000 -117.9472
#
#
#
# Elastic Compliance Matrix: (Units=1/GPa)
#
#
# Indices 1 2 3 4 5 6 
#
# 1 0.017910 0.000016 -0.000641 0.000000 0.000000 0.000000
# 2 0.000016 0.010011 -0.006114 0.000000 0.000000 0.000000
# 3 -0.000641 -0.006114 0.011254 0.000000 0.000000 0.000000
# 4 0.000000 0.000000 0.000000 0.041363 0.000000 0.000000
# 5 0.000000 0.000000 0.000000 0.000000 -0.013863 0.000000
# 6 0.000000 0.000000 0.000000 0.000000 0.000000 -0.008478
#
#
# Mechanical properties :
#
#
# Convention : Reuss Voigt Hill
#
# Bulk Modulus (GPa) = 38.91574 57.43085 48.17330
# Shear Modulus (GPa) = 62.31164 -16.50983 22.90090
#
# Velocity S-wave (km/s) = 5.89966 -3.03679 3.57659
# Velocity P-wave (km/s) = 8.25504 4.44788 6.63058
#
# Compressibility (1/GPa) = 0.02569654
#
# Stress axis : x y z
#
# Youngs Moduli (GPa) = 55.83350 99.88884 88.85524
#
# Poissons Ratio (x) = -0.00157 0.05696
# Poissons Ratio (y) = -0.00088 0.54329
# Poissons Ratio (z) = 0.03579 0.61075
#
# Static dielectric constant tensor:
#      x y z
#    x 1.681010 0.000000 0.000000 
#    y 0.000000 1.659670 0.000000 
#    z 0.000000 0.000000 1.599530 
# 
# From -- ./inp_files/13108.got.cif
#   From: 2010.05.17/outbox.cif.g08.bks.cpg/sg38_7_cif.got.tgz:13108.got - 2010.06.03 18:07:57.
