data_PCOD9355120
_publ_section_title
;
Structure prediction by ZEFSAII (Michael W. Deem and Ramdas Pophale) SiO2 
 PCOD9355120
Probable space group: C C C 2
;
_chemical_formula_sum "Si O2"
_cell_formula_units_Z 64
_cell_length_a 9.900780
_cell_length_b 25.133350
_cell_length_c 13.455312
_cell_angle_alpha 90.000000
_cell_angle_beta 90.000000
_cell_angle_gamma 90.000000
_cell_volume 3348.216730
_symmetry_space_group_name_H-M "C C C 2"
_symmetry_group_IT_number 37
_symmetry_cell_setting 'orthorhombic'
loop_
_space_group_symop_operation_xyz
x,y,z
-x,-y,z
-x,y,1/2+z
x,-y,1/2+z
1/2+x,1/2+y,z
1/2-x,1/2-y,z
1/2-x,1/2+y,1/2+z
1/2+x,1/2-y,1/2+z
loop_
_atom_site_type_symbol
_atom_site_label
_atom_site_fract_x
_atom_site_fract_y
_atom_site_fract_z
Si Si1 0.880696 0.542090 0.696040
Si Si2 0.936498 0.173978 0.383630
Si Si3 0.636052 0.706012 0.666370
Si Si4 0.851688 0.987197 0.547403
Si Si5 0.736515 0.076310 0.407919
Si Si6 0.510375 0.120045 0.025724
Si Si7 0.196236 0.131155 0.482283
Si Si8 0.900343 0.261242 0.546733
O O1 0.765499 0.513160 0.630072
O O2 0.808917 0.564723 0.794821
O O3 0.941480 0.589081 0.625423
O O4 0.000000 0.500000 0.719597
O O5 0.907177 0.179844 0.268352
O O6 0.832211 0.128216 0.418977
O O7 0.910780 0.229196 0.442183
O O8 0.090538 0.157456 0.407119
O O9 0.750000 0.750000 0.684242
O O10 0.687396 0.664191 0.584883
O O11 0.507605 0.733985 0.618192
O O12 0.814539 0.027799 0.459620
O O13 0.852659 0.928190 0.502923
O O14 0.000000 0.000000 0.588586
O O15 0.598797 0.084802 0.468944
O O16 0.440799 0.177185 0.041511
O O17 0.644944 0.128878 0.959151
O O18 0.750000 0.250000 0.583586
#
# Coordination Sequence:
#
# PCOD9355120 Si02
#       8
#     8   8   8   8   8   8   8   8
#     4  11  26  43  66 101 134 181 228 274 337 406
#     4  11  23  42  65 100 126 171 223 265 331 404
#     4  11  23  43  67  93 133 171 217 267 333 404
#     4  11  23  46  69  96 137 176 221 282 336 392
#     4  12  25  43  68  98 134 173 226 270 335 407
#     4  11  23  45  66  93 135 175 216 275 336 393
#     4  10  23  43  66  93 130 173 217 270 333 394
#     4  11  23  42  66  95 130 169 216 271 331 392
#
# _framework density 19.114652
#
# number of rings (size 3 to 8) (size 9 to 14) (size 15 to 20)
#    0.000    1.000    5.000    1.875    3.500    0.500 
#    6.750    0.000    0.000    0.000    0.000    0.000 
#    0.000    0.000    0.000    0.000    0.000    0.000 
#
# Total GULP energy -178742.986385 kJ/mol
# GULP energy per Si atom -5585.718325 kJ/mol
# Density = 1.907115 g / cm^3
# Si number density = 19.114652 Si / 1000 Ang^3
#
#
#
# Elastic Constant Matrix: (Units=GPa)
#
#
# Indices 1 2 3 4 5 6 
#
# 1 106.3448 16.6453 -2.4632 0.0000 0.0000 0.0000
# 2 16.6453 83.2555 9.0228 0.0000 0.0000 0.0000
# 3 -2.4632 9.0228 33.4174 0.0000 0.0000 0.0000
# 4 0.0000 0.0000 0.0000 11.5247 0.0000 0.0000
# 5 0.0000 0.0000 0.0000 0.0000 8.3119 0.0000
# 6 0.0000 0.0000 0.0000 0.0000 0.0000 40.8197
#
#
#
# Elastic Compliance Matrix: (Units=1/GPa)
#
#
# Indices 1 2 3 4 5 6 
#
# 1 0.009760 -0.002091 0.001284 0.000000 0.000000 0.000000
# 2 -0.002091 0.012821 -0.003616 0.000000 0.000000 0.000000
# 3 0.001284 -0.003616 0.030995 0.000000 0.000000 0.000000
# 4 0.000000 0.000000 0.000000 0.086770 0.000000 0.000000
# 5 0.000000 0.000000 0.000000 0.000000 0.120309 0.000000
# 6 0.000000 0.000000 0.000000 0.000000 0.000000 0.024498
#
#
# Mechanical properties :
#
#
# Convention : Reuss Voigt Hill
#
# Bulk Modulus (GPa) = 22.35542 29.93638 26.14590
# Shear Modulus (GPa) = 16.18597 25.45211 20.81904
#
# Velocity S-wave (km/s) = 2.91311 3.65300 3.30383
# Velocity P-wave (km/s) = 4.79956 5.78688 5.31619
#
# Compressibility (1/GPa) = 0.04473189
#
# Stress axis : x y z
#
# Youngs Moduli (GPa) = 102.45561 77.99677 32.26285
#
# Poissons Ratio (x) = 0.16305 -0.04142
# Poissons Ratio (y) = 0.21419 0.11666
# Poissons Ratio (z) = -0.13154 0.28202
#
# Static dielectric constant tensor:
#      x y z
#    x 1.651810 0.000000 0.000000 
#    y 0.000000 1.649860 0.000000 
#    z 0.000000 0.000000 1.643000 
# 
# From -- ./inp_files/10973.got.cif
#   From: 2010.05.17/outbox.cif.g08.bks.cpg/sg37_6_cif.got.tgz:10973.got - 2010.06.03 17:53:42.
