data_PCOD9355236
_publ_section_title
;
Structure prediction by ZEFSAII (Michael W. Deem and Ramdas Pophale) SiO2 
 PCOD9355236
Probable space group: C C C 2
;
_chemical_formula_sum "Si O2"
_cell_formula_units_Z 44
_cell_length_a 16.626058
_cell_length_b 13.634194
_cell_length_c 8.429414
_cell_angle_alpha 90.000000
_cell_angle_beta 90.000000
_cell_angle_gamma 90.000000
_cell_volume 1910.804013
_symmetry_space_group_name_H-M "C C C 2"
_symmetry_group_IT_number 37
_symmetry_cell_setting 'orthorhombic'
loop_
_space_group_symop_operation_xyz
x,y,z
-x,-y,z
-x,y,1/2+z
x,-y,1/2+z
1/2+x,1/2+y,z
1/2-x,1/2-y,z
1/2-x,1/2+y,1/2+z
1/2+x,1/2-y,1/2+z
loop_
_atom_site_type_symbol
_atom_site_label
_atom_site_fract_x
_atom_site_fract_y
_atom_site_fract_z
Si Si1 0.262711 0.952445 0.655980
Si Si2 0.089872 0.112743 0.176034
Si Si3 0.208803 0.355626 0.503034
Si Si4 0.000000 0.000000 0.924692
Si Si5 0.952226 0.308585 0.866668
Si Si6 0.435949 0.085841 0.048855
O O1 0.259561 0.070325 0.637337
O O2 0.178844 0.902367 0.608120
O O3 0.275640 0.908297 0.832214
O O4 0.340714 0.931647 0.545729
O O5 0.073704 0.211851 0.272084
O O6 0.073035 0.030205 0.310807
O O7 0.026159 0.088869 0.038294
O O8 0.250000 0.250000 0.506071
O O9 0.113589 0.332992 0.501536
O O10 0.950094 0.390503 0.731784
O O11 0.038681 0.319755 0.946210
O O12 0.500000 0.000000 0.009098
#
# Coordination Sequence:
#
# PCOD9355236 Si02
#       6
#     8   8   8   4   8   8
#     4  11  24  41  73 100 142 186 245 294 368 433
#     4  11  22  44  67 100 135 189 233 304 346 442
#     4  11  23  44  68 100 142 192 232 304 362 432
#     4  10  24  42  68  94 136 180 244 284 366 404
#     4  11  23  40  65  94 139 174 232 275 367 419
#     4  11  23  40  65 100 137 183 221 296 355 436
#
# _framework density 23.026955000000001
#
# number of rings (size 3 to 8) (size 9 to 14) (size 15 to 20)
#    0.000    1.091    3.636    2.727    2.545    0.000 
#    0.000    0.909    4.000    0.000    0.000    0.000 
#    0.000    0.000    0.000    0.000    0.000    0.000 
#
# Total GULP energy -122781.221322 kJ/mol
# GULP energy per Si atom -5580.964606 kJ/mol
# Density = 2.297455 g / cm^3
# Si number density = 23.026955 Si / 1000 Ang^3
#
#
#
# Elastic Constant Matrix: (Units=GPa)
#
#
# Indices 1 2 3 4 5 6 
#
# 1 141.5984 52.8042 35.3854 0.0000 0.0000 0.0000
# 2 52.8042 141.2498 29.5837 0.0000 0.0000 0.0000
# 3 35.3854 29.5837 40.0327 0.0000 0.0000 0.0000
# 4 0.0000 0.0000 0.0000 49.1066 0.0000 0.0000
# 5 0.0000 0.0000 0.0000 0.0000 21.4072 0.0000
# 6 0.0000 0.0000 0.0000 0.0000 0.0000 30.8239
#
#
#
# Elastic Compliance Matrix: (Units=1/GPa)
#
#
# Indices 1 2 3 4 5 6 
#
# 1 0.009581 -0.002139 -0.006888 0.000000 0.000000 0.000000
# 2 -0.002139 0.008854 -0.004652 0.000000 0.000000 0.000000
# 3 -0.006888 -0.004652 0.034506 0.000000 0.000000 0.000000
# 4 0.000000 0.000000 0.000000 0.020364 0.000000 0.000000
# 5 0.000000 0.000000 0.000000 0.000000 0.046713 0.000000
# 6 0.000000 0.000000 0.000000 0.000000 0.000000 0.032442
#
#
# Mechanical properties :
#
#
# Convention : Reuss Voigt Hill
#
# Bulk Modulus (GPa) = 39.08964 62.04751 50.56857
# Shear Modulus (GPa) = 26.54684 33.94138 30.24411
#
# Velocity S-wave (km/s) = 3.39906 3.84342 3.62805
# Velocity P-wave (km/s) = 5.69362 6.83373 6.28956
#
# Compressibility (1/GPa) = 0.02558223
#
# Stress axis : x y z
#
# Youngs Moduli (GPa) = 104.36981 112.94765 28.98057
#
# Poissons Ratio (x) = 0.24161 0.19962
# Poissons Ratio (y) = 0.22326 0.13482
# Poissons Ratio (z) = 0.71892 0.52542
#
# Static dielectric constant tensor:
#      x y z
#    x 1.929510 0.000000 0.000000 
#    y 0.000000 1.953970 0.000000 
#    z 0.000000 0.000000 1.834010 
# 
# From -- ./inp_files/3957.got.cif
#   From: 2010.05.17/outbox.cif.g08.bks.cpg/sg37_2_cif.got.tgz:3957.got - 2010.06.03 17:53:42.
