data_PCOD9355849
_publ_section_title
;
Structure prediction by ZEFSAII (Michael W. Deem and Ramdas Pophale) SiO2 
 PCOD9355849
Probable space group: A M M 2
;
_chemical_formula_sum "Si O2"
_cell_formula_units_Z 56
_cell_length_a 21.904125
_cell_length_b 34.227238
_cell_length_c 5.119986
_cell_angle_alpha 90.000000
_cell_angle_beta 90.000000
_cell_angle_gamma 90.000000
_cell_volume 3838.544126
_symmetry_space_group_name_H-M "A M M 2"
_symmetry_group_IT_number 38
_symmetry_cell_setting 'orthorhombic'
loop_
_space_group_symop_operation_xyz
x,y,z
-x,-y,z
-x,y,z
x,-y,z
x,1/2+y,1/2+z
-x,1/2-y,1/2+z
-x,1/2+y,1/2+z
x,1/2-y,1/2+z
loop_
_atom_site_type_symbol
_atom_site_label
_atom_site_fract_x
_atom_site_fract_y
_atom_site_fract_z
Si Si1 0.661796 0.454239 0.003030
Si Si2 0.147244 0.547037 0.630940
Si Si3 0.571159 0.608922 0.096821
Si Si4 0.570381 0.223655 0.976614
Si Si5 0.277168 0.581284 0.503103
Si Si6 0.368935 0.144571 0.097047
Si Si7 0.068796 0.546882 0.121910
O O1 0.662970 0.500000 0.048395
O O2 0.705744 0.432798 0.212444
O O3 0.596127 0.434595 0.048148
O O4 0.684159 0.444061 0.712520
O O5 0.161983 0.500000 0.638808
O O6 0.207455 0.571363 0.563875
O O7 0.116658 0.559616 0.902249
O O8 0.097092 0.553094 0.405974
O O9 0.500000 0.613280 0.051089
O O10 0.608544 0.635178 0.889245
O O11 0.588730 0.621408 0.389116
O O12 0.500000 0.208478 0.001195
O O13 0.576796 0.242308 0.691336
O O14 0.618279 0.189525 0.033691
O O15 0.302459 0.625235 0.549512
O O16 0.064773 0.500000 0.086391
O O17 0.000000 0.562511 0.094139
#
# Coordination Sequence:
#
# PCOD9355849 Si02
#       7
#     8   8   8   8   8   8   8
#     4  10  19  30  42  57  79 103 137 183 214 242
#     4  10  17  26  42  59  79 108 143 177 202 237
#     4  10  19  30  45  60  77 107 136 166 214 256
#     4  10  19  30  47  68  85 104 132 166 206 254
#     4  10  20  31  44  61  80 110 143 171 213 250
#     4  10  20  33  46  62  86 107 132 170 208 256
#     4   9  17  27  39  58  82 107 137 175 213 240
#
# _framework density 14.588863999999999
#
# number of rings (size 3 to 8) (size 9 to 14) (size 15 to 20)
#    0.000    2.143    0.000    4.714    0.000    4.286 
#    0.000    0.000    0.000    5.143    0.000    0.000 
#    0.000    0.000    0.000    0.000    0.000   14.286 
#
# Total GULP energy -156104.324802 kJ/mol
# GULP energy per Si atom -5575.154457 kJ/mol
# Density = 1.455566 g / cm^3
# Si number density = 14.588864 Si / 1000 Ang^3
#
#
#
# Elastic Constant Matrix: (Units=GPa)
#
#
# Indices 1 2 3 4 5 6 
#
# 1 51.8465 15.9432 -14.6449 0.0000 0.0000 0.0000
# 2 15.9432 41.8791 -11.2008 0.0000 0.0000 0.0000
# 3 -14.6449 -11.2008 38.0074 0.0000 0.0000 0.0000
# 4 0.0000 0.0000 0.0000 10.8548 0.0000 0.0000
# 5 0.0000 0.0000 0.0000 0.0000 0.7278 0.0000
# 6 0.0000 0.0000 0.0000 0.0000 0.0000 12.2833
#
#
#
# Elastic Compliance Matrix: (Units=1/GPa)
#
#
# Indices 1 2 3 4 5 6 
#
# 1 0.023420 -0.007059 0.006944 0.000000 0.000000 0.000000
# 2 -0.007059 0.028049 0.005546 0.000000 0.000000 0.000000
# 3 0.006944 0.005546 0.030621 0.000000 0.000000 0.000000
# 4 0.000000 0.000000 0.000000 0.092125 0.000000 0.000000
# 5 0.000000 0.000000 0.000000 0.000000 1.373943 0.000000
# 6 0.000000 0.000000 0.000000 0.000000 0.000000 0.081411
#
#
# Mechanical properties :
#
#
# Convention : Reuss Voigt Hill
#
# Bulk Modulus (GPa) = 10.75825 12.43645 11.59735
# Shear Modulus (GPa) = 3.03087 14.21557 8.62322
#
# Velocity S-wave (km/s) = 1.44293 3.12494 2.43386
# Velocity P-wave (km/s) = 3.18847 4.64365 3.98308
#
# Compressibility (1/GPa) = 0.09295191
#
# Stress axis : x y z
#
# Youngs Moduli (GPa) = 42.69911 35.65220 32.65768
#
# Poissons Ratio (x) = 0.25165 -0.22677
# Poissons Ratio (y) = 0.30140 -0.18112
# Poissons Ratio (z) = -0.29650 -0.19773
#
# Static dielectric constant tensor:
#      x y z
#    x 1.482870 0.000000 0.000000 
#    y 0.000000 1.475270 0.000000 
#    z 0.000000 0.000000 1.499100 
# 
# From -- ./inp_files/1973.got.cif
#   From: 2010.05.17/outbox.cif.g08.bks.cpg/sg38_1_cif.got.tgz:1973.got - 2010.06.03 18:07:57.
