data_PCOD9355929
_publ_section_title
;
Structure prediction by ZEFSAII (Michael W. Deem and Ramdas Pophale) SiO2 
 PCOD9355929
Probable space group: A M M 2
;
_chemical_formula_sum "Si O2"
_cell_formula_units_Z 64
_cell_length_a 7.532741
_cell_length_b 16.180138
_cell_length_c 24.350433
_cell_angle_alpha 90.000000
_cell_angle_beta 90.000000
_cell_angle_gamma 90.000000
_cell_volume 2967.849984
_symmetry_space_group_name_H-M "A M M 2"
_symmetry_group_IT_number 38
_symmetry_cell_setting 'orthorhombic'
loop_
_space_group_symop_operation_xyz
x,y,z
-x,-y,z
-x,y,z
x,-y,z
x,1/2+y,1/2+z
-x,1/2-y,1/2+z
-x,1/2+y,1/2+z
x,1/2-y,1/2+z
loop_
_atom_site_type_symbol
_atom_site_label
_atom_site_fract_x
_atom_site_fract_y
_atom_site_fract_z
Si Si1 0.217236 0.408323 0.580700
Si Si2 0.792734 0.750237 0.645718
Si Si3 0.785979 0.591281 0.344023
Si Si4 0.709789 0.752477 0.272424
Si Si5 0.289641 0.590949 0.840795
Si Si6 0.783494 0.655639 0.461680
Si Si7 0.214022 0.846761 0.461328
Si Si8 0.217403 0.091343 0.580229
O O1 0.276422 0.500000 0.596717
O O2 0.280566 0.334097 0.619572
O O3 0.270135 0.387629 0.518159
O O4 0.000000 0.409293 0.581811
O O5 0.781418 0.751327 0.710974
O O6 0.719194 0.833596 0.618321
O O7 0.000000 0.750060 0.629949
O O8 0.723753 0.500000 0.326761
O O9 0.739230 0.667373 0.304968
O O10 0.724510 0.611553 0.405924
O O11 0.000000 0.588955 0.345523
O O12 0.500000 0.763633 0.267392
O O13 0.782899 0.830764 0.306859
O O14 0.500000 0.588099 0.829988
O O15 0.215659 0.500000 0.827453
O O16 0.268099 0.609105 0.905366
O O17 0.726431 0.751294 0.461049
O O18 0.000000 0.655289 0.461355
O O19 0.271478 0.890228 0.517484
O O20 0.000000 0.845881 0.462088
O O21 0.000000 0.090806 0.581269
O O22 0.275537 0.000000 0.597377
#
# Coordination Sequence:
#
# PCOD9355929 Si02
#       8
#     8   8   8   8   8   8   8   8
#     4   9  16  28  50  81 113 140 168 212 270 323
#     4  10  20  35  54  76 103 138 181 225 263 312
#     4  10  20  35  58  86 113 142 176 216 265 323
#     4  11  24  40  56  75 104 145 187 231 275 315
#     4  10  22  39  56  76 106 145 184 221 270 328
#     4   9  15  27  51  83 115 140 166 209 265 323
#     4  10  17  30  56  86 112 137 169 216 269 321
#     4   9  17  30  51  80 109 135 166 209 263 316
#
# _framework density 21.564432
#
# number of rings (size 3 to 8) (size 9 to 14) (size 15 to 20)
#    0.000    2.250    2.500    1.125    0.000    4.000 
#    0.000    1.875    0.000    1.500    0.000    0.000 
#    0.000    0.000    0.000    0.000    0.000    0.000 
#
# Total GULP energy -178750.466550 kJ/mol
# GULP energy per Si atom -5585.952080 kJ/mol
# Density = 2.151535 g / cm^3
# Si number density = 21.564432 Si / 1000 Ang^3
#
#
#
# Elastic Constant Matrix: (Units=GPa)
#
#
# Indices 1 2 3 4 5 6 
#
# 1 51.3649 4.9664 -12.1725 0.0000 0.0000 0.0000
# 2 4.9664 232.3747 93.6739 0.0000 0.0000 0.0000
# 3 -12.1725 93.6739 133.0924 0.0000 0.0000 0.0000
# 4 0.0000 0.0000 0.0000 0.0748 0.0000 0.0000
# 5 0.0000 0.0000 0.0000 0.0000 -5.8267 0.0000
# 6 0.0000 0.0000 0.0000 0.0000 0.0000 4.2811
#
#
#
# Elastic Compliance Matrix: (Units=1/GPa)
#
#
# Indices 1 2 3 4 5 6 
#
# 1 0.020345 -0.001654 0.003025 0.000000 0.000000 0.000000
# 2 -0.001654 0.006143 -0.004475 0.000000 0.000000 0.000000
# 3 0.003025 -0.004475 0.010940 0.000000 0.000000 0.000000
# 4 0.000000 0.000000 0.000000 13.373310 0.000000 0.000000
# 5 0.000000 0.000000 0.000000 0.000000 -0.171622 0.000000
# 6 0.000000 0.000000 0.000000 0.000000 0.000000 0.233586
#
#
# Mechanical properties :
#
#
# Convention : Reuss Voigt Hill
#
# Bulk Modulus (GPa) = 32.03077 65.52973 48.78025
# Shear Modulus (GPa) = 0.37066 21.73010 11.05038
#
# Velocity S-wave (km/s) = 0.41504 3.17785 2.26616
# Velocity P-wave (km/s) = 3.88786 6.62712 5.43297
#
# Compressibility (1/GPa) = 0.03121998
#
# Stress axis : x y z
#
# Youngs Moduli (GPa) = 49.15114 162.79968 91.41132
#
# Poissons Ratio (x) = 0.26932 -0.27653
# Poissons Ratio (y) = 0.08131 0.40903
# Poissons Ratio (z) = -0.14869 0.72846
#
# Static dielectric constant tensor:
#      x y z
#    x 1.825050 0.000000 0.000000 
#    y 0.000000 1.792670 0.000000 
#    z 0.000000 0.000000 1.723980 
# 
# From -- ./inp_files/22196.got.cif
#   From: 2010.05.17/outbox.cif.g08.bks.cpg/sg38_12_cif.got.tgz:22196.got - 2010.06.03 18:07:57.
