data_PCOD9355987
_publ_section_title
;
Structure prediction by ZEFSAII (Michael W. Deem and Ramdas Pophale) SiO2 
 PCOD9355987
Probable space group: A M M 2
;
_chemical_formula_sum "Si O2"
_cell_formula_units_Z 48
_cell_length_a 7.749075
_cell_length_b 24.585682
_cell_length_c 14.373878
_cell_angle_alpha 90.000000
_cell_angle_beta 90.000000
_cell_angle_gamma 90.000000
_cell_volume 2738.457963
_symmetry_space_group_name_H-M "A M M 2"
_symmetry_group_IT_number 38
_symmetry_cell_setting 'orthorhombic'
loop_
_space_group_symop_operation_xyz
x,y,z
-x,-y,z
-x,y,z
x,-y,z
x,1/2+y,1/2+z
-x,1/2-y,1/2+z
-x,1/2+y,1/2+z
x,1/2-y,1/2+z
loop_
_atom_site_type_symbol
_atom_site_label
_atom_site_fract_x
_atom_site_fract_y
_atom_site_fract_z
Si Si1 0.796019 0.778778 0.748370
Si Si2 0.793245 0.333357 0.430967
Si Si3 0.710751 0.561548 0.754923
Si Si4 0.791947 0.728324 0.041010
Si Si5 0.707498 0.560676 0.541861
Si Si6 0.706182 0.169491 0.355446
O O1 0.724769 0.818830 0.828203
O O2 0.723304 0.782540 0.644408
O O3 0.776146 0.718181 0.790543
O O4 0.000000 0.790054 0.740579
O O5 0.728216 0.286318 0.500930
O O6 0.757224 0.392274 0.471390
O O7 0.000000 0.326964 0.426879
O O8 0.500000 0.561323 0.756272
O O9 0.765500 0.500000 0.779755
O O10 0.764735 0.572401 0.647980
O O11 0.769029 0.610783 0.820296
O O12 0.000000 0.731738 0.046924
O O13 0.750517 0.684424 0.961569
O O14 0.500000 0.559155 0.544667
O O15 0.768980 0.500000 0.516768
O O16 0.500000 0.170624 0.346076
#
# Coordination Sequence:
#
# PCOD9355987 Si02
#       6
#     8   8   8   8   8   8
#     4   9  18  32  47  63  88 122 151 176 215 264
#     4   9  17  28  44  66  87 111 144 179 216 254
#     4   8  15  28  44  63  89 118 144 172 213 264
#     4   9  18  32  47  63  89 122 149 176 216 265
#     4   9  17  29  45  64  87 116 145 174 214 261
#     4  10  18  27  45  71  92 113 145 184 222 258
#
# _framework density 17.528112
#
# number of rings (size 3 to 8) (size 9 to 14) (size 15 to 20)
#    0.000    3.000    0.000    3.500    0.000    3.667 
#    0.000    0.833    0.000    5.000    0.000    4.667 
#    0.000    0.000    0.000    0.000    0.000    0.000 
#
# Total GULP energy -133735.148028 kJ/mol
# GULP energy per Si atom -5572.297834 kJ/mol
# Density = 1.748822 g / cm^3
# Si number density = 17.528112 Si / 1000 Ang^3
#
#
#
# Elastic Constant Matrix: (Units=GPa)
#
#
# Indices 1 2 3 4 5 6 
#
# 1 18.2435 -6.3870 2.5184 0.0000 0.0000 0.0000
# 2 -6.3870 142.4575 103.3555 0.0000 0.0000 0.0000
# 3 2.5184 103.3555 165.6810 0.0000 0.0000 0.0000
# 4 0.0000 0.0000 0.0000 18.8296 0.0000 0.0000
# 5 0.0000 0.0000 0.0000 0.0000 15.4339 0.0000
# 6 0.0000 0.0000 0.0000 0.0000 0.0000 25.3694
#
#
#
# Elastic Compliance Matrix: (Units=1/GPa)
#
#
# Indices 1 2 3 4 5 6 
#
# 1 0.057494 0.005867 -0.004534 0.000000 0.000000 0.000000
# 2 0.005867 0.013422 -0.008462 0.000000 0.000000 0.000000
# 3 -0.004534 -0.008462 0.011384 0.000000 0.000000 0.000000
# 4 0.000000 0.000000 0.000000 0.053108 0.000000 0.000000
# 5 0.000000 0.000000 0.000000 0.000000 0.064793 0.000000
# 6 0.000000 0.000000 0.000000 0.000000 0.000000 0.039418
#
#
# Mechanical properties :
#
#
# Convention : Reuss Voigt Hill
#
# Bulk Modulus (GPa) = 14.69685 58.37286 36.53486
# Shear Modulus (GPa) = 18.07948 27.05291 22.56620
#
# Velocity S-wave (km/s) = 3.21511 3.93288 3.59197
# Velocity P-wave (km/s) = 4.71015 7.34834 6.17186
#
# Compressibility (1/GPa) = 0.06804178
#
# Stress axis : x y z
#
# Youngs Moduli (GPa) = 17.39308 74.50339 87.84606
#
# Poissons Ratio (x) = -0.43713 0.39830
# Poissons Ratio (y) = -0.10205 0.74338
# Poissons Ratio (z) = 0.07886 0.63047
#
# Static dielectric constant tensor:
#      x y z
#    x 1.647990 0.000000 0.000000 
#    y 0.000000 1.590360 0.000000 
#    z 0.000000 0.000000 1.609000 
# 
# From -- ./inp_files/12239.got.cif
#   From: 2010.05.17/outbox.cif.g08.bks.cpg/sg38_7_cif.got.tgz:12239.got - 2010.06.03 18:07:57.
