data_PCOD9355097
_publ_section_title
;
Structure prediction by ZEFSAII (Michael W. Deem and Ramdas Pophale) SiO2 
 PCOD9355097
Probable space group: C C C 2
;
_chemical_formula_sum "Si O2"
_cell_formula_units_Z 52
_cell_length_a 23.730574
_cell_length_b 8.709942
_cell_length_c 11.664115
_cell_angle_alpha 90.000000
_cell_angle_beta 90.000000
_cell_angle_gamma 90.000000
_cell_volume 2410.878361
_symmetry_space_group_name_H-M "C C C 2"
_symmetry_group_IT_number 37
_symmetry_cell_setting 'orthorhombic'
loop_
_space_group_symop_operation_xyz
x,y,z
-x,-y,z
-x,y,1/2+z
x,-y,1/2+z
1/2+x,1/2+y,z
1/2-x,1/2-y,z
1/2-x,1/2+y,1/2+z
1/2+x,1/2-y,1/2+z
loop_
_atom_site_type_symbol
_atom_site_label
_atom_site_fract_x
_atom_site_fract_y
_atom_site_fract_z
Si Si1 0.559148 0.032263 0.761300
Si Si2 0.349525 0.556450 0.274783
Si Si3 0.150475 0.556450 0.073538
Si Si4 0.597277 0.303075 0.904419
Si Si5 0.059148 0.032263 0.087021
Si Si6 0.250000 0.250000 0.674161
Si Si7 0.402723 0.196925 0.943902
O O1 0.612235 0.981206 0.684614
O O2 0.559545 0.922906 0.873822
O O3 0.500000 0.000000 0.699874
O O4 0.566746 0.205585 0.805732
O O5 0.351716 0.400045 0.348117
O O6 0.387765 0.518794 0.163707
O O7 0.290869 0.634783 0.243127
O O8 0.380697 0.681717 0.352410
O O9 0.209131 0.634783 0.105195
O O10 0.119303 0.681717 0.995911
O O11 0.148284 0.400045 0.000204
O O12 0.559545 0.422906 0.974499
O O13 0.000000 0.000000 0.148447
O O14 0.066746 0.205585 0.042590
#
# Coordination Sequence:
#
# PCOD9355097 Si02
#       7
#     8   8   8   8   8   4   8
#     4  11  22  41  67 101 141 173 220 273 334 403
#     4  11  24  44  66  96 132 176 225 276 337 392
#     4  11  24  44  66  96 132 176 225 276 337 392
#     4  10  23  42  65 100 132 176 224 266 345 398
#     4  11  22  41  67 101 141 173 220 273 334 403
#     4  12  24  48  70  88 138 172 234 294 328 412
#     4  10  23  42  65 100 132 176 224 266 345 398
#
# _framework density 21.568902000000001
#
# number of rings (size 3 to 8) (size 9 to 14) (size 15 to 20)
#    0.000    1.231    3.077    1.846    0.000   11.077 
#    0.000    1.538    0.000    0.000    0.000    0.000 
#    0.000    0.000    0.000    0.000    0.000    0.000 
#
# Total GULP energy -145245.199936 kJ/mol
# GULP energy per Si atom -5586.353844 kJ/mol
# Density = 2.151981 g / cm^3
# Si number density = 21.568902 Si / 1000 Ang^3
#
#
#
# Elastic Constant Matrix: (Units=GPa)
#
#
# Indices 1 2 3 4 5 6 
#
# 1 76.3816 11.9241 6.2757 0.0000 0.0000 0.0000
# 2 11.9241 116.7283 25.7588 0.0000 0.0000 0.0000
# 3 6.2757 25.7588 68.5193 0.0000 0.0000 0.0000
# 4 0.0000 0.0000 0.0000 8.1631 0.0000 0.0000
# 5 0.0000 0.0000 0.0000 0.0000 6.0485 0.0000
# 6 0.0000 0.0000 0.0000 0.0000 0.0000 31.6184
#
#
#
# Elastic Compliance Matrix: (Units=1/GPa)
#
#
# Indices 1 2 3 4 5 6 
#
# 1 0.013342 -0.001192 -0.000774 0.000000 0.000000 0.000000
# 2 -0.001192 0.009448 -0.003443 0.000000 0.000000 0.000000
# 3 -0.000774 -0.003443 0.015960 0.000000 0.000000 0.000000
# 4 0.000000 0.000000 0.000000 0.122502 0.000000 0.000000
# 5 0.000000 0.000000 0.000000 0.000000 0.165330 0.000000
# 6 0.000000 0.000000 0.000000 0.000000 0.000000 0.031627
#
#
# Mechanical properties :
#
#
# Convention : Reuss Voigt Hill
#
# Bulk Modulus (GPa) = 35.80083 38.83849 37.31966
# Shear Modulus (GPa) = 13.21574 23.67738 18.44656
#
# Velocity S-wave (km/s) = 2.47801 3.31683 2.92762
# Velocity P-wave (km/s) = 4.98214 5.71964 5.36358
#
# Compressibility (1/GPa) = 0.02793231
#
# Stress axis : x y z
#
# Youngs Moduli (GPa) = 74.95214 105.83777 62.65826
#
# Poissons Ratio (x) = 0.12617 0.04849
# Poissons Ratio (y) = 0.08935 0.21572
# Poissons Ratio (z) = 0.05800 0.36438
#
# Static dielectric constant tensor:
#      x y z
#    x 1.782650 0.000000 0.000000 
#    y 0.000000 1.792570 0.000000 
#    z 0.000000 0.000000 1.834460 
# 
# From -- ./inp_files/9042.got.cif
#   From: 2010.05.17/outbox.cif.g08.bks.cpg/sg37_5_cif.got.tgz:9042.got - 2010.06.03 17:53:42.
