data_PCOD9355778
_publ_section_title
;
Structure prediction by ZEFSAII (Michael W. Deem and Ramdas Pophale) SiO2 
 PCOD9355778
Probable space group: C C C 2
;
_chemical_formula_sum "Si O2"
_cell_formula_units_Z 32
_cell_length_a 9.000000
_cell_length_b 24.000000
_cell_length_c 15.000000
_cell_angle_alpha 90.000000
_cell_angle_beta 90.000000
_cell_angle_gamma 90.000000
_cell_volume 3240.000000
_symmetry_space_group_name_H-M "C C C 2"
_symmetry_group_IT_number 37
_symmetry_cell_setting 'orthorhombic'
loop_
_space_group_symop_operation_xyz
x,y,z
-x,-y,z
-x,y,1/2+z
x,-y,1/2+z
1/2+x,1/2+y,z
1/2-x,1/2-y,z
1/2-x,1/2+y,1/2+z
1/2+x,1/2-y,1/2+z
loop_
_atom_site_type_symbol
_atom_site_label
_atom_site_fract_x
_atom_site_fract_y
_atom_site_fract_z
Si Si1 0.349781 0.468621 0.204230
Si Si2 0.200959 0.417621 0.737502
Si Si3 0.571617 0.062437 0.417908
Si Si4 0.599975 0.143594 0.057499
Si Si5 0.428616 0.258455 0.105965
Si Si6 0.521470 0.353398 0.759636
Si Si7 0.579388 0.662512 0.466605
Si Si8 0.398260 0.549794 0.495616
O O1 0.500000 0.500000 0.233252
O O2 0.229107 0.515208 0.230829
O O3 0.364198 0.404874 0.237995
O O4 0.354835 0.464224 0.097189
O O5 0.083006 0.411816 0.818167
O O6 0.143870 0.394118 0.643046
O O7 0.356373 0.382920 0.755506
O O8 0.492881 0.104795 0.487821
O O9 0.745277 0.056722 0.443796
O O10 0.500000 0.000000 0.420209
O O11 0.511131 0.197896 0.096651
O O12 0.752166 0.161761 0.005589
O O13 0.250000 0.250000 0.107332
O O14 0.468728 0.301782 0.188334
O O15 0.485836 0.290576 0.017987
O O16 0.561802 0.333146 0.859558
O O17 0.500137 0.604365 0.492866
O O18 0.500000 0.500000 0.459152
#
# Coordination Sequence:
#
# PCOD9355778 Si02
#       8
#     8   8   8   8   8   8   8   8
#     4   9  19  38  67 106 141 182 237 292 365 437
#     4  11  24  45  73 111 149 202 239 316 382 445
#     4  12  27  43  70 116 150 197 249 304 382 450
#     4  12  28  50  75 106 154 199 249 318 378 444
#     4  12  28  51  74 105 143 194 256 311 374 450
#     4  11  24  43  80 108 145 194 253 306 372 454
#     4  12  24  46  76 108 140 195 253 303 377 446
#     4  11  21  40  71 100 148 198 242 298 366 448
#
# _framework density 9.8765429999999999
#
# number of rings (size 3 to 8) (size 9 to 14) (size 15 to 20)
#    0.000    0.750    3.750    4.125    3.500    4.500 
#    0.000    0.000    0.000    0.000    0.000    0.000 
#    0.000    0.000    0.000    0.000    0.000    0.000 
#
# Total GULP energy -178793.736298 kJ/mol
# GULP energy per Si atom -5587.304259 kJ/mol
# Density = 0.985406 g / cm^3
# Si number density = 9.876543 Si / 1000 Ang^3
#
#
#
# Elastic Constant Matrix: (Units=GPa)
#
#
# Indices 1 2 3 4 5 6 
#
# 1 109.4393 44.7424 38.9455 0.0000 0.0000 0.0000
# 2 44.7424 133.9048 51.1106 0.0000 0.0000 0.0000
# 3 38.9455 51.1106 167.0468 0.0000 0.0000 0.0000
# 4 0.0000 0.0000 0.0000 31.6619 0.0000 0.0000
# 5 0.0000 0.0000 0.0000 0.0000 35.9324 0.0000
# 6 0.0000 0.0000 0.0000 0.0000 0.0000 44.2147
#
#
#
# Elastic Compliance Matrix: (Units=1/GPa)
#
#
# Indices 1 2 3 4 5 6 
#
# 1 0.010959 -0.003042 -0.001624 0.000000 0.000000 0.000000
# 2 -0.003042 0.009300 -0.002136 0.000000 0.000000 0.000000
# 3 -0.001624 -0.002136 0.007019 0.000000 0.000000 0.000000
# 4 0.000000 0.000000 0.000000 0.031584 0.000000 0.000000
# 5 0.000000 0.000000 0.000000 0.000000 0.027830 0.000000
# 6 0.000000 0.000000 0.000000 0.000000 0.000000 0.022617
#
#
# Mechanical properties :
#
#
# Convention : Reuss Voigt Hill
#
# Bulk Modulus (GPa) = 73.13817 75.55422 74.34619
# Shear Modulus (GPa) = 39.22474 40.73463 39.97969
#
# Velocity S-wave (km/s) = 4.46101 4.54606 4.50374
# Velocity P-wave (km/s) = 7.97752 8.11714 8.04763
#
# Compressibility (1/GPa) = 0.01367275
#
# Stress axis : x y z
#
# Youngs Moduli (GPa) = 91.24812 107.52958 142.47743
#
# Poissons Ratio (x) = 0.32709 0.23143
# Poissons Ratio (y) = 0.27756 0.30436
# Poissons Ratio (z) = 0.14822 0.22971
#
# Static dielectric constant tensor:
#      x y z
#    x 1.701570 0.000000 0.000000 
#    y 0.000000 1.698220 0.000000 
#    z 0.000000 0.000000 1.716250 
# 
# From -- ./inp_files/10996.got.cif
#   From: 2010.05.17/outbox.ucp.g08.bks.cvg/sg37_6_cif.got.tgz:10996.got - 2010.06.11 10:38:43.
