data_PCOD9355063
_publ_section_title
;
Structure prediction by ZEFSAII (Michael W. Deem and Ramdas Pophale) SiO2 
 PCOD9355063
Probable space group: C C C 2
;
_chemical_formula_sum "Si O2"
_cell_formula_units_Z 32
_cell_length_a 9.652555
_cell_length_b 21.829718
_cell_length_c 5.432040
_cell_angle_alpha 90.000000
_cell_angle_beta 90.000000
_cell_angle_gamma 90.000000
_cell_volume 1144.599020
_symmetry_space_group_name_H-M "C C C 2"
_symmetry_group_IT_number 37
_symmetry_cell_setting 'orthorhombic'
loop_
_space_group_symop_operation_xyz
x,y,z
-x,-y,z
-x,y,1/2+z
x,-y,1/2+z
1/2+x,1/2+y,z
1/2-x,1/2-y,z
1/2-x,1/2+y,1/2+z
1/2+x,1/2-y,1/2+z
loop_
_atom_site_type_symbol
_atom_site_label
_atom_site_fract_x
_atom_site_fract_y
_atom_site_fract_z
Si Si1 0.342687 0.525262 0.580500
Si Si2 0.941691 0.739163 0.743132
Si Si3 0.066293 0.570411 0.014189
Si Si4 0.211935 0.856004 0.310242
O O1 0.500000 0.500000 0.597666
O O2 0.276087 0.493108 0.339416
O O3 0.333986 0.596111 0.518719
O O4 0.942144 0.726757 0.450297
O O5 0.915309 0.812399 0.745232
O O6 0.824029 0.696200 0.862925
O O7 0.211847 0.601007 0.107713
O O8 0.000000 0.500000 0.006041
O O9 0.029753 0.594417 0.742473
#
# Coordination Sequence:
#
# PCOD9355063 Si02
#       4
#     8   8   8   8
#     4  10  25  42  67 106 139 184 226 285 353 423
#     4  11  28  49  74 104 138 187 243 298 338 418
#     4  10  23  40  63  98 138 179 224 277 336 421
#     4  11  26  46  76 102 144 189 232 289 363 405
#
# _framework density 27.957388999999999
#
# number of rings (size 3 to 8) (size 9 to 14) (size 15 to 20)
#    0.000    1.500    0.000    1.500   14.000    8.000 
#    0.000    0.000    0.000    0.000    0.000    0.000 
#    0.000    0.000    0.000    0.000    0.000    0.000 
#
# Total GULP energy -89127.600961 kJ/mol
# GULP energy per Si atom -5570.475060 kJ/mol
# Density = 2.789376 g / cm^3
# Si number density = 27.957389 Si / 1000 Ang^3
#
#
#
# Elastic Constant Matrix: (Units=GPa)
#
#
# Indices 1 2 3 4 5 6 
#
# 1 49.7566 31.5873 14.1574 0.0000 0.0000 0.0000
# 2 31.5873 198.7935 49.3248 0.0000 0.0000 0.0000
# 3 14.1574 49.3248 158.3289 0.0000 0.0000 0.0000
# 4 0.0000 0.0000 0.0000 26.1907 0.0000 0.0000
# 5 0.0000 0.0000 0.0000 0.0000 35.3613 0.0000
# 6 0.0000 0.0000 0.0000 0.0000 0.0000 52.3321
#
#
#
# Elastic Compliance Matrix: (Units=1/GPa)
#
#
# Indices 1 2 3 4 5 6 
#
# 1 0.022490 -0.003332 -0.000973 0.000000 0.000000 0.000000
# 2 -0.003332 0.005945 -0.001554 0.000000 0.000000 0.000000
# 3 -0.000973 -0.001554 0.006887 0.000000 0.000000 0.000000
# 4 0.000000 0.000000 0.000000 0.038181 0.000000 0.000000
# 5 0.000000 0.000000 0.000000 0.000000 0.028280 0.000000
# 6 0.000000 0.000000 0.000000 0.000000 0.000000 0.019109
#
#
# Mechanical properties :
#
#
# Convention : Reuss Voigt Hill
#
# Bulk Modulus (GPa) = 42.36571 66.33531 54.35051
# Shear Modulus (GPa) = 35.59250 43.56412 39.57831
#
# Velocity S-wave (km/s) = 3.57192 3.95173 3.76661
# Velocity P-wave (km/s) = 5.67433 6.67835 6.19671
#
# Compressibility (1/GPa) = 0.02360400
#
# Stress axis : x y z
#
# Youngs Moduli (GPa) = 44.46412 168.19584 145.19758
#
# Poissons Ratio (x) = 0.56045 0.14127
# Poissons Ratio (y) = 0.14816 0.22567
# Poissons Ratio (z) = 0.04326 0.26142
#
# Static dielectric constant tensor:
#      x y z
#    x 1.949740 0.000000 0.000000 
#    y 0.000000 2.366990 0.000000 
#    z 0.000000 0.000000 2.200140 
# 
# From -- ./inp_files/247.got.cif
#   From: 2010.05.17/outbox.cif.g08.bks.cpg/sg37_1_cif.got.tgz:247.got - 2010.06.03 17:53:42.
