data_PCOD9355582
_publ_section_title
;
Structure prediction by ZEFSAII (Michael W. Deem and Ramdas Pophale) SiO2 
 PCOD9355582
Probable space group: C C C 2
;
_chemical_formula_sum "Si O2"
_cell_formula_units_Z 36
_cell_length_a 13.772643
_cell_length_b 5.256333
_cell_length_c 21.281152
_cell_angle_alpha 90.000000
_cell_angle_beta 90.000000
_cell_angle_gamma 90.000000
_cell_volume 1540.619161
_symmetry_space_group_name_H-M "C C C 2"
_symmetry_group_IT_number 37
_symmetry_cell_setting 'orthorhombic'
loop_
_space_group_symop_operation_xyz
x,y,z
-x,-y,z
-x,y,1/2+z
x,-y,1/2+z
1/2+x,1/2+y,z
1/2-x,1/2-y,z
1/2-x,1/2+y,1/2+z
1/2+x,1/2-y,1/2+z
loop_
_atom_site_type_symbol
_atom_site_label
_atom_site_fract_x
_atom_site_fract_y
_atom_site_fract_z
Si Si1 0.500000 0.000000 0.849150
Si Si2 0.688831 0.011819 0.266062
Si Si3 0.000000 0.000000 0.931102
Si Si4 0.365619 0.251679 0.535811
Si Si5 0.855096 0.621175 0.137824
Si Si6 0.000000 0.000000 0.636042
O O1 0.405561 0.957529 0.806940
O O2 0.525830 0.746609 0.889485
O O3 0.750000 0.750000 0.264478
O O4 0.663482 0.081422 0.193454
O O5 0.750000 0.250000 0.291857
O O6 0.083005 0.871301 0.975274
O O7 0.250000 0.250000 0.529190
O O8 0.411405 0.418963 0.591213
O O9 0.386999 0.976933 0.568523
O O10 0.750000 0.750000 0.129508
O O11 0.944064 0.776215 0.169368
#
# Coordination Sequence:
#
# PCOD9355582 Si02
#       6
#     4   8   4   8   8   4
#     4  12  28  54  76 106 144 202 264 310 362 434
#     4  11  27  48  79 113 148 193 247 313 380 445
#     4  11  30  47  76 108 145 204 263 302 368 437
#     4  11  24  45  70 105 150 192 239 305 373 445
#     4  11  24  42  74 114 155 189 242 299 392 456
#     4  11  24  39  68 106 151 194 231 292 364 459
#
# _framework density 23.367227
#
# number of rings (size 3 to 8) (size 9 to 14) (size 15 to 20)
#    0.000    0.889    2.222    2.667   12.444    3.556 
#    0.000    0.000    0.000    0.000    0.000    0.000 
#    0.000    0.000    0.000    0.000    0.000    0.000 
#
# Total GULP energy -100333.332288 kJ/mol
# GULP energy per Si atom -5574.074016 kJ/mol
# Density = 2.331404 g / cm^3
# Si number density = 23.367227 Si / 1000 Ang^3
#
#
#
# Elastic Constant Matrix: (Units=GPa)
#
#
# Indices 1 2 3 4 5 6 
#
# 1 193.2557 57.7304 61.0844 0.0000 0.0000 0.0000
# 2 57.7304 128.7046 46.4328 0.0000 0.0000 0.0000
# 3 61.0844 46.4328 110.5563 0.0000 0.0000 0.0000
# 4 0.0000 0.0000 0.0000 17.2106 0.0000 0.0000
# 5 0.0000 0.0000 0.0000 0.0000 9.2158 0.0000
# 6 0.0000 0.0000 0.0000 0.0000 0.0000 53.4205
#
#
#
# Elastic Compliance Matrix: (Units=1/GPa)
#
#
# Indices 1 2 3 4 5 6 
#
# 1 0.006663 -0.001957 -0.002859 0.000000 0.000000 0.000000
# 2 -0.001957 0.009732 -0.003006 0.000000 0.000000 0.000000
# 3 -0.002859 -0.003006 0.011888 0.000000 0.000000 0.000000
# 4 0.000000 0.000000 0.000000 0.058104 0.000000 0.000000
# 5 0.000000 0.000000 0.000000 0.000000 0.108509 0.000000
# 6 0.000000 0.000000 0.000000 0.000000 0.000000 0.018719
#
#
# Mechanical properties :
#
#
# Convention : Reuss Voigt Hill
#
# Bulk Modulus (GPa) = 79.13005 84.77910 81.95458
# Shear Modulus (GPa) = 21.41576 33.78730 27.60153
#
# Velocity S-wave (km/s) = 3.03064 3.80666 3.44060
# Velocity P-wave (km/s) = 6.79585 7.46196 7.13668
#
# Compressibility (1/GPa) = 0.01263742
#
# Stress axis : x y z
#
# Youngs Moduli (GPa) = 150.08423 102.75301 84.12127
#
# Poissons Ratio (x) = 0.20109 0.24054
# Poissons Ratio (y) = 0.29372 0.25288
# Poissons Ratio (z) = 0.42916 0.30889
#
# Static dielectric constant tensor:
#      x y z
#    x 1.893070 0.000000 0.000000 
#    y 0.000000 2.482670 0.000000 
#    z 0.000000 0.000000 1.849710 
# 
# From -- ./inp_files/17035.got.cif
#   From: 2010.05.17/outbox.cif.g08.bks.cpg/sg37_9_cif.got.tgz:17035.got - 2010.06.03 17:53:42.
