data_PCOD9355526
_publ_section_title
;
Structure prediction by ZEFSAII (Michael W. Deem and Ramdas Pophale) SiO2 
 PCOD9355526
Probable space group: C C C 2
;
_chemical_formula_sum "Si O2"
_cell_formula_units_Z 32
_cell_length_a 8.867224
_cell_length_b 11.665633
_cell_length_c 13.742862
_cell_angle_alpha 90.000000
_cell_angle_beta 90.000000
_cell_angle_gamma 90.000000
_cell_volume 1421.586120
_symmetry_space_group_name_H-M "C C C 2"
_symmetry_group_IT_number 37
_symmetry_cell_setting 'orthorhombic'
loop_
_space_group_symop_operation_xyz
x,y,z
-x,-y,z
-x,y,1/2+z
x,-y,1/2+z
1/2+x,1/2+y,z
1/2-x,1/2-y,z
1/2-x,1/2+y,1/2+z
1/2+x,1/2-y,1/2+z
loop_
_atom_site_type_symbol
_atom_site_label
_atom_site_fract_x
_atom_site_fract_y
_atom_site_fract_z
Si Si1 0.594644 0.676893 0.680720
Si Si2 0.035430 0.873904 0.888255
Si Si3 0.242366 0.542167 0.013928
Si Si4 0.564293 0.821362 0.032070
O O1 0.750000 0.750000 0.698637
O O2 0.528683 0.629545 0.780598
O O3 0.648699 0.583638 0.601221
O O4 0.458839 0.749539 0.631112
O O5 0.211279 0.888740 0.914611
O O6 0.000000 0.000000 0.932403
O O7 0.963861 0.767844 0.944930
O O8 0.205059 0.406302 0.014540
O O9 0.082884 0.599824 0.036796
#
# Coordination Sequence:
#
# PCOD9355526 Si02
#       4
#     8   8   8   8
#     4   9  20  39  62  96 138 174 222 273 325 394
#     4  11  23  36  62  98 134 167 213 275 324 390
#     4   9  20  44  68  93 129 171 223 268 325 395
#     4   9  20  44  70  90 128 178 216 269 329 388
#
# _framework density 22.510069999999999
#
# number of rings (size 3 to 8) (size 9 to 14) (size 15 to 20)
#    0.000    2.500    0.000    2.250    3.500    4.000 
#    9.000    2.500    0.000    0.000    0.000    0.000 
#    0.000    0.000    0.000    0.000    0.000    0.000 
#
# Total GULP energy -89070.406887 kJ/mol
# GULP energy per Si atom -5566.900430 kJ/mol
# Density = 2.245884 g / cm^3
# Si number density = 22.510070 Si / 1000 Ang^3
#
#
#
# Elastic Constant Matrix: (Units=GPa)
#
#
# Indices 1 2 3 4 5 6 
#
# 1 95.3410 54.3705 58.8849 0.0000 0.0000 0.0000
# 2 54.3705 165.3148 75.9944 0.0000 0.0000 0.0000
# 3 58.8849 75.9944 155.8383 0.0000 0.0000 0.0000
# 4 0.0000 0.0000 0.0000 43.5374 0.0000 0.0000
# 5 0.0000 0.0000 0.0000 0.0000 13.6714 0.0000
# 6 0.0000 0.0000 0.0000 0.0000 0.0000 43.9014
#
#
#
# Elastic Compliance Matrix: (Units=1/GPa)
#
#
# Indices 1 2 3 4 5 6 
#
# 1 0.014715 -0.002943 -0.004125 0.000000 0.000000 0.000000
# 2 -0.002943 0.008386 -0.002977 0.000000 0.000000 0.000000
# 3 -0.004125 -0.002977 0.009427 0.000000 0.000000 0.000000
# 4 0.000000 0.000000 0.000000 0.022969 0.000000 0.000000
# 5 0.000000 0.000000 0.000000 0.000000 0.073145 0.000000
# 6 0.000000 0.000000 0.000000 0.000000 0.000000 0.022778
#
#
# Mechanical properties :
#
#
# Convention : Reuss Voigt Hill
#
# Bulk Modulus (GPa) = 80.40392 88.33265 84.36829
# Shear Modulus (GPa) = 28.46470 35.37166 31.91818
#
# Velocity S-wave (km/s) = 3.55988 3.96835 3.76965
# Velocity P-wave (km/s) = 7.25904 7.76683 7.51722
#
# Compressibility (1/GPa) = 0.01243720
#
# Stress axis : x y z
#
# Youngs Moduli (GPa) = 67.95891 119.25094 106.07548
#
# Poissons Ratio (x) = 0.35101 0.43754
# Poissons Ratio (y) = 0.20003 0.31579
# Poissons Ratio (z) = 0.28031 0.35502
#
# Static dielectric constant tensor:
#      x y z
#    x 0.266990 0.000000 0.000000 
#    y 0.000000 1.785550 0.000000 
#    z 0.000000 0.000000 1.799810 
# 
# From -- ./inp_files/10090.got.cif
#   From: 2010.05.17/outbox.cif.g08.bks.cpg/sg37_6_cif.got.tgz:10090.got - 2010.06.03 17:53:42.
