data_PCOD9355868
_publ_section_title
;
Structure prediction by ZEFSAII (Michael W. Deem and Ramdas Pophale) SiO2 
 PCOD9355868
Probable space group: A M M 2
;
_chemical_formula_sum "Si O2"
_cell_formula_units_Z 56
_cell_length_a 8.670808
_cell_length_b 22.880054
_cell_length_c 18.402802
_cell_angle_alpha 90.000000
_cell_angle_beta 90.000000
_cell_angle_gamma 90.000000
_cell_volume 3650.905302
_symmetry_space_group_name_H-M "A M M 2"
_symmetry_group_IT_number 38
_symmetry_cell_setting 'orthorhombic'
loop_
_space_group_symop_operation_xyz
x,y,z
-x,-y,z
-x,y,z
x,-y,z
x,1/2+y,1/2+z
-x,1/2-y,1/2+z
-x,1/2+y,1/2+z
x,1/2-y,1/2+z
loop_
_atom_site_type_symbol
_atom_site_label
_atom_site_fract_x
_atom_site_fract_y
_atom_site_fract_z
Si Si1 0.678369 0.177456 0.838330
Si Si2 0.678324 0.314543 0.791451
Si Si3 0.686080 0.932296 0.554415
Si Si4 0.313832 0.717057 0.488809
Si Si5 0.183726 0.219730 0.143350
Si Si6 0.183051 0.342434 0.940802
Si Si7 0.312517 0.847044 0.684073
O O1 0.500000 0.159070 0.845187
O O2 0.680794 0.245746 0.814227
O O3 0.743793 0.178776 0.919780
O O4 0.743255 0.144957 0.767440
O O5 0.500000 0.332292 0.787832
O O6 0.756002 0.316494 0.712688
O O7 0.763852 0.346793 0.857080
O O8 0.500000 0.928990 0.547182
O O9 0.760990 0.896635 0.488633
O O10 0.727054 0.898660 0.628972
O O11 0.731031 0.000000 0.555738
O O12 0.500000 0.716560 0.489337
O O13 0.249479 0.698417 0.566479
O O14 0.260325 0.783602 0.473338
O O15 0.245420 0.286049 0.154588
O O16 0.000000 0.220470 0.142298
O O17 0.000000 0.335858 0.944866
O O18 0.500000 0.841106 0.685778
#
# Coordination Sequence:
#
# PCOD9355868 Si02
#       7
#     8   8   8   8   8   8   8
#     4   7  13  24  40  59  76 105 145 178 211 258
#     4   9  17  30  45  60  82 115 148 176 216 272
#     4  10  20  32  47  65  86 119 161 196 227 269
#     4  10  17  27  42  60  86 119 151 178 215 272
#     4  11  19  26  40  65  91 114 145 182 222 264
#     4  11  20  30  44  63  87 114 147 191 234 266
#     4   9  16  29  45  58  81 116 152 187 224 266
#
# _framework density 15.338661
#
# number of rings (size 3 to 8) (size 9 to 14) (size 15 to 20)
#    0.000    2.429    1.429    5.143    0.000    0.286 
#    0.000    0.714    0.000    0.000    0.000    0.000 
#    0.000    1.143    0.000    8.571    0.000    2.286 
#
# Total GULP energy -155953.655037 kJ/mol
# GULP energy per Si atom -5569.773394 kJ/mol
# Density = 1.530375 g / cm^3
# Si number density = 15.338661 Si / 1000 Ang^3
#
#
#
# Elastic Constant Matrix: (Units=GPa)
#
#
# Indices 1 2 3 4 5 6 
#
# 1 57.0362 18.2268 43.0099 0.0000 0.0000 0.0000
# 2 18.2268 44.0011 41.6705 0.0000 0.0000 0.0000
# 3 43.0099 41.6705 175.7410 0.0000 0.0000 0.0000
# 4 0.0000 0.0000 0.0000 12.8817 0.0000 0.0000
# 5 0.0000 0.0000 0.0000 0.0000 14.6339 0.0000
# 6 0.0000 0.0000 0.0000 0.0000 0.0000 2.5101
#
#
#
# Elastic Compliance Matrix: (Units=1/GPa)
#
#
# Indices 1 2 3 4 5 6 
#
# 1 0.022411 -0.005273 -0.004234 0.000000 0.000000 0.000000
# 2 -0.005273 0.030549 -0.005953 0.000000 0.000000 0.000000
# 3 -0.004234 -0.005953 0.008138 0.000000 0.000000 0.000000
# 4 0.000000 0.000000 0.000000 0.077630 0.000000 0.000000
# 5 0.000000 0.000000 0.000000 0.000000 0.068335 0.000000
# 6 0.000000 0.000000 0.000000 0.000000 0.000000 0.398389
#
#
# Mechanical properties :
#
#
# Convention : Reuss Voigt Hill
#
# Bulk Modulus (GPa) = 33.13840 53.62139 43.37989
# Shear Modulus (GPa) = 7.73478 17.59654 12.66566
#
# Velocity S-wave (km/s) = 2.24802 3.39071 2.87668
# Velocity P-wave (km/s) = 5.32818 7.09672 6.27507
#
# Compressibility (1/GPa) = 0.03017647
#
# Stress axis : x y z
#
# Youngs Moduli (GPa) = 44.62102 32.73458 122.88021
#
# Poissons Ratio (x) = 0.17262 0.52032
# Poissons Ratio (y) = 0.23530 0.73150
# Poissons Ratio (z) = 0.18894 0.19487
#
# Static dielectric constant tensor:
#      x y z
#    x 1.510970 0.000000 0.000000 
#    y 0.000000 1.469490 0.000000 
#    z 0.000000 0.000000 1.563390 
# 
# From -- ./inp_files/17116.got.cif
#   From: 2010.05.17/outbox.cif.g08.bks.cpg/sg38_9_cif.got.tgz:17116.got - 2010.06.03 18:07:57.
