data_PCOD9355429
_publ_section_title
;
Structure prediction by ZEFSAII (Michael W. Deem and Ramdas Pophale) SiO2 
 PCOD9355429
Probable space group: C C C 2
;
_chemical_formula_sum "Si O2"
_cell_formula_units_Z 64
_cell_length_a 11.981473
_cell_length_b 17.913323
_cell_length_c 15.195884
_cell_angle_alpha 90.000000
_cell_angle_beta 90.000000
_cell_angle_gamma 90.000000
_cell_volume 3261.462128
_symmetry_space_group_name_H-M "C C C 2"
_symmetry_group_IT_number 37
_symmetry_cell_setting 'orthorhombic'
loop_
_space_group_symop_operation_xyz
x,y,z
-x,-y,z
-x,y,1/2+z
x,-y,1/2+z
1/2+x,1/2+y,z
1/2-x,1/2-y,z
1/2-x,1/2+y,1/2+z
1/2+x,1/2-y,1/2+z
loop_
_atom_site_type_symbol
_atom_site_label
_atom_site_fract_x
_atom_site_fract_y
_atom_site_fract_z
Si Si1 0.679802 0.496812 0.073530
Si Si2 0.504630 0.616793 0.620408
Si Si3 0.158469 0.500000 0.726463
Si Si4 0.004630 0.116793 0.332518
Si Si5 0.000001 0.629490 0.226463
Si Si6 0.679802 0.503188 0.379396
Si Si7 0.381710 0.769122 0.374554
Si Si8 0.881710 0.269122 0.578372
O O1 0.580458 0.556284 0.081400
O O2 0.625855 0.415691 0.094462
O O3 0.765244 0.523799 0.146145
O O4 0.727683 0.496999 0.976463
O O5 0.500000 0.616276 0.726463
O O6 0.459278 0.695264 0.585879
O O7 0.089550 0.570117 0.762790
O O8 0.234754 0.476201 0.806782
O O9 0.089551 0.429882 0.690134
O O10 0.959279 0.195264 0.367047
O O11 0.125856 0.084309 0.358464
O O12 0.919542 0.056284 0.371526
O O13 0.936747 0.676843 0.151555
O O14 0.063254 0.676843 0.301371
O O15 0.250000 0.750000 0.355573
O O16 0.385090 0.796251 0.476463
O O17 0.750000 0.250000 0.597353
#
# Coordination Sequence:
#
# PCOD9355429 Si02
#       8
#     8   8   8   8   8   8   8   8
#     4  11  21  37  63  93 125 159 201 255 305 360
#     4  11  19  37  63  93 124 159 204 256 304 363
#     4  11  24  43  60  90 120 163 210 247 314 372
#     4  11  19  37  63  93 124 159 204 256 304 363
#     4  11  26  42  64  87 124 164 204 259 308 370
#     4  11  21  37  63  93 125 159 201 255 305 360
#     4  11  24  42  65  93 125 166 210 254 311 373
#     4  11  24  42  65  93 125 166 210 254 311 373
#
# _framework density 19.623100999999998
#
# number of rings (size 3 to 8) (size 9 to 14) (size 15 to 20)
#    0.000    1.000    3.750    5.250    0.000    4.000 
#    0.000    2.500    0.000    3.750    0.000    0.000 
#    0.000    0.000    0.000    0.000    0.000    0.000 
#
# Total GULP energy -178428.795349 kJ/mol
# GULP energy per Si atom -5575.899855 kJ/mol
# Density = 1.957844 g / cm^3
# Si number density = 19.623101 Si / 1000 Ang^3
#
#
#
# Elastic Constant Matrix: (Units=GPa)
#
#
# Indices 1 2 3 4 5 6 
#
# 1 68.0241 24.9458 30.7124 0.0000 0.0000 0.0000
# 2 24.9458 91.7942 12.4850 0.0000 0.0000 0.0000
# 3 30.7124 12.4850 144.3998 0.0000 0.0000 0.0000
# 4 0.0000 0.0000 0.0000 8.9743 0.0000 0.0000
# 5 0.0000 0.0000 0.0000 0.0000 -24.9450 0.0000
# 6 0.0000 0.0000 0.0000 0.0000 0.0000 25.8053
#
#
#
# Elastic Compliance Matrix: (Units=1/GPa)
#
#
# Indices 1 2 3 4 5 6 
#
# 1 0.017852 -0.004387 -0.003418 0.000000 0.000000 0.000000
# 2 -0.004387 0.012101 -0.000113 0.000000 0.000000 0.000000
# 3 -0.003418 -0.000113 0.007662 0.000000 0.000000 0.000000
# 4 0.000000 0.000000 0.000000 0.111429 0.000000 0.000000
# 5 0.000000 0.000000 0.000000 0.000000 -0.040088 0.000000
# 6 0.000000 0.000000 0.000000 0.000000 0.000000 0.038752
#
#
# Mechanical properties :
#
#
# Convention : Reuss Voigt Hill
#
# Bulk Modulus (GPa) = 45.91295 48.94493 47.42894
# Shear Modulus (GPa) = 29.27326 17.70524 23.48925
#
# Velocity S-wave (km/s) = 3.86654 3.00703 3.46355
# Velocity P-wave (km/s) = 6.58648 6.08712 6.34171
#
# Compressibility (1/GPa) = 0.02178035
#
# Stress axis : x y z
#
# Youngs Moduli (GPa) = 56.01471 82.63462 130.51528
#
# Poissons Ratio (x) = 0.36249 0.44607
# Poissons Ratio (y) = 0.24572 0.01479
# Poissons Ratio (z) = 0.19144 0.00936
#
# Static dielectric constant tensor:
#      x y z
#    x 1.736310 0.000000 0.000000 
#    y 0.000000 1.718920 0.000000 
#    z 0.000000 0.000000 1.684530 
# 
# From -- ./inp_files/11783.got.cif
#   From: 2010.05.17/outbox.cif.g08.bks.cpg/sg37_6_cif.got.tgz:11783.got - 2010.06.03 17:53:42.
