data_PCOD9355013
_publ_section_title
;
Structure prediction by ZEFSAII (Michael W. Deem and Ramdas Pophale) SiO2 
 PCOD9355013
Probable space group: C C C 2
;
_chemical_formula_sum "Si O2"
_cell_formula_units_Z 44
_cell_length_a 7.997699
_cell_length_b 26.081953
_cell_length_c 9.074587
_cell_angle_alpha 90.000000
_cell_angle_beta 90.000000
_cell_angle_gamma 90.000000
_cell_volume 1892.919006
_symmetry_space_group_name_H-M "C C C 2"
_symmetry_group_IT_number 37
_symmetry_cell_setting 'orthorhombic'
loop_
_space_group_symop_operation_xyz
x,y,z
-x,-y,z
-x,y,1/2+z
x,-y,1/2+z
1/2+x,1/2+y,z
1/2-x,1/2-y,z
1/2-x,1/2+y,1/2+z
1/2+x,1/2-y,1/2+z
loop_
_atom_site_type_symbol
_atom_site_label
_atom_site_fract_x
_atom_site_fract_y
_atom_site_fract_z
Si Si1 0.586840 0.655096 0.342610
Si Si2 0.180464 0.096492 0.055419
Si Si3 0.319019 0.305301 0.641992
Si Si4 0.500000 0.500000 0.654368
Si Si5 0.511427 0.059538 0.919661
Si Si6 0.287217 0.919872 0.170670
O O1 0.675129 0.618483 0.221878
O O2 0.452603 0.625786 0.450328
O O3 0.684041 0.687372 0.465331
O O4 0.494141 0.692668 0.228197
O O5 0.364301 0.094654 0.988281
O O6 0.117840 0.038154 0.065399
O O7 0.250000 0.250000 0.679873
O O8 0.240566 0.359569 0.696154
O O9 0.363778 0.458251 0.719836
O O10 0.684530 0.075527 0.994923
O O11 0.500000 0.000000 0.957998
O O12 0.458279 0.063051 0.749540
#
# Coordination Sequence:
#
# PCOD9355013 Si02
#       6
#     8   8   8   4   8   8
#     4  10  22  46  72 104 136 181 252 295 354 453
#     4  11  22  42  69 102 143 183 233 285 362 434
#     4  11  25  48  71 101 137 187 247 306 360 429
#     4  12  22  42  74 104 136 200 226 298 352 458
#     4  12  26  43  64 108 146 187 227 299 362 434
#     4  12  27  44  70 103 148 186 241 299 366 439
#
# _framework density 23.244523000000001
#
# number of rings (size 3 to 8) (size 9 to 14) (size 15 to 20)
#    0.000    0.727    7.273    0.545    2.545    4.364 
#    0.000    1.818    0.000    0.000    0.000    0.000 
#    0.000    0.000    0.000    0.000    0.000    0.000 
#
# Total GULP energy -122547.249854 kJ/mol
# GULP energy per Si atom -5570.329539 kJ/mol
# Density = 2.319162 g / cm^3
# Si number density = 23.244523 Si / 1000 Ang^3
#
#
#
# Elastic Constant Matrix: (Units=GPa)
#
#
# Indices 1 2 3 4 5 6 
#
# 1 47.1936 26.4414 16.9744 0.0000 0.0000 0.0000
# 2 26.4414 139.5465 24.5037 0.0000 0.0000 0.0000
# 3 16.9744 24.5037 140.0274 0.0000 0.0000 0.0000
# 4 0.0000 0.0000 0.0000 13.2247 0.0000 0.0000
# 5 0.0000 0.0000 0.0000 0.0000 42.5830 0.0000
# 6 0.0000 0.0000 0.0000 0.0000 0.0000 30.2241
#
#
#
# Elastic Compliance Matrix: (Units=1/GPa)
#
#
# Indices 1 2 3 4 5 6 
#
# 1 0.024353 -0.004226 -0.002213 0.000000 0.000000 0.000000
# 2 -0.004226 0.008127 -0.000910 0.000000 0.000000 0.000000
# 3 -0.002213 -0.000910 0.007569 0.000000 0.000000 0.000000
# 4 0.000000 0.000000 0.000000 0.075616 0.000000 0.000000
# 5 0.000000 0.000000 0.000000 0.000000 0.023484 0.000000
# 6 0.000000 0.000000 0.000000 0.000000 0.000000 0.033086
#
#
# Mechanical properties :
#
#
# Convention : Reuss Voigt Hill
#
# Bulk Modulus (GPa) = 39.44513 51.40070 45.42292
# Shear Modulus (GPa) = 25.59101 34.46290 30.02696
#
# Velocity S-wave (km/s) = 3.32165 3.85466 3.59804
# Velocity P-wave (km/s) = 5.63184 6.47860 6.07001
#
# Compressibility (1/GPa) = 0.02535167
#
# Stress axis : x y z
#
# Youngs Moduli (GPa) = 41.06307 123.05354 132.11982
#
# Poissons Ratio (x) = 0.52001 0.29233
# Poissons Ratio (y) = 0.17353 0.12020
# Poissons Ratio (z) = 0.09086 0.11196
#
# Static dielectric constant tensor:
#      x y z
#    x 2.006550 0.000000 0.000000 
#    y 0.000000 1.843520 0.000000 
#    z 0.000000 0.000000 1.993760 
# 
# From -- ./inp_files/2335.got.cif
#   From: 2010.05.17/outbox.cif.g08.bks.cpg/sg37_2_cif.got.tgz:2335.got - 2010.06.03 17:53:42.
