data_PCOD9355267
_publ_section_title
;
Structure prediction by ZEFSAII (Michael W. Deem and Ramdas Pophale) SiO2 
 PCOD9355267
Probable space group: C C C 2
;
_chemical_formula_sum "Si O2"
_cell_formula_units_Z 56
_cell_length_a 11.492856
_cell_length_b 15.808066
_cell_length_c 15.132446
_cell_angle_alpha 90.000000
_cell_angle_beta 90.000000
_cell_angle_gamma 90.000000
_cell_volume 2749.260159
_symmetry_space_group_name_H-M "C C C 2"
_symmetry_group_IT_number 37
_symmetry_cell_setting 'orthorhombic'
loop_
_space_group_symop_operation_xyz
x,y,z
-x,-y,z
-x,y,1/2+z
x,-y,1/2+z
1/2+x,1/2+y,z
1/2-x,1/2-y,z
1/2-x,1/2+y,1/2+z
1/2+x,1/2-y,1/2+z
loop_
_atom_site_type_symbol
_atom_site_label
_atom_site_fract_x
_atom_site_fract_y
_atom_site_fract_z
Si Si1 0.529347 0.900564 0.414050
Si Si2 0.989072 0.307336 0.097079
Si Si3 0.218551 0.068839 0.756243
Si Si4 0.500000 0.500000 0.652083
Si Si5 0.341291 0.648677 0.598574
Si Si6 0.250000 0.250000 0.671306
Si Si7 0.776228 0.347859 0.417372
Si Si8 0.153116 0.601928 0.734072
O O1 0.546503 0.862529 0.511612
O O2 0.407802 0.859135 0.386898
O O3 0.622665 0.881774 0.337090
O O4 0.500000 0.000000 0.419011
O O5 0.872370 0.256598 0.121116
O O6 0.088292 0.235266 0.082642
O O7 0.044952 0.366860 0.173784
O O8 0.249034 0.162096 0.723342
O O9 0.206205 0.083319 0.860704
O O10 0.098725 0.041680 0.712322
O O11 0.313978 0.997877 0.731345
O O12 0.433813 0.572819 0.598755
O O13 0.249836 0.633871 0.519744
O O14 0.267695 0.645640 0.690102
O O15 0.750000 0.250000 0.402771
#
# Coordination Sequence:
#
# PCOD9355267 Si02
#       8
#     8   8   8   4   8   4   8   8
#     4  12  26  43  68 112 144 183 241 299 360 432
#     4  12  26  47  72 107 145 191 239 295 368 429
#     4  11  24  44  69 105 141 186 239 296 362 419
#     4  10  24  44  70 102 140 188 238 298 350 430
#     4  11  23  48  74 101 139 196 240 294 363 435
#     4  12  26  42  72 104 142 186 238 306 356 422
#     4  12  22  42  71 104 139 189 241 292 357 437
#     4  11  25  45  74  99 145 187 242 292 359 433
#
# _framework density 20.369116999999999
#
# number of rings (size 3 to 8) (size 9 to 14) (size 15 to 20)
#    0.000    0.571    6.429    1.286    2.000    0.571 
#    2.571    1.429    0.000    0.000    0.000    0.000 
#    0.000    0.000    0.000    0.000    0.000    0.000 
#
# Total GULP energy -156217.443196 kJ/mol
# GULP energy per Si atom -5579.194400 kJ/mol
# Density = 2.032276 g / cm^3
# Si number density = 20.369117 Si / 1000 Ang^3
#
#
#
# Elastic Constant Matrix: (Units=GPa)
#
#
# Indices 1 2 3 4 5 6 
#
# 1 90.2515 35.8808 28.1617 0.0000 0.0000 0.0000
# 2 35.8808 108.1443 36.9744 0.0000 0.0000 0.0000
# 3 28.1617 36.9744 97.3949 0.0000 0.0000 0.0000
# 4 0.0000 0.0000 0.0000 97.1700 0.0000 0.0000
# 5 0.0000 0.0000 0.0000 0.0000 24.0924 0.0000
# 6 0.0000 0.0000 0.0000 0.0000 0.0000 44.0849
#
#
#
# Elastic Compliance Matrix: (Units=1/GPa)
#
#
# Indices 1 2 3 4 5 6 
#
# 1 0.013269 -0.003552 -0.002488 0.000000 0.000000 0.000000
# 2 -0.003552 0.011577 -0.003368 0.000000 0.000000 0.000000
# 3 -0.002488 -0.003368 0.012266 0.000000 0.000000 0.000000
# 4 0.000000 0.000000 0.000000 0.010291 0.000000 0.000000
# 5 0.000000 0.000000 0.000000 0.000000 0.041507 0.000000
# 6 0.000000 0.000000 0.000000 0.000000 0.000000 0.022683
#
#
# Mechanical properties :
#
#
# Convention : Reuss Voigt Hill
#
# Bulk Modulus (GPa) = 54.65926 55.31384 54.98655
# Shear Modulus (GPa) = 36.62826 46.05440 41.34133
#
# Velocity S-wave (km/s) = 4.24515 4.76015 4.51000
# Velocity P-wave (km/s) = 7.13590 7.57804 7.36029
#
# Compressibility (1/GPa) = 0.01829516
#
# Stress axis : x y z
#
# Youngs Moduli (GPa) = 75.36613 86.37981 81.52902
#
# Poissons Ratio (x) = 0.30678 0.20287
# Poissons Ratio (y) = 0.26767 0.27459
# Poissons Ratio (z) = 0.18753 0.29093
#
# Static dielectric constant tensor:
#      x y z
#    x 1.743040 0.000000 0.000000 
#    y 0.000000 1.455880 0.000000 
#    z 0.000000 0.000000 1.789770 
# 
# From -- ./inp_files/11655.got.cif
#   From: 2010.05.17/outbox.cif.g08.bks.cpg/sg37_6_cif.got.tgz:11655.got - 2010.06.03 17:53:42.
