data_PCOD9355740
_publ_section_title
;
Structure prediction by ZEFSAII (Michael W. Deem and Ramdas Pophale) SiO2 
 PCOD9355740
Probable space group: C C C 2
;
_chemical_formula_sum "Si O2"
_cell_formula_units_Z 24
_cell_length_a 5.012253
_cell_length_b 13.392735
_cell_length_c 13.362993
_cell_angle_alpha 90.000000
_cell_angle_beta 90.000000
_cell_angle_gamma 90.000000
_cell_volume 897.028003
_symmetry_space_group_name_H-M "C C C 2"
_symmetry_group_IT_number 37
_symmetry_cell_setting 'orthorhombic'
loop_
_space_group_symop_operation_xyz
x,y,z
-x,-y,z
-x,y,1/2+z
x,-y,1/2+z
1/2+x,1/2+y,z
1/2-x,1/2-y,z
1/2-x,1/2+y,1/2+z
1/2+x,1/2-y,1/2+z
loop_
_atom_site_type_symbol
_atom_site_label
_atom_site_fract_x
_atom_site_fract_y
_atom_site_fract_z
Si Si1 0.860030 0.606224 0.997770
Si Si2 0.000000 0.000000 0.638448
Si Si3 0.250000 0.250000 0.143202
Si Si4 0.880153 0.642040 0.762893
O O1 0.855326 0.624968 0.880823
O O2 0.000000 0.500000 0.012273
O O3 0.588184 0.586081 0.059409
O O4 0.956178 0.702006 0.059917
O O5 0.224744 0.053999 0.706105
O O6 0.316327 0.161547 0.225903
O O7 0.750000 0.750000 0.740756
#
# Coordination Sequence:
#
# PCOD9355740 Si02
#       4
#     8   4   4   8
#     4  12  27  47  76 113 157 211 271 346 417 492
#     4  12  26  48  78 118 158 214 272 350 420 494
#     4  12  26  50  74 112 160 210 270 336 414 498
#     4  12  27  48  78 115 161 215 278 343 416 506
#
# _framework density 26.755016999999999
#
# number of rings (size 3 to 8) (size 9 to 14) (size 15 to 20)
#    0.000    0.000    8.333    1.000    4.667    2.667 
#    3.000    0.000    0.000    0.000    0.000    0.000 
#    0.000    0.000    0.000    0.000    0.000    0.000 
#
# Total GULP energy -66808.661980 kJ/mol
# GULP energy per Si atom -5567.388498 kJ/mol
# Density = 2.669412 g / cm^3
# Si number density = 26.755017 Si / 1000 Ang^3
#
#
#
# Elastic Constant Matrix: (Units=GPa)
#
#
# Indices 1 2 3 4 5 6 
#
# 1 87.6738 69.9464 61.7611 0.0000 0.0000 0.0000
# 2 69.9464 260.4598 92.3873 0.0000 0.0000 0.0000
# 3 61.7611 92.3873 322.6864 0.0000 0.0000 0.0000
# 4 0.0000 0.0000 0.0000 63.0359 0.0000 0.0000
# 5 0.0000 0.0000 0.0000 0.0000 -10.8585 0.0000
# 6 0.0000 0.0000 0.0000 0.0000 0.0000 76.6300
#
#
#
# Elastic Compliance Matrix: (Units=1/GPa)
#
#
# Indices 1 2 3 4 5 6 
#
# 1 0.015581 -0.003480 -0.001986 0.000000 0.000000 0.000000
# 2 -0.003480 0.005051 -0.000780 0.000000 0.000000 0.000000
# 3 -0.001986 -0.000780 0.003702 0.000000 0.000000 0.000000
# 4 0.000000 0.000000 0.000000 0.015864 0.000000 0.000000
# 5 0.000000 0.000000 0.000000 0.000000 -0.092094 0.000000
# 6 0.000000 0.000000 0.000000 0.000000 0.000000 0.013050
#
#
# Mechanical properties :
#
#
# Convention : Reuss Voigt Hill
#
# Bulk Modulus (GPa) = 84.44096 124.33440 104.38768
# Shear Modulus (GPa) = -223.14188 55.54315 -83.79937
#
# Velocity S-wave (km/s) = -9.14237 4.56125 -5.60259
# Velocity P-wave (km/s) = 8.93390 8.62046 1.65866
#
# Compressibility (1/GPa) = 0.01184259
#
# Stress axis : x y z
#
# Youngs Moduli (GPa) = 64.18033 197.99820 270.09658
#
# Poissons Ratio (x) = 0.68901 0.53637
# Poissons Ratio (y) = 0.22334 0.21067
# Poissons Ratio (z) = 0.12745 0.15443
#
# Static dielectric constant tensor:
#      x y z
#    x 6.941620 0.000000 0.000000 
#    y 0.000000 -0.646490 0.000000 
#    z 0.000000 0.000000 1.972990 
# 
# From -- ./inp_files/7494.got.cif
#   From: 2010.05.17/outbox.cif.g08.bks.cpg/sg37_4_cif.got.tgz:7494.got - 2010.06.03 17:53:42.
