data_PCOD9355426
_publ_section_title
;
Structure prediction by ZEFSAII (Michael W. Deem and Ramdas Pophale) SiO2 
 PCOD9355426
Probable space group: C C C 2
;
_chemical_formula_sum "Si O2"
_cell_formula_units_Z 32
_cell_length_a 10.483105
_cell_length_b 12.442223
_cell_length_c 8.613511
_cell_angle_alpha 90.000000
_cell_angle_beta 90.000000
_cell_angle_gamma 90.000000
_cell_volume 1123.487201
_symmetry_space_group_name_H-M "C C C 2"
_symmetry_group_IT_number 37
_symmetry_cell_setting 'orthorhombic'
loop_
_space_group_symop_operation_xyz
x,y,z
-x,-y,z
-x,y,1/2+z
x,-y,1/2+z
1/2+x,1/2+y,z
1/2-x,1/2-y,z
1/2-x,1/2+y,1/2+z
1/2+x,1/2-y,1/2+z
loop_
_atom_site_type_symbol
_atom_site_label
_atom_site_fract_x
_atom_site_fract_y
_atom_site_fract_z
Si Si1 0.089965 0.412497 0.433670
Si Si2 0.311641 0.375388 0.622040
Si Si3 0.561988 0.362627 0.412234
Si Si4 0.908899 0.721801 0.164854
O O1 0.198776 0.445756 0.551142
O O2 0.158998 0.345981 0.297222
O O3 0.009993 0.651990 0.543104
O O4 0.000000 0.500000 0.356493
O O5 0.250000 0.250000 0.623597
O O6 0.432348 0.391760 0.504724
O O7 0.348396 0.423426 0.790516
O O8 0.511860 0.280280 0.278549
O O9 0.645120 0.313285 0.551454
#
# Coordination Sequence:
#
# PCOD9355426 Si02
#       4
#     8   8   8   8
#     4  11  21  35  58  93 141 177 223 280 350 423
#     4  11  19  37  58  92 136 171 224 306 336 411
#     4   9  18  34  57  90 127 169 229 280 357 386
#     4   9  17  34  55  90 125 161 232 266 342 398
#
# _framework density 28.482744
#
# number of rings (size 3 to 8) (size 9 to 14) (size 15 to 20)
#    0.000    2.000    7.500    0.750    0.000    0.000 
#    9.000    0.000    0.000    0.000    0.000   21.000 
#    0.000    0.000    0.000    0.000    0.000    0.000 
#
# Total GULP energy -89180.867783 kJ/mol
# GULP energy per Si atom -5573.804236 kJ/mol
# Density = 2.841792 g / cm^3
# Si number density = 28.482744 Si / 1000 Ang^3
#
#
#
# Elastic Constant Matrix: (Units=GPa)
#
#
# Indices 1 2 3 4 5 6 
#
# 1 114.3015 24.4459 55.1795 0.0000 0.0000 0.0000
# 2 24.4459 56.7664 45.8553 0.0000 0.0000 0.0000
# 3 55.1795 45.8553 265.0173 0.0000 0.0000 0.0000
# 4 0.0000 0.0000 0.0000 39.5981 0.0000 0.0000
# 5 0.0000 0.0000 0.0000 0.0000 60.4231 0.0000
# 6 0.0000 0.0000 0.0000 0.0000 0.0000 36.7117
#
#
#
# Elastic Compliance Matrix: (Units=1/GPa)
#
#
# Indices 1 2 3 4 5 6 
#
# 1 0.010176 -0.003105 -0.001582 0.000000 0.000000 0.000000
# 2 -0.003105 0.021426 -0.003061 0.000000 0.000000 0.000000
# 3 -0.001582 -0.003061 0.004632 0.000000 0.000000 0.000000
# 4 0.000000 0.000000 0.000000 0.025254 0.000000 0.000000
# 5 0.000000 0.000000 0.000000 0.000000 0.016550 0.000000
# 6 0.000000 0.000000 0.000000 0.000000 0.000000 0.027239
#
#
# Mechanical properties :
#
#
# Convention : Reuss Voigt Hill
#
# Bulk Modulus (GPa) = 48.21625 76.33851 62.27738
# Shear Modulus (GPa) = 39.15899 48.05355 43.60627
#
# Velocity S-wave (km/s) = 3.71190 4.11190 3.91701
# Velocity P-wave (km/s) = 5.94440 7.02876 6.50920
#
# Compressibility (1/GPa) = 0.02073989
#
# Stress axis : x y z
#
# Youngs Moduli (GPa) = 98.26714 46.67327 215.87792
#
# Poissons Ratio (x) = 0.14491 0.34144
# Poissons Ratio (y) = 0.30509 0.66075
# Poissons Ratio (z) = 0.15542 0.14286
#
# Static dielectric constant tensor:
#      x y z
#    x 2.367910 0.000000 0.000000 
#    y 0.000000 2.708210 0.000000 
#    z 0.000000 0.000000 2.158670 
# 
# From -- ./inp_files/2568.got.cif
#   From: 2010.05.17/outbox.cif.g08.bks.cpg/sg37_2_cif.got.tgz:2568.got - 2010.06.03 17:53:42.
