data_PCOD9355323
_publ_section_title
;
Structure prediction by ZEFSAII (Michael W. Deem and Ramdas Pophale) SiO2 
 PCOD9355323
Probable space group: C C C 2
;
_chemical_formula_sum "Si O2"
_cell_formula_units_Z 44
_cell_length_a 13.328336
_cell_length_b 16.204355
_cell_length_c 9.219517
_cell_angle_alpha 90.000000
_cell_angle_beta 90.000000
_cell_angle_gamma 90.000000
_cell_volume 1991.204435
_symmetry_space_group_name_H-M "C C C 2"
_symmetry_group_IT_number 37
_symmetry_cell_setting 'orthorhombic'
loop_
_space_group_symop_operation_xyz
x,y,z
-x,-y,z
-x,y,1/2+z
x,-y,1/2+z
1/2+x,1/2+y,z
1/2-x,1/2-y,z
1/2-x,1/2+y,1/2+z
1/2+x,1/2-y,1/2+z
loop_
_atom_site_type_symbol
_atom_site_label
_atom_site_fract_x
_atom_site_fract_y
_atom_site_fract_z
Si Si1 0.425835 0.836900 0.645110
Si Si2 0.250000 0.750000 0.131693
Si Si3 0.500000 0.000000 0.286094
Si Si4 0.822719 0.373250 0.371227
Si Si5 0.000000 0.000000 0.643619
Si Si6 0.065402 0.240941 0.445563
Si Si7 0.906806 0.096969 0.399388
O O1 0.439180 0.930437 0.698701
O O2 0.337890 0.831258 0.527786
O O3 0.521721 0.813059 0.547244
O O4 0.416275 0.778067 0.785278
O O5 0.184319 0.692922 0.240384
O O6 0.167020 0.790691 0.023839
O O7 0.411238 0.942118 0.357097
O O8 0.709795 0.403629 0.368752
O O9 0.919065 0.035786 0.534305
O O10 0.041773 0.067886 0.751404
O O11 0.973564 0.176439 0.440387
#
# Coordination Sequence:
#
# PCOD9355323 Si02
#       7
#     8   4   4   8   4   8   8
#     4  12  25  46  72 110 151 202 254 324 394 476
#     4  12  26  48  74 114 148 208 262 326 394 474
#     4  12  26  48  74 112 158 204 260 324 408 482
#     4  12  26  47  76 107 157 201 256 326 403 468
#     4  10  24  48  68 106 142 192 256 316 386 470
#     4  12  25  48  76 109 153 203 265 325 394 482
#     4  11  25  46  75 104 149 199 254 323 390 473
#
# _framework density 22.097179000000001
#
# number of rings (size 3 to 8) (size 9 to 14) (size 15 to 20)
#    0.000    0.364    3.636    4.909    2.545    3.636 
#    3.273    0.000    0.000    0.000    0.000    0.000 
#    0.000    0.000    0.000    0.000    0.000    0.000 
#
# Total GULP energy -122692.456044 kJ/mol
# GULP energy per Si atom -5576.929820 kJ/mol
# Density = 2.204688 g / cm^3
# Si number density = 22.097179 Si / 1000 Ang^3
#
#
#
# Elastic Constant Matrix: (Units=GPa)
#
#
# Indices 1 2 3 4 5 6 
#
# 1 73.1304 21.2728 21.3448 0.0000 0.0000 0.0000
# 2 21.2728 79.1445 33.2381 0.0000 0.0000 0.0000
# 3 21.3448 33.2381 144.6057 0.0000 0.0000 0.0000
# 4 0.0000 0.0000 0.0000 51.6379 0.0000 0.0000
# 5 0.0000 0.0000 0.0000 0.0000 24.9882 0.0000
# 6 0.0000 0.0000 0.0000 0.0000 0.0000 19.3677
#
#
#
# Elastic Compliance Matrix: (Units=1/GPa)
#
#
# Indices 1 2 3 4 5 6 
#
# 1 0.015098 -0.003456 -0.001434 0.000000 0.000000 0.000000
# 2 -0.003456 0.014776 -0.002886 0.000000 0.000000 0.000000
# 3 -0.001434 -0.002886 0.007790 0.000000 0.000000 0.000000
# 4 0.000000 0.000000 0.000000 0.019366 0.000000 0.000000
# 5 0.000000 0.000000 0.000000 0.000000 0.040019 0.000000
# 6 0.000000 0.000000 0.000000 0.000000 0.000000 0.051632
#
#
# Mechanical properties :
#
#
# Convention : Reuss Voigt Hill
#
# Bulk Modulus (GPa) = 45.22414 49.84357 47.53385
# Shear Modulus (GPa) = 29.13671 33.93374 31.53523
#
# Velocity S-wave (km/s) = 3.63515 3.92300 3.78182
# Velocity P-wave (km/s) = 6.17491 6.56699 6.37397
#
# Compressibility (1/GPa) = 0.02211209
#
# Stress axis : x y z
#
# Youngs Moduli (GPa) = 66.23363 67.67680 128.36188
#
# Poissons Ratio (x) = 0.23388 0.18410
# Poissons Ratio (y) = 0.22889 0.37048
# Poissons Ratio (z) = 0.09500 0.19533
#
# Static dielectric constant tensor:
#      x y z
#    x 1.858830 0.000000 0.000000 
#    y 0.000000 1.849110 0.000000 
#    z 0.000000 0.000000 1.819450 
# 
# From -- ./inp_files/3463.got.cif
#   From: 2010.05.17/outbox.cif.g08.bks.cpg/sg37_2_cif.got.tgz:3463.got - 2010.06.03 17:53:42.
