data_PCOD9355725
_publ_section_title
;
Structure prediction by ZEFSAII (Michael W. Deem and Ramdas Pophale) SiO2 
 PCOD9355725
Probable space group: C C C 2
;
_chemical_formula_sum "Si O2"
_cell_formula_units_Z 48
_cell_length_a 20.805075
_cell_length_b 11.867647
_cell_length_c 8.866332
_cell_angle_alpha 90.000000
_cell_angle_beta 90.000000
_cell_angle_gamma 90.000000
_cell_volume 2189.161970
_symmetry_space_group_name_H-M "C C C 2"
_symmetry_group_IT_number 37
_symmetry_cell_setting 'orthorhombic'
loop_
_space_group_symop_operation_xyz
x,y,z
-x,-y,z
-x,y,1/2+z
x,-y,1/2+z
1/2+x,1/2+y,z
1/2-x,1/2-y,z
1/2-x,1/2+y,1/2+z
1/2+x,1/2-y,1/2+z
loop_
_atom_site_type_symbol
_atom_site_label
_atom_site_fract_x
_atom_site_fract_y
_atom_site_fract_z
Si Si1 0.579200 0.686877 0.747900
Si Si2 0.871862 0.405463 0.081765
Si Si3 0.160865 0.990451 0.659289
Si Si4 0.259132 0.615422 0.908989
Si Si5 0.550734 0.693077 0.089356
Si Si6 0.062346 0.577221 0.775470
O O1 0.617983 0.789570 0.672462
O O2 0.625517 0.580893 0.765306
O O3 0.519697 0.651404 0.640772
O O4 0.552875 0.720623 0.911978
O O5 0.806482 0.419609 0.990313
O O6 0.881313 0.505631 0.198655
O O7 0.926002 0.407199 0.952074
O O8 0.107965 0.895034 0.622112
O O9 0.185685 0.066379 0.520011
O O10 0.220289 0.933855 0.747467
O O11 0.250000 0.750000 0.898302
O O12 0.559489 0.805145 0.188872
O O13 0.000000 0.500000 0.752820
#
# Coordination Sequence:
#
# PCOD9355725 Si02
#       6
#     8   8   8   8   8   8
#     4  12  26  46  75 116 156 200 252 332 401 469
#     4  12  25  46  74 111 158 204 263 326 388 473
#     4  12  27  49  77 113 152 202 263 319 393 481
#     4  12  26  50  77 108 158 212 259 325 395 479
#     4  12  27  45  77 114 156 199 256 326 405 469
#     4  12  25  44  74 112 154 202 259 323 393 469
#
# _framework density 21.926200000000001
#
# number of rings (size 3 to 8) (size 9 to 14) (size 15 to 20)
#    0.000    0.000    5.000    5.000    2.333    1.333 
#    0.000    0.833    0.000    0.000    0.000    0.000 
#    0.000    0.000    0.000    0.000    0.000    0.000 
#
# Total GULP energy -134277.176331 kJ/mol
# GULP energy per Si atom -5594.882347 kJ/mol
# Density = 2.187629 g / cm^3
# Si number density = 21.926200 Si / 1000 Ang^3
#
#
#
# Elastic Constant Matrix: (Units=GPa)
#
#
# Indices 1 2 3 4 5 6 
#
# 1 69.2338 29.7209 -3.9290 0.0000 0.0000 0.0000
# 2 29.7209 135.9834 35.9333 0.0000 0.0000 0.0000
# 3 -3.9290 35.9333 102.2339 0.0000 0.0000 0.0000
# 4 0.0000 0.0000 0.0000 29.9504 0.0000 0.0000
# 5 0.0000 0.0000 0.0000 0.0000 36.6590 0.0000
# 6 0.0000 0.0000 0.0000 0.0000 0.0000 40.0410
#
#
#
# Elastic Compliance Matrix: (Units=1/GPa)
#
#
# Indices 1 2 3 4 5 6 
#
# 1 0.016329 -0.004117 0.002075 0.000000 0.000000 0.000000
# 2 -0.004117 0.009145 -0.003372 0.000000 0.000000 0.000000
# 3 0.002075 -0.003372 0.011047 0.000000 0.000000 0.000000
# 4 0.000000 0.000000 0.000000 0.033389 0.000000 0.000000
# 5 0.000000 0.000000 0.000000 0.000000 0.027278 0.000000
# 6 0.000000 0.000000 0.000000 0.000000 0.000000 0.024974
#
#
# Mechanical properties :
#
#
# Convention : Reuss Voigt Hill
#
# Bulk Modulus (GPa) = 38.92493 47.87795 43.40144
# Shear Modulus (GPa) = 35.32190 37.71179 36.51685
#
# Velocity S-wave (km/s) = 4.01801 4.15172 4.08541
# Velocity P-wave (km/s) = 6.27034 6.69819 6.48779
#
# Compressibility (1/GPa) = 0.02569048
#
# Stress axis : x y z
#
# Youngs Moduli (GPa) = 61.24090 109.35111 90.52573
#
# Poissons Ratio (x) = 0.45021 -0.18781
# Poissons Ratio (y) = 0.25214 0.30530
# Poissons Ratio (z) = -0.12705 0.36878
#
# Static dielectric constant tensor:
#      x y z
#    x 1.852410 0.000000 0.000000 
#    y 0.000000 1.781260 0.000000 
#    z 0.000000 0.000000 1.791480 
# 
# From -- ./inp_files/4587.got.cif
#   From: 2010.05.17/outbox.cif.g08.bks.cpg/sg37_3_cif.got.tgz:4587.got - 2010.06.03 17:53:42.
