data_PCOD9355608
_publ_section_title
;
Structure prediction by ZEFSAII (Michael W. Deem and Ramdas Pophale) SiO2 
 PCOD9355608
Probable space group: C C C 2
;
_chemical_formula_sum "Si O2"
_cell_formula_units_Z 56
_cell_length_a 13.090302
_cell_length_b 15.406377
_cell_length_c 11.386365
_cell_angle_alpha 90.000000
_cell_angle_beta 90.000000
_cell_angle_gamma 90.000000
_cell_volume 2296.335229
_symmetry_space_group_name_H-M "C C C 2"
_symmetry_group_IT_number 37
_symmetry_cell_setting 'orthorhombic'
loop_
_space_group_symop_operation_xyz
x,y,z
-x,-y,z
-x,y,1/2+z
x,-y,1/2+z
1/2+x,1/2+y,z
1/2-x,1/2-y,z
1/2-x,1/2+y,1/2+z
1/2+x,1/2-y,1/2+z
loop_
_atom_site_type_symbol
_atom_site_label
_atom_site_fract_x
_atom_site_fract_y
_atom_site_fract_z
Si Si1 0.989568 0.820978 0.308470
Si Si2 0.047400 0.904111 0.065205
Si Si3 0.361776 0.854476 0.787706
Si Si4 0.164704 0.561308 0.551036
Si Si5 0.785989 0.375961 0.133371
Si Si6 0.750000 0.250000 0.956204
Si Si7 0.000000 0.500000 0.396512
Si Si8 0.279139 0.339479 0.883306
O O1 0.983851 0.861618 0.175838
O O2 0.109415 0.824824 0.334646
O O3 0.953055 0.864536 0.432631
O O4 0.936725 0.727174 0.303164
O O5 0.166877 0.895989 0.102444
O O6 0.000000 0.000000 0.056336
O O7 0.332073 0.870930 0.654990
O O8 0.261875 0.829411 0.863745
O O9 0.418114 0.942225 0.827637
O O10 0.159395 0.464313 0.600467
O O11 0.261109 0.579533 0.467592
O O12 0.063466 0.568469 0.473813
O O13 0.791845 0.353378 0.269293
O O14 0.823993 0.295074 0.054560
O O15 0.250000 0.250000 0.945563
#
# Coordination Sequence:
#
# PCOD9355608 Si02
#       8
#     8   8   8   8   8   4   4   8
#     4  11  26  44  74 108 148 199 256 318 390 458
#     4  11  24  45  72 106 147 194 251 317 381 463
#     4  12  28  47  74 111 151 198 255 320 390 463
#     4  12  27  45  75 108 149 186 260 311 379 456
#     4  11  24  47  71 100 142 198 239 301 378 456
#     4  12  24  48  72 100 148 198 244 300 392 452
#     4  12  26  48  74 108 152 202 244 324 390 460
#     4  11  25  44  70 101 143 194 244 306 371 454
#
# _framework density 24.386683000000001
#
# number of rings (size 3 to 8) (size 9 to 14) (size 15 to 20)
#    0.000    0.571    3.571    3.429    5.000    3.429 
#    0.000    0.000    0.000    0.000    0.000    0.000 
#    0.000    0.000    0.000    0.000    0.000    0.000 
#
# Total GULP energy -156240.600272 kJ/mol
# GULP energy per Si atom -5580.021438 kJ/mol
# Density = 2.433118 g / cm^3
# Si number density = 24.386683 Si / 1000 Ang^3
#
#
#
# Elastic Constant Matrix: (Units=GPa)
#
#
# Indices 1 2 3 4 5 6 
#
# 1 59.5630 28.0092 37.6226 0.0000 0.0000 0.0000
# 2 28.0092 124.6745 64.4038 0.0000 0.0000 0.0000
# 3 37.6226 64.4038 168.0015 0.0000 0.0000 0.0000
# 4 0.0000 0.0000 0.0000 21.0199 0.0000 0.0000
# 5 0.0000 0.0000 0.0000 0.0000 24.7173 0.0000
# 6 0.0000 0.0000 0.0000 0.0000 0.0000 46.0812
#
#
#
# Elastic Compliance Matrix: (Units=1/GPa)
#
#
# Indices 1 2 3 4 5 6 
#
# 1 0.020287 -0.002757 -0.003486 0.000000 0.000000 0.000000
# 2 -0.002757 0.010376 -0.003360 0.000000 0.000000 0.000000
# 3 -0.003486 -0.003360 0.008021 0.000000 0.000000 0.000000
# 4 0.000000 0.000000 0.000000 0.047574 0.000000 0.000000
# 5 0.000000 0.000000 0.000000 0.000000 0.040458 0.000000
# 6 0.000000 0.000000 0.000000 0.000000 0.000000 0.021701
#
#
# Mechanical properties :
#
#
# Convention : Reuss Voigt Hill
#
# Bulk Modulus (GPa) = 51.34049 68.03449 59.68749
# Shear Modulus (GPa) = 28.71635 33.17723 30.94679
#
# Velocity S-wave (km/s) = 3.43526 3.69245 3.56617
# Velocity P-wave (km/s) = 6.06902 6.79247 6.44091
#
# Compressibility (1/GPa) = 0.01947780
#
# Stress axis : x y z
#
# Youngs Moduli (GPa) = 49.29151 96.37540 124.66844
#
# Poissons Ratio (x) = 0.26568 0.43464
# Poissons Ratio (y) = 0.13589 0.41893
# Poissons Ratio (z) = 0.17185 0.32385
#
# Static dielectric constant tensor:
#      x y z
#    x 2.043620 0.000000 0.000000 
#    y 0.000000 1.931200 0.000000 
#    z 0.000000 0.000000 1.969330 
# 
# From -- ./inp_files/7864.got.cif
#   From: 2010.05.17/outbox.cif.g08.bks.cpg/sg37_4_cif.got.tgz:7864.got - 2010.06.03 17:53:42.
