data_PCOD9355440
_publ_section_title
;
Structure prediction by ZEFSAII (Michael W. Deem and Ramdas Pophale) SiO2 
 PCOD9355440
Probable space group: C C C 2
;
_chemical_formula_sum "Si O2"
_cell_formula_units_Z 64
_cell_length_a 24.278609
_cell_length_b 8.643334
_cell_length_c 15.816495
_cell_angle_alpha 90.000000
_cell_angle_beta 90.000000
_cell_angle_gamma 90.000000
_cell_volume 3319.061846
_symmetry_space_group_name_H-M "C C C 2"
_symmetry_group_IT_number 37
_symmetry_cell_setting 'orthorhombic'
loop_
_space_group_symop_operation_xyz
x,y,z
-x,-y,z
-x,y,1/2+z
x,-y,1/2+z
1/2+x,1/2+y,z
1/2-x,1/2-y,z
1/2-x,1/2+y,1/2+z
1/2+x,1/2-y,1/2+z
loop_
_atom_site_type_symbol
_atom_site_label
_atom_site_fract_x
_atom_site_fract_y
_atom_site_fract_z
Si Si1 0.500000 0.187591 0.896040
Si Si2 0.811540 0.814172 0.490459
Si Si3 0.383974 0.685271 0.153324
Si Si4 0.880470 0.685991 0.833440
Si Si5 0.383973 0.685273 0.653324
Si Si6 0.380469 0.814010 0.833440
Si Si7 0.688460 0.314173 0.490458
Si Si8 0.500000 0.185958 0.093622
O O1 0.443479 0.238607 0.852305
O O2 0.556522 0.238606 0.852306
O O3 0.500000 0.000000 0.893834
O O4 0.500000 0.232691 0.994651
O O5 0.750000 0.750000 0.494689
O O6 0.845680 0.768822 0.574326
O O7 0.842629 0.747940 0.408683
O O8 0.810609 1.000000 0.485657
O O9 0.363295 0.751415 0.242209
O O10 0.385887 0.499999 0.157110
O O11 0.444932 0.750432 0.136135
O O12 0.879439 0.500001 0.833420
O O13 0.842630 0.747941 0.908683
O O14 0.363294 0.751417 0.742209
O O15 0.345679 0.731178 0.574327
O O16 0.444931 0.750434 0.636134
O O17 0.750000 0.250000 0.494686
O O18 0.500000 0.000000 0.098782
#
# Coordination Sequence:
#
# PCOD9355440 Si02
#       8
#     8   8   8   8   8   8   8   8
#     4   9  19  35  60  93 125 160 201 246 302 369
#     4  11  25  44  65  89 122 163 211 262 312 367
#     4  11  24  41  62  94 130 164 205 255 313 372
#     4  11  22  40  66  95 127 165 207 252 308 372
#     4  11  24  41  62  94 130 164 205 255 313 372
#     4  11  22  40  66  95 127 165 207 252 308 372
#     4  11  25  44  65  89 122 163 211 262 312 367
#     4  11  20  37  64  93 127 164 207 252 308 375
#
# _framework density 19.282558000000002
#
# number of rings (size 3 to 8) (size 9 to 14) (size 15 to 20)
#    0.000    1.250    2.500    3.375    0.000    5.000 
#    0.000    4.375    0.000    0.000    0.000    0.000 
#    0.000    0.000    0.000    0.000    0.000    0.000 
#
# Total GULP energy -178983.035537 kJ/mol
# GULP energy per Si atom -5593.219861 kJ/mol
# Density = 1.923867 g / cm^3
# Si number density = 19.282558 Si / 1000 Ang^3
#
#
#
# Elastic Constant Matrix: (Units=GPa)
#
#
# Indices 1 2 3 4 5 6 
#
# 1 153.6398 48.0224 88.9689 0.0000 0.0000 0.0000
# 2 48.0224 64.3119 60.9927 0.0000 0.0000 0.0000
# 3 88.9689 60.9927 204.1523 0.0000 0.0000 0.0000
# 4 0.0000 0.0000 0.0000 34.8365 0.0000 0.0000
# 5 0.0000 0.0000 0.0000 0.0000 -5.6214 0.0000
# 6 0.0000 0.0000 0.0000 0.0000 0.0000 23.7584
#
#
#
# Elastic Compliance Matrix: (Units=1/GPa)
#
#
# Indices 1 2 3 4 5 6 
#
# 1 0.009534 -0.004435 -0.002830 0.000000 0.000000 0.000000
# 2 -0.004435 0.023760 -0.005166 0.000000 0.000000 0.000000
# 3 -0.002830 -0.005166 0.007675 0.000000 0.000000 0.000000
# 4 0.000000 0.000000 0.000000 0.028706 0.000000 0.000000
# 5 0.000000 0.000000 0.000000 0.000000 -0.177893 0.000000
# 6 0.000000 0.000000 0.000000 0.000000 0.000000 0.042090
#
#
# Mechanical properties :
#
#
# Convention : Reuss Voigt Hill
#
# Bulk Modulus (GPa) = 62.08360 90.89690 76.49025
# Shear Modulus (GPa) = -139.28323 25.53602 -56.87361
#
# Velocity S-wave (km/s) = -8.50821 3.64305 -5.43681
# Velocity P-wave (km/s) = 8.01578 8.05838 0.58514
#
# Compressibility (1/GPa) = 0.01610731
#
# Stress axis : x y z
#
# Youngs Moduli (GPa) = 104.89210 42.08717 130.29697
#
# Poissons Ratio (x) = 0.18667 0.36869
# Poissons Ratio (y) = 0.46522 0.67308
# Poissons Ratio (z) = 0.29681 0.21741
#
# Static dielectric constant tensor:
#      x y z
#    x 1.649790 0.000000 0.000000 
#    y 0.000000 1.648430 0.000000 
#    z 0.000000 0.000000 1.664240 
# 
# From -- ./inp_files/13179.got.cif
#   From: 2010.05.17/outbox.cif.g08.bks.cpg/sg37_7_cif.got.tgz:13179.got - 2010.06.03 17:53:42.
