data_PCOD9355622
_publ_section_title
;
Structure prediction by ZEFSAII (Michael W. Deem and Ramdas Pophale) SiO2 
 PCOD9355622
Probable space group: C C C 2
;
_chemical_formula_sum "Si O2"
_cell_formula_units_Z 48
_cell_length_a 15.224825
_cell_length_b 9.048263
_cell_length_c 13.088947
_cell_angle_alpha 90.000000
_cell_angle_beta 90.000000
_cell_angle_gamma 90.000000
_cell_volume 1803.110050
_symmetry_space_group_name_H-M "C C C 2"
_symmetry_group_IT_number 37
_symmetry_cell_setting 'orthorhombic'
loop_
_space_group_symop_operation_xyz
x,y,z
-x,-y,z
-x,y,1/2+z
x,-y,1/2+z
1/2+x,1/2+y,z
1/2-x,1/2-y,z
1/2-x,1/2+y,1/2+z
1/2+x,1/2-y,1/2+z
loop_
_atom_site_type_symbol
_atom_site_label
_atom_site_fract_x
_atom_site_fract_y
_atom_site_fract_z
Si Si1 0.412184 0.571694 0.487360
Si Si2 0.146346 0.767835 0.089882
Si Si3 0.149066 0.523917 0.943912
Si Si4 0.750000 0.750000 0.964193
Si Si5 0.954693 0.636178 0.769507
Si Si6 0.250000 0.750000 0.795284
Si Si7 0.928143 0.134072 0.707141
O O1 0.500000 0.500000 0.439411
O O2 0.372560 0.429329 0.546627
O O3 0.337284 0.656974 0.423001
O O4 0.437063 0.672091 0.586135
O O5 0.250000 0.750000 0.088088
O O6 0.106460 0.642176 0.017603
O O7 0.113367 0.727135 0.201811
O O8 0.201299 0.396181 0.006570
O O9 0.087043 0.434836 0.868283
O O10 0.209550 0.623984 0.868973
O O11 0.000000 0.500000 0.710559
O O12 0.032995 0.748698 0.786706
O O13 0.176027 0.842533 0.730943
O O14 0.000000 0.000000 0.715644
#
# Coordination Sequence:
#
# PCOD9355622 Si02
#       7
#     8   8   8   4   8   4   8
#     4  11  24  48  77 114 152 204 263 332 399 476
#     4  12  26  52  79 110 161 207 258 329 400 481
#     4  12  29  48  75 117 156 213 264 325 410 479
#     4  12  27  46  73 116 154 210 274 328 404 488
#     4  12  28  49  77 117 156 207 263 328 401 484
#     4  12  25  50  73 106 168 208 256 334 400 490
#     4  11  25  48  76 115 154 201 269 322 405 479
#
# _framework density 26.62067
#
# number of rings (size 3 to 8) (size 9 to 14) (size 15 to 20)
#    0.000    0.333    7.500    0.500    8.167    2.000 
#    3.000    0.000    0.000    0.000    0.000    0.000 
#    0.000    0.000    0.000    0.000    0.000    0.000 
#
# Total GULP energy -133788.203488 kJ/mol
# GULP energy per Si atom -5574.508479 kJ/mol
# Density = 2.656008 g / cm^3
# Si number density = 26.620670 Si / 1000 Ang^3
#
#
#
# Elastic Constant Matrix: (Units=GPa)
#
#
# Indices 1 2 3 4 5 6 
#
# 1 162.9158 61.6362 41.8696 0.0000 0.0000 0.0000
# 2 61.6362 153.0283 29.6611 0.0000 0.0000 0.0000
# 3 41.8696 29.6611 108.0232 0.0000 0.0000 0.0000
# 4 0.0000 0.0000 0.0000 31.0504 0.0000 0.0000
# 5 0.0000 0.0000 0.0000 0.0000 -2.2515 0.0000
# 6 0.0000 0.0000 0.0000 0.0000 0.0000 66.2836
#
#
#
# Elastic Compliance Matrix: (Units=1/GPa)
#
#
# Indices 1 2 3 4 5 6 
#
# 1 0.007732 -0.002676 -0.002262 0.000000 0.000000 0.000000
# 2 -0.002676 0.007828 -0.001112 0.000000 0.000000 0.000000
# 3 -0.002262 -0.001112 0.010439 0.000000 0.000000 0.000000
# 4 0.000000 0.000000 0.000000 0.032206 0.000000 0.000000
# 5 0.000000 0.000000 0.000000 0.000000 -0.444152 0.000000
# 6 0.000000 0.000000 0.000000 0.000000 0.000000 0.015087
#
#
# Mechanical properties :
#
#
# Convention : Reuss Voigt Hill
#
# Bulk Modulus (GPa) = 71.94766 76.70011 74.32388
# Shear Modulus (GPa) = -14.11923 38.40319 12.14198
#
# Velocity S-wave (km/s) = -2.30551 3.80229 2.13799
# Velocity P-wave (km/s) = 4.47197 6.93911 5.83737
#
# Compressibility (1/GPa) = 0.01389899
#
# Stress axis : x y z
#
# Youngs Moduli (GPa) = 129.33552 127.74557 95.79004
#
# Poissons Ratio (x) = 0.34181 0.21669
# Poissons Ratio (y) = 0.34607 0.10655
# Poissons Ratio (z) = 0.29258 0.14209
#
# Static dielectric constant tensor:
#      x y z
#    x 2.224660 0.000000 0.000000 
#    y 0.000000 2.121640 0.000000 
#    z 0.000000 0.000000 2.055900 
# 
# From -- ./inp_files/15245.got.cif
#   From: 2010.05.17/outbox.cif.g08.bks.cpg/sg37_8_cif.got.tgz:15245.got - 2010.06.03 17:53:42.
