data_PCOD9355414
_publ_section_title
;
Structure prediction by ZEFSAII (Michael W. Deem and Ramdas Pophale) SiO2 
 PCOD9355414
Probable space group: C C C 2
;
_chemical_formula_sum "Si O2"
_cell_formula_units_Z 28
_cell_length_a 4.965603
_cell_length_b 21.905695
_cell_length_c 9.067265
_cell_angle_alpha 90.000000
_cell_angle_beta 90.000000
_cell_angle_gamma 90.000000
_cell_volume 986.291613
_symmetry_space_group_name_H-M "C C C 2"
_symmetry_group_IT_number 37
_symmetry_cell_setting 'orthorhombic'
loop_
_space_group_symop_operation_xyz
x,y,z
-x,-y,z
-x,y,1/2+z
x,-y,1/2+z
1/2+x,1/2+y,z
1/2-x,1/2-y,z
1/2-x,1/2+y,1/2+z
1/2+x,1/2-y,1/2+z
loop_
_atom_site_type_symbol
_atom_site_label
_atom_site_fract_x
_atom_site_fract_y
_atom_site_fract_z
Si Si1 0.030189 0.653766 0.737120
Si Si2 0.367794 0.356417 0.484968
Si Si3 0.236293 0.960109 0.188014
Si Si4 0.750000 0.250000 0.429560
O O1 0.319914 0.641908 0.809281
O O2 0.913385 0.658498 0.572320
O O3 0.865782 0.593113 0.788534
O O4 0.944337 0.714745 0.817640
O O5 0.410025 0.423013 0.554330
O O6 0.574301 0.301242 0.514600
O O7 0.500000 0.000000 0.143093
O O8 0.000000 0.000000 0.255587
#
# Coordination Sequence:
#
# PCOD9355414 Si02
#       4
#     8   8   8   4
#     4  10  27  49  81 123 164 225 284 364 436 515
#     4  10  27  51  83 122 170 228 282 367 440 518
#     4  10  26  53  84 124 169 224 292 352 436 525
#     4  12  26  48  82 120 176 208 302 348 452 522
#
# _framework density 28.38917
#
# number of rings (size 3 to 8) (size 9 to 14) (size 15 to 20)
#    1.714    0.000    0.000    0.857   12.000    3.429 
#    0.000    0.000    0.000    1.714    0.000    0.000 
#    0.000    0.000    0.000    0.000    0.000    0.000 
#
# Total GULP energy -78151.977061 kJ/mol
# GULP energy per Si atom -5582.284076 kJ/mol
# Density = 2.832456 g / cm^3
# Si number density = 28.389170 Si / 1000 Ang^3
#
#
#
# Elastic Constant Matrix: (Units=GPa)
#
#
# Indices 1 2 3 4 5 6 
#
# 1 137.6126 67.6889 26.0818 0.0000 0.0000 0.0000
# 2 67.6889 168.3833 27.8583 0.0000 0.0000 0.0000
# 3 26.0818 27.8583 107.7380 0.0000 0.0000 0.0000
# 4 0.0000 0.0000 0.0000 48.4499 0.0000 0.0000
# 5 0.0000 0.0000 0.0000 0.0000 22.3510 0.0000
# 6 0.0000 0.0000 0.0000 0.0000 0.0000 63.4212
#
#
#
# Elastic Compliance Matrix: (Units=1/GPa)
#
#
# Indices 1 2 3 4 5 6 
#
# 1 0.009238 -0.003493 -0.001333 0.000000 0.000000 0.000000
# 2 -0.003493 0.007525 -0.001100 0.000000 0.000000 0.000000
# 3 -0.001333 -0.001100 0.009889 0.000000 0.000000 0.000000
# 4 0.000000 0.000000 0.000000 0.020640 0.000000 0.000000
# 5 0.000000 0.000000 0.000000 0.000000 0.044741 0.000000
# 6 0.000000 0.000000 0.000000 0.000000 0.000000 0.015768
#
#
# Mechanical properties :
#
#
# Convention : Reuss Voigt Hill
#
# Bulk Modulus (GPa) = 67.57146 72.99908 70.28527
# Shear Modulus (GPa) = 40.13325 46.31809 43.22567
#
# Velocity S-wave (km/s) = 3.76397 4.04362 3.90630
# Velocity P-wave (km/s) = 6.53785 6.89715 6.71990
#
# Compressibility (1/GPa) = 0.01479915
#
# Stress axis : x y z
#
# Youngs Moduli (GPa) = 108.25430 132.89115 101.12265
#
# Poissons Ratio (x) = 0.46417 0.13481
# Poissons Ratio (y) = 0.37812 0.11125
# Poissons Ratio (z) = 0.14431 0.14621
#
# Static dielectric constant tensor:
#      x y z
#    x 2.311830 0.000000 0.000000 
#    y 0.000000 2.300130 0.000000 
#    z 0.000000 0.000000 2.133680 
# 
# From -- ./inp_files/5277.got.cif
#   From: 2010.05.17/outbox.cif.g08.bks.cpg/sg37_3_cif.got.tgz:5277.got - 2010.06.03 17:53:42.
