data_PCOD9355708
_publ_section_title
;
Structure prediction by ZEFSAII (Michael W. Deem and Ramdas Pophale) SiO2 
 PCOD9355708
Probable space group: C C C 2
;
_chemical_formula_sum "Si O2"
_cell_formula_units_Z 48
_cell_length_a 10.007859
_cell_length_b 10.007858
_cell_length_c 25.491890
_cell_angle_alpha 90.000000
_cell_angle_beta 90.000000
_cell_angle_gamma 90.000000
_cell_volume 2553.197135
_symmetry_space_group_name_H-M "C C C 2"
_symmetry_group_IT_number 37
_symmetry_cell_setting 'orthorhombic'
loop_
_space_group_symop_operation_xyz
x,y,z
-x,-y,z
-x,y,1/2+z
x,-y,1/2+z
1/2+x,1/2+y,z
1/2-x,1/2-y,z
1/2-x,1/2+y,1/2+z
1/2+x,1/2-y,1/2+z
loop_
_atom_site_type_symbol
_atom_site_label
_atom_site_fract_x
_atom_site_fract_y
_atom_site_fract_z
Si Si1 0.747182 0.591208 0.728710
Si Si2 0.500492 0.841070 0.478685
Si Si3 0.750000 0.250000 0.048446
Si Si4 0.591208 0.247182 0.868182
Si Si5 0.000000 0.000000 0.800629
Si Si6 0.000000 0.500000 0.796263
Si Si7 0.250000 0.750000 0.548446
Si Si8 0.658930 0.500491 0.618207
O O1 0.750000 0.750000 0.718517
O O2 0.620114 0.553332 0.764415
O O3 0.879586 0.550894 0.759994
O O4 0.732653 0.513492 0.673892
O O5 0.629906 0.803218 0.512689
O O6 0.513492 0.767347 0.423000
O O7 0.370939 0.797992 0.511478
O O8 0.500000 0.000000 0.469500
O O9 0.696782 0.370094 0.084203
O O10 0.750000 0.250000 0.878376
O O11 0.550894 0.379586 0.836898
O O12 0.553332 0.120114 0.832477
O O13 0.297992 0.629061 0.585414
O O14 0.500000 0.500000 0.627392
#
# Coordination Sequence:
#
# PCOD9355708 Si02
#       8
#     8   8   4   8   4   4   4   8
#     4  12  26  44  72 104 138 182 230 284 344 408
#     4  12  26  44  72 104 138 179 230 282 345 409
#     4  12  24  44  72  98 136 184 224 276 344 406
#     4  12  26  44  72 104 138 182 230 284 344 408
#     4  12  26  44  72 104 138 176 234 286 336 408
#     4  12  26  44  72 104 138 176 234 286 336 408
#     4  12  28  44  72 110 140 172 236 296 332 406
#     4  12  26  44  72 104 138 179 230 282 345 409
#
# _framework density 18.799956999999999
#
# number of rings (size 3 to 8) (size 9 to 14) (size 15 to 20)
#    0.000    0.000   10.000    0.000    0.000    8.000 
#    0.000    0.000    0.000    0.000    0.000    0.000 
#    0.000    0.000    0.000    0.000    0.000    0.000 
#
# Total GULP energy -134321.962606 kJ/mol
# GULP energy per Si atom -5596.748442 kJ/mol
# Density = 1.875717 g / cm^3
# Si number density = 18.799957 Si / 1000 Ang^3
#
#
#
# Elastic Constant Matrix: (Units=GPa)
#
#
# Indices 1 2 3 4 5 6 
#
# 1 116.9381 20.2693 42.9795 0.0000 0.0000 0.0000
# 2 20.2693 116.9380 42.9795 0.0000 0.0000 0.0000
# 3 42.9795 42.9795 132.5387 0.0000 0.0000 0.0000
# 4 0.0000 0.0000 0.0000 45.6617 0.0000 0.0000
# 5 0.0000 0.0000 0.0000 0.0000 45.6577 0.0000
# 6 0.0000 0.0000 0.0000 0.0000 0.0000 28.8503
#
#
#
# Elastic Compliance Matrix: (Units=1/GPa)
#
#
# Indices 1 2 3 4 5 6 
#
# 1 0.009746 -0.000599 -0.002966 0.000000 0.000000 0.000000
# 2 -0.000599 0.009746 -0.002966 0.000000 0.000000 0.000000
# 3 -0.002966 -0.002966 0.009469 0.000000 0.000000 0.000000
# 4 0.000000 0.000000 0.000000 0.021900 0.000000 0.000000
# 5 0.000000 0.000000 0.000000 0.000000 0.021902 0.000000
# 6 0.000000 0.000000 0.000000 0.000000 0.000000 0.034662
#
#
# Mechanical properties :
#
#
# Convention : Reuss Voigt Hill
#
# Bulk Modulus (GPa) = 62.90322 64.31905 63.61113
# Shear Modulus (GPa) = 39.75040 41.37969 40.56505
#
# Velocity S-wave (km/s) = 4.60324 4.69663 4.65017
# Velocity P-wave (km/s) = 7.86034 7.98108 7.92094
#
# Compressibility (1/GPa) = 0.01589744
#
# Stress axis : x y z
#
# Youngs Moduli (GPa) = 102.61144 102.61134 105.61239
#
# Poissons Ratio (x) = 0.06147 0.31324
# Poissons Ratio (y) = 0.06147 0.31325
# Poissons Ratio (z) = 0.30434 0.30434
#
# Static dielectric constant tensor:
#      x y z
#    x 1.441490 0.000000 0.000000 
#    y 0.000000 1.441480 0.000000 
#    z 0.000000 0.000000 1.618210 
# 
# From -- ./inp_files/20390.got.cif
#   From: 2010.05.17/outbox.cif.g08.bks.cpg/sg37_11_cif.got.tgz:20390.got - 2010.06.03 17:53:42.
