data_PCOD9355807
_publ_section_title
;
Structure prediction by ZEFSAII (Michael W. Deem and Ramdas Pophale) SiO2 
 PCOD9355807
Probable space group: A M M 2
;
_chemical_formula_sum "Si O2"
_cell_formula_units_Z 64
_cell_length_a 7.466931
_cell_length_b 23.558678
_cell_length_c 20.073094
_cell_angle_alpha 90.000000
_cell_angle_beta 90.000000
_cell_angle_gamma 90.000000
_cell_volume 3531.078502
_symmetry_space_group_name_H-M "A M M 2"
_symmetry_group_IT_number 38
_symmetry_cell_setting 'orthorhombic'
loop_
_space_group_symop_operation_xyz
x,y,z
-x,-y,z
-x,y,z
x,-y,z
x,1/2+y,1/2+z
-x,1/2-y,1/2+z
-x,1/2+y,1/2+z
x,1/2-y,1/2+z
loop_
_atom_site_type_symbol
_atom_site_label
_atom_site_fract_x
_atom_site_fract_y
_atom_site_fract_z
Si Si1 0.715040 0.660353 0.233150
Si Si2 0.705197 0.734501 0.958316
Si Si3 0.280913 0.277696 0.103391
Si Si4 0.788121 0.436255 0.330137
Si Si5 0.211160 0.135006 0.955323
Si Si6 0.717888 0.336005 0.681121
Si Si7 0.716288 0.935280 0.088902
Si Si8 0.719257 0.227310 0.311197
O O1 0.500000 0.663062 0.232449
O O2 0.775476 0.676811 0.158958
O O3 0.765771 0.600249 0.263474
O O4 0.775658 0.711157 0.282460
O O5 0.500000 0.714136 0.957151
O O6 0.703864 0.803114 0.962165
O O7 0.784125 0.718917 0.886400
O O8 0.785149 0.714173 0.028348
O O9 0.500000 0.277407 0.101293
O O10 0.228784 0.216020 0.132621
O O11 0.715089 0.500000 0.326976
O O12 0.715476 0.399247 0.391677
O O13 0.000000 0.440940 0.342715
O O14 0.000000 0.145374 0.945889
O O15 0.235898 0.096715 0.020608
O O16 0.500000 0.336320 0.681409
O O17 0.778271 0.395081 0.649486
O O18 0.773470 0.318592 0.755607
O O19 0.500000 0.937103 0.091696
O O20 0.781729 0.000000 0.090287
O O21 0.500000 0.228178 0.312884
#
# Coordination Sequence:
#
# PCOD9355807 Si02
#       8
#     8   8   8   8   8   8   8   8
#     4   9  16  28  45  66  84 106 145 184 214 249
#     4  10  16  27  47  67  86 115 149 175 203 255
#     4   8  14  24  43  65  87 109 134 177 223 252
#     4  10  21  34  44  57  84 121 150 174 214 257
#     4  11  21  31  42  60  90 121 144 174 213 250
#     4   8  13  24  40  62  88 109 135 179 219 242
#     4  10  19  30  46  64  83 115 155 183 204 243
#     4   8  14  23  42  66  86 109 141 176 211 251
#
# _framework density 18.124775
#
# number of rings (size 3 to 8) (size 9 to 14) (size 15 to 20)
#    0.000    2.750    2.500    2.250    0.000    1.500 
#    0.000    0.625    0.000    0.750    0.000    0.875 
#    0.000    5.000    0.000    0.625    0.000    1.000 
#
# Total GULP energy -178455.756807 kJ/mol
# GULP energy per Si atom -5576.742400 kJ/mol
# Density = 1.808352 g / cm^3
# Si number density = 18.124775 Si / 1000 Ang^3
#
#
#
# Elastic Constant Matrix: (Units=GPa)
#
#
# Indices 1 2 3 4 5 6 
#
# 1 54.3292 -7.9129 -2.6536 0.0000 0.0000 0.0000
# 2 -7.9129 58.0988 41.4360 0.0000 0.0000 0.0000
# 3 -2.6536 41.4360 164.4532 0.0000 0.0000 0.0000
# 4 0.0000 0.0000 0.0000 17.8034 0.0000 0.0000
# 5 0.0000 0.0000 0.0000 0.0000 9.1069 0.0000
# 6 0.0000 0.0000 0.0000 0.0000 0.0000 65.1682
#
#
#
# Elastic Compliance Matrix: (Units=1/GPa)
#
#
# Indices 1 2 3 4 5 6 
#
# 1 0.018802 0.002858 -0.000417 0.000000 0.000000 0.000000
# 2 0.002858 0.021417 -0.005350 0.000000 0.000000 0.000000
# 3 -0.000417 -0.005350 0.007422 0.000000 0.000000 0.000000
# 4 0.000000 0.000000 0.000000 0.056169 0.000000 0.000000
# 5 0.000000 0.000000 0.000000 0.000000 0.109807 0.000000
# 6 0.000000 0.000000 0.000000 0.000000 0.000000 0.015345
#
#
# Mechanical properties :
#
#
# Convention : Reuss Voigt Hill
#
# Bulk Modulus (GPa) = 23.90993 37.62445 30.76719
# Shear Modulus (GPa) = 20.10281 34.81648 27.45965
#
# Velocity S-wave (km/s) = 3.33398 4.38760 3.89657
# Velocity P-wave (km/s) = 5.29538 6.81701 6.10380
#
# Compressibility (1/GPa) = 0.04182363
#
# Stress axis : x y z
#
# Youngs Moduli (GPa) = 53.18517 46.69175 134.73325
#
# Poissons Ratio (x) = -0.13345 0.05615
# Poissons Ratio (y) = -0.15200 0.72085
# Poissons Ratio (z) = 0.02216 0.24981
#
# Static dielectric constant tensor:
#      x y z
#    x 1.685090 0.000000 0.000000 
#    y 0.000000 1.593840 0.000000 
#    z 0.000000 0.000000 1.649310 
# 
# From -- ./inp_files/20205.got.cif
#   From: 2010.05.17/outbox.cif.g08.bks.cpg/sg38_11_cif.got.tgz:20205.got - 2010.06.03 18:07:57.
