data_PCOD9355462
_publ_section_title
;
Structure prediction by ZEFSAII (Michael W. Deem and Ramdas Pophale) SiO2 
 PCOD9355462
Probable space group: C C C 2
;
_chemical_formula_sum "Si O2"
_cell_formula_units_Z 40
_cell_length_a 4.951966
_cell_length_b 25.443014
_cell_length_c 13.877400
_cell_angle_alpha 90.000000
_cell_angle_beta 90.000000
_cell_angle_gamma 90.000000
_cell_volume 1748.454429
_symmetry_space_group_name_H-M "C C C 2"
_symmetry_group_IT_number 37
_symmetry_cell_setting 'orthorhombic'
loop_
_space_group_symop_operation_xyz
x,y,z
-x,-y,z
-x,y,1/2+z
x,-y,1/2+z
1/2+x,1/2+y,z
1/2-x,1/2-y,z
1/2-x,1/2+y,1/2+z
1/2+x,1/2-y,1/2+z
loop_
_atom_site_type_symbol
_atom_site_label
_atom_site_fract_x
_atom_site_fract_y
_atom_site_fract_z
Si Si1 0.867408 0.807428 0.420340
Si Si2 0.149310 0.653315 0.531425
Si Si3 0.855692 0.875442 0.231270
Si Si4 0.148438 0.447835 0.749390
Si Si5 0.757364 0.034395 0.469163
O O1 0.750000 0.750000 0.400800
O O2 0.649708 0.836019 0.491099
O O3 0.921580 0.838656 0.321511
O O4 0.149439 0.808632 0.475249
O O5 0.224702 0.657110 0.643546
O O6 0.227291 0.593026 0.507091
O O7 0.609226 0.911314 0.266850
O O8 0.112569 0.912531 0.201903
O O9 0.273098 0.462163 0.853045
O O10 0.000000 0.500000 0.706830
O O11 0.500000 0.000000 0.490908
O O12 0.000000 0.000000 0.508963
#
# Coordination Sequence:
#
# PCOD9355462 Si02
#       5
#     8   8   8   8   8
#     4  12  26  48  71  97 136 180 233 299 355 399
#     4  12  26  45  71 104 137 179 234 282 347 417
#     4  12  24  45  70 103 138 180 229 285 342 415
#     4  11  22  40  69 102 141 184 223 270 338 413
#     4  11  21  38  65  98 138 180 217 263 327 406
#
# _framework density 22.877345999999999
#
# number of rings (size 3 to 8) (size 9 to 14) (size 15 to 20)
#    0.000    0.400    4.000    6.000    0.000    4.000 
#    0.000    0.000    0.000    0.000    0.000    0.000 
#    0.000    0.000    0.000    0.000    0.000    0.000 
#
# Total GULP energy -111842.517704 kJ/mol
# GULP energy per Si atom -5592.125885 kJ/mol
# Density = 2.282528 g / cm^3
# Si number density = 22.877346 Si / 1000 Ang^3
#
#
#
# Elastic Constant Matrix: (Units=GPa)
#
#
# Indices 1 2 3 4 5 6 
#
# 1 103.1237 22.4912 -11.5143 0.0000 0.0000 0.0000
# 2 22.4912 108.4041 8.4351 0.0000 0.0000 0.0000
# 3 -11.5143 8.4351 107.9001 0.0000 0.0000 0.0000
# 4 0.0000 0.0000 0.0000 -2.6907 0.0000 0.0000
# 5 0.0000 0.0000 0.0000 0.0000 8.1962 0.0000
# 6 0.0000 0.0000 0.0000 0.0000 0.0000 44.4096
#
#
#
# Elastic Compliance Matrix: (Units=1/GPa)
#
#
# Indices 1 2 3 4 5 6 
#
# 1 0.010329 -0.002242 0.001278 0.000000 0.000000 0.000000
# 2 -0.002242 0.009768 -0.001003 0.000000 0.000000 0.000000
# 3 0.001278 -0.001003 0.009483 0.000000 0.000000 0.000000
# 4 0.000000 0.000000 0.000000 -0.371651 0.000000 0.000000
# 5 0.000000 0.000000 0.000000 0.000000 0.122008 0.000000
# 6 0.000000 0.000000 0.000000 0.000000 0.000000 0.022518
#
#
# Mechanical properties :
#
#
# Convention : Reuss Voigt Hill
#
# Bulk Modulus (GPa) = 38.99573 39.80576 39.40074
# Shear Modulus (GPa) = -27.01795 29.98408 1.48306
#
# Velocity S-wave (km/s) = -3.44028 3.62421 0.80602
# Velocity P-wave (km/s) = 1.14098 5.91190 4.25749
#
# Compressibility (1/GPa) = 0.02564383
#
# Stress axis : x y z
#
# Youngs Moduli (GPa) = 96.81671 102.37489 105.45679
#
# Poissons Ratio (x) = 0.22956 -0.13472
# Poissons Ratio (y) = 0.21710 0.10576
# Poissons Ratio (z) = -0.12368 0.10267
#
# Static dielectric constant tensor:
#      x y z
#    x 1.825000 0.000000 0.000000 
#    y 0.000000 1.849280 0.000000 
#    z 0.000000 0.000000 1.881120 
# 
# From -- ./inp_files/9619.got.cif
#   From: 2010.05.17/outbox.cif.g08.bks.cpg/sg37_5_cif.got.tgz:9619.got - 2010.06.03 17:53:42.
