data_PCOD9355875
_publ_section_title
;
Structure prediction by ZEFSAII (Michael W. Deem and Ramdas Pophale) SiO2 
 PCOD9355875
Probable space group: A M M 2
;
_chemical_formula_sum "Si O2"
_cell_formula_units_Z 64
_cell_length_a 14.850418
_cell_length_b 7.571159
_cell_length_c 32.514315
_cell_angle_alpha 90.000000
_cell_angle_beta 90.000000
_cell_angle_gamma 90.000000
_cell_volume 3655.742972
_symmetry_space_group_name_H-M "A M M 2"
_symmetry_group_IT_number 38
_symmetry_cell_setting 'orthorhombic'
loop_
_space_group_symop_operation_xyz
x,y,z
-x,-y,z
-x,y,z
x,-y,z
x,1/2+y,1/2+z
-x,1/2-y,1/2+z
-x,1/2+y,1/2+z
x,1/2-y,1/2+z
loop_
_atom_site_type_symbol
_atom_site_label
_atom_site_fract_x
_atom_site_fract_y
_atom_site_fract_z
Si Si1 0.390560 0.704396 0.214520
Si Si2 0.604638 0.716706 0.124563
Si Si3 0.899408 0.210753 0.009528
Si Si4 0.712910 0.288250 0.885068
Si Si5 0.397324 0.787361 0.803761
Si Si6 0.603884 0.783732 0.464953
Si Si7 0.900213 0.707492 0.914560
Si Si8 0.288268 0.210368 0.545274
O O1 0.500000 0.703771 0.214762
O O2 0.360307 0.500000 0.214246
O O3 0.365799 0.780151 0.169981
O O4 0.365381 0.781232 0.258993
O O5 0.500000 0.765776 0.117495
O O6 0.605826 0.500000 0.125884
O O7 0.667253 0.777434 0.087277
O O8 0.817555 0.258964 0.039119
O O9 0.000000 0.272415 0.021523
O O10 0.901628 0.000000 0.006553
O O11 0.880867 0.279907 0.963428
O O12 0.717966 0.500000 0.889839
O O13 0.666740 0.253132 0.841658
O O14 0.651354 0.223990 0.922914
O O15 0.814305 0.217791 0.890713
O O16 0.500000 0.724609 0.811687
O O17 0.402064 0.000000 0.800107
O O18 0.500000 0.729320 0.466928
O O19 0.659590 0.722795 0.504762
O O20 0.604869 0.000000 0.464998
O O21 0.905865 0.500000 0.904463
O O22 0.000000 0.784969 0.907626
O O23 0.302357 0.000000 0.545666
#
# Coordination Sequence:
#
# PCOD9355875 Si02
#       8
#     8   8   8   8   8   8   8   8
#     4   7  11  22  39  60  86 112 139 175 215 247
#     4   8  13  22  41  68  91 111 140 177 212 249
#     4  10  20  32  45  61  83 112 143 177 217 256
#     4  10  18  28  42  62  86 113 142 174 214 253
#     4   9  17  28  42  61  87 118 148 176 207 247
#     4   9  16  25  37  57  87 116 138 164 201 244
#     4   9  17  31  49  65  81 104 139 183 223 254
#     4  10  17  27  44  66  87 111 144 177 208 246
#
# _framework density 17.506703000000002
#
# number of rings (size 3 to 8) (size 9 to 14) (size 15 to 20)
#    0.000    3.000    1.250    2.625    0.000    3.500 
#    0.000    0.000    0.000    2.250    0.000    2.625 
#    0.000    5.000    0.000    0.000    0.000    0.000 
#
# Total GULP energy -178300.798254 kJ/mol
# GULP energy per Si atom -5571.899945 kJ/mol
# Density = 1.746686 g / cm^3
# Si number density = 17.506703 Si / 1000 Ang^3
#
#
#
# Elastic Constant Matrix: (Units=GPa)
#
#
# Indices 1 2 3 4 5 6 
#
# 1 130.0645 1.7366 94.3052 0.0000 0.0000 0.0000
# 2 1.7366 38.2756 2.8574 0.0000 0.0000 0.0000
# 3 94.3052 2.8574 164.3603 0.0000 0.0000 0.0000
# 4 0.0000 0.0000 0.0000 9.3365 0.0000 0.0000
# 5 0.0000 0.0000 0.0000 0.0000 11.3203 0.0000
# 6 0.0000 0.0000 0.0000 0.0000 0.0000 4.0259
#
#
#
# Elastic Compliance Matrix: (Units=1/GPa)
#
#
# Indices 1 2 3 4 5 6 
#
# 1 0.013166 -0.000033 -0.007554 0.000000 0.000000 0.000000
# 2 -0.000033 0.026160 -0.000436 0.000000 0.000000 0.000000
# 3 -0.007554 -0.000436 0.010426 0.000000 0.000000 0.000000
# 4 0.000000 0.000000 0.000000 0.107106 0.000000 0.000000
# 5 0.000000 0.000000 0.000000 0.000000 0.088337 0.000000
# 6 0.000000 0.000000 0.000000 0.000000 0.000000 0.248394
#
#
# Mechanical properties :
#
#
# Convention : Reuss Voigt Hill
#
# Bulk Modulus (GPa) = 29.66773 58.94432 44.30602
# Shear Modulus (GPa) = 9.59933 20.52329 15.06131
#
# Velocity S-wave (km/s) = 2.34417 3.42762 2.93630
# Velocity P-wave (km/s) = 4.93053 7.02904 6.07114
#
# Compressibility (1/GPa) = 0.03370666
#
# Stress axis : x y z
#
# Youngs Moduli (GPa) = 75.95466 38.22582 95.91613
#
# Poissons Ratio (x) = 0.00128 0.72451
# Poissons Ratio (y) = 0.00254 0.04178
# Poissons Ratio (z) = 0.57373 0.01665
#
# Static dielectric constant tensor:
#      x y z
#    x 1.633750 0.000000 0.000000 
#    y 0.000000 1.704070 0.000000 
#    z 0.000000 0.000000 1.606350 
# 
# From -- ./inp_files/25070.got.cif
#   From: 2010.05.17/outbox.cif.g08.bks.cpg/sg38_13_cif.got.tgz:25070.got - 2010.06.03 18:07:57.
