data_PCOD9355760
_publ_section_title
;
Structure prediction by ZEFSAII (Michael W. Deem and Ramdas Pophale) SiO2 
 PCOD9355760
Probable space group: C C C 2
;
_chemical_formula_sum "Si O2"
_cell_formula_units_Z 24
_cell_length_a 9.000000
_cell_length_b 18.000000
_cell_length_c 15.000000
_cell_angle_alpha 90.000000
_cell_angle_beta 90.000000
_cell_angle_gamma 90.000000
_cell_volume 2430.000000
_symmetry_space_group_name_H-M "C C C 2"
_symmetry_group_IT_number 37
_symmetry_cell_setting 'orthorhombic'
loop_
_space_group_symop_operation_xyz
x,y,z
-x,-y,z
-x,y,1/2+z
x,-y,1/2+z
1/2+x,1/2+y,z
1/2-x,1/2-y,z
1/2-x,1/2+y,1/2+z
1/2+x,1/2-y,1/2+z
loop_
_atom_site_type_symbol
_atom_site_label
_atom_site_fract_x
_atom_site_fract_y
_atom_site_fract_z
Si Si1 0.549101 0.577122 0.478310
Si Si2 0.589696 0.718198 0.236078
Si Si3 0.350265 0.957322 0.071063
Si Si4 0.426085 0.734898 0.413199
Si Si5 0.886153 0.943626 0.168747
Si Si6 0.909836 0.291591 0.079528
O O1 0.500000 0.500000 0.433499
O O2 0.724977 0.567041 0.497949
O O3 0.487392 0.651725 0.434862
O O4 0.468392 0.577151 0.575405
O O5 0.750000 0.750000 0.258370
O O6 0.472881 0.743160 0.310832
O O7 0.619677 0.630636 0.225097
O O8 0.524649 0.749141 0.143484
O O9 0.393603 0.876863 0.110069
O O10 0.500000 0.000000 0.040746
O O11 0.262656 0.012605 0.139020
O O12 0.250000 0.750000 0.425895
O O13 0.519010 0.786891 0.480830
O O14 0.000000 0.000000 0.214319
O O15 0.750000 0.250000 0.080690
#
# Coordination Sequence:
#
# PCOD9355760 Si02
#       6
#     8   8   8   8   8   8
#     4   9  20  39  61  91 125 166 219 261 327 405
#     4  12  25  41  65  96 132 171 225 274 333 414
#     4  10  20  34  67  97 124 166 216 267 338 393
#     4  12  26  41  65  97 132 180 228 276 351 408
#     4   9  19  40  63  91 122 172 217 260 327 405
#     4  12  22  42  68  97 134 170 216 287 335 403
#
# _framework density 9.8765429999999999
#
# number of rings (size 3 to 8) (size 9 to 14) (size 15 to 20)
#    0.000    1.667    3.333    3.500    4.667    0.667 
#    0.000    0.000    0.000    0.000    0.000    0.000 
#    0.000    0.000    0.000    0.000    0.000    0.000 
#
# Total GULP energy -133848.001546 kJ/mol
# GULP energy per Si atom -5577.000064 kJ/mol
# Density = 0.985406 g / cm^3
# Si number density = 9.876543 Si / 1000 Ang^3
#
#
#
# Elastic Constant Matrix: (Units=GPa)
#
#
# Indices 1 2 3 4 5 6 
#
# 1 134.5538 51.2473 2.8199 0.0000 0.0000 0.0000
# 2 51.2473 110.9852 13.4536 0.0000 0.0000 0.0000
# 3 2.8199 13.4536 52.8698 0.0000 0.0000 0.0000
# 4 0.0000 0.0000 0.0000 -7.5640 0.0000 0.0000
# 5 0.0000 0.0000 0.0000 0.0000 5.5561 0.0000
# 6 0.0000 0.0000 0.0000 0.0000 0.0000 34.8514
#
#
#
# Elastic Compliance Matrix: (Units=1/GPa)
#
#
# Indices 1 2 3 4 5 6 
#
# 1 0.009036 -0.004245 0.000598 0.000000 0.000000 0.000000
# 2 -0.004245 0.011291 -0.002647 0.000000 0.000000 0.000000
# 3 0.000598 -0.002647 0.019556 0.000000 0.000000 0.000000
# 4 0.000000 0.000000 0.000000 -0.132206 0.000000 0.000000
# 5 0.000000 0.000000 0.000000 0.000000 0.179984 0.000000
# 6 0.000000 0.000000 0.000000 0.000000 0.000000 0.028693
#
#
# Mechanical properties :
#
#
# Convention : Reuss Voigt Hill
#
# Bulk Modulus (GPa) = 36.63502 48.16117 42.39810
# Shear Modulus (GPa) = 36.22124 21.96124 29.09124
#
# Velocity S-wave (km/s) = 4.28682 3.33797 3.84180
# Velocity P-wave (km/s) = 6.56423 6.26822 6.41793
#
# Compressibility (1/GPa) = 0.02729629
#
# Stress axis : x y z
#
# Youngs Moduli (GPa) = 110.66584 88.56478 51.13520
#
# Poissons Ratio (x) = 0.37596 -0.03059
# Poissons Ratio (y) = 0.46977 0.13535
# Poissons Ratio (z) = -0.06621 0.23441
#
# Static dielectric constant tensor:
#      x y z
#    x 1.687340 0.000000 0.000000 
#    y 0.000000 1.785280 0.000000 
#    z 0.000000 0.000000 1.714170 
# 
# From -- ./inp_files/10572.got.cif
#   From: 2010.05.17/outbox.ucp.g08.bks.cvg/sg37_6_cif.got.tgz:10572.got - 2010.06.11 10:38:43.
