data_PCOD9355840
_publ_section_title
;
Structure prediction by ZEFSAII (Michael W. Deem and Ramdas Pophale) SiO2 
 PCOD9355840
Probable space group: A M M 2
;
_chemical_formula_sum "Si O2"
_cell_formula_units_Z 56
_cell_length_a 7.497930
_cell_length_b 12.315599
_cell_length_c 32.175880
_cell_angle_alpha 90.000000
_cell_angle_beta 90.000000
_cell_angle_gamma 90.000000
_cell_volume 2971.168998
_symmetry_space_group_name_H-M "A M M 2"
_symmetry_group_IT_number 38
_symmetry_cell_setting 'orthorhombic'
loop_
_space_group_symop_operation_xyz
x,y,z
-x,-y,z
-x,y,z
x,-y,z
x,1/2+y,1/2+z
-x,1/2-y,1/2+z
-x,1/2+y,1/2+z
x,1/2-y,1/2+z
loop_
_atom_site_type_symbol
_atom_site_label
_atom_site_fract_x
_atom_site_fract_y
_atom_site_fract_z
Si Si1 0.214063 0.374403 0.731880
Si Si2 0.213923 0.374402 0.640698
Si Si3 0.282170 0.000000 0.013364
Si Si4 0.288523 0.876695 0.322379
Si Si5 0.281514 0.240232 0.900859
Si Si6 0.716889 0.000000 0.917003
Si Si7 0.287479 0.778937 0.054747
Si Si8 0.282004 0.875437 0.482722
O O1 0.275035 0.500000 0.733560
O O2 0.275816 0.335823 0.686466
O O3 0.264863 0.326377 0.776428
O O4 0.000000 0.373634 0.731078
O O5 0.278400 0.500000 0.633046
O O6 0.256971 0.292107 0.603705
O O7 0.000000 0.382047 0.642169
O O8 0.217552 0.108606 0.035403
O O9 0.500000 0.000000 0.015408
O O10 0.233953 0.000000 0.965414
O O11 0.500000 0.885533 0.328831
O O12 0.219523 0.806655 0.360677
O O13 0.214735 0.000000 0.322632
O O14 0.500000 0.239643 0.901264
O O15 0.228271 0.300507 0.943602
O O16 0.223095 0.115098 0.899004
O O17 0.500000 0.000000 0.914900
O O18 0.500000 0.779016 0.049120
O O19 0.223013 0.679947 0.026097
O O20 0.500000 0.877222 0.482265
O O21 0.223155 0.000000 0.478394
#
# Coordination Sequence:
#
# PCOD9355840 Si02
#       8
#     8   8   4   8   8   4   8   8
#     4   8  15  28  43  59  82 111 139 166 204 257
#     4   9  17  28  42  62  87 112 138 171 214 260
#     4   9  14  22  35  59  89 111 137 169 201 238
#     4   9  16  25  39  62  88 109 133 170 211 245
#     4   9  15  23  37  59  87 115 140 169 206 247
#     4   9  14  22  36  57  87 117 141 167 203 246
#     4  10  17  25  41  64  88 113 141 174 208 244
#     4   9  16  25  38  59  88 119 146 171 204 247
#
# _framework density 18.847802000000001
#
# number of rings (size 3 to 8) (size 9 to 14) (size 15 to 20)
#    0.000    3.000    2.143    1.286    0.000    2.286 
#    0.000    1.429    0.000    1.286    1.857    0.500 
#    0.000    0.000    0.000    0.000    0.000    0.000 
#
# Total GULP energy -155972.152328 kJ/mol
# GULP energy per Si atom -5570.434012 kJ/mol
# Density = 1.880490 g / cm^3
# Si number density = 18.847802 Si / 1000 Ang^3
#
#
#
# Elastic Constant Matrix: (Units=GPa)
#
#
# Indices 1 2 3 4 5 6 
#
# 1 47.8749 5.5402 -0.4298 0.0000 0.0000 0.0000
# 2 5.5402 114.4844 79.0728 0.0000 0.0000 0.0000
# 3 -0.4298 79.0728 177.1786 0.0000 0.0000 0.0000
# 4 0.0000 0.0000 0.0000 20.5834 0.0000 0.0000
# 5 0.0000 0.0000 0.0000 0.0000 30.3067 0.0000
# 6 0.0000 0.0000 0.0000 0.0000 0.0000 -1.7955
#
#
#
# Elastic Compliance Matrix: (Units=1/GPa)
#
#
# Indices 1 2 3 4 5 6 
#
# 1 0.021071 -0.001525 0.000732 0.000000 0.000000 0.000000
# 2 -0.001525 0.012737 -0.005688 0.000000 0.000000 0.000000
# 3 0.000732 -0.005688 0.008184 0.000000 0.000000 0.000000
# 4 0.000000 0.000000 0.000000 0.048583 0.000000 0.000000
# 5 0.000000 0.000000 0.000000 0.000000 0.032996 0.000000
# 6 0.000000 0.000000 0.000000 0.000000 0.000000 -0.556957
#
#
# Mechanical properties :
#
#
# Convention : Reuss Voigt Hill
#
# Bulk Modulus (GPa) = 34.44777 56.43380 45.44078
# Shear Modulus (GPa) = -12.17297 26.84257 7.33480
#
# Velocity S-wave (km/s) = -2.54413 3.77792 1.97485
# Velocity P-wave (km/s) = 3.11229 7.00265 5.41865
#
# Compressibility (1/GPa) = 0.02902946
#
# Stress axis : x y z
#
# Youngs Moduli (GPa) = 47.45900 78.50873 122.18345
#
# Poissons Ratio (x) = 0.11973 -0.08941
# Poissons Ratio (y) = 0.07238 0.69501
# Poissons Ratio (z) = -0.03473 0.44658
#
# Static dielectric constant tensor:
#      x y z
#    x 1.714720 0.000000 0.000000 
#    y 0.000000 1.637300 0.000000 
#    z 0.000000 0.000000 1.688800 
# 
# From -- ./inp_files/22551.got.cif
#   From: 2010.05.17/outbox.cif.g08.bks.cpg/sg38_12_cif.got.tgz:22551.got - 2010.06.03 18:07:57.
