data_PCOD9355238
_publ_section_title
;
Structure prediction by ZEFSAII (Michael W. Deem and Ramdas Pophale) SiO2 
 PCOD9355238
Probable space group: C C C 2
;
_chemical_formula_sum "Si O2"
_cell_formula_units_Z 40
_cell_length_a 6.149230
_cell_length_b 14.174467
_cell_length_c 20.106716
_cell_angle_alpha 90.000000
_cell_angle_beta 90.000000
_cell_angle_gamma 90.000000
_cell_volume 1752.542740
_symmetry_space_group_name_H-M "C C C 2"
_symmetry_group_IT_number 37
_symmetry_cell_setting 'orthorhombic'
loop_
_space_group_symop_operation_xyz
x,y,z
-x,-y,z
-x,y,1/2+z
x,-y,1/2+z
1/2+x,1/2+y,z
1/2-x,1/2-y,z
1/2-x,1/2+y,1/2+z
1/2+x,1/2-y,1/2+z
loop_
_atom_site_type_symbol
_atom_site_label
_atom_site_fract_x
_atom_site_fract_y
_atom_site_fract_z
Si Si1 0.750000 0.250000 0.020221
Si Si2 0.500000 0.500000 0.246178
Si Si3 0.395429 0.159074 0.937517
Si Si4 0.379520 0.901062 0.292815
Si Si5 0.328964 0.143808 0.175986
Si Si6 0.118324 0.902422 0.546412
O O1 0.563075 0.317287 0.053770
O O2 0.620853 0.175637 0.974412
O O3 0.627037 0.424309 0.289993
O O4 0.669011 0.562774 0.204796
O O5 0.250000 0.250000 0.951265
O O6 0.431473 0.154977 0.858978
O O7 0.240351 0.084205 0.975090
O O8 0.454810 0.864455 0.220664
O O9 0.500000 0.000000 0.302790
O O10 0.250000 0.250000 0.186951
O O11 0.313956 0.122816 0.097753
O O12 0.000000 0.000000 0.563089
#
# Coordination Sequence:
#
# PCOD9355238 Si02
#       6
#     4   4   8   8   8   8
#     4  10  24  44  70 104 138 180 236 298 354 430
#     4  10  24  44  60  98 138 186 230 286 348 422
#     4  10  24  42  69 101 136 181 235 289 353 428
#     4  10  25  42  66 100 141 182 235 284 351 430
#     4  11  24  44  68 100 137 179 237 288 352 426
#     4  11  25  46  71 104 140 185 239 293 360 427
#
# _framework density 22.823979000000001
#
# number of rings (size 3 to 8) (size 9 to 14) (size 15 to 20)
#    0.000    1.600    1.000    1.800    8.400    6.400 
#    7.200    0.000    0.000    0.000    0.000    0.000 
#    0.000    0.000    0.000    0.000    0.000    0.000 
#
# Total GULP energy -111466.156489 kJ/mol
# GULP energy per Si atom -5573.307824 kJ/mol
# Density = 2.277203 g / cm^3
# Si number density = 22.823979 Si / 1000 Ang^3
#
#
#
# Elastic Constant Matrix: (Units=GPa)
#
#
# Indices 1 2 3 4 5 6 
#
# 1 67.7153 5.9970 45.0826 0.0000 0.0000 0.0000
# 2 5.9970 75.0172 4.9305 0.0000 0.0000 0.0000
# 3 45.0826 4.9305 95.0454 0.0000 0.0000 0.0000
# 4 0.0000 0.0000 0.0000 28.4507 0.0000 0.0000
# 5 0.0000 0.0000 0.0000 0.0000 11.0949 0.0000
# 6 0.0000 0.0000 0.0000 0.0000 0.0000 18.8582
#
#
#
# Elastic Compliance Matrix: (Units=1/GPa)
#
#
# Indices 1 2 3 4 5 6 
#
# 1 0.021667 -0.001060 -0.010222 0.000000 0.000000 0.000000
# 2 -0.001060 0.013428 -0.000194 0.000000 0.000000 0.000000
# 3 -0.010222 -0.000194 0.015380 0.000000 0.000000 0.000000
# 4 0.000000 0.000000 0.000000 0.035149 0.000000 0.000000
# 5 0.000000 0.000000 0.000000 0.000000 0.090132 0.000000
# 6 0.000000 0.000000 0.000000 0.000000 0.000000 0.053027
#
#
# Mechanical properties :
#
#
# Convention : Reuss Voigt Hill
#
# Bulk Modulus (GPa) = 36.33383 38.86646 37.60014
# Shear Modulus (GPa) = 19.16373 23.79860 21.48117
#
# Velocity S-wave (km/s) = 2.90078 3.23259 3.07117
# Velocity P-wave (km/s) = 5.21278 5.56764 5.39313
#
# Compressibility (1/GPa) = 0.02752256
#
# Stress axis : x y z
#
# Youngs Moduli (GPa) = 46.15241 74.47256 65.01906
#
# Poissons Ratio (x) = 0.07896 0.66465
# Poissons Ratio (y) = 0.04893 0.01259
# Poissons Ratio (z) = 0.47179 0.01442
#
# Static dielectric constant tensor:
#      x y z
#    x 1.908460 0.000000 0.000000 
#    y 0.000000 1.805890 0.000000 
#    z 0.000000 0.000000 1.912230 
# 
# From -- ./inp_files/13733.got.cif
#   From: 2010.05.17/outbox.cif.g08.bks.cpg/sg37_7_cif.got.tgz:13733.got - 2010.06.03 17:53:42.
