data_PCOD9355969
_publ_section_title
;
Structure prediction by ZEFSAII (Michael W. Deem and Ramdas Pophale) SiO2 
 PCOD9355969
Probable space group: A M M 2
;
_chemical_formula_sum "Si O2"
_cell_formula_units_Z 64
_cell_length_a 7.973319
_cell_length_b 19.225192
_cell_length_c 27.399457
_cell_angle_alpha 90.000000
_cell_angle_beta 90.000000
_cell_angle_gamma 90.000000
_cell_volume 4200.024093
_symmetry_space_group_name_H-M "A M M 2"
_symmetry_group_IT_number 38
_symmetry_cell_setting 'orthorhombic'
loop_
_space_group_symop_operation_xyz
x,y,z
-x,-y,z
-x,y,z
x,-y,z
x,1/2+y,1/2+z
-x,1/2-y,1/2+z
-x,1/2+y,1/2+z
x,1/2-y,1/2+z
loop_
_atom_site_type_symbol
_atom_site_label
_atom_site_fract_x
_atom_site_fract_y
_atom_site_fract_z
Si Si1 0.794253 0.579424 0.350340
Si Si2 0.699799 0.579346 0.538313
Si Si3 0.202319 0.079612 0.147612
Si Si4 0.807335 0.794824 0.791582
Si Si5 0.794187 0.339315 0.742633
Si Si6 0.797394 0.579220 0.840845
Si Si7 0.198752 0.334206 0.445309
Si Si8 0.307057 0.714745 0.884645
O O1 0.739627 0.500000 0.346207
O O2 0.734147 0.630846 0.307202
O O3 0.742459 0.613689 0.401927
O O4 0.000000 0.580125 0.349662
O O5 0.500000 0.576549 0.534968
O O6 0.765806 0.500000 0.530781
O O7 0.747257 0.601008 0.593168
O O8 0.762357 0.631156 0.496841
O O9 0.261579 0.128223 0.191629
O O10 0.000000 0.078618 0.149714
O O11 0.261432 0.000000 0.154934
O O12 0.733532 0.739142 0.753788
O O13 0.803224 0.751962 0.842709
O O14 0.000000 0.806968 0.777095
O O15 0.745561 0.388372 0.788347
O O16 0.000000 0.337555 0.742899
O O17 0.738958 0.500000 0.846307
O O18 0.736395 0.633621 0.881674
O O19 0.000000 0.578865 0.841454
O O20 0.275795 0.258786 0.433426
O O21 0.000000 0.327145 0.440580
O O22 0.500000 0.723626 0.870290
#
# Coordination Sequence:
#
# PCOD9355969 Si02
#       8
#     8   8   8   8   8   8   8   8
#     4   8  13  21  36  58  79  99 127 162 195 229
#     4  10  20  31  41  57  82 106 129 164 209 248
#     4   9  16  26  40  56  74 100 135 170 201 236
#     4   8  14  25  39  55  77 105 136 168 200 237
#     4   8  13  23  40  59  77 102 138 173 201 230
#     4   9  16  27  43  61  82 109 140 171 201 235
#     4  10  18  29  44  58  75 104 141 171 197 235
#     4  10  18  27  39  57  82 107 132 165 204 243
#
# _framework density 15.238008000000001
#
# number of rings (size 3 to 8) (size 9 to 14) (size 15 to 20)
#    0.000    3.000    0.000    4.125    0.000    3.000 
#    0.000    2.500    0.000    6.375    0.000    0.000 
#    0.000    1.000    0.000    7.500    0.000    1.750 
#
# Total GULP energy -178144.542311 kJ/mol
# GULP energy per Si atom -5567.016947 kJ/mol
# Density = 1.520333 g / cm^3
# Si number density = 15.238008 Si / 1000 Ang^3
#
#
#
# Elastic Constant Matrix: (Units=GPa)
#
#
# Indices 1 2 3 4 5 6 
#
# 1 24.4345 10.5950 7.6501 0.0000 0.0000 0.0000
# 2 10.5950 134.8632 68.8348 0.0000 0.0000 0.0000
# 3 7.6501 68.8348 92.2880 0.0000 0.0000 0.0000
# 4 0.0000 0.0000 0.0000 27.4140 0.0000 0.0000
# 5 0.0000 0.0000 0.0000 0.0000 -6.5665 0.0000
# 6 0.0000 0.0000 0.0000 0.0000 0.0000 7.5144
#
#
#
# Elastic Compliance Matrix: (Units=1/GPa)
#
#
# Indices 1 2 3 4 5 6 
#
# 1 0.042527 -0.002489 -0.001668 0.000000 0.000000 0.000000
# 2 -0.002489 0.012119 -0.008833 0.000000 0.000000 0.000000
# 3 -0.001668 -0.008833 0.017562 0.000000 0.000000 0.000000
# 4 0.000000 0.000000 0.000000 0.036478 0.000000 0.000000
# 5 0.000000 0.000000 0.000000 0.000000 -0.152289 0.000000
# 6 0.000000 0.000000 0.000000 0.000000 0.000000 0.133077
#
#
# Mechanical properties :
#
#
# Convention : Reuss Voigt Hill
#
# Bulk Modulus (GPa) = 21.63233 47.30505 34.46869
# Shear Modulus (GPa) = 38.20772 16.63945 27.42358
#
# Velocity S-wave (km/s) = 5.01282 3.30808 4.24687
# Velocity P-wave (km/s) = 6.90881 6.76038 6.83500
#
# Compressibility (1/GPa) = 0.04622711
#
# Stress axis : x y z
#
# Youngs Moduli (GPa) = 23.51420 82.51706 56.94133
#
# Poissons Ratio (x) = 0.20542 0.09501
# Poissons Ratio (y) = 0.05854 0.50294
# Poissons Ratio (z) = 0.03923 0.72884
#
# Static dielectric constant tensor:
#      x y z
#    x 1.536850 0.000000 0.000000 
#    y 0.000000 1.537370 0.000000 
#    z 0.000000 0.000000 1.490780 
# 
# From -- ./inp_files/22293.got.cif
#   From: 2010.05.17/outbox.cif.g08.bks.cpg/sg38_12_cif.got.tgz:22293.got - 2010.06.03 18:07:57.
