data_PCOD9355411
_publ_section_title
;
Structure prediction by ZEFSAII (Michael W. Deem and Ramdas Pophale) SiO2 
 PCOD9355411
Probable space group: C C C 2
;
_chemical_formula_sum "Si O2"
_cell_formula_units_Z 28
_cell_length_a 5.458361
_cell_length_b 20.078224
_cell_length_c 9.199329
_cell_angle_alpha 90.000000
_cell_angle_beta 90.000000
_cell_angle_gamma 90.000000
_cell_volume 1008.193055
_symmetry_space_group_name_H-M "C C C 2"
_symmetry_group_IT_number 37
_symmetry_cell_setting 'orthorhombic'
loop_
_space_group_symop_operation_xyz
x,y,z
-x,-y,z
-x,y,1/2+z
x,-y,1/2+z
1/2+x,1/2+y,z
1/2-x,1/2-y,z
1/2-x,1/2+y,1/2+z
1/2+x,1/2-y,1/2+z
loop_
_atom_site_type_symbol
_atom_site_label
_atom_site_fract_x
_atom_site_fract_y
_atom_site_fract_z
Si Si1 0.750000 0.250000 0.050930
Si Si2 0.851309 0.352000 0.525531
Si Si3 0.492984 0.643319 0.250531
Si Si4 0.500000 0.000000 0.955097
Si Si5 0.500000 0.500000 0.776875
O O1 0.660258 0.306832 0.157234
O O2 0.527969 0.208858 0.976007
O O3 0.618100 0.354867 0.412817
O O4 0.764466 0.339380 0.692051
O O5 0.960586 0.427047 0.526412
O O6 0.460527 0.568008 0.193421
O O7 0.750304 0.010075 0.865272
#
# Coordination Sequence:
#
# PCOD9355411 Si02
#       5
#     4   8   8   4   4
#     4  12  30  48  86 126 174 228 284 360 440 536
#     4  11  29  54  89 125 174 229 293 359 445 522
#     4  11  29  51  86 124 172 224 290 359 440 515
#     4  10  26  50  92 124 172 224 294 352 442 514
#     4  10  26  50  86 130 170 224 286 368 430 520
#
# _framework density 27.772458
#
# number of rings (size 3 to 8) (size 9 to 14) (size 15 to 20)
#    0.000    1.143    0.000    0.857   24.000    1.143 
#    0.000    0.000    0.000    1.714    0.000    0.000 
#    0.000    0.000    0.000    0.000    0.000    0.000 
#
# Total GULP energy -78254.205138 kJ/mol
# GULP energy per Si atom -5589.586081 kJ/mol
# Density = 2.770925 g / cm^3
# Si number density = 27.772458 Si / 1000 Ang^3
#
#
#
# Elastic Constant Matrix: (Units=GPa)
#
#
# Indices 1 2 3 4 5 6 
#
# 1 188.5955 80.4928 87.8387 0.0000 0.0000 0.0000
# 2 80.4928 192.5454 58.0404 0.0000 0.0000 0.0000
# 3 87.8387 58.0404 128.6348 0.0000 0.0000 0.0000
# 4 0.0000 0.0000 0.0000 45.4083 0.0000 0.0000
# 5 0.0000 0.0000 0.0000 0.0000 32.6615 0.0000
# 6 0.0000 0.0000 0.0000 0.0000 0.0000 65.1028
#
#
#
# Elastic Compliance Matrix: (Units=1/GPa)
#
#
# Indices 1 2 3 4 5 6 
#
# 1 0.008433 -0.002071 -0.004824 0.000000 0.000000 0.000000
# 2 -0.002071 0.006520 -0.001527 0.000000 0.000000 0.000000
# 3 -0.004824 -0.001527 0.011757 0.000000 0.000000 0.000000
# 4 0.000000 0.000000 0.000000 0.022022 0.000000 0.000000
# 5 0.000000 0.000000 0.000000 0.000000 0.030617 0.000000
# 6 0.000000 0.000000 0.000000 0.000000 0.000000 0.015360
#
#
# Mechanical properties :
#
#
# Convention : Reuss Voigt Hill
#
# Bulk Modulus (GPa) = 101.37046 106.94659 104.15853
# Shear Modulus (GPa) = 43.53733 47.52812 45.53272
#
# Velocity S-wave (km/s) = 3.96364 4.14132 4.05346
# Velocity P-wave (km/s) = 7.58465 7.83959 7.71317
#
# Compressibility (1/GPa) = 0.00986481
#
# Stress axis : x y z
#
# Youngs Moduli (GPa) = 118.57881 153.37662 85.05402
#
# Poissons Ratio (x) = 0.31769 0.41031
# Poissons Ratio (y) = 0.24561 0.12991
# Poissons Ratio (z) = 0.57203 0.23427
#
# Static dielectric constant tensor:
#      x y z
#    x 2.462450 0.000000 0.000000 
#    y 0.000000 2.315560 0.000000 
#    z 0.000000 0.000000 2.134280 
# 
# From -- ./inp_files/5298.got.cif
#   From: 2010.05.17/outbox.cif.g08.bks.cpg/sg37_3_cif.got.tgz:5298.got - 2010.06.03 17:53:42.
