data_PCOD9355494
_publ_section_title
;
Structure prediction by ZEFSAII (Michael W. Deem and Ramdas Pophale) SiO2 
 PCOD9355494
Probable space group: C C C 2
;
_chemical_formula_sum "Si O2"
_cell_formula_units_Z 64
_cell_length_a 29.789766
_cell_length_b 11.207718
_cell_length_c 8.833218
_cell_angle_alpha 90.000000
_cell_angle_beta 90.000000
_cell_angle_gamma 90.000000
_cell_volume 2949.193280
_symmetry_space_group_name_H-M "C C C 2"
_symmetry_group_IT_number 37
_symmetry_cell_setting 'orthorhombic'
loop_
_space_group_symop_operation_xyz
x,y,z
-x,-y,z
-x,y,1/2+z
x,-y,1/2+z
1/2+x,1/2+y,z
1/2-x,1/2-y,z
1/2-x,1/2+y,1/2+z
1/2+x,1/2-y,1/2+z
loop_
_atom_site_type_symbol
_atom_site_label
_atom_site_fract_x
_atom_site_fract_y
_atom_site_fract_z
Si Si1 0.729539 0.875815 0.267220
Si Si2 0.373469 0.892013 0.684299
Si Si3 0.985839 0.696737 0.486823
Si Si4 0.928561 0.529290 0.928689
Si Si5 0.982721 0.128958 0.722967
Si Si6 0.390613 0.626863 0.596369
Si Si7 0.778657 0.931928 0.556932
Si Si8 0.659744 0.566104 0.806848
O O1 0.750000 0.750000 0.212465
O O2 0.677203 0.899279 0.241157
O O3 0.741151 0.878528 0.446195
O O4 0.755266 0.971600 0.164528
O O5 0.383355 0.933149 0.514087
O O6 0.383182 0.751468 0.680708
O O7 0.410072 0.970279 0.774901
O O8 0.954333 0.582779 0.502435
O O9 0.968269 0.790430 0.363430
O O10 0.034779 0.637534 0.441583
O O11 0.986192 0.777184 0.635724
O O12 0.943224 0.102560 0.603653
O O13 0.000000 0.000000 0.771326
O O14 0.366814 0.526023 0.699118
O O15 0.372638 0.633887 0.424211
O O16 0.809306 0.863783 0.683222
O O17 0.810483 0.992689 0.429423
#
# Coordination Sequence:
#
# PCOD9355494 Si02
#       8
#     8   8   8   8   8   8   8   8
#     4  11  22  40  67  94 136 174 219 290 348 409
#     4  12  23  41  64 101 129 178 234 287 341 407
#     4  11  23  46  64  96 134 185 232 282 363 405
#     4  11  23  42  71  91 136 185 237 293 333 428
#     4  12  26  40  65  95 137 174 227 285 351 422
#     4  11  23  41  63  96 131 170 222 276 344 406
#     4   9  19  41  62  92 121 172 218 264 344 417
#     4   9  20  39  65  87 128 170 212 276 342 420
#
# _framework density 21.700849999999999
#
# number of rings (size 3 to 8) (size 9 to 14) (size 15 to 20)
#    0.000    1.250    2.500    4.125    3.500    2.000 
#    0.000   10.000    0.000    0.000    0.000    0.000 
#    0.000    0.000    0.000    0.000    0.000    0.000 
#
# Total GULP energy -178231.438855 kJ/mol
# GULP energy per Si atom -5569.732464 kJ/mol
# Density = 2.165146 g / cm^3
# Si number density = 21.700850 Si / 1000 Ang^3
#
#
#
# Elastic Constant Matrix: (Units=GPa)
#
#
# Indices 1 2 3 4 5 6 
#
# 1 63.8323 27.8243 23.3337 0.0000 0.0000 0.0000
# 2 27.8243 99.0882 30.6305 0.0000 0.0000 0.0000
# 3 23.3337 30.6305 97.0260 0.0000 0.0000 0.0000
# 4 0.0000 0.0000 0.0000 30.1311 0.0000 0.0000
# 5 0.0000 0.0000 0.0000 0.0000 40.1103 0.0000
# 6 0.0000 0.0000 0.0000 0.0000 0.0000 19.7544
#
#
#
# Elastic Compliance Matrix: (Units=1/GPa)
#
#
# Indices 1 2 3 4 5 6 
#
# 1 0.018678 -0.004273 -0.003143 0.000000 0.000000 0.000000
# 2 -0.004273 0.012161 -0.002812 0.000000 0.000000 0.000000
# 3 -0.003143 -0.002812 0.011950 0.000000 0.000000 0.000000
# 4 0.000000 0.000000 0.000000 0.033188 0.000000 0.000000
# 5 0.000000 0.000000 0.000000 0.000000 0.024931 0.000000
# 6 0.000000 0.000000 0.000000 0.000000 0.000000 0.050622
#
#
# Mechanical properties :
#
#
# Convention : Reuss Voigt Hill
#
# Bulk Modulus (GPa) = 44.77564 47.05819 45.91691
# Shear Modulus (GPa) = 27.86615 29.87634 28.87125
#
# Velocity S-wave (km/s) = 3.58733 3.71446 3.65145
# Velocity P-wave (km/s) = 6.15114 6.33469 6.24359
#
# Compressibility (1/GPa) = 0.02233357
#
# Stress axis : x y z
#
# Youngs Moduli (GPa) = 53.54021 82.22961 83.68285
#
# Poissons Ratio (x) = 0.35139 0.26299
# Poissons Ratio (y) = 0.22879 0.23527
# Poissons Ratio (z) = 0.16826 0.23119
#
# Static dielectric constant tensor:
#      x y z
#    x 1.889270 0.000000 0.000000 
#    y 0.000000 1.772160 0.000000 
#    z 0.000000 0.000000 1.831970 
# 
# From -- ./inp_files/3129.got.cif
#   From: 2010.05.17/outbox.cif.g08.bks.cpg/sg37_2_cif.got.tgz:3129.got - 2010.06.03 17:53:42.
