data_PCOD9355361
_publ_section_title
;
Structure prediction by ZEFSAII (Michael W. Deem and Ramdas Pophale) SiO2 
 PCOD9355361
Probable space group: C C C 2
;
_chemical_formula_sum "Si O2"
_cell_formula_units_Z 64
_cell_length_a 9.517404
_cell_length_b 20.242069
_cell_length_c 14.098214
_cell_angle_alpha 90.000000
_cell_angle_beta 90.000000
_cell_angle_gamma 90.000000
_cell_volume 2716.048397
_symmetry_space_group_name_H-M "C C C 2"
_symmetry_group_IT_number 37
_symmetry_cell_setting 'orthorhombic'
loop_
_space_group_symop_operation_xyz
x,y,z
-x,-y,z
-x,y,1/2+z
x,-y,1/2+z
1/2+x,1/2+y,z
1/2-x,1/2-y,z
1/2-x,1/2+y,1/2+z
1/2+x,1/2-y,1/2+z
loop_
_atom_site_type_symbol
_atom_site_label
_atom_site_fract_x
_atom_site_fract_y
_atom_site_fract_z
Si Si1 0.776307 0.352991 0.182740
Si Si2 0.607742 0.228624 0.005071
Si Si3 0.526417 0.569585 0.753686
Si Si4 0.769570 0.944115 0.926224
Si Si5 0.842352 0.811445 0.041631
Si Si6 0.534792 0.860718 0.850231
Si Si7 0.841169 0.508592 0.594121
Si Si8 0.736872 0.116542 0.723139
O O1 0.829550 0.307577 0.097723
O O2 0.614301 0.372924 0.200736
O O3 0.848916 0.328669 0.279787
O O4 0.833949 0.425004 0.153537
O O5 0.750000 0.250000 0.950840
O O6 0.502911 0.287365 0.034222
O O7 0.515653 0.179366 0.941604
O O8 0.500000 0.500000 0.697942
O O9 0.622968 0.547604 0.841038
O O10 0.376952 0.599360 0.781077
O O11 0.616202 0.926449 0.883840
O O12 0.816895 0.877567 0.981305
O O13 0.756623 0.003079 0.001386
O O14 0.750000 0.750000 0.005408
O O15 0.782937 0.828591 0.146289
O O16 0.396432 0.868875 0.787001
O O17 0.801959 0.447759 0.661310
O O18 0.000000 0.500000 0.561745
#
# Coordination Sequence:
#
# PCOD9355361 Si02
#       8
#     8   8   8   8   8   8   8   8
#     4  11  24  48  70 102 143 187 236 294 363 434
#     4  12  27  46  70 107 143 189 247 299 352 427
#     4  11  24  45  66 104 144 181 232 292 366 438
#     4  10  25  45  70 103 139 191 233 296 364 419
#     4  11  23  48  70  95 144 189 240 295 356 425
#     4  11  24  45  71 102 140 182 244 291 348 431
#     4  11  21  43  74 101 138 185 233 296 360 437
#     4  11  24  43  71 103 139 186 235 296 365 426
#
# _framework density 23.563645000000001
#
# number of rings (size 3 to 8) (size 9 to 14) (size 15 to 20)
#    0.000    1.000    3.750    2.250    1.750    3.500 
#   11.250    0.000    0.000    0.000    0.000    0.000 
#    0.000    0.000    0.000    0.000    0.000    0.000 
#
# Total GULP energy -178920.042924 kJ/mol
# GULP energy per Si atom -5591.251341 kJ/mol
# Density = 2.351001 g / cm^3
# Si number density = 23.563645 Si / 1000 Ang^3
#
#
#
# Elastic Constant Matrix: (Units=GPa)
#
#
# Indices 1 2 3 4 5 6 
#
# 1 161.9788 32.4557 33.7869 0.0000 0.0000 0.0000
# 2 32.4557 57.6255 19.7343 0.0000 0.0000 0.0000
# 3 33.7869 19.7343 99.9700 0.0000 0.0000 0.0000
# 4 0.0000 0.0000 0.0000 -16.2503 0.0000 0.0000
# 5 0.0000 0.0000 0.0000 0.0000 43.1921 0.0000
# 6 0.0000 0.0000 0.0000 0.0000 0.0000 29.6329
#
#
#
# Elastic Compliance Matrix: (Units=1/GPa)
#
#
# Indices 1 2 3 4 5 6 
#
# 1 0.007237 -0.003473 -0.001760 0.000000 0.000000 0.000000
# 2 -0.003473 0.020278 -0.002829 0.000000 0.000000 0.000000
# 3 -0.001760 -0.002829 0.011156 0.000000 0.000000 0.000000
# 4 0.000000 0.000000 0.000000 -0.061537 0.000000 0.000000
# 5 0.000000 0.000000 0.000000 0.000000 0.023152 0.000000
# 6 0.000000 0.000000 0.000000 0.000000 0.000000 0.033746
#
#
# Mechanical properties :
#
#
# Convention : Reuss Voigt Hill
#
# Bulk Modulus (GPa) = 44.35267 54.61423 49.48345
# Shear Modulus (GPa) = 86.69511 26.88809 56.79160
#
# Velocity S-wave (km/s) = 6.07221 3.38166 4.91464
# Velocity P-wave (km/s) = 8.24777 6.20283 7.29729
#
# Compressibility (1/GPa) = 0.02254656
#
# Stress axis : x y z
#
# Youngs Moduli (GPa) = 138.18457 49.31360 89.63475
#
# Poissons Ratio (x) = 0.17127 0.15778
# Poissons Ratio (y) = 0.47992 0.25360
# Poissons Ratio (z) = 0.24323 0.13952
#
# Static dielectric constant tensor:
#      x y z
#    x 1.906980 0.000000 0.000000 
#    y 0.000000 1.945770 0.000000 
#    z 0.000000 0.000000 1.908270 
# 
# From -- ./inp_files/10969.got.cif
#   From: 2010.05.17/outbox.cif.g08.bks.cpg/sg37_6_cif.got.tgz:10969.got - 2010.06.03 17:53:42.
