data_PCOD9355431
_publ_section_title
;
Structure prediction by ZEFSAII (Michael W. Deem and Ramdas Pophale) SiO2 
 PCOD9355431
Probable space group: C C C 2
;
_chemical_formula_sum "Si O2"
_cell_formula_units_Z 64
_cell_length_a 15.484645
_cell_length_b 11.451942
_cell_length_c 18.728699
_cell_angle_alpha 90.000000
_cell_angle_beta 90.000000
_cell_angle_gamma 90.000000
_cell_volume 3321.146268
_symmetry_space_group_name_H-M "C C C 2"
_symmetry_group_IT_number 37
_symmetry_cell_setting 'orthorhombic'
loop_
_space_group_symop_operation_xyz
x,y,z
-x,-y,z
-x,y,1/2+z
x,-y,1/2+z
1/2+x,1/2+y,z
1/2-x,1/2-y,z
1/2-x,1/2+y,1/2+z
1/2+x,1/2-y,1/2+z
loop_
_atom_site_type_symbol
_atom_site_label
_atom_site_fract_x
_atom_site_fract_y
_atom_site_fract_z
Si Si1 0.110910 0.764812 0.613820
Si Si2 0.299705 0.866823 0.241132
Si Si3 0.547313 0.876236 0.385534
Si Si4 0.243826 0.078280 0.901029
Si Si5 0.502678 0.866507 0.227158
Si Si6 0.216231 0.377777 0.483315
Si Si7 0.756191 0.548507 0.119181
Si Si8 0.894560 0.259440 0.451995
O O1 0.179312 0.658270 0.617319
O O2 0.162452 0.887476 0.621370
O O3 0.076786 0.757689 0.533141
O O4 0.040648 0.728310 0.672680
O O5 0.250000 0.750000 0.218162
O O6 0.266145 0.900908 0.319337
O O7 0.402295 0.843268 0.244802
O O8 0.277085 0.970968 0.187816
O O9 0.560673 0.870579 0.299772
O O10 0.624595 0.867945 0.442099
O O11 0.477031 0.779290 0.403884
O O12 0.500000 0.000000 0.397253
O O13 0.162877 0.152533 0.925906
O O14 0.327492 0.132002 0.942697
O O15 0.229471 0.945419 0.922536
O O16 0.500000 0.000000 0.197071
O O17 0.250000 0.250000 0.501132
O O18 0.225888 0.462328 0.552079
#
# Coordination Sequence:
#
# PCOD9355431 Si02
#       8
#     8   8   8   8   8   8   8   8
#     4  11  22  39  68  92 129 169 216 277 320 389
#     4  12  23  40  67  95 132 176 213 269 324 396
#     4  11  21  38  63  99 129 163 214 272 319 382
#     4  11  19  41  67  93 121 169 219 257 315 398
#     4  11  22  39  61 103 134 160 222 277 324 373
#     4  12  25  41  64  95 132 161 209 278 328 385
#     4  11  23  42  60  94 129 172 216 258 334 395
#     4  11  19  38  70  91 118 166 225 256 312 390
#
# _framework density 19.270455999999999
#
# number of rings (size 3 to 8) (size 9 to 14) (size 15 to 20)
#    0.000    0.750    7.500    1.875    1.750    1.500 
#    0.000    1.250    0.000    3.000    0.000    0.000 
#    0.000    0.000    0.000    0.000    0.000    0.000 
#
# Total GULP energy -178527.008546 kJ/mol
# GULP energy per Si atom -5578.969017 kJ/mol
# Density = 1.922660 g / cm^3
# Si number density = 19.270456 Si / 1000 Ang^3
#
#
#
# Elastic Constant Matrix: (Units=GPa)
#
#
# Indices 1 2 3 4 5 6 
#
# 1 54.7757 36.4153 36.5845 0.0000 0.0000 0.0000
# 2 36.4153 101.6795 40.9481 0.0000 0.0000 0.0000
# 3 36.5845 40.9481 116.3721 0.0000 0.0000 0.0000
# 4 0.0000 0.0000 0.0000 10.5527 0.0000 0.0000
# 5 0.0000 0.0000 0.0000 0.0000 11.9965 0.0000
# 6 0.0000 0.0000 0.0000 0.0000 0.0000 17.0003
#
#
#
# Elastic Compliance Matrix: (Units=1/GPa)
#
#
# Indices 1 2 3 4 5 6 
#
# 1 0.027083 -0.007306 -0.005943 0.000000 0.000000 0.000000
# 2 -0.007306 0.013429 -0.002429 0.000000 0.000000 0.000000
# 3 -0.005943 -0.002429 0.011316 0.000000 0.000000 0.000000
# 4 0.000000 0.000000 0.000000 0.094762 0.000000 0.000000
# 5 0.000000 0.000000 0.000000 0.000000 0.083358 0.000000
# 6 0.000000 0.000000 0.000000 0.000000 0.000000 0.058822
#
#
# Mechanical properties :
#
#
# Convention : Reuss Voigt Hill
#
# Bulk Modulus (GPa) = 48.84605 55.63593 52.24099
# Shear Modulus (GPa) = 15.29281 18.50187 16.89734
#
# Velocity S-wave (km/s) = 2.82013 3.10193 2.96438
# Velocity P-wave (km/s) = 6.00057 6.46244 6.23578
#
# Compressibility (1/GPa) = 0.02047248
#
# Stress axis : x y z
#
# Youngs Moduli (GPa) = 36.92370 74.46350 88.36914
#
# Poissons Ratio (x) = 0.54402 0.52522
# Poissons Ratio (y) = 0.26976 0.21462
# Poissons Ratio (z) = 0.21945 0.18085
#
# Static dielectric constant tensor:
#      x y z
#    x 1.718730 0.000000 0.000000 
#    y 0.000000 1.701380 0.000000 
#    z 0.000000 0.000000 1.706910 
# 
# From -- ./inp_files/15295.got.cif
#   From: 2010.05.17/outbox.cif.g08.bks.cpg/sg37_8_cif.got.tgz:15295.got - 2010.06.03 17:53:42.
