data_PCOD9355697
_publ_section_title
;
Structure prediction by ZEFSAII (Michael W. Deem and Ramdas Pophale) SiO2 
 PCOD9355697
Probable space group: C C C 2
;
_chemical_formula_sum "Si O2"
_cell_formula_units_Z 40
_cell_length_a 9.080065
_cell_length_b 12.302754
_cell_length_c 16.929362
_cell_angle_alpha 90.000000
_cell_angle_beta 90.000000
_cell_angle_gamma 90.000000
_cell_volume 1891.175745
_symmetry_space_group_name_H-M "C C C 2"
_symmetry_group_IT_number 37
_symmetry_cell_setting 'orthorhombic'
loop_
_space_group_symop_operation_xyz
x,y,z
-x,-y,z
-x,y,1/2+z
x,-y,1/2+z
1/2+x,1/2+y,z
1/2-x,1/2-y,z
1/2-x,1/2+y,1/2+z
1/2+x,1/2-y,1/2+z
loop_
_atom_site_type_symbol
_atom_site_label
_atom_site_fract_x
_atom_site_fract_y
_atom_site_fract_z
Si Si1 0.000000 0.000000 0.831010
Si Si2 0.230505 0.132402 0.935036
Si Si3 0.501487 0.630947 0.067751
Si Si4 0.521248 0.884038 0.362751
Si Si5 0.250000 0.250000 0.464384
Si Si6 0.582109 0.710041 0.235773
O O1 0.876326 0.944233 0.885230
O O2 0.073991 0.906427 0.779006
O O3 0.250000 0.250000 0.895862
O O4 0.398367 0.097167 0.931339
O O5 0.150163 0.149266 0.017534
O O6 0.500000 0.500000 0.078853
O O7 0.509313 0.692094 0.150782
O O8 0.367386 0.680852 0.015965
O O9 0.662139 0.835345 0.408908
O O10 0.502628 0.795595 0.293348
O O11 0.500000 0.000000 0.320557
O O12 0.750000 0.750000 0.226479
#
# Coordination Sequence:
#
# PCOD9355697 Si02
#       6
#     4   8   8   8   4   8
#     4  12  24  46  74 108 144 190 248 304 358 434
#     4  12  23  43  78 104 140 191 245 291 362 439
#     4  12  26  48  74 105 152 190 237 306 370 430
#     4  12  26  47  77 109 142 191 255 303 360 438
#     4  12  26  50  72 112 144 190 252 308 356 440
#     4  12  26  47  72 106 152 191 239 308 370 424
#
# _framework density 21.150863999999999
#
# number of rings (size 3 to 8) (size 9 to 14) (size 15 to 20)
#    0.000    0.000    7.000    3.000    0.000    1.600 
#    3.600    0.000    0.000    0.000    0.000    0.000 
#    0.000    0.000    0.000    0.000    0.000    0.000 
#
# Total GULP energy -111621.397398 kJ/mol
# GULP energy per Si atom -5581.069870 kJ/mol
# Density = 2.110272 g / cm^3
# Si number density = 21.150864 Si / 1000 Ang^3
#
#
#
# Elastic Constant Matrix: (Units=GPa)
#
#
# Indices 1 2 3 4 5 6 
#
# 1 115.5176 59.3913 59.3836 0.0000 0.0000 0.0000
# 2 59.3913 177.9969 66.4010 0.0000 0.0000 0.0000
# 3 59.3836 66.4010 155.6107 0.0000 0.0000 0.0000
# 4 0.0000 0.0000 0.0000 29.3780 0.0000 0.0000
# 5 0.0000 0.0000 0.0000 0.0000 20.0990 0.0000
# 6 0.0000 0.0000 0.0000 0.0000 0.0000 44.6550
#
#
#
# Elastic Compliance Matrix: (Units=1/GPa)
#
#
# Indices 1 2 3 4 5 6 
#
# 1 0.011750 -0.002673 -0.003343 0.000000 0.000000 0.000000
# 2 -0.002673 0.007290 -0.002091 0.000000 0.000000 0.000000
# 3 -0.003343 -0.002091 0.008594 0.000000 0.000000 0.000000
# 4 0.000000 0.000000 0.000000 0.034039 0.000000 0.000000
# 5 0.000000 0.000000 0.000000 0.000000 0.049754 0.000000
# 6 0.000000 0.000000 0.000000 0.000000 0.000000 0.022394
#
#
# Mechanical properties :
#
#
# Convention : Reuss Voigt Hill
#
# Bulk Modulus (GPa) = 87.56706 91.05300 89.31003
# Shear Modulus (GPa) = 32.50106 36.42302 34.46204
#
# Velocity S-wave (km/s) = 3.92424 4.15427 4.04089
# Velocity P-wave (km/s) = 7.87553 8.13347 8.00554
#
# Compressibility (1/GPa) = 0.01141982
#
# Stress axis : x y z
#
# Youngs Moduli (GPa) = 85.10834 137.17554 116.35826
#
# Poissons Ratio (x) = 0.36671 0.38900
# Poissons Ratio (y) = 0.22752 0.24325
# Poissons Ratio (z) = 0.28453 0.28677
#
# Static dielectric constant tensor:
#      x y z
#    x 1.917290 0.000000 0.000000 
#    y 0.000000 1.661270 0.000000 
#    z 0.000000 0.000000 1.730230 
# 
# From -- ./inp_files/14271.got.cif
#   From: 2010.05.17/outbox.cif.g08.bks.cpg/sg37_8_cif.got.tgz:14271.got - 2010.06.03 17:53:42.
