data_PCOD9355821
_publ_section_title
;
Structure prediction by ZEFSAII (Michael W. Deem and Ramdas Pophale) SiO2 
 PCOD9355821
Probable space group: A M M 2
;
_chemical_formula_sum "Si O2"
_cell_formula_units_Z 48
_cell_length_a 7.966259
_cell_length_b 17.187572
_cell_length_c 18.948568
_cell_angle_alpha 90.000000
_cell_angle_beta 90.000000
_cell_angle_gamma 90.000000
_cell_volume 2594.450250
_symmetry_space_group_name_H-M "A M M 2"
_symmetry_group_IT_number 38
_symmetry_cell_setting 'orthorhombic'
loop_
_space_group_symop_operation_xyz
x,y,z
-x,-y,z
-x,y,z
x,-y,z
x,1/2+y,1/2+z
-x,1/2-y,1/2+z
-x,1/2+y,1/2+z
x,1/2-y,1/2+z
loop_
_atom_site_type_symbol
_atom_site_label
_atom_site_fract_x
_atom_site_fract_y
_atom_site_fract_z
Si Si1 0.794247 0.329774 0.046420
Si Si2 0.201575 0.262408 0.407290
Si Si3 0.696146 0.500000 0.871445
Si Si4 0.804267 0.500000 0.030617
Si Si5 0.797664 0.820424 0.127828
Si Si6 0.699931 0.412779 0.488393
Si Si7 0.203840 0.846762 0.285775
O O1 0.731977 0.417543 0.055796
O O2 0.742056 0.265764 0.103668
O O3 0.000000 0.331790 0.045640
O O4 0.740837 0.294802 0.970624
O O5 0.248257 0.349296 0.430087
O O6 0.259390 0.226910 0.333175
O O7 0.000000 0.259110 0.407365
O O8 0.500000 0.500000 0.888736
O O9 0.740085 0.575843 0.825970
O O10 0.793718 0.500000 0.945481
O O11 0.000000 0.500000 0.051278
O O12 0.751346 0.878829 0.064771
O O13 0.735470 0.843046 0.205240
O O14 0.000000 0.818904 0.130431
O O15 0.500000 0.416442 0.487390
O O16 0.767918 0.500000 0.477824
O O17 0.000000 0.847220 0.284429
#
# Coordination Sequence:
#
# PCOD9355821 Si02
#       7
#     8   8   4   4   8   8   8
#     4   8  14  27  49  75  98 125 163 205 245 295
#     4   9  17  32  54  75  97 130 175 217 250 299
#     4  12  24  32  46  78 112 133 166 211 252 311
#     4  10  16  30  54  74 102 135 166 203 252 305
#     4   9  19  34  53  76 102 133 172 210 253 307
#     4  10  21  35  51  74 105 136 169 212 257 304
#     4  10  20  36  55  74 104 139 170 209 259 308
#
# _framework density 18.50103
#
# number of rings (size 3 to 8) (size 9 to 14) (size 15 to 20)
#    0.000    2.500    1.667    2.250    1.167    2.667 
#    0.000    0.000    1.833    0.000    0.000    0.000 
#    0.000    0.000    0.000    0.000    0.000    0.000 
#
# Total GULP energy -133819.875356 kJ/mol
# GULP energy per Si atom -5575.828140 kJ/mol
# Density = 1.845892 g / cm^3
# Si number density = 18.501030 Si / 1000 Ang^3
#
#
#
# Elastic Constant Matrix: (Units=GPa)
#
#
# Indices 1 2 3 4 5 6 
#
# 1 17.2007 0.8510 1.5763 0.0000 0.0000 0.0000
# 2 0.8510 158.1694 35.3178 0.0000 0.0000 0.0000
# 3 1.5763 35.3178 62.1887 0.0000 0.0000 0.0000
# 4 0.0000 0.0000 0.0000 17.4058 0.0000 0.0000
# 5 0.0000 0.0000 0.0000 0.0000 0.6994 0.0000
# 6 0.0000 0.0000 0.0000 0.0000 0.0000 94.1235
#
#
#
# Elastic Compliance Matrix: (Units=1/GPa)
#
#
# Indices 1 2 3 4 5 6 
#
# 1 0.058273 0.000019 -0.001488 0.000000 0.000000 0.000000
# 2 0.000019 0.007241 -0.004112 0.000000 0.000000 0.000000
# 3 -0.001488 -0.004112 0.018453 0.000000 0.000000 0.000000
# 4 0.000000 0.000000 0.000000 0.057452 0.000000 0.000000
# 5 0.000000 0.000000 0.000000 0.000000 1.429877 0.000000
# 6 0.000000 0.000000 0.000000 0.000000 0.000000 0.010624
#
#
# Mechanical properties :
#
#
# Convention : Reuss Voigt Hill
#
# Bulk Modulus (GPa) = 13.73558 34.78323 24.25940
# Shear Modulus (GPa) = 3.09147 35.76664 19.42906
#
# Velocity S-wave (km/s) = 1.29406 4.40161 3.24413
# Velocity P-wave (km/s) = 3.11017 6.68385 5.21282
#
# Compressibility (1/GPa) = 0.07280363
#
# Stress axis : x y z
#
# Youngs Moduli (GPa) = 17.16069 138.11178 54.19081
#
# Poissons Ratio (x) = -0.00258 0.08062
# Poissons Ratio (y) = -0.00032 0.22286
# Poissons Ratio (z) = 0.02553 0.56798
#
# Static dielectric constant tensor:
#      x y z
#    x 1.673910 0.000000 0.000000 
#    y 0.000000 1.660640 0.000000 
#    z 0.000000 0.000000 1.628260 
# 
# From -- ./inp_files/16676.got.cif
#   From: 2010.05.17/outbox.cif.g08.bks.cpg/sg38_9_cif.got.tgz:16676.got - 2010.06.03 18:07:57.
