data_PCOD9355478
_publ_section_title
;
Structure prediction by ZEFSAII (Michael W. Deem and Ramdas Pophale) SiO2 
 PCOD9355478
Probable space group: C C C 2
;
_chemical_formula_sum "Si O2"
_cell_formula_units_Z 40
_cell_length_a 11.339521
_cell_length_b 8.508992
_cell_length_c 16.879026
_cell_angle_alpha 90.000000
_cell_angle_beta 90.000000
_cell_angle_gamma 90.000000
_cell_volume 1628.621663
_symmetry_space_group_name_H-M "C C C 2"
_symmetry_group_IT_number 37
_symmetry_cell_setting 'orthorhombic'
loop_
_space_group_symop_operation_xyz
x,y,z
-x,-y,z
-x,y,1/2+z
x,-y,1/2+z
1/2+x,1/2+y,z
1/2-x,1/2-y,z
1/2-x,1/2+y,1/2+z
1/2+x,1/2-y,1/2+z
loop_
_atom_site_type_symbol
_atom_site_label
_atom_site_fract_x
_atom_site_fract_y
_atom_site_fract_z
Si Si1 0.079068 0.343667 0.445730
Si Si2 0.250000 0.750000 0.061737
Si Si3 0.473963 0.670064 0.165601
Si Si4 0.179065 0.094194 0.813275
Si Si5 0.000000 0.000000 0.442354
Si Si6 0.111580 0.615769 0.761983
O O1 0.196069 0.373018 0.498100
O O2 0.104565 0.319750 0.352211
O O3 0.000000 0.500000 0.452303
O O4 0.020305 0.178751 0.476052
O O5 0.361866 0.735559 0.119294
O O6 0.500000 0.500000 0.130168
O O7 0.423408 0.643694 0.253756
O O8 0.589656 0.771534 0.186569
O O9 0.250000 0.250000 0.836396
O O10 0.115885 0.022551 0.888484
O O11 0.267065 0.980322 0.765389
O O12 0.000000 0.500000 0.755233
#
# Coordination Sequence:
#
# PCOD9355478 Si02
#       6
#     8   4   8   8   4   8
#     4  11  25  47  73 107 149 197 250 313 378 453
#     4  12  28  48  72 102 158 202 246 314 384 462
#     4  12  25  45  69 107 146 195 250 309 376 459
#     4  12  21  41  73 109 150 190 250 320 372 446
#     4  12  24  44  78 114 148 198 262 316 380 456
#     4  11  21  43  76 109 145 191 251 313 375 437
#
# _framework density 24.560645999999998
#
# number of rings (size 3 to 8) (size 9 to 14) (size 15 to 20)
#    0.000    0.400    6.000    2.400    1.400    4.800 
#    0.000    0.000    4.400    0.000    0.000    0.000 
#    0.000    0.000    0.000    0.000    0.000    0.000 
#
# Total GULP energy -111635.458438 kJ/mol
# GULP energy per Si atom -5581.772922 kJ/mol
# Density = 2.450474 g / cm^3
# Si number density = 24.560646 Si / 1000 Ang^3
#
#
#
# Elastic Constant Matrix: (Units=GPa)
#
#
# Indices 1 2 3 4 5 6 
#
# 1 102.3640 40.5076 18.8342 0.0000 0.0000 0.0000
# 2 40.5076 134.2683 27.1325 0.0000 0.0000 0.0000
# 3 18.8342 27.1325 67.0094 0.0000 0.0000 0.0000
# 4 0.0000 0.0000 0.0000 13.0922 0.0000 0.0000
# 5 0.0000 0.0000 0.0000 0.0000 24.7027 0.0000
# 6 0.0000 0.0000 0.0000 0.0000 0.0000 53.2438
#
#
#
# Elastic Compliance Matrix: (Units=1/GPa)
#
#
# Indices 1 2 3 4 5 6 
#
# 1 0.011325 -0.003021 -0.001960 0.000000 0.000000 0.000000
# 2 -0.003021 0.008917 -0.002762 0.000000 0.000000 0.000000
# 3 -0.001960 -0.002762 0.016592 0.000000 0.000000 0.000000
# 4 0.000000 0.000000 0.000000 0.076381 0.000000 0.000000
# 5 0.000000 0.000000 0.000000 0.000000 0.040481 0.000000
# 6 0.000000 0.000000 0.000000 0.000000 0.000000 0.018782
#
#
# Mechanical properties :
#
#
# Convention : Reuss Voigt Hill
#
# Bulk Modulus (GPa) = 46.83832 52.95448 49.89640
# Shear Modulus (GPa) = 25.63053 32.68557 29.15805
#
# Velocity S-wave (km/s) = 3.23392 3.65199 3.44929
# Velocity P-wave (km/s) = 5.74945 6.27616 6.01857
#
# Compressibility (1/GPa) = 0.02135004
#
# Stress axis : x y z
#
# Youngs Moduli (GPa) = 88.30019 112.14385 60.26863
#
# Poissons Ratio (x) = 0.33874 0.11813
# Poissons Ratio (y) = 0.26672 0.16644
# Poissons Ratio (z) = 0.17307 0.30970
#
# Static dielectric constant tensor:
#      x y z
#    x 1.944540 0.000000 0.000000 
#    y 0.000000 2.284820 0.000000 
#    z 0.000000 0.000000 1.943970 
# 
# From -- ./inp_files/14272.got.cif
#   From: 2010.05.17/outbox.cif.g08.bks.cpg/sg37_8_cif.got.tgz:14272.got - 2010.06.03 17:53:42.
