data_PCOD9355032
_publ_section_title
;
Structure prediction by ZEFSAII (Michael W. Deem and Ramdas Pophale) SiO2 
 PCOD9355032
Probable space group: C C C 2
;
_chemical_formula_sum "Si O2"
_cell_formula_units_Z 24
_cell_length_a 5.611002
_cell_length_b 12.925245
_cell_length_c 13.795340
_cell_angle_alpha 90.000000
_cell_angle_beta 90.000000
_cell_angle_gamma 90.000000
_cell_volume 1000.487383
_symmetry_space_group_name_H-M "C C C 2"
_symmetry_group_IT_number 37
_symmetry_cell_setting 'orthorhombic'
loop_
_space_group_symop_operation_xyz
x,y,z
-x,-y,z
-x,y,1/2+z
x,-y,1/2+z
1/2+x,1/2+y,z
1/2-x,1/2-y,z
1/2-x,1/2+y,1/2+z
1/2+x,1/2-y,1/2+z
loop_
_atom_site_type_symbol
_atom_site_label
_atom_site_fract_x
_atom_site_fract_y
_atom_site_fract_z
Si Si1 0.868045 0.360517 0.054020
Si Si2 0.750000 0.750000 0.175087
Si Si3 0.000000 0.500000 0.385969
Si Si4 0.359705 0.600750 0.251967
O O1 0.750000 0.250000 0.033327
O O2 0.732475 0.412098 0.143179
O O3 0.125209 0.332696 0.102405
O O4 0.848846 0.432274 0.961462
O O5 0.541635 0.697255 0.240303
O O6 0.866909 0.412502 0.322123
O O7 0.500000 0.500000 0.282473
#
# Coordination Sequence:
#
# PCOD9355032 Si02
#       4
#     8   4   4   8
#     4  10  24  48  71 101 145 194 239 298 368 435
#     4  10  22  48  70  98 146 200 236 300 372 434
#     4  12  24  44  72 114 142 188 250 304 362 440
#     4  11  24  45  72 102 144 194 239 303 367 436
#
# _framework density 23.988309999999998
#
# number of rings (size 3 to 8) (size 9 to 14) (size 15 to 20)
#    0.000    1.333    0.000    5.000    0.000    6.667 
#   39.000    0.000    0.000    0.000    0.000    0.000 
#    0.000    0.000    0.000    0.000    0.000    0.000 
#
# Total GULP energy -66980.179704 kJ/mol
# GULP energy per Si atom -5581.681642 kJ/mol
# Density = 2.393371 g / cm^3
# Si number density = 23.988310 Si / 1000 Ang^3
#
#
#
# Elastic Constant Matrix: (Units=GPa)
#
#
# Indices 1 2 3 4 5 6 
#
# 1 94.3255 27.8580 55.2394 0.0000 0.0000 0.0000
# 2 27.8580 98.0720 63.4029 0.0000 0.0000 0.0000
# 3 55.2394 63.4029 153.5677 0.0000 0.0000 0.0000
# 4 0.0000 0.0000 0.0000 14.8873 0.0000 0.0000
# 5 0.0000 0.0000 0.0000 0.0000 -16.0752 0.0000
# 6 0.0000 0.0000 0.0000 0.0000 0.0000 25.1846
#
#
#
# Elastic Compliance Matrix: (Units=1/GPa)
#
#
# Indices 1 2 3 4 5 6 
#
# 1 0.013495 -0.000948 -0.004463 0.000000 0.000000 0.000000
# 2 -0.000948 0.013976 -0.005429 0.000000 0.000000 0.000000
# 3 -0.004463 -0.005429 0.010359 0.000000 0.000000 0.000000
# 4 0.000000 0.000000 0.000000 0.067171 0.000000 0.000000
# 5 0.000000 0.000000 0.000000 0.000000 -0.062208 0.000000
# 6 0.000000 0.000000 0.000000 0.000000 0.000000 0.039707
#
#
# Mechanical properties :
#
#
# Convention : Reuss Voigt Hill
#
# Bulk Modulus (GPa) = 61.92198 70.99620 66.45909
# Shear Modulus (GPa) = 45.63584 18.09702 31.86643
#
# Velocity S-wave (km/s) = 4.36641 2.74963 3.64870
# Velocity P-wave (km/s) = 7.16171 6.30405 6.74652
#
# Compressibility (1/GPa) = 0.01614935
#
# Stress axis : x y z
#
# Youngs Moduli (GPa) = 74.10056 71.55240 96.53844
#
# Poissons Ratio (x) = 0.06785 0.43083
# Poissons Ratio (y) = 0.07026 0.52411
# Poissons Ratio (z) = 0.33070 0.38846
#
# Static dielectric constant tensor:
#      x y z
#    x 2.222460 0.000000 0.000000 
#    y 0.000000 1.957890 0.000000 
#    z 0.000000 0.000000 1.825300 
# 
# From -- ./inp_files/5142.got.cif
#   From: 2010.05.17/outbox.cif.g08.bks.cpg/sg37_3_cif.got.tgz:5142.got - 2010.06.03 17:53:42.
