data_PCOD9355703
_publ_section_title
;
Structure prediction by ZEFSAII (Michael W. Deem and Ramdas Pophale) SiO2 
 PCOD9355703
Probable space group: C C C 2
;
_chemical_formula_sum "Si O2"
_cell_formula_units_Z 32
_cell_length_a 8.530040
_cell_length_b 4.974028
_cell_length_c 19.383273
_cell_angle_alpha 90.000000
_cell_angle_beta 90.000000
_cell_angle_gamma 90.000000
_cell_volume 822.406257
_symmetry_space_group_name_H-M "C C C 2"
_symmetry_group_IT_number 37
_symmetry_cell_setting 'orthorhombic'
loop_
_space_group_symop_operation_xyz
x,y,z
-x,-y,z
-x,y,1/2+z
x,-y,1/2+z
1/2+x,1/2+y,z
1/2-x,1/2-y,z
1/2-x,1/2+y,1/2+z
1/2+x,1/2-y,1/2+z
loop_
_atom_site_type_symbol
_atom_site_label
_atom_site_fract_x
_atom_site_fract_y
_atom_site_fract_z
Si Si1 0.500000 0.500000 0.712680
Si Si2 0.250000 0.750000 0.318388
Si Si3 0.000000 0.500000 0.653111
Si Si4 0.000000 0.500000 0.407118
Si Si5 0.500000 0.500000 0.969858
Si Si6 0.750000 0.250000 0.529793
Si Si7 0.750000 0.750000 0.590331
Si Si8 0.750000 0.250000 0.778590
O O1 0.603710 0.687900 0.654649
O O2 0.605152 0.176967 0.716854
O O3 0.355572 0.543082 0.274213
O O4 0.142141 0.518793 0.339224
O O5 0.145524 0.562324 0.593146
O O6 0.084477 0.182520 0.410584
O O7 0.385956 0.175495 0.968559
O O8 0.643564 0.560173 0.532446
#
# Coordination Sequence:
#
# PCOD9355703 Si02
#       8
#     4   4   4   4   4   4   4   4
#     4  12  24  42  66  98 136 182 234 294 358 430
#     4  12  25  45  70 102 139 186 237 298 364 437
#     4  12  24  42  66  98 136 182 234 294 358 430
#     4  12  26  46  72 104 142 186 240 302 368 442
#     4  12  26  46  72 104 142 186 240 302 368 442
#     4  12  25  45  70 102 139 186 237 298 364 437
#     4  12  24  43  67  98 137 182 235 294 359 433
#     4  12  24  43  67  98 137 182 235 294 359 433
#
# _framework density 38.910209000000002
#
# number of rings (size 3 to 8) (size 9 to 14) (size 15 to 20)
#    0.000    0.000    0.000   11.250    0.000    2.000 
#    0.000    0.000    0.000    0.000    0.000    0.000 
#    0.000    0.000    0.000    0.000    0.000    0.000 
#
# Total GULP energy -89300.601958 kJ/mol
# GULP energy per Si atom -5581.287622 kJ/mol
# Density = 3.882165 g / cm^3
# Si number density = 38.910209 Si / 1000 Ang^3
#
#
#
# Elastic Constant Matrix: (Units=GPa)
#
#
# Indices 1 2 3 4 5 6 
#
# 1 522.8224 179.9203 139.2475 0.0000 0.0000 0.0000
# 2 179.9203 486.1233 187.6077 0.0000 0.0000 0.0000
# 3 139.2475 187.6077 392.1749 0.0000 0.0000 0.0000
# 4 0.0000 0.0000 0.0000 177.9100 0.0000 0.0000
# 5 0.0000 0.0000 0.0000 0.0000 178.0733 0.0000
# 6 0.0000 0.0000 0.0000 0.0000 0.0000 130.3893
#
#
#
# Elastic Compliance Matrix: (Units=1/GPa)
#
#
# Indices 1 2 3 4 5 6 
#
# 1 0.002268 -0.000648 -0.000495 0.000000 0.000000 0.000000
# 2 -0.000648 0.002708 -0.001065 0.000000 0.000000 0.000000
# 3 -0.000495 -0.001065 0.003235 0.000000 0.000000 0.000000
# 4 0.000000 0.000000 0.000000 0.005621 0.000000 0.000000
# 5 0.000000 0.000000 0.000000 0.000000 0.005616 0.000000
# 6 0.000000 0.000000 0.000000 0.000000 0.000000 0.007669
#
#
# Mechanical properties :
#
#
# Convention : Reuss Voigt Hill
#
# Bulk Modulus (GPa) = 263.58763 268.29683 265.94223
# Shear Modulus (GPa) = 152.44465 156.89753 154.67109
#
# Velocity S-wave (km/s) = 6.26607 6.35693 6.31166
# Velocity P-wave (km/s) = 10.96545 11.08978 11.02779
#
# Compressibility (1/GPa) = 0.00379380
#
# Stress axis : x y z
#
# Youngs Moduli (GPa) = 440.99060 369.25492 309.08981
#
# Poissons Ratio (x) = 0.23936 0.15302
# Poissons Ratio (y) = 0.28586 0.32929
# Poissons Ratio (z) = 0.21832 0.39339
#
# Static dielectric constant tensor:
#      x y z
#    x 2.180260 0.000000 0.000000 
#    y 0.000000 3.272890 0.000000 
#    z 0.000000 0.000000 3.628210 
# 
# From -- ./inp_files/15476.got.cif
#   From: 2010.05.17/outbox.cif.g08.bks.cpg/sg37_8_cif.got.tgz:15476.got - 2010.06.03 17:53:42.
