data_PCOD9355561
_publ_section_title
;
Structure prediction by ZEFSAII (Michael W. Deem and Ramdas Pophale) SiO2 
 PCOD9355561
Probable space group: C C C 2
;
_chemical_formula_sum "Si O2"
_cell_formula_units_Z 32
_cell_length_a 8.745337
_cell_length_b 13.210169
_cell_length_c 13.678179
_cell_angle_alpha 90.000000
_cell_angle_beta 90.000000
_cell_angle_gamma 90.000000
_cell_volume 1580.204179
_symmetry_space_group_name_H-M "C C C 2"
_symmetry_group_IT_number 37
_symmetry_cell_setting 'orthorhombic'
loop_
_space_group_symop_operation_xyz
x,y,z
-x,-y,z
-x,y,1/2+z
x,-y,1/2+z
1/2+x,1/2+y,z
1/2-x,1/2-y,z
1/2-x,1/2+y,1/2+z
1/2+x,1/2-y,1/2+z
loop_
_atom_site_type_symbol
_atom_site_label
_atom_site_fract_x
_atom_site_fract_y
_atom_site_fract_z
Si Si1 0.338849 0.056987 0.215090
Si Si2 0.917800 0.729856 0.056513
Si Si3 0.379378 0.579445 0.091478
Si Si4 0.615798 0.903928 0.431737
O O1 0.372946 0.145150 0.137047
O O2 0.206159 0.979034 0.180796
O O3 0.314372 0.099075 0.323817
O O4 0.500000 0.000000 0.219246
O O5 0.750000 0.750000 0.015031
O O6 0.020088 0.818762 0.106162
O O7 0.016002 0.690649 0.965645
O O8 0.500000 0.500000 0.049971
O O9 0.246755 0.592640 0.012828
O O10 0.500000 0.000000 0.439979
#
# Coordination Sequence:
#
# PCOD9355561 Si02
#       4
#     8   8   8   8
#     4  11  24  45  69  99 139 178 228 285 339 411
#     4  12  23  44  70  98 138 180 227 282 344 407
#     4  12  23  44  71  95 136 182 218 281 343 402
#     4  11  23  45  69  98 135 174 226 285 342 408
#
# _framework density 20.250547000000001
#
# number of rings (size 3 to 8) (size 9 to 14) (size 15 to 20)
#    0.000    0.500    7.500    0.750    0.000    3.000 
#   13.500    0.000    0.000    0.000    0.000    0.000 
#    0.000    0.000    0.000    0.000    0.000    0.000 
#
# Total GULP energy -89215.269821 kJ/mol
# GULP energy per Si atom -5575.954364 kJ/mol
# Density = 2.020446 g / cm^3
# Si number density = 20.250547 Si / 1000 Ang^3
#
#
#
# Elastic Constant Matrix: (Units=GPa)
#
#
# Indices 1 2 3 4 5 6 
#
# 1 137.1193 34.5506 43.8951 0.0000 0.0000 0.0000
# 2 34.5506 87.2684 32.1276 0.0000 0.0000 0.0000
# 3 43.8951 32.1276 113.7237 0.0000 0.0000 0.0000
# 4 0.0000 0.0000 0.0000 6.8542 0.0000 0.0000
# 5 0.0000 0.0000 0.0000 0.0000 -97.1428 0.0000
# 6 0.0000 0.0000 0.0000 0.0000 0.0000 56.3619
#
#
#
# Elastic Compliance Matrix: (Units=1/GPa)
#
#
# Indices 1 2 3 4 5 6 
#
# 1 0.008779 -0.002487 -0.002686 0.000000 0.000000 0.000000
# 2 -0.002487 0.013494 -0.002852 0.000000 0.000000 0.000000
# 3 -0.002686 -0.002852 0.010636 0.000000 0.000000 0.000000
# 4 0.000000 0.000000 0.000000 0.145896 0.000000 0.000000
# 5 0.000000 0.000000 0.000000 0.000000 -0.010294 0.000000
# 6 0.000000 0.000000 0.000000 0.000000 0.000000 0.017742
#
#
# Mechanical properties :
#
#
# Convention : Reuss Voigt Hill
#
# Bulk Modulus (GPa) = 59.31769 62.13978 60.72873
# Shear Modulus (GPa) = 24.04739 8.38387 16.21563
#
# Velocity S-wave (km/s) = 3.44974 2.03692 2.83282
# Velocity P-wave (km/s) = 6.72481 6.02363 6.38386
#
# Compressibility (1/GPa) = 0.01685838
#
# Stress axis : x y z
#
# Youngs Moduli (GPa) = 113.90209 74.10971 94.02258
#
# Poissons Ratio (x) = 0.18431 0.25255
# Poissons Ratio (y) = 0.28328 0.26816
# Poissons Ratio (z) = 0.30595 0.21136
#
# Static dielectric constant tensor:
#      x y z
#    x 1.808100 0.000000 0.000000 
#    y 0.000000 1.822640 0.000000 
#    z 0.000000 0.000000 1.738520 
# 
# From -- ./inp_files/10153.got.cif
#   From: 2010.05.17/outbox.cif.g08.bks.cpg/sg37_6_cif.got.tgz:10153.got - 2010.06.03 17:53:42.
