data_PCOD9355761
_publ_section_title
;
Structure prediction by ZEFSAII (Michael W. Deem and Ramdas Pophale) SiO2 
 PCOD9355761
Probable space group: C C C 2
;
_chemical_formula_sum "Si O2"
_cell_formula_units_Z 22
_cell_length_a 18.000000
_cell_length_b 15.000000
_cell_length_c 9.000000
_cell_angle_alpha 90.000000
_cell_angle_beta 90.000000
_cell_angle_gamma 90.000000
_cell_volume 2430.000000
_symmetry_space_group_name_H-M "C C C 2"
_symmetry_group_IT_number 37
_symmetry_cell_setting 'orthorhombic'
loop_
_space_group_symop_operation_xyz
x,y,z
-x,-y,z
-x,y,1/2+z
x,-y,1/2+z
1/2+x,1/2+y,z
1/2-x,1/2-y,z
1/2-x,1/2+y,1/2+z
1/2+x,1/2-y,1/2+z
loop_
_atom_site_type_symbol
_atom_site_label
_atom_site_fract_x
_atom_site_fract_y
_atom_site_fract_z
Si Si1 0.439215 0.157337 0.455070
Si Si2 0.284245 0.880202 0.493727
Si Si3 0.618998 0.302019 0.477652
Si Si4 0.487161 0.725548 0.207041
Si Si5 0.844424 0.467977 0.788642
Si Si6 0.500000 0.000000 0.631469
O O1 0.474707 0.198182 0.307629
O O2 0.435022 0.233636 0.578628
O O3 0.364310 0.106634 0.412073
O O4 0.494801 0.085483 0.525962
O O5 0.343354 0.797652 0.479056
O O6 0.196311 0.856888 0.486102
O O7 0.300805 0.924900 0.652639
O O8 0.304268 0.950027 0.365384
O O9 0.568392 0.319179 0.329176
O O10 0.558767 0.313677 0.613937
O O11 0.925059 0.497597 0.726297
#
# Coordination Sequence:
#
# PCOD9355761 Si02
#       6
#     8   8   8   8   8   4
#     4  11  19  28  52  89 115 149 186 236 288 351
#     4  11  24  38  58  87 133 153 186 248 308 358
#     4  10  22  42  60  85 119 164 197 241 298 349
#     4  10  20  36  60  84 113 158 204 237 278 357
#     4  12  22  33  55  89 124 158 190 235 302 361
#     4  12  20  26  52  86 126 146 180 222 286 376
#
# _framework density 9.0534979999999994
#
# number of rings (size 3 to 8) (size 9 to 14) (size 15 to 20)
#    0.000    1.091    5.455    2.727    2.545    0.000 
#    0.000    3.636    4.000    3.273    0.000    0.000 
#    0.000    0.000    0.000    0.000    0.000    0.000 
#
# Total GULP energy -122600.098008 kJ/mol
# GULP energy per Si atom -5572.731728 kJ/mol
# Density = 0.903289 g / cm^3
# Si number density = 9.053498 Si / 1000 Ang^3
#
#
#
# Elastic Constant Matrix: (Units=GPa)
#
#
# Indices 1 2 3 4 5 6 
#
# 1 155.6869 45.5650 65.1128 0.0000 0.0000 0.0000
# 2 45.5650 42.3501 36.6666 0.0000 0.0000 0.0000
# 3 65.1128 36.6666 128.4040 0.0000 0.0000 0.0000
# 4 0.0000 0.0000 0.0000 12.7577 0.0000 0.0000
# 5 0.0000 0.0000 0.0000 0.0000 32.3538 0.0000
# 6 0.0000 0.0000 0.0000 0.0000 0.0000 35.5448
#
#
#
# Elastic Compliance Matrix: (Units=1/GPa)
#
#
# Indices 1 2 3 4 5 6 
#
# 1 0.010015 -0.008473 -0.002659 0.000000 0.000000 0.000000
# 2 -0.008473 0.038537 -0.006708 0.000000 0.000000 0.000000
# 3 -0.002659 -0.006708 0.011052 0.000000 0.000000 0.000000
# 4 0.000000 0.000000 0.000000 0.078384 0.000000 0.000000
# 5 0.000000 0.000000 0.000000 0.000000 0.030908 0.000000
# 6 0.000000 0.000000 0.000000 0.000000 0.000000 0.028134
#
#
# Mechanical properties :
#
#
# Convention : Reuss Voigt Hill
#
# Bulk Modulus (GPa) = 41.79964 69.01443 55.40703
# Shear Modulus (GPa) = 20.77415 28.07103 24.42259
#
# Velocity S-wave (km/s) = 3.39086 3.94164 3.67658
# Velocity P-wave (km/s) = 6.20205 7.67547 6.97776
#
# Compressibility (1/GPa) = 0.02392365
#
# Stress axis : x y z
#
# Youngs Moduli (GPa) = 99.84944 25.94934 90.48384
#
# Poissons Ratio (x) = 0.21987 0.24060
# Poissons Ratio (y) = 0.84604 0.60694
# Poissons Ratio (z) = 0.26550 0.17406
#
# Static dielectric constant tensor:
#      x y z
#    x 1.606880 0.000000 0.000000 
#    y 0.000000 1.681660 0.000000 
#    z 0.000000 0.000000 1.670420 
# 
# From -- ./inp_files/3433.got.cif
#   From: 2010.05.17/outbox.ucp.g08.bks.cvg/sg37_2_cif.got.tgz:3433.got - 2010.06.11 10:38:43.
