data_PCOD9355362
_publ_section_title
;
Structure prediction by ZEFSAII (Michael W. Deem and Ramdas Pophale) SiO2 
 PCOD9355362
Probable space group: C C C 2
;
_chemical_formula_sum "Si O2"
_cell_formula_units_Z 36
_cell_length_a 11.977766
_cell_length_b 15.142550
_cell_length_c 9.162184
_cell_angle_alpha 90.000000
_cell_angle_beta 90.000000
_cell_angle_gamma 90.000000
_cell_volume 1661.781233
_symmetry_space_group_name_H-M "C C C 2"
_symmetry_group_IT_number 37
_symmetry_cell_setting 'orthorhombic'
loop_
_space_group_symop_operation_xyz
x,y,z
-x,-y,z
-x,y,1/2+z
x,-y,1/2+z
1/2+x,1/2+y,z
1/2-x,1/2-y,z
1/2-x,1/2+y,1/2+z
1/2+x,1/2-y,1/2+z
loop_
_atom_site_type_symbol
_atom_site_label
_atom_site_fract_x
_atom_site_fract_y
_atom_site_fract_z
Si Si1 0.162052 0.026886 0.805050
Si Si2 0.350880 0.681072 0.805053
Si Si3 0.000011 0.739501 0.555034
Si Si4 0.156992 0.327708 0.805026
Si Si5 0.000000 0.000000 0.055058
O O1 0.273962 0.082211 0.805030
O O2 0.182046 0.921556 0.805040
O O3 0.084706 0.048262 0.665709
O O4 0.084727 0.048246 0.944416
O O5 0.250000 0.750000 0.805098
O O6 0.423742 0.703283 0.663001
O O7 0.423787 0.703259 0.947075
O O8 0.080073 0.683686 0.447888
O O9 0.919928 0.683694 0.662166
O O10 0.250000 0.250000 0.805029
#
# Coordination Sequence:
#
# PCOD9355362 Si02
#       5
#     8   8   8   8   4
#     4  11  26  43  72 104 137 177 231 290 346 400
#     4  11  24  44  71  98 133 183 225 283 337 415
#     4  10  25  46  68 105 144 176 229 288 350 407
#     4  11  26  45  72 104 141 186 228 286 348 418
#     4  10  26  42  72 110 132 168 242 298 336 410
#
# _framework density 21.663501
#
# number of rings (size 3 to 8) (size 9 to 14) (size 15 to 20)
#    0.000    1.333    0.000    2.667   24.889    0.000 
#    0.000    6.667    0.000    0.000    0.000    0.000 
#    0.000    0.000    0.000    0.000    0.000    0.000 
#
# Total GULP energy -100784.272047 kJ/mol
# GULP energy per Si atom -5599.126225 kJ/mol
# Density = 2.161419 g / cm^3
# Si number density = 21.663501 Si / 1000 Ang^3
#
#
#
# Elastic Constant Matrix: (Units=GPa)
#
#
# Indices 1 2 3 4 5 6 
#
# 1 173.1110 123.6141 99.7766 0.0000 0.0000 0.0000
# 2 123.6141 188.7306 79.4103 0.0000 0.0000 0.0000
# 3 99.7766 79.4103 214.9131 0.0000 0.0000 0.0000
# 4 0.0000 0.0000 0.0000 9.5388 0.0000 0.0000
# 5 0.0000 0.0000 0.0000 0.0000 -18.4612 0.0000
# 6 0.0000 0.0000 0.0000 0.0000 0.0000 58.9312
#
#
#
# Elastic Compliance Matrix: (Units=1/GPa)
#
#
# Indices 1 2 3 4 5 6 
#
# 1 0.012567 -0.006839 -0.003307 0.000000 0.000000 0.000000
# 2 -0.006839 0.009996 -0.000518 0.000000 0.000000 0.000000
# 3 -0.003307 -0.000518 0.006380 0.000000 0.000000 0.000000
# 4 0.000000 0.000000 0.000000 0.104835 0.000000 0.000000
# 5 0.000000 0.000000 0.000000 0.000000 -0.054168 0.000000
# 6 0.000000 0.000000 0.000000 0.000000 0.000000 0.016969
#
#
# Mechanical properties :
#
#
# Convention : Reuss Voigt Hill
#
# Bulk Modulus (GPa) = 131.35022 131.37294 131.36158
# Shear Modulus (GPa) = 41.51247 28.26536 34.88891
#
# Velocity S-wave (km/s) = 4.38224 3.61604 4.01745
# Velocity P-wave (km/s) = 9.29349 8.84356 9.07132
#
# Compressibility (1/GPa) = 0.00761323
#
# Stress axis : x y z
#
# Youngs Moduli (GPa) = 79.57664 100.03770 156.74130
#
# Poissons Ratio (x) = 0.68419 0.51836
# Poissons Ratio (y) = 0.54425 0.08125
# Poissons Ratio (z) = 0.26317 0.05186
#
# Static dielectric constant tensor:
#      x y z
#    x 1.766170 0.000000 0.000000 
#    y 0.000000 1.847190 0.000000 
#    z 0.000000 0.000000 2.044420 
# 
# From -- ./inp_files/3291.got.cif
#   From: 2010.05.17/outbox.cif.g08.bks.cpg/sg37_2_cif.got.tgz:3291.got - 2010.06.03 17:53:42.
