data_PCOD9355344
_publ_section_title
;
Structure prediction by ZEFSAII (Michael W. Deem and Ramdas Pophale) SiO2 
 PCOD9355344
Probable space group: C C C 2
;
_chemical_formula_sum "Si O2"
_cell_formula_units_Z 28
_cell_length_a 5.309793
_cell_length_b 22.876057
_cell_length_c 8.301740
_cell_angle_alpha 90.000000
_cell_angle_beta 90.000000
_cell_angle_gamma 90.000000
_cell_volume 1008.388510
_symmetry_space_group_name_H-M "C C C 2"
_symmetry_group_IT_number 37
_symmetry_cell_setting 'orthorhombic'
loop_
_space_group_symop_operation_xyz
x,y,z
-x,-y,z
-x,y,1/2+z
x,-y,1/2+z
1/2+x,1/2+y,z
1/2-x,1/2-y,z
1/2-x,1/2+y,1/2+z
1/2+x,1/2-y,1/2+z
loop_
_atom_site_type_symbol
_atom_site_label
_atom_site_fract_x
_atom_site_fract_y
_atom_site_fract_z
Si Si1 0.000000 0.000000 0.487270
Si Si2 0.886489 0.820842 0.629353
Si Si3 0.750000 0.750000 0.921372
Si Si4 0.000000 0.500000 0.197181
Si Si5 0.759626 0.896064 0.338225
O O1 0.019353 0.057862 0.381577
O O2 0.250960 0.001248 0.590929
O O3 0.738510 0.803052 0.791680
O O4 0.732415 0.857370 0.498416
O O5 0.129158 0.857042 0.694643
O O6 0.515459 0.733684 0.034405
O O7 0.966074 0.560477 0.294284
#
# Coordination Sequence:
#
# PCOD9355344 Si02
#       5
#     4   8   4   4   8
#     4  12  26  50  76 124 174 222 280 352 420 550
#     4  10  24  52  82 117 173 217 291 365 440 506
#     4  10  24  50  80 114 160 218 294 366 424 516
#     4  12  26  50  80 122 174 222 284 352 418 548
#     4  11  24  50  80 116 176 226 280 352 447 513
#
# _framework density 27.767077
#
# number of rings (size 3 to 8) (size 9 to 14) (size 15 to 20)
#    0.000    1.143    2.857    1.714    0.000    4.571 
#   15.429    0.000    0.000    0.000    0.000    0.000 
#    0.000    0.000    0.000    0.000    0.000    0.000 
#
# Total GULP energy -78519.613461 kJ/mol
# GULP energy per Si atom -5608.543819 kJ/mol
# Density = 2.770388 g / cm^3
# Si number density = 27.767077 Si / 1000 Ang^3
#
#
#
# Elastic Constant Matrix: (Units=GPa)
#
#
# Indices 1 2 3 4 5 6 
#
# 1 180.0427 51.1194 79.7404 0.0000 0.0000 0.0000
# 2 51.1194 147.1597 52.6943 0.0000 0.0000 0.0000
# 3 79.7404 52.6943 151.0544 0.0000 0.0000 0.0000
# 4 0.0000 0.0000 0.0000 74.3813 0.0000 0.0000
# 5 0.0000 0.0000 0.0000 0.0000 69.7890 0.0000
# 6 0.0000 0.0000 0.0000 0.0000 0.0000 58.7033
#
#
#
# Elastic Compliance Matrix: (Units=1/GPa)
#
#
# Indices 1 2 3 4 5 6 
#
# 1 0.007478 -0.001353 -0.003475 0.000000 0.000000 0.000000
# 2 -0.001353 0.008010 -0.002080 0.000000 0.000000 0.000000
# 3 -0.003475 -0.002080 0.009180 0.000000 0.000000 0.000000
# 4 0.000000 0.000000 0.000000 0.013444 0.000000 0.000000
# 5 0.000000 0.000000 0.000000 0.000000 0.014329 0.000000
# 6 0.000000 0.000000 0.000000 0.000000 0.000000 0.017035
#
#
# Mechanical properties :
#
#
# Convention : Reuss Voigt Hill
#
# Bulk Modulus (GPa) = 92.15554 93.92947 93.04250
# Shear Modulus (GPa) = 57.53066 60.22156 58.87611
#
# Velocity S-wave (km/s) = 4.55675 4.66210 4.60973
# Velocity P-wave (km/s) = 7.80680 7.92978 7.86853
#
# Compressibility (1/GPa) = 0.01085122
#
# Stress axis : x y z
#
# Youngs Moduli (GPa) = 133.73175 124.84136 108.92830
#
# Poissons Ratio (x) = 0.16892 0.37857
# Poissons Ratio (y) = 0.18095 0.22657
# Poissons Ratio (z) = 0.46477 0.25967
#
# Static dielectric constant tensor:
#      x y z
#    x 2.095480 0.000000 0.000000 
#    y 0.000000 2.227430 0.000000 
#    z 0.000000 0.000000 2.213090 
# 
# From -- ./inp_files/5304.got.cif
#   From: 2010.05.17/outbox.cif.g08.bks.cpg/sg37_3_cif.got.tgz:5304.got - 2010.06.03 17:53:42.
