data_PCOD9355203
_publ_section_title
;
Structure prediction by ZEFSAII (Michael W. Deem and Ramdas Pophale) SiO2 
 PCOD9355203
Probable space group: C C C 2
;
_chemical_formula_sum "Si O2"
_cell_formula_units_Z 36
_cell_length_a 14.102677
_cell_length_b 11.543181
_cell_length_c 7.307761
_cell_angle_alpha 90.000000
_cell_angle_beta 90.000000
_cell_angle_gamma 90.000000
_cell_volume 1189.628610
_symmetry_space_group_name_H-M "C C C 2"
_symmetry_group_IT_number 37
_symmetry_cell_setting 'orthorhombic'
loop_
_space_group_symop_operation_xyz
x,y,z
-x,-y,z
-x,y,1/2+z
x,-y,1/2+z
1/2+x,1/2+y,z
1/2-x,1/2-y,z
1/2-x,1/2+y,1/2+z
1/2+x,1/2-y,1/2+z
loop_
_atom_site_type_symbol
_atom_site_label
_atom_site_fract_x
_atom_site_fract_y
_atom_site_fract_z
Si Si1 0.147952 0.246262 0.569000
Si Si2 0.091980 0.217962 0.966098
Si Si3 0.593858 0.923125 0.255194
Si Si4 0.303974 0.430976 0.239468
Si Si5 0.500000 0.500000 0.369454
O O1 0.250000 0.250000 0.668306
O O2 0.107457 0.347306 0.439074
O O3 0.181836 0.150207 0.416743
O O4 0.087225 0.247211 0.754124
O O5 0.089113 0.332532 0.087671
O O6 0.178030 0.144635 0.057638
O O7 0.006439 0.121836 0.979034
O O8 0.698825 0.982507 0.236697
O O9 0.500000 0.000000 0.262489
O O10 0.400263 0.505074 0.260008
#
# Coordination Sequence:
#
# PCOD9355203 Si02
#       5
#     8   8   8   8   4
#     4   9  20  43  80 124 171 230 290 355 438 528
#     4  11  24  46  87 128 170 231 295 366 447 525
#     4  10  23  51  89 126 185 232 285 357 445 550
#     4  10  24  47  82 127 174 224 295 365 441 529
#     4  12  28  48  86 132 164 218 302 370 432 520
#
# _framework density 30.261548000000001
#
# number of rings (size 3 to 8) (size 9 to 14) (size 15 to 20)
#    0.000    1.778    0.000    4.000    6.222    0.889 
#    0.000    7.778   14.667    5.333    0.000    0.000 
#    0.000    0.000    0.000    0.000    0.000    0.000 
#
# Total GULP energy -100794.928819 kJ/mol
# GULP energy per Si atom -5599.718268 kJ/mol
# Density = 3.019267 g / cm^3
# Si number density = 30.261548 Si / 1000 Ang^3
#
#
#
# Elastic Constant Matrix: (Units=GPa)
#
#
# Indices 1 2 3 4 5 6 
#
# 1 285.7059 97.1580 71.7218 0.0000 0.0000 0.0000
# 2 97.1580 159.4440 87.7574 0.0000 0.0000 0.0000
# 3 71.7218 87.7574 271.9014 0.0000 0.0000 0.0000
# 4 0.0000 0.0000 0.0000 51.6409 0.0000 0.0000
# 5 0.0000 0.0000 0.0000 0.0000 17.9088 0.0000
# 6 0.0000 0.0000 0.0000 0.0000 0.0000 59.9062
#
#
#
# Elastic Compliance Matrix: (Units=1/GPa)
#
#
# Indices 1 2 3 4 5 6 
#
# 1 0.004444 -0.002508 -0.000363 0.000000 0.000000 0.000000
# 2 -0.002508 0.009042 -0.002257 0.000000 0.000000 0.000000
# 3 -0.000363 -0.002257 0.004502 0.000000 0.000000 0.000000
# 4 0.000000 0.000000 0.000000 0.019365 0.000000 0.000000
# 5 0.000000 0.000000 0.000000 0.000000 0.055838 0.000000
# 6 0.000000 0.000000 0.000000 0.000000 0.000000 0.016693
#
#
# Mechanical properties :
#
#
# Convention : Reuss Voigt Hill
#
# Bulk Modulus (GPa) = 129.32220 136.70285 133.01252
# Shear Modulus (GPa) = 40.74392 56.58544 48.66468
#
# Velocity S-wave (km/s) = 3.67330 4.32890 4.01451
# Velocity P-wave (km/s) = 7.79862 8.38199 8.09556
#
# Compressibility (1/GPa) = 0.00773262
#
# Stress axis : x y z
#
# Youngs Moduli (GPa) = 225.01322 110.58892 222.13017
#
# Poissons Ratio (x) = 0.27741 0.08056
# Poissons Ratio (y) = 0.56444 0.50131
# Poissons Ratio (z) = 0.08160 0.24958
#
# Static dielectric constant tensor:
#      x y z
#    x 2.887730 0.000000 0.000000 
#    y 0.000000 3.034770 0.000000 
#    z 0.000000 0.000000 2.249210 
# 
# From -- ./inp_files/6978.got.cif
#   From: 2010.05.17/outbox.cif.g08.bks.cpg/sg37_4_cif.got.tgz:6978.got - 2010.06.03 17:53:42.
