data_PCOD9355137
_publ_section_title
;
Structure prediction by ZEFSAII (Michael W. Deem and Ramdas Pophale) SiO2 
 PCOD9355137
Probable space group: C C C 2
;
_chemical_formula_sum "Si O2"
_cell_formula_units_Z 40
_cell_length_a 10.187856
_cell_length_b 17.721421
_cell_length_c 9.235243
_cell_angle_alpha 90.000000
_cell_angle_beta 90.000000
_cell_angle_gamma 90.000000
_cell_volume 1667.361111
_symmetry_space_group_name_H-M "C C C 2"
_symmetry_group_IT_number 37
_symmetry_cell_setting 'orthorhombic'
loop_
_space_group_symop_operation_xyz
x,y,z
-x,-y,z
-x,y,1/2+z
x,-y,1/2+z
1/2+x,1/2+y,z
1/2-x,1/2-y,z
1/2-x,1/2+y,1/2+z
1/2+x,1/2-y,1/2+z
loop_
_atom_site_type_symbol
_atom_site_label
_atom_site_fract_x
_atom_site_fract_y
_atom_site_fract_z
Si Si1 0.111630 0.054078 0.356910
Si Si2 0.333714 0.885845 0.543816
Si Si3 0.026079 0.343929 0.760477
Si Si4 0.376469 0.701326 0.688562
Si Si5 0.233678 0.544489 0.118417
O O1 0.072747 0.128143 0.270453
O O2 0.182099 0.085828 0.498299
O O3 0.185748 0.999244 0.242346
O O4 0.000000 0.000000 0.417363
O O5 0.391870 0.883634 0.707685
O O6 0.432475 0.848658 0.428133
O O7 0.198642 0.837521 0.549553
O O8 0.323834 0.974949 0.521917
O O9 0.134900 0.396018 0.685292
O O10 0.996004 0.260793 0.697082
O O11 0.250000 0.750000 0.749572
#
# Coordination Sequence:
#
# PCOD9355137 Si02
#       5
#     8   8   8   8   8
#     4  11  24  48  72 104 151 197 251 313 376 448
#     4  10  23  43  75 110 149 193 250 310 372 454
#     4  11  23  44  76 108 149 199 240 318 372 433
#     4   9  23  48  72 101 154 192 244 306 380 440
#     4  11  23  43  75 111 143 195 260 304 369 452
#
# _framework density 23.990005
#
# number of rings (size 3 to 8) (size 9 to 14) (size 15 to 20)
#    0.000    1.600    2.000    1.200    8.400    1.600 
#   25.200    1.000    0.000    0.000    0.000    0.000 
#    0.000    0.000    0.000    0.000    0.000    0.000 
#
# Total GULP energy -111352.285571 kJ/mol
# GULP energy per Si atom -5567.614279 kJ/mol
# Density = 2.393540 g / cm^3
# Si number density = 23.990005 Si / 1000 Ang^3
#
#
#
# Elastic Constant Matrix: (Units=GPa)
#
#
# Indices 1 2 3 4 5 6 
#
# 1 28.2599 36.7220 21.3085 0.0000 0.0000 0.0000
# 2 36.7220 144.6573 28.9860 0.0000 0.0000 0.0000
# 3 21.3085 28.9860 98.2875 0.0000 0.0000 0.0000
# 4 0.0000 0.0000 0.0000 6.6997 0.0000 0.0000
# 5 0.0000 0.0000 0.0000 0.0000 0.1567 0.0000
# 6 0.0000 0.0000 0.0000 0.0000 0.0000 58.4679
#
#
#
# Elastic Compliance Matrix: (Units=1/GPa)
#
#
# Indices 1 2 3 4 5 6 
#
# 1 0.059405 -0.013285 -0.008961 0.000000 0.000000 0.000000
# 2 -0.013285 0.010318 -0.000163 0.000000 0.000000 0.000000
# 3 -0.008961 -0.000163 0.012165 0.000000 0.000000 0.000000
# 4 0.000000 0.000000 0.000000 0.149261 0.000000 0.000000
# 5 0.000000 0.000000 0.000000 0.000000 6.380844 0.000000
# 6 0.000000 0.000000 0.000000 0.000000 0.000000 0.017103
#
#
# Mechanical properties :
#
#
# Convention : Reuss Voigt Hill
#
# Bulk Modulus (GPa) = 26.97525 49.47086 38.22306
# Shear Modulus (GPa) = 0.74780 25.34408 13.04594
#
# Velocity S-wave (km/s) = 0.55892 3.25382 2.33450
# Velocity P-wave (km/s) = 3.41838 5.89769 4.82017
#
# Compressibility (1/GPa) = 0.03707102
#
# Stress axis : x y z
#
# Youngs Moduli (GPa) = 16.83348 96.91900 82.20311
#
# Poissons Ratio (x) = 1.28754 0.73663
# Poissons Ratio (y) = 0.22363 0.01338
# Poissons Ratio (z) = 0.15085 0.01577
#
# Static dielectric constant tensor:
#      x y z
#    x 2.063120 0.000000 0.000000 
#    y 0.000000 1.986030 0.000000 
#    z 0.000000 0.000000 1.952880 
# 
# From -- ./inp_files/2734.got.cif
#   From: 2010.05.17/outbox.cif.g08.bks.cpg/sg37_2_cif.got.tgz:2734.got - 2010.06.03 17:53:42.
