data_PCOD9355403
_publ_section_title
;
Structure prediction by ZEFSAII (Michael W. Deem and Ramdas Pophale) SiO2 
 PCOD9355403
Probable space group: C C C 2
;
_chemical_formula_sum "Si O2"
_cell_formula_units_Z 60
_cell_length_a 26.948139
_cell_length_b 11.081629
_cell_length_c 8.923326
_cell_angle_alpha 90.000000
_cell_angle_beta 90.000000
_cell_angle_gamma 90.000000
_cell_volume 2664.766406
_symmetry_space_group_name_H-M "C C C 2"
_symmetry_group_IT_number 37
_symmetry_cell_setting 'orthorhombic'
loop_
_space_group_symop_operation_xyz
x,y,z
-x,-y,z
-x,y,1/2+z
x,-y,1/2+z
1/2+x,1/2+y,z
1/2-x,1/2-y,z
1/2-x,1/2+y,1/2+z
1/2+x,1/2-y,1/2+z
loop_
_atom_site_type_symbol
_atom_site_label
_atom_site_fract_x
_atom_site_fract_y
_atom_site_fract_z
Si Si1 0.640321 0.708349 0.157640
Si Si2 0.203531 0.661107 0.869695
Si Si3 0.542571 0.833321 0.044592
Si Si4 0.032885 0.888085 0.047655
Si Si5 0.595417 0.523025 0.791074
Si Si6 0.500000 0.000000 0.801470
Si Si7 0.212693 0.591225 0.216431
Si Si8 0.686470 0.317704 0.374211
O O1 0.655352 0.763330 0.318389
O O2 0.597153 0.782330 0.074429
O O3 0.618468 0.576530 0.182355
O O4 0.688974 0.705563 0.051934
O O5 0.250000 0.750000 0.851664
O O6 0.203541 0.545274 0.762339
O O7 0.207460 0.613662 0.039912
O O8 0.502638 0.725132 0.017713
O O9 0.526594 0.904080 0.194389
O O10 0.537413 0.927342 0.909091
O O11 0.068289 0.874914 0.191251
O O12 0.061738 0.945024 0.905424
O O13 0.000000 0.000000 0.101258
O O14 0.641425 0.590244 0.863823
O O15 0.266546 0.625823 0.287758
O O16 0.177355 0.689291 0.295780
#
# Coordination Sequence:
#
# PCOD9355403 Si02
#       8
#     8   8   8   8   8   4   8   8
#     4  12  27  44  74 110 148 194 260 314 379 452
#     4  12  27  49  77 109 149 202 253 316 384 463
#     4  11  25  49  71 108 149 204 252 316 375 462
#     4  12  25  43  73 109 156 192 245 311 397 445
#     4  12  25  43  73 114 148 195 246 317 377 464
#     4  10  26  48  76  96 150 212 254 296 380 452
#     4  11  27  49  76 104 152 203 245 313 395 453
#     4  11  25  47  70 108 150 195 254 310 383 460
#
# _framework density 22.516044000000001
#
# number of rings (size 3 to 8) (size 9 to 14) (size 15 to 20)
#    0.000    0.533    4.000    2.800   11.200    2.133 
#    2.400    0.000    0.000    0.000    0.000    0.000 
#    0.000    0.000    0.000    0.000    0.000    0.000 
#
# Total GULP energy -167714.635606 kJ/mol
# GULP energy per Si atom -5590.487854 kJ/mol
# Density = 2.246480 g / cm^3
# Si number density = 22.516044 Si / 1000 Ang^3
#
#
#
# Elastic Constant Matrix: (Units=GPa)
#
#
# Indices 1 2 3 4 5 6 
#
# 1 75.2763 17.7140 44.4827 0.0000 0.0000 0.0000
# 2 17.7140 79.2463 14.9019 0.0000 0.0000 0.0000
# 3 44.4827 14.9019 136.8604 0.0000 0.0000 0.0000
# 4 0.0000 0.0000 0.0000 28.5703 0.0000 0.0000
# 5 0.0000 0.0000 0.0000 0.0000 110.6441 0.0000
# 6 0.0000 0.0000 0.0000 0.0000 0.0000 23.4886
#
#
#
# Elastic Compliance Matrix: (Units=1/GPa)
#
#
# Indices 1 2 3 4 5 6 
#
# 1 0.017040 -0.002825 -0.005231 0.000000 0.000000 0.000000
# 2 -0.002825 0.013351 -0.000535 0.000000 0.000000 0.000000
# 3 -0.005231 -0.000535 0.009065 0.000000 0.000000 0.000000
# 4 0.000000 0.000000 0.000000 0.035001 0.000000 0.000000
# 5 0.000000 0.000000 0.000000 0.000000 0.009038 0.000000
# 6 0.000000 0.000000 0.000000 0.000000 0.000000 0.042574
#
#
# Mechanical properties :
#
#
# Convention : Reuss Voigt Hill
#
# Bulk Modulus (GPa) = 44.89682 49.50891 47.20286
# Shear Modulus (GPa) = 33.18345 46.82623 40.00484
#
# Velocity S-wave (km/s) = 3.84313 4.56530 4.21970
# Velocity P-wave (km/s) = 6.29890 7.05871 6.68960
#
# Compressibility (1/GPa) = 0.02227329
#
# Stress axis : x y z
#
# Youngs Moduli (GPa) = 58.68444 74.90004 110.31254
#
# Poissons Ratio (x) = 0.21162 0.57703
# Poissons Ratio (y) = 0.16581 0.05906
# Poissons Ratio (z) = 0.30697 0.04010
#
# Static dielectric constant tensor:
#      x y z
#    x 1.880540 0.000000 0.000000 
#    y 0.000000 1.813810 0.000000 
#    z 0.000000 0.000000 1.904290 
# 
# From -- ./inp_files/4802.got.cif
#   From: 2010.05.17/outbox.cif.g08.bks.cpg/sg37_3_cif.got.tgz:4802.got - 2010.06.03 17:53:42.
