data_PCOD9355143
_publ_section_title
;
Structure prediction by ZEFSAII (Michael W. Deem and Ramdas Pophale) SiO2 
 PCOD9355143
Probable space group: C C C 2
;
_chemical_formula_sum "Si O2"
_cell_formula_units_Z 48
_cell_length_a 14.413715
_cell_length_b 16.000459
_cell_length_c 8.636651
_cell_angle_alpha 90.000000
_cell_angle_beta 90.000000
_cell_angle_gamma 90.000000
_cell_volume 1991.836756
_symmetry_space_group_name_H-M "C C C 2"
_symmetry_group_IT_number 37
_symmetry_cell_setting 'orthorhombic'
loop_
_space_group_symop_operation_xyz
x,y,z
-x,-y,z
-x,y,1/2+z
x,-y,1/2+z
1/2+x,1/2+y,z
1/2-x,1/2-y,z
1/2-x,1/2+y,1/2+z
1/2+x,1/2-y,1/2+z
loop_
_atom_site_type_symbol
_atom_site_label
_atom_site_fract_x
_atom_site_fract_y
_atom_site_fract_z
Si Si1 0.822682 0.578713 0.198510
Si Si2 0.941910 0.288020 0.800429
Si Si3 0.874178 0.601597 0.838497
Si Si4 0.180439 0.118642 0.731519
Si Si5 0.635203 0.458079 0.561264
Si Si6 0.984781 0.175765 0.080342
O O1 0.854670 0.651531 0.312469
O O2 0.862019 0.490941 0.263327
O O3 0.712492 0.581010 0.174324
O O4 0.861352 0.591138 0.023499
O O5 0.939224 0.242737 0.634855
O O6 0.029984 0.351160 0.806779
O O7 0.946959 0.212783 0.921799
O O8 0.784894 0.647198 0.759716
O O9 0.098078 0.182961 0.704762
O O10 0.158716 0.055414 0.589288
O O11 0.157560 0.066329 0.885820
O O12 0.536050 0.413703 0.587159
#
# Coordination Sequence:
#
# PCOD9355143 Si02
#       6
#     8   8   8   8   8   8
#     4  10  23  44  69  96 128 178 224 276 325 397
#     4  12  25  42  65 100 136 176 218 272 344 401
#     4  10  23  44  69  94 131 174 227 273 331 390
#     4  10  23  44  69  96 128 178 224 276 325 397
#     4  10  23  44  69  94 131 174 227 273 331 390
#     4  12  25  42  65 100 136 176 218 272 344 401
#
# _framework density 24.098362000000002
#
# number of rings (size 3 to 8) (size 9 to 14) (size 15 to 20)
#    0.000    1.333    3.333    1.000    4.667    4.000 
#    0.000    1.667    0.000    0.000    0.000    0.000 
#    0.000    0.000    0.000    0.000    0.000    0.000 
#
# Total GULP energy -133966.389964 kJ/mol
# GULP energy per Si atom -5581.932915 kJ/mol
# Density = 2.404351 g / cm^3
# Si number density = 24.098362 Si / 1000 Ang^3
#
#
#
# Elastic Constant Matrix: (Units=GPa)
#
#
# Indices 1 2 3 4 5 6 
#
# 1 81.1618 26.9607 16.7497 0.0000 0.0000 0.0000
# 2 26.9607 92.7301 21.7115 0.0000 0.0000 0.0000
# 3 16.7497 21.7115 71.4431 0.0000 0.0000 0.0000
# 4 0.0000 0.0000 0.0000 31.1250 0.0000 0.0000
# 5 0.0000 0.0000 0.0000 0.0000 21.2404 0.0000
# 6 0.0000 0.0000 0.0000 0.0000 0.0000 33.6767
#
#
#
# Elastic Compliance Matrix: (Units=1/GPa)
#
#
# Indices 1 2 3 4 5 6 
#
# 1 0.013951 -0.003542 -0.002194 0.000000 0.000000 0.000000
# 2 -0.003542 0.012510 -0.002971 0.000000 0.000000 0.000000
# 3 -0.002194 -0.002971 0.015415 0.000000 0.000000 0.000000
# 4 0.000000 0.000000 0.000000 0.032129 0.000000 0.000000
# 5 0.000000 0.000000 0.000000 0.000000 0.047080 0.000000
# 6 0.000000 0.000000 0.000000 0.000000 0.000000 0.029694
#
#
# Mechanical properties :
#
#
# Convention : Reuss Voigt Hill
#
# Bulk Modulus (GPa) = 40.88419 41.79767 41.34093
# Shear Modulus (GPa) = 28.35340 29.20263 28.77801
#
# Velocity S-wave (km/s) = 3.43384 3.48488 3.45945
# Velocity P-wave (km/s) = 5.72049 5.79438 5.75755
#
# Compressibility (1/GPa) = 0.02445933
#
# Stress axis : x y z
#
# Youngs Moduli (GPa) = 71.68154 79.93891 64.87397
#
# Poissons Ratio (x) = 0.28317 0.14235
# Poissons Ratio (y) = 0.25392 0.19275
# Poissons Ratio (z) = 0.15728 0.23751
#
# Static dielectric constant tensor:
#      x y z
#    x 1.984480 0.000000 0.000000 
#    y 0.000000 1.999240 0.000000 
#    z 0.000000 0.000000 1.926460 
# 
# From -- ./inp_files/3493.got.cif
#   From: 2010.05.17/outbox.cif.g08.bks.cpg/sg37_2_cif.got.tgz:3493.got - 2010.06.03 17:53:42.
