data_PCOD9355220
_publ_section_title
;
Structure prediction by ZEFSAII (Michael W. Deem and Ramdas Pophale) SiO2 
 PCOD9355220
Probable space group: C C C 2
;
_chemical_formula_sum "Si O2"
_cell_formula_units_Z 60
_cell_length_a 26.393886
_cell_length_b 11.565514
_cell_length_c 9.209276
_cell_angle_alpha 90.000000
_cell_angle_beta 90.000000
_cell_angle_gamma 90.000000
_cell_volume 2811.213075
_symmetry_space_group_name_H-M "C C C 2"
_symmetry_group_IT_number 37
_symmetry_cell_setting 'orthorhombic'
loop_
_space_group_symop_operation_xyz
x,y,z
-x,-y,z
-x,y,1/2+z
x,-y,1/2+z
1/2+x,1/2+y,z
1/2-x,1/2-y,z
1/2-x,1/2+y,1/2+z
1/2+x,1/2-y,1/2+z
loop_
_atom_site_type_symbol
_atom_site_label
_atom_site_fract_x
_atom_site_fract_y
_atom_site_fract_z
Si Si1 0.597698 0.784291 0.801020
Si Si2 0.000000 0.500000 0.505636
Si Si3 0.074005 0.552282 0.758002
Si Si4 0.794851 0.838675 0.746747
Si Si5 0.540741 0.597632 0.670459
Si Si6 0.913580 0.929883 0.367753
Si Si7 0.318523 0.532532 0.530274
Si Si8 0.385926 0.263128 0.138327
O O1 0.651428 0.732141 0.744353
O O2 0.548663 0.728723 0.719713
O O3 0.593991 0.921673 0.776800
O O4 0.596002 0.754290 0.973084
O O5 0.037655 0.563008 0.617278
O O6 0.037434 0.428695 0.397957
O O7 0.119393 0.640710 0.719540
O O8 0.750000 0.750000 0.724225
O O9 0.791032 0.942394 0.632203
O O10 0.790005 0.901223 0.902679
O O11 0.500000 0.500000 0.711515
O O12 0.547551 0.585686 0.499320
O O13 0.585431 0.543389 0.768519
O O14 0.922132 0.827636 0.253233
O O15 0.861526 0.951667 0.454312
O O16 0.342709 0.638898 0.622682
#
# Coordination Sequence:
#
# PCOD9355220 Si02
#       8
#     8   4   8   8   8   8   8   8
#     4  11  23  47  68  98 143 188 236 299 359 423
#     4  10  24  42  58  88 142 186 252 286 328 404
#     4  11  24  44  63  94 135 196 243 293 347 411
#     4  11  24  47  76 105 141 176 225 297 364 435
#     4  12  24  38  62 103 143 188 237 285 346 417
#     4  12  20  41  65  97 138 186 225 292 346 402
#     4  11  20  46  74 103 141 179 223 287 369 410
#     4  11  22  41  72  93 132 194 230 287 356 420
#
# _framework density 21.343098000000001
#
# number of rings (size 3 to 8) (size 9 to 14) (size 15 to 20)
#    0.000    0.800    8.000    0.400    1.867    2.133 
#    7.200    1.333    0.000    0.000    0.000    0.000 
#    0.000    0.000    0.000    0.000    0.000    0.000 
#
# Total GULP energy -167043.124338 kJ/mol
# GULP energy per Si atom -5568.104145 kJ/mol
# Density = 2.129452 g / cm^3
# Si number density = 21.343098 Si / 1000 Ang^3
#
#
#
# Elastic Constant Matrix: (Units=GPa)
#
#
# Indices 1 2 3 4 5 6 
#
# 1 64.2387 52.2736 25.9154 0.0000 0.0000 0.0000
# 2 52.2736 158.4456 46.0534 0.0000 0.0000 0.0000
# 3 25.9154 46.0534 107.4642 0.0000 0.0000 0.0000
# 4 0.0000 0.0000 0.0000 33.6003 0.0000 0.0000
# 5 0.0000 0.0000 0.0000 0.0000 10.7295 0.0000
# 6 0.0000 0.0000 0.0000 0.0000 0.0000 31.0414
#
#
#
# Elastic Compliance Matrix: (Units=1/GPa)
#
#
# Indices 1 2 3 4 5 6 
#
# 1 0.021848 -0.006484 -0.002490 0.000000 0.000000 0.000000
# 2 -0.006484 0.009134 -0.002351 0.000000 0.000000 0.000000
# 3 -0.002490 -0.002351 0.010913 0.000000 0.000000 0.000000
# 4 0.000000 0.000000 0.000000 0.029762 0.000000 0.000000
# 5 0.000000 0.000000 0.000000 0.000000 0.093201 0.000000
# 6 0.000000 0.000000 0.000000 0.000000 0.000000 0.032215
#
#
# Mechanical properties :
#
#
# Convention : Reuss Voigt Hill
#
# Bulk Modulus (GPa) = 51.96023 64.29259 58.12641
# Shear Modulus (GPa) = 22.11047 28.80131 25.45589
#
# Velocity S-wave (km/s) = 3.22212 3.67746 3.45729
# Velocity P-wave (km/s) = 6.18391 6.94409 6.57500
#
# Compressibility (1/GPa) = 0.01924549
#
# Stress axis : x y z
#
# Youngs Moduli (GPa) = 45.77093 109.48381 91.63226
#
# Poissons Ratio (x) = 0.70992 0.22816
# Poissons Ratio (y) = 0.29679 0.21539
# Poissons Ratio (z) = 0.11397 0.25735
#
# Static dielectric constant tensor:
#      x y z
#    x 1.925800 0.000000 0.000000 
#    y 0.000000 1.924160 0.000000 
#    z 0.000000 0.000000 1.777190 
# 
# From -- ./inp_files/4813.got.cif
#   From: 2010.05.17/outbox.cif.g08.bks.cpg/sg37_3_cif.got.tgz:4813.got - 2010.06.03 17:53:42.
