data_PCOD9355208
_publ_section_title
;
Structure prediction by ZEFSAII (Michael W. Deem and Ramdas Pophale) SiO2 
 PCOD9355208
Probable space group: C C C 2
;
_chemical_formula_sum "Si O2"
_cell_formula_units_Z 64
_cell_length_a 18.826948
_cell_length_b 11.639173
_cell_length_c 14.281391
_cell_angle_alpha 90.000000
_cell_angle_beta 90.000000
_cell_angle_gamma 90.000000
_cell_volume 3129.482707
_symmetry_space_group_name_H-M "C C C 2"
_symmetry_group_IT_number 37
_symmetry_cell_setting 'orthorhombic'
loop_
_space_group_symop_operation_xyz
x,y,z
-x,-y,z
-x,y,1/2+z
x,-y,1/2+z
1/2+x,1/2+y,z
1/2-x,1/2-y,z
1/2-x,1/2+y,1/2+z
1/2+x,1/2-y,1/2+z
loop_
_atom_site_type_symbol
_atom_site_label
_atom_site_fract_x
_atom_site_fract_y
_atom_site_fract_z
Si Si1 0.098553 0.268184 0.331800
Si Si2 0.720693 0.077975 0.746965
Si Si3 0.818073 0.323335 0.236174
Si Si4 0.227030 0.081979 0.052684
Si Si5 0.153152 0.708266 0.452652
Si Si6 0.503065 0.867023 0.481845
Si Si7 0.292605 0.371470 0.431673
Si Si8 0.481146 0.862555 0.201733
O O1 0.159227 0.331362 0.270483
O O2 0.073119 0.328357 0.427692
O O3 0.134035 0.156171 0.377404
O O4 0.030590 0.281196 0.265288
O O5 0.773499 0.111074 0.663051
O O6 0.752610 0.059841 0.849589
O O7 0.693560 0.956251 0.712323
O O8 0.750000 0.250000 0.199576
O O9 0.819064 0.304548 0.347714
O O10 0.900878 0.313628 0.208925
O O11 0.176977 0.171388 0.997760
O O12 0.306934 0.112718 0.016615
O O13 0.206283 0.953405 0.021459
O O14 0.069091 0.692582 0.448306
O O15 0.502437 0.853106 0.592620
O O16 0.500000 0.000000 0.459251
O O17 0.250000 0.250000 0.446462
O O18 0.500000 0.000000 0.226708
#
# Coordination Sequence:
#
# PCOD9355208 Si02
#       8
#     8   8   8   8   8   8   8   8
#     4  11  22  41  63  95 134 175 221 280 345 405
#     4  11  23  39  66  95 133 172 222 284 336 413
#     4  12  22  40  66  96 134 172 217 278 346 411
#     4  11  24  41  66  98 127 175 231 275 346 413
#     4  11  22  41  68  90 129 172 227 281 334 409
#     4  11  24  38  66  96 137 172 225 283 342 404
#     4  10  24  40  63  97 137 174 221 283 349 406
#     4  11  23  39  63 101 132 177 226 281 346 405
#
# _framework density 20.450662000000001
#
# number of rings (size 3 to 8) (size 9 to 14) (size 15 to 20)
#    0.000    1.000    5.000    1.875   10.500    1.500 
#    0.000    0.625    0.000    0.000    0.000    0.000 
#    0.000    0.000    0.000    0.000    0.000    0.000 
#
# Total GULP energy -178269.710153 kJ/mol
# GULP energy per Si atom -5570.928442 kJ/mol
# Density = 2.040412 g / cm^3
# Si number density = 20.450662 Si / 1000 Ang^3
#
#
#
# Elastic Constant Matrix: (Units=GPa)
#
#
# Indices 1 2 3 4 5 6 
#
# 1 90.4873 33.0686 20.6135 0.0000 0.0000 0.0000
# 2 33.0686 74.2263 21.7638 0.0000 0.0000 0.0000
# 3 20.6135 21.7638 66.9694 0.0000 0.0000 0.0000
# 4 0.0000 0.0000 0.0000 33.6368 0.0000 0.0000
# 5 0.0000 0.0000 0.0000 0.0000 30.2520 0.0000
# 6 0.0000 0.0000 0.0000 0.0000 0.0000 12.2519
#
#
#
# Elastic Compliance Matrix: (Units=1/GPa)
#
#
# Indices 1 2 3 4 5 6 
#
# 1 0.013552 -0.005322 -0.002442 0.000000 0.000000 0.000000
# 2 -0.005322 0.016981 -0.003880 0.000000 0.000000 0.000000
# 3 -0.002442 -0.003880 0.016945 0.000000 0.000000 0.000000
# 4 0.000000 0.000000 0.000000 0.029729 0.000000 0.000000
# 5 0.000000 0.000000 0.000000 0.000000 0.033056 0.000000
# 6 0.000000 0.000000 0.000000 0.000000 0.000000 0.081620
#
#
# Mechanical properties :
#
#
# Convention : Reuss Voigt Hill
#
# Bulk Modulus (GPa) = 41.33955 42.50832 41.92393
# Shear Modulus (GPa) = 22.39792 25.64394 24.02093
#
# Velocity S-wave (km/s) = 3.31300 3.54495 3.43093
# Velocity P-wave (km/s) = 5.90701 6.13078 6.01993
#
# Compressibility (1/GPa) = 0.02418991
#
# Stress axis : x y z
#
# Youngs Moduli (GPa) = 73.78763 58.88938 59.01465
#
# Poissons Ratio (x) = 0.31339 0.14412
# Poissons Ratio (y) = 0.39268 0.22900
# Poissons Ratio (z) = 0.18019 0.22852
#
# Static dielectric constant tensor:
#      x y z
#    x 1.169120 0.000000 0.000000 
#    y 0.000000 1.909660 0.000000 
#    z 0.000000 0.000000 1.744160 
# 
# From -- ./inp_files/12715.got.cif
#   From: 2010.05.17/outbox.cif.g08.bks.cpg/sg37_7_cif.got.tgz:12715.got - 2010.06.03 17:53:42.
