data_PCOD9355171
_publ_section_title
;
Structure prediction by ZEFSAII (Michael W. Deem and Ramdas Pophale) SiO2 
 PCOD9355171
Probable space group: C C C 2
;
_chemical_formula_sum "Si O2"
_cell_formula_units_Z 32
_cell_length_a 20.369113
_cell_length_b 5.065675
_cell_length_c 11.591620
_cell_angle_alpha 90.000000
_cell_angle_beta 90.000000
_cell_angle_gamma 90.000000
_cell_volume 1196.061679
_symmetry_space_group_name_H-M "C C C 2"
_symmetry_group_IT_number 37
_symmetry_cell_setting 'orthorhombic'
loop_
_space_group_symop_operation_xyz
x,y,z
-x,-y,z
-x,y,1/2+z
x,-y,1/2+z
1/2+x,1/2+y,z
1/2-x,1/2-y,z
1/2-x,1/2+y,1/2+z
1/2+x,1/2-y,1/2+z
loop_
_atom_site_type_symbol
_atom_site_label
_atom_site_fract_x
_atom_site_fract_y
_atom_site_fract_z
Si Si1 0.830734 0.589124 0.529040
Si Si2 0.500000 0.500000 0.738912
Si Si3 0.750000 0.750000 0.851381
Si Si4 0.472160 0.760879 0.962914
Si Si5 0.344103 0.431769 0.180744
O O1 0.791541 0.442726 0.431176
O O2 0.897197 0.676779 0.463615
O O3 0.814448 0.873003 0.582700
O O4 0.837716 0.369577 0.633118
O O5 0.501761 0.735864 0.835842
O O6 0.577903 0.489009 0.699213
O O7 0.699922 0.549623 0.784553
O O8 0.500000 0.500000 0.022015
O O9 0.500000 0.000000 0.036326
#
# Coordination Sequence:
#
# PCOD9355171 Si02
#       5
#     8   4   4   8   8
#     4  12  29  50  82 124 161 231 286 346 430 518
#     4  10  28  48  82 122 166 218 276 358 436 498
#     4  12  30  58  82 116 188 226 294 352 442 514
#     4  10  23  45  77 113 159 217 258 339 429 486
#     4  12  30  50  84 125 165 224 291 356 428 524
#
# _framework density 26.754473000000001
#
# number of rings (size 3 to 8) (size 9 to 14) (size 15 to 20)
#    0.750    0.000    0.000    4.500   15.750    2.000 
#    0.000    0.000    0.000    0.000    0.000    0.000 
#    0.000    0.000    0.000    0.000    0.000    0.000 
#
# Total GULP energy -89182.179547 kJ/mol
# GULP energy per Si atom -5573.886222 kJ/mol
# Density = 2.669358 g / cm^3
# Si number density = 26.754473 Si / 1000 Ang^3
#
#
#
# Elastic Constant Matrix: (Units=GPa)
#
#
# Indices 1 2 3 4 5 6 
#
# 1 164.9128 45.4675 63.3341 0.0000 0.0000 0.0000
# 2 45.4675 207.6616 5.5837 0.0000 0.0000 0.0000
# 3 63.3341 5.5837 55.3552 0.0000 0.0000 0.0000
# 4 0.0000 0.0000 0.0000 43.2482 0.0000 0.0000
# 5 0.0000 0.0000 0.0000 0.0000 52.5499 0.0000
# 6 0.0000 0.0000 0.0000 0.0000 0.0000 56.7219
#
#
#
# Elastic Compliance Matrix: (Units=1/GPa)
#
#
# Indices 1 2 3 4 5 6 
#
# 1 0.011754 -0.002218 -0.013225 0.000000 0.000000 0.000000
# 2 -0.002218 0.005247 0.002008 0.000000 0.000000 0.000000
# 3 -0.013225 0.002008 0.032994 0.000000 0.000000 0.000000
# 4 0.000000 0.000000 0.000000 0.023122 0.000000 0.000000
# 5 0.000000 0.000000 0.000000 0.000000 0.019030 0.000000
# 6 0.000000 0.000000 0.000000 0.000000 0.000000 0.017630
#
#
# Mechanical properties :
#
#
# Convention : Reuss Voigt Hill
#
# Bulk Modulus (GPa) = 43.24093 72.96670 58.10382
# Shear Modulus (GPa) = 34.63705 51.40696 43.02200
#
# Velocity S-wave (km/s) = 3.60200 4.38817 4.01438
# Velocity P-wave (km/s) = 5.78761 7.28057 6.57659
#
# Compressibility (1/GPa) = 0.02312624
#
# Stress axis : x y z
#
# Youngs Moduli (GPa) = 85.07568 190.57945 30.30898
#
# Poissons Ratio (x) = 0.42271 0.40083
# Poissons Ratio (y) = 0.18870 -0.06087
# Poissons Ratio (z) = 1.12511 -0.38276
#
# Static dielectric constant tensor:
#      x y z
#    x 2.454710 0.000000 0.000000 
#    y 0.000000 -6.354640 0.000000 
#    z 0.000000 0.000000 2.274230 
# 
# From -- ./inp_files/8486.got.cif
#   From: 2010.05.17/outbox.cif.g08.bks.cpg/sg37_5_cif.got.tgz:8486.got - 2010.06.03 17:53:42.
