data_PCOD9355498
_publ_section_title
;
Structure prediction by ZEFSAII (Michael W. Deem and Ramdas Pophale) SiO2 
 PCOD9355498
Probable space group: C C C 2
;
_chemical_formula_sum "Si O2"
_cell_formula_units_Z 32
_cell_length_a 19.868763
_cell_length_b 5.254423
_cell_length_c 13.355156
_cell_angle_alpha 90.000000
_cell_angle_beta 90.000000
_cell_angle_gamma 90.000000
_cell_volume 1394.263399
_symmetry_space_group_name_H-M "C C C 2"
_symmetry_group_IT_number 37
_symmetry_cell_setting 'orthorhombic'
loop_
_space_group_symop_operation_xyz
x,y,z
-x,-y,z
-x,y,1/2+z
x,-y,1/2+z
1/2+x,1/2+y,z
1/2-x,1/2-y,z
1/2-x,1/2+y,1/2+z
1/2+x,1/2-y,1/2+z
loop_
_atom_site_type_symbol
_atom_site_label
_atom_site_fract_x
_atom_site_fract_y
_atom_site_fract_z
Si Si1 0.709680 0.506783 0.819240
Si Si2 0.931095 0.380724 0.731597
Si Si3 0.127571 0.870235 0.150328
Si Si4 0.424818 0.378805 0.428032
O O1 0.750000 0.750000 0.853437
O O2 0.696052 0.520800 0.699130
O O3 0.635871 0.524139 0.870237
O O4 0.750000 0.250000 0.843826
O O5 0.877594 0.590222 0.698988
O O6 0.932483 0.356375 0.851544
O O7 0.000000 0.500000 0.693887
O O8 0.922023 0.099816 0.686394
O O9 0.107902 0.830875 0.035564
O O10 0.500000 0.500000 0.434744
#
# Coordination Sequence:
#
# PCOD9355498 Si02
#       4
#     8   8   8   8
#     4  11  25  47  71 100 144 191 235 287 348 421
#     4  11  22  41  64  99 143 178 221 285 346 413
#     4  11  25  43  69 100 139 186 234 282 347 417
#     4  11  25  45  75 109 140 183 236 296 356 415
#
# _framework density 22.951186
#
# number of rings (size 3 to 8) (size 9 to 14) (size 15 to 20)
#    0.000    1.000    0.000    8.250    0.000   12.000 
#    0.000    0.000    0.000    0.000    0.000    0.000 
#    0.000    0.000    0.000    0.000    0.000    0.000 
#
# Total GULP energy -89162.287659 kJ/mol
# GULP energy per Si atom -5572.642979 kJ/mol
# Density = 2.289895 g / cm^3
# Si number density = 22.951186 Si / 1000 Ang^3
#
#
#
# Elastic Constant Matrix: (Units=GPa)
#
#
# Indices 1 2 3 4 5 6 
#
# 1 106.2222 28.4755 -1.3303 0.0000 0.0000 0.0000
# 2 28.4755 117.3594 37.5929 0.0000 0.0000 0.0000
# 3 -1.3303 37.5929 142.0080 0.0000 0.0000 0.0000
# 4 0.0000 0.0000 0.0000 27.3886 0.0000 0.0000
# 5 0.0000 0.0000 0.0000 0.0000 27.6160 0.0000
# 6 0.0000 0.0000 0.0000 0.0000 0.0000 42.7440
#
#
#
# Elastic Compliance Matrix: (Units=1/GPa)
#
#
# Indices 1 2 3 4 5 6 
#
# 1 0.010155 -0.002726 0.000817 0.000000 0.000000 0.000000
# 2 -0.002726 0.010042 -0.002684 0.000000 0.000000 0.000000
# 3 0.000817 -0.002684 0.007760 0.000000 0.000000 0.000000
# 4 0.000000 0.000000 0.000000 0.036511 0.000000 0.000000
# 5 0.000000 0.000000 0.000000 0.000000 0.036211 0.000000
# 6 0.000000 0.000000 0.000000 0.000000 0.000000 0.023395
#
#
# Mechanical properties :
#
#
# Convention : Reuss Voigt Hill
#
# Bulk Modulus (GPa) = 53.27251 55.00730 54.13990
# Shear Modulus (GPa) = 35.83791 39.60650 37.72221
#
# Velocity S-wave (km/s) = 3.95585 4.15864 4.05851
# Velocity P-wave (km/s) = 6.64279 6.86135 6.75295
#
# Compressibility (1/GPa) = 0.01877141
#
# Stress axis : x y z
#
# Youngs Moduli (GPa) = 98.47256 99.58320 128.86619
#
# Poissons Ratio (x) = 0.27142 -0.10524
# Poissons Ratio (y) = 0.26839 0.34586
# Poissons Ratio (z) = -0.08042 0.26727
#
# Static dielectric constant tensor:
#      x y z
#    x 1.987300 0.000000 0.000000 
#    y 0.000000 1.881510 0.000000 
#    z 0.000000 0.000000 1.929050 
# 
# From -- ./inp_files/8724.got.cif
#   From: 2010.05.17/outbox.cif.g08.bks.cpg/sg37_5_cif.got.tgz:8724.got - 2010.06.03 17:53:42.
