data_PCOD9355878
_publ_section_title
;
Structure prediction by ZEFSAII (Michael W. Deem and Ramdas Pophale) SiO2 
 PCOD9355878
Probable space group: A M M 2
;
_chemical_formula_sum "Si O2"
_cell_formula_units_Z 64
_cell_length_a 14.773751
_cell_length_b 7.557042
_cell_length_c 32.633209
_cell_angle_alpha 90.000000
_cell_angle_beta 90.000000
_cell_angle_gamma 90.000000
_cell_volume 3643.362579
_symmetry_space_group_name_H-M "A M M 2"
_symmetry_group_IT_number 38
_symmetry_cell_setting 'orthorhombic'
loop_
_space_group_symop_operation_xyz
x,y,z
-x,-y,z
-x,y,z
x,-y,z
x,1/2+y,1/2+z
-x,1/2-y,1/2+z
-x,1/2+y,1/2+z
x,1/2-y,1/2+z
loop_
_atom_site_type_symbol
_atom_site_label
_atom_site_fract_x
_atom_site_fract_y
_atom_site_fract_z
Si Si1 0.211693 0.717276 0.453560
Si Si2 0.790152 0.210351 0.791436
Si Si3 0.398841 0.788742 0.326398
Si Si4 0.600451 0.708774 0.421302
Si Si5 0.105982 0.716201 0.211611
Si Si6 0.103394 0.289782 0.532426
Si Si7 0.104592 0.287445 0.121970
Si Si8 0.104464 0.283775 0.372029
O O1 0.213315 0.500000 0.453709
O O2 0.314327 0.779705 0.446326
O O3 0.164638 0.778009 0.495362
O O4 0.152816 0.770450 0.414040
O O5 0.683372 0.237318 0.797169
O O6 0.834243 0.279765 0.749604
O O7 0.840902 0.278852 0.832091
O O8 0.806077 0.000000 0.791131
O O9 0.500000 0.724732 0.315169
O O10 0.379513 0.725333 0.372745
O O11 0.401371 0.000000 0.327913
O O12 0.500000 0.785108 0.428340
O O13 0.595452 0.500000 0.430177
O O14 0.107268 0.500000 0.211746
O O15 0.139719 0.772717 0.166360
O O16 0.000000 0.765930 0.216385
O O17 0.096157 0.500000 0.526357
O O18 0.143591 0.263314 0.577913
O O19 0.000000 0.217722 0.531127
O O20 0.104074 0.500000 0.122864
O O21 0.000000 0.225618 0.120745
O O22 0.105775 0.500000 0.371715
O O23 0.000000 0.229127 0.370566
#
# Coordination Sequence:
#
# PCOD9355878 Si02
#       8
#     8   8   8   8   8   8   8   8
#     4   9  15  24  38  61  86 108 136 173 213 246
#     4  10  17  27  45  67  85 107 143 180 208 243
#     4  10  20  32  44  59  83 114 143 174 215 257
#     4   9  16  28  46  64  80 102 139 184 220 249
#     4   8  14  25  43  67  90 111 139 176 213 249
#     4   9  16  25  39  59  83 110 141 174 204 242
#     4   8  14  26  42  59  83 112 139 170 208 245
#     4   9  15  22  36  60  87 112 137 166 202 244
#
# _framework density 17.566189000000001
#
# number of rings (size 3 to 8) (size 9 to 14) (size 15 to 20)
#    0.000    3.000    1.250    1.875    0.000    3.750 
#    0.000    1.250    0.000    2.250    0.000    0.875 
#    0.000    3.000    0.000    0.000    0.000    0.000 
#
# Total GULP energy -178302.900102 kJ/mol
# GULP energy per Si atom -5571.965628 kJ/mol
# Density = 1.752621 g / cm^3
# Si number density = 17.566189 Si / 1000 Ang^3
#
#
#
# Elastic Constant Matrix: (Units=GPa)
#
#
# Indices 1 2 3 4 5 6 
#
# 1 118.0674 0.5661 89.8517 0.0000 0.0000 0.0000
# 2 0.5661 38.9019 5.0307 0.0000 0.0000 0.0000
# 3 89.8517 5.0307 171.2736 0.0000 0.0000 0.0000
# 4 0.0000 0.0000 0.0000 6.5109 0.0000 0.0000
# 5 0.0000 0.0000 0.0000 0.0000 12.3636 0.0000
# 6 0.0000 0.0000 0.0000 0.0000 0.0000 -3.7251
#
#
#
# Elastic Compliance Matrix: (Units=1/GPa)
#
#
# Indices 1 2 3 4 5 6 
#
# 1 0.014120 0.000755 -0.007430 0.000000 0.000000 0.000000
# 2 0.000755 0.025844 -0.001155 0.000000 0.000000 0.000000
# 3 -0.007430 -0.001155 0.009770 0.000000 0.000000 0.000000
# 4 0.000000 0.000000 0.000000 0.153589 0.000000 0.000000
# 5 0.000000 0.000000 0.000000 0.000000 0.080883 0.000000
# 6 0.000000 0.000000 0.000000 0.000000 0.000000 -0.268451
#
#
# Mechanical properties :
#
#
# Convention : Reuss Voigt Hill
#
# Bulk Modulus (GPa) = 29.34702 57.68222 43.51462
# Shear Modulus (GPa) = 116.89479 18.54951 67.72215
#
# Velocity S-wave (km/s) = 8.16638 3.25311 6.21581
# Velocity P-wave (km/s) = 10.27923 6.85701 8.73731
#
# Compressibility (1/GPa) = 0.03407501
#
# Stress axis : x y z
#
# Youngs Moduli (GPa) = 70.81954 38.69357 102.35072
#
# Poissons Ratio (x) = -0.02923 0.76045
# Poissons Ratio (y) = -0.05349 0.11825
# Poissons Ratio (z) = 0.52618 0.04470
#
# Static dielectric constant tensor:
#      x y z
#    x 1.590870 0.000000 0.000000 
#    y 0.000000 1.678420 0.000000 
#    z 0.000000 0.000000 1.607340 
# 
# From -- ./inp_files/25031.got.cif
#   From: 2010.05.17/outbox.cif.g08.bks.cpg/sg38_13_cif.got.tgz:25031.got - 2010.06.03 18:07:57.
