data_PCOD9355571
_publ_section_title
;
Structure prediction by ZEFSAII (Michael W. Deem and Ramdas Pophale) SiO2 
 PCOD9355571
Probable space group: C C C 2
;
_chemical_formula_sum "Si O2"
_cell_formula_units_Z 40
_cell_length_a 7.865361
_cell_length_b 17.848997
_cell_length_c 12.803461
_cell_angle_alpha 90.000000
_cell_angle_beta 90.000000
_cell_angle_gamma 90.000000
_cell_volume 1797.462588
_symmetry_space_group_name_H-M "C C C 2"
_symmetry_group_IT_number 37
_symmetry_cell_setting 'orthorhombic'
loop_
_space_group_symop_operation_xyz
x,y,z
-x,-y,z
-x,y,1/2+z
x,-y,1/2+z
1/2+x,1/2+y,z
1/2-x,1/2-y,z
1/2-x,1/2+y,1/2+z
1/2+x,1/2-y,1/2+z
loop_
_atom_site_type_symbol
_atom_site_label
_atom_site_fract_x
_atom_site_fract_y
_atom_site_fract_z
Si Si1 0.673935 0.398932 0.980730
Si Si2 0.108964 0.575926 0.181938
Si Si3 0.313563 0.335889 0.039692
Si Si4 0.316927 0.959239 0.404431
Si Si5 0.792395 0.336931 0.760601
O O1 0.680246 0.488159 0.960669
O O2 0.754942 0.370957 0.872591
O O3 0.787599 0.392418 0.084737
O O4 0.498868 0.354366 0.994714
O O5 0.222174 0.553974 0.282635
O O6 0.000000 0.500000 0.155562
O O7 0.980819 0.638911 0.225832
O O8 0.250000 0.250000 0.038501
O O9 0.314435 0.363851 0.159731
O O10 0.182400 0.383293 0.969989
O O11 0.500000 0.000000 0.407352
O O12 0.750000 0.250000 0.769236
#
# Coordination Sequence:
#
# PCOD9355571 Si02
#       5
#     8   8   8   8   8
#     4  12  25  45  79 107 148 201 247 307 375 437
#     4  11  24  45  77 110 149 191 255 312 375 435
#     4  11  28  49  71 109 158 190 255 306 368 448
#     4  11  23  46  76 109 144 198 245 312 366 440
#     4  11  26  45  69 109 154 190 251 303 367 450
#
# _framework density 22.253592000000001
#
# number of rings (size 3 to 8) (size 9 to 14) (size 15 to 20)
#    0.000    0.800    4.000    3.600    5.600    1.600 
#    0.000    1.000    0.000    0.000    0.000    0.000 
#    0.000    0.000    0.000    0.000    0.000    0.000 
#
# Total GULP energy -111759.208621 kJ/mol
# GULP energy per Si atom -5587.960431 kJ/mol
# Density = 2.220294 g / cm^3
# Si number density = 22.253592 Si / 1000 Ang^3
#
#
#
# Elastic Constant Matrix: (Units=GPa)
#
#
# Indices 1 2 3 4 5 6 
#
# 1 115.4182 42.3999 62.2162 0.0000 0.0000 0.0000
# 2 42.3999 110.0956 47.6796 0.0000 0.0000 0.0000
# 3 62.2162 47.6796 196.0769 0.0000 0.0000 0.0000
# 4 0.0000 0.0000 0.0000 73.0332 0.0000 0.0000
# 5 0.0000 0.0000 0.0000 0.0000 20.6046 0.0000
# 6 0.0000 0.0000 0.0000 0.0000 0.0000 31.1774
#
#
#
# Elastic Compliance Matrix: (Units=1/GPa)
#
#
# Indices 1 2 3 4 5 6 
#
# 1 0.011347 -0.003142 -0.002837 0.000000 0.000000 0.000000
# 2 -0.003142 0.011022 -0.001683 0.000000 0.000000 0.000000
# 3 -0.002837 -0.001683 0.006409 0.000000 0.000000 0.000000
# 4 0.000000 0.000000 0.000000 0.013692 0.000000 0.000000
# 5 0.000000 0.000000 0.000000 0.000000 0.048533 0.000000
# 6 0.000000 0.000000 0.000000 0.000000 0.000000 0.032074
#
#
# Mechanical properties :
#
#
# Convention : Reuss Voigt Hill
#
# Bulk Modulus (GPa) = 74.31865 80.68690 77.50278
# Shear Modulus (GPa) = 34.99277 42.91606 38.95442
#
# Velocity S-wave (km/s) = 3.96972 4.39623 4.18841
# Velocity P-wave (km/s) = 7.38108 7.88072 7.63499
#
# Compressibility (1/GPa) = 0.01345557
#
# Stress axis : x y z
#
# Youngs Moduli (GPa) = 88.12648 90.72842 156.01970
#
# Poissons Ratio (x) = 0.28503 0.44257
# Poissons Ratio (y) = 0.27686 0.26263
# Poissons Ratio (z) = 0.24998 0.15273
#
# Static dielectric constant tensor:
#      x y z
#    x 1.859230 0.000000 0.000000 
#    y 0.000000 1.818590 0.000000 
#    z 0.000000 0.000000 1.832560 
# 
# From -- ./inp_files/6135.got.cif
#   From: 2010.05.17/outbox.cif.g08.bks.cpg/sg37_4_cif.got.tgz:6135.got - 2010.06.03 17:53:42.
