data_PCOD9355331
_publ_section_title
;
Structure prediction by ZEFSAII (Michael W. Deem and Ramdas Pophale) SiO2 
 PCOD9355331
Probable space group: C C C 2
;
_chemical_formula_sum "Si O2"
_cell_formula_units_Z 44
_cell_length_a 22.916539
_cell_length_b 6.347298
_cell_length_c 14.353515
_cell_angle_alpha 90.000000
_cell_angle_beta 90.000000
_cell_angle_gamma 90.000000
_cell_volume 2087.835051
_symmetry_space_group_name_H-M "C C C 2"
_symmetry_group_IT_number 37
_symmetry_cell_setting 'orthorhombic'
loop_
_space_group_symop_operation_xyz
x,y,z
-x,-y,z
-x,y,1/2+z
x,-y,1/2+z
1/2+x,1/2+y,z
1/2-x,1/2-y,z
1/2-x,1/2+y,1/2+z
1/2+x,1/2-y,1/2+z
loop_
_atom_site_type_symbol
_atom_site_label
_atom_site_fract_x
_atom_site_fract_y
_atom_site_fract_z
Si Si1 0.788182 0.553980 0.267690
Si Si2 0.500000 0.000000 0.803016
Si Si3 0.655609 0.581962 0.043409
Si Si4 0.750000 0.250000 0.111272
Si Si5 0.899766 0.209655 0.739944
Si Si6 0.561126 0.613729 0.886654
Si Si7 0.750000 0.250000 0.424814
O O1 0.750000 0.750000 0.235627
O O2 0.787902 0.393427 0.181976
O O3 0.851624 0.643477 0.289988
O O4 0.755874 0.446544 0.354800
O O5 0.539939 0.159179 0.742578
O O6 0.456774 0.145494 0.865077
O O7 0.702459 0.391827 0.056959
O O8 0.627694 0.654104 0.140345
O O9 0.603098 0.554286 0.971292
O O10 0.694674 0.755817 0.991595
O O11 0.910080 0.993743 0.795773
O O12 0.500000 0.500000 0.903294
#
# Coordination Sequence:
#
# PCOD9355331 Si02
#       7
#     8   4   8   4   8   8   4
#     4  11  22  45  68  96 144 194 230 297 358 432
#     4  10  24  48  72  96 138 190 238 300 360 420
#     4  12  25  44  69 108 142 186 235 295 354 431
#     4  11  26  42  65 104 148 182 245 284 359 438
#     4  11  24  44  70  98 140 180 245 288 359 420
#     4  10  25  48  69 103 137 187 240 296 359 424
#     4  11  26  40  67 106 142 188 241 282 369 424
#
# _framework density 21.074463000000002
#
# number of rings (size 3 to 8) (size 9 to 14) (size 15 to 20)
#    0.000    1.091    1.818    3.273    8.909    2.909 
#    6.545    0.000    0.000    0.000    0.000    0.000 
#    0.000    0.000    0.000    0.000    0.000    0.000 
#
# Total GULP energy -122861.141203 kJ/mol
# GULP energy per Si atom -5584.597327 kJ/mol
# Density = 2.102650 g / cm^3
# Si number density = 21.074463 Si / 1000 Ang^3
#
#
#
# Elastic Constant Matrix: (Units=GPa)
#
#
# Indices 1 2 3 4 5 6 
#
# 1 105.3228 20.4712 47.2782 0.0000 0.0000 0.0000
# 2 20.4712 92.4658 35.4147 0.0000 0.0000 0.0000
# 3 47.2782 35.4147 119.2252 0.0000 0.0000 0.0000
# 4 0.0000 0.0000 0.0000 7.3618 0.0000 0.0000
# 5 0.0000 0.0000 0.0000 0.0000 38.5919 0.0000
# 6 0.0000 0.0000 0.0000 0.0000 0.0000 35.3361
#
#
#
# Elastic Compliance Matrix: (Units=1/GPa)
#
#
# Indices 1 2 3 4 5 6 
#
# 1 0.011618 -0.000911 -0.004337 0.000000 0.000000 0.000000
# 2 -0.000911 0.012275 -0.003285 0.000000 0.000000 0.000000
# 3 -0.004337 -0.003285 0.011083 0.000000 0.000000 0.000000
# 4 0.000000 0.000000 0.000000 0.135836 0.000000 0.000000
# 5 0.000000 0.000000 0.000000 0.000000 0.025912 0.000000
# 6 0.000000 0.000000 0.000000 0.000000 0.000000 0.028300
#
#
# Mechanical properties :
#
#
# Convention : Reuss Voigt Hill
#
# Bulk Modulus (GPa) = 55.83237 58.14910 56.99073
# Shear Modulus (GPa) = 20.15651 30.51460 25.33556
#
# Velocity S-wave (km/s) = 3.09600 3.80931 3.47103
# Velocity P-wave (km/s) = 6.27142 6.85565 6.57003
#
# Compressibility (1/GPa) = 0.01791076
#
# Stress axis : x y z
#
# Youngs Moduli (GPa) = 86.07074 81.46906 90.23000
#
# Poissons Ratio (x) = 0.07424 0.39128
# Poissons Ratio (y) = 0.07844 0.29638
# Poissons Ratio (z) = 0.37325 0.26760
#
# Static dielectric constant tensor:
#      x y z
#    x 1.993440 0.000000 0.000000 
#    y 0.000000 1.783590 0.000000 
#    z 0.000000 0.000000 1.727530 
# 
# From -- ./inp_files/13250.got.cif
#   From: 2010.05.17/outbox.cif.g08.bks.cpg/sg37_7_cif.got.tgz:13250.got - 2010.06.03 17:53:42.
