data_PCOD9355087
_publ_section_title
;
Structure prediction by ZEFSAII (Michael W. Deem and Ramdas Pophale) SiO2 
 PCOD9355087
Probable space group: C C C 2
;
_chemical_formula_sum "Si O2"
_cell_formula_units_Z 48
_cell_length_a 5.960385
_cell_length_b 14.055718
_cell_length_c 26.827266
_cell_angle_alpha 90.000000
_cell_angle_beta 90.000000
_cell_angle_gamma 90.000000
_cell_volume 2247.521029
_symmetry_space_group_name_H-M "C C C 2"
_symmetry_group_IT_number 37
_symmetry_cell_setting 'orthorhombic'
loop_
_space_group_symop_operation_xyz
x,y,z
-x,-y,z
-x,y,1/2+z
x,-y,1/2+z
1/2+x,1/2+y,z
1/2-x,1/2-y,z
1/2-x,1/2+y,1/2+z
1/2+x,1/2-y,1/2+z
loop_
_atom_site_type_symbol
_atom_site_label
_atom_site_fract_x
_atom_site_fract_y
_atom_site_fract_z
Si Si1 0.377906 0.100912 0.185320
Si Si2 0.500000 0.500000 0.429932
Si Si3 0.162673 0.358401 0.478988
Si Si4 0.495098 0.201723 0.287303
Si Si5 0.000000 0.000000 0.639580
Si Si6 0.661792 0.141510 0.386139
Si Si7 0.149671 0.643874 0.090532
O O1 0.442727 0.161433 0.232829
O O2 0.120228 0.075824 0.175802
O O3 0.463405 0.142936 0.133212
O O4 0.500000 0.000000 0.191847
O O5 0.358899 0.431266 0.465762
O O6 0.358359 0.567391 0.393763
O O7 0.250000 0.250000 0.476920
O O8 0.069086 0.375699 0.534355
O O9 0.989132 0.371686 0.434639
O O10 0.250000 0.250000 0.300607
O O11 0.534313 0.130902 0.333857
O O12 0.750000 0.250000 0.283431
O O13 0.173645 0.061384 0.606570
O O14 0.750000 0.250000 0.387570
O O15 0.250000 0.750000 0.090385
#
# Coordination Sequence:
#
# PCOD9355087 Si02
#       7
#     8   4   8   8   4   8   8
#     4  10  24  43  66 100 142 182 243 299 360 440
#     4  12  25  42  79  98 144 198 236 304 380 432
#     4  11  23  44  69 104 146 187 246 302 364 446
#     4  11  27  48  78 104 143 190 243 309 367 439
#     4  10  23  42  65  96 144 182 238 298 356 442
#     4  11  25  48  70 104 144 187 246 304 371 442
#     4  10  23  41  67 101 139 188 237 295 363 426
#
# _framework density 21.356863000000001
#
# number of rings (size 3 to 8) (size 9 to 14) (size 15 to 20)
#    0.000    1.333    1.667    2.000    9.333    6.667 
#    0.000    0.833    0.000    0.000    0.000    0.000 
#    0.000    0.000    0.000    0.000    0.000    0.000 
#
# Total GULP energy -133931.251905 kJ/mol
# GULP energy per Si atom -5580.468829 kJ/mol
# Density = 2.130825 g / cm^3
# Si number density = 21.356863 Si / 1000 Ang^3
#
#
#
# Elastic Constant Matrix: (Units=GPa)
#
#
# Indices 1 2 3 4 5 6 
#
# 1 81.5536 33.9555 73.1355 0.0000 0.0000 0.0000
# 2 33.9555 97.9145 41.9679 0.0000 0.0000 0.0000
# 3 73.1355 41.9679 207.2866 0.0000 0.0000 0.0000
# 4 0.0000 0.0000 0.0000 -94.5157 0.0000 0.0000
# 5 0.0000 0.0000 0.0000 0.0000 24.9510 0.0000
# 6 0.0000 0.0000 0.0000 0.0000 0.0000 33.3513
#
#
#
# Elastic Compliance Matrix: (Units=1/GPa)
#
#
# Indices 1 2 3 4 5 6 
#
# 1 0.019361 -0.004146 -0.005992 0.000000 0.000000 0.000000
# 2 -0.004146 0.012071 -0.000981 0.000000 0.000000 0.000000
# 3 -0.005992 -0.000981 0.007137 0.000000 0.000000 0.000000
# 4 0.000000 0.000000 0.000000 -0.010580 0.000000 0.000000
# 5 0.000000 0.000000 0.000000 0.000000 0.040079 0.000000
# 6 0.000000 0.000000 0.000000 0.000000 0.000000 0.029984
#
#
# Mechanical properties :
#
#
# Convention : Reuss Voigt Hill
#
# Bulk Modulus (GPa) = 61.23076 76.09693 68.66385
# Shear Modulus (GPa) = 39.76658 8.60369 24.18514
#
# Velocity S-wave (km/s) = 4.31978 2.00930 3.36881
# Velocity P-wave (km/s) = 7.32210 6.41027 6.88130
#
# Compressibility (1/GPa) = 0.01633166
#
# Stress axis : x y z
#
# Youngs Moduli (GPa) = 51.64916 82.84069 140.11686
#
# Poissons Ratio (x) = 0.34347 0.83954
# Poissons Ratio (y) = 0.21414 0.13748
# Poissons Ratio (z) = 0.30947 0.08128
#
# Static dielectric constant tensor:
#      x y z
#    x 1.850720 0.000000 0.000000 
#    y 0.000000 1.793590 0.000000 
#    z 0.000000 0.000000 1.743880 
# 
# From -- ./inp_files/19399.got.cif
#   From: 2010.05.17/outbox.cif.g08.bks.cpg/sg37_10_cif.got.tgz:19399.got - 2010.06.03 17:53:42.
