data_PCOD9355701
_publ_section_title
;
Structure prediction by ZEFSAII (Michael W. Deem and Ramdas Pophale) SiO2 
 PCOD9355701
Probable space group: C C C 2
;
_chemical_formula_sum "Si O2"
_cell_formula_units_Z 32
_cell_length_a 4.867906
_cell_length_b 32.879936
_cell_length_c 8.298614
_cell_angle_alpha 90.000000
_cell_angle_beta 90.000000
_cell_angle_gamma 90.000000
_cell_volume 1328.246595
_symmetry_space_group_name_H-M "C C C 2"
_symmetry_group_IT_number 37
_symmetry_cell_setting 'orthorhombic'
loop_
_space_group_symop_operation_xyz
x,y,z
-x,-y,z
-x,y,1/2+z
x,-y,1/2+z
1/2+x,1/2+y,z
1/2-x,1/2-y,z
1/2-x,1/2+y,1/2+z
1/2+x,1/2-y,1/2+z
loop_
_atom_site_type_symbol
_atom_site_label
_atom_site_fract_x
_atom_site_fract_y
_atom_site_fract_z
Si Si1 0.103309 0.454121 0.775250
Si Si2 0.844595 0.295495 0.632063
Si Si3 0.139206 0.827999 0.961144
Si Si4 0.874084 0.922440 0.456094
O O1 0.238297 0.447131 0.601911
O O2 0.336904 0.441115 0.902611
O O3 0.000000 0.500000 0.793810
O O4 0.836998 0.426539 0.806901
O O5 0.750000 0.250000 0.674159
O O6 0.658800 0.308358 0.479964
O O7 0.155307 0.303906 0.580148
O O8 0.756298 0.322907 0.782544
O O9 0.113265 0.875337 0.003643
#
# Coordination Sequence:
#
# PCOD9355701 Si02
#       4
#     8   8   8   8
#     4  12  26  45  71 102 138 179 227 286 346 411
#     4  12  24  42  66 100 139 182 231 286 342 404
#     4  12  25  44  70 100 137 184 231 284 343 409
#     4  12  25  47  71 102 138 181 231 284 344 416
#
# _framework density 24.091912000000001
#
# number of rings (size 3 to 8) (size 9 to 14) (size 15 to 20)
#    0.000    0.000    0.000   11.250    0.000    2.000 
#    0.000    1.250    0.000    0.000    0.000    0.000 
#    0.000    0.000    0.000    0.000    0.000    0.000 
#
# Total GULP energy -89754.397199 kJ/mol
# GULP energy per Si atom -5609.649825 kJ/mol
# Density = 2.403708 g / cm^3
# Si number density = 24.091912 Si / 1000 Ang^3
#
#
#
# Elastic Constant Matrix: (Units=GPa)
#
#
# Indices 1 2 3 4 5 6 
#
# 1 128.5504 47.5568 10.1624 0.0000 0.0000 0.0000
# 2 47.5568 164.6568 9.0949 0.0000 0.0000 0.0000
# 3 10.1624 9.0949 76.3456 0.0000 0.0000 0.0000
# 4 0.0000 0.0000 0.0000 21.0413 0.0000 0.0000
# 5 0.0000 0.0000 0.0000 0.0000 33.9208 0.0000
# 6 0.0000 0.0000 0.0000 0.0000 0.0000 -84.3156
#
#
#
# Elastic Compliance Matrix: (Units=1/GPa)
#
#
# Indices 1 2 3 4 5 6 
#
# 1 0.008767 -0.002484 -0.000871 0.000000 0.000000 0.000000
# 2 -0.002484 0.006817 -0.000481 0.000000 0.000000 0.000000
# 3 -0.000871 -0.000481 0.013272 0.000000 0.000000 0.000000
# 4 0.000000 0.000000 0.000000 0.047525 0.000000 0.000000
# 5 0.000000 0.000000 0.000000 0.000000 0.029480 0.000000
# 6 0.000000 0.000000 0.000000 0.000000 0.000000 -0.011860
#
#
# Mechanical properties :
#
#
# Convention : Reuss Voigt Hill
#
# Bulk Modulus (GPa) = 47.20824 55.90900 51.55862
# Shear Modulus (GPa) = 45.98318 14.31188 30.14753
#
# Velocity S-wave (km/s) = 4.37356 2.43996 3.54129
# Velocity P-wave (km/s) = 6.71875 5.58523 6.17804
#
# Compressibility (1/GPa) = 0.02118274
#
# Stress axis : x y z
#
# Youngs Moduli (GPa) = 114.06613 146.68650 75.34869
#
# Poissons Ratio (x) = 0.36436 0.06563
# Poissons Ratio (y) = 0.28334 0.03628
# Poissons Ratio (z) = 0.09936 0.07063
#
# Static dielectric constant tensor:
#      x y z
#    x 1.861500 0.000000 0.000000 
#    y 0.000000 1.898530 0.000000 
#    z 0.000000 0.000000 1.917640 
# 
# From -- ./inp_files/1708.got.cif
#   From: 2010.05.17/outbox.cif.g08.bks.cpg/sg37_1_cif.got.tgz:1708.got - 2010.06.03 17:53:42.
