data_PCOD9355802
_publ_section_title
;
Structure prediction by ZEFSAII (Michael W. Deem and Ramdas Pophale) SiO2 
 PCOD9355802
Probable space group: A M M 2
;
_chemical_formula_sum "Si O2"
_cell_formula_units_Z 40
_cell_length_a 13.640976
_cell_length_b 20.086345
_cell_length_c 8.506755
_cell_angle_alpha 90.000000
_cell_angle_beta 90.000000
_cell_angle_gamma 90.000000
_cell_volume 2330.828328
_symmetry_space_group_name_H-M "A M M 2"
_symmetry_group_IT_number 38
_symmetry_cell_setting 'orthorhombic'
loop_
_space_group_symop_operation_xyz
x,y,z
-x,-y,z
-x,y,z
x,-y,z
x,1/2+y,1/2+z
-x,1/2-y,1/2+z
-x,1/2+y,1/2+z
x,1/2-y,1/2+z
loop_
_atom_site_type_symbol
_atom_site_label
_atom_site_fract_x
_atom_site_fract_y
_atom_site_fract_z
Si Si1 0.000000 0.278157 0.855940
Si Si2 0.792376 0.676360 0.825734
Si Si3 0.000000 0.851715 0.690503
Si Si4 0.675389 0.223329 0.038739
Si Si5 0.392854 0.152470 0.736777
Si Si6 0.203179 0.920854 0.608119
O O1 0.902667 0.307496 0.777836
O O2 0.000000 0.199040 0.835362
O O3 0.000000 0.304837 0.034486
O O4 0.722656 0.679096 0.675675
O O5 0.758423 0.737342 0.939034
O O6 0.789211 0.611137 0.933530
O O7 0.899361 0.893475 0.679990
O O8 0.616640 0.282770 0.123656
O O9 0.616805 0.180348 0.913215
O O10 0.500000 0.121332 0.712237
O O11 0.298620 0.107210 0.698889
O O12 0.202440 0.000000 0.605270
#
# Coordination Sequence:
#
# PCOD9355802 Si02
#       6
#     4   8   4   8   8   8
#     4  10  16  26  48  78 100 124 160 202 252 296
#     4   9  17  29  49  74 104 133 162 207 253 298
#     4  10  19  32  54  78 103 130 160 206 256 298
#     4   9  17  31  49  76 102 123 161 213 268 304
#     4  10  19  32  53  76 101 131 165 213 260 301
#     4  10  21  35  50  71 103 142 176 200 235 297
#
# _framework density 17.161280999999999
#
# number of rings (size 3 to 8) (size 9 to 14) (size 15 to 20)
#    0.000    2.400    0.000    5.700    0.000    0.400 
#    0.000    2.000    0.000    0.000    0.000    7.000 
#    0.000    0.000    0.000    0.000    0.000    0.000 
#
# Total GULP energy -111485.881712 kJ/mol
# GULP energy per Si atom -5574.294086 kJ/mol
# Density = 1.712222 g / cm^3
# Si number density = 17.161281 Si / 1000 Ang^3
#
#
#
# Elastic Constant Matrix: (Units=GPa)
#
#
# Indices 1 2 3 4 5 6 
#
# 1 147.1266 58.7143 35.2001 0.0000 0.0000 0.0000
# 2 58.7143 110.6145 34.1471 0.0000 0.0000 0.0000
# 3 35.2001 34.1471 62.8030 0.0000 0.0000 0.0000
# 4 0.0000 0.0000 0.0000 14.6199 0.0000 0.0000
# 5 0.0000 0.0000 0.0000 0.0000 7.5702 0.0000
# 6 0.0000 0.0000 0.0000 0.0000 0.0000 6.9442
#
#
#
# Elastic Compliance Matrix: (Units=1/GPa)
#
#
# Indices 1 2 3 4 5 6 
#
# 1 0.009059 -0.003895 -0.002960 0.000000 0.000000 0.000000
# 2 -0.003895 0.012539 -0.004634 0.000000 0.000000 0.000000
# 3 -0.002960 -0.004634 0.020102 0.000000 0.000000 0.000000
# 4 0.000000 0.000000 0.000000 0.068400 0.000000 0.000000
# 5 0.000000 0.000000 0.000000 0.000000 0.132098 0.000000
# 6 0.000000 0.000000 0.000000 0.000000 0.000000 0.144006
#
#
# Mechanical properties :
#
#
# Convention : Reuss Voigt Hill
#
# Bulk Modulus (GPa) = 53.41583 64.07413 58.74498
# Shear Modulus (GPa) = 12.03597 18.65901 15.34749
#
# Velocity S-wave (km/s) = 2.65116 3.30096 2.99374
# Velocity P-wave (km/s) = 6.36906 7.20735 6.80113
#
# Compressibility (1/GPa) = 0.01872104
#
# Stress axis : x y z
#
# Youngs Moduli (GPa) = 110.38240 79.75416 49.74747
#
# Poissons Ratio (x) = 0.31064 0.14725
# Poissons Ratio (y) = 0.42994 0.23055
# Poissons Ratio (z) = 0.32672 0.36961
#
# Static dielectric constant tensor:
#      x y z
#    x 1.632600 0.000000 0.000000 
#    y 0.000000 1.545260 0.000000 
#    z 0.000000 0.000000 1.588630 
# 
# From -- ./inp_files/4466.got.cif
#   From: 2010.05.17/outbox.cif.g08.bks.cpg/sg38_3_cif.got.tgz:4466.got - 2010.06.03 18:07:57.
