data_PCOD9355698
_publ_section_title
;
Structure prediction by ZEFSAII (Michael W. Deem and Ramdas Pophale) SiO2 
 PCOD9355698
Probable space group: C C C 2
;
_chemical_formula_sum "Si O2"
_cell_formula_units_Z 56
_cell_length_a 13.356254
_cell_length_b 20.778408
_cell_length_c 9.021428
_cell_angle_alpha 90.000000
_cell_angle_beta 90.000000
_cell_angle_gamma 90.000000
_cell_volume 2503.641990
_symmetry_space_group_name_H-M "C C C 2"
_symmetry_group_IT_number 37
_symmetry_cell_setting 'orthorhombic'
loop_
_space_group_symop_operation_xyz
x,y,z
-x,-y,z
-x,y,1/2+z
x,-y,1/2+z
1/2+x,1/2+y,z
1/2-x,1/2-y,z
1/2-x,1/2+y,1/2+z
1/2+x,1/2-y,1/2+z
loop_
_atom_site_type_symbol
_atom_site_label
_atom_site_fract_x
_atom_site_fract_y
_atom_site_fract_z
Si Si1 0.793752 0.685654 0.722680
Si Si2 0.932903 0.154312 0.700593
Si Si3 0.424658 0.944620 0.696349
Si Si4 0.368246 0.582066 0.304568
Si Si5 0.430735 0.869554 0.993406
Si Si6 0.696613 0.456600 0.629835
Si Si7 0.963478 0.243878 0.422657
O O1 0.750000 0.750000 0.647084
O O2 0.707545 0.642993 0.797771
O O3 0.839117 0.635791 0.605509
O O4 0.874397 0.717214 0.837338
O O5 0.837244 0.108272 0.717172
O O6 0.932404 0.188692 0.539566
O O7 0.027177 0.108329 0.739821
O O8 0.955959 0.212223 0.812277
O O9 0.486194 0.915291 0.561737
O O10 0.316464 0.963130 0.633455
O O11 0.500000 0.000000 0.754259
O O12 0.409434 0.893394 0.828586
O O13 0.355665 0.554361 0.470603
O O14 0.341296 0.521795 0.202376
O O15 0.476800 0.798957 0.005650
#
# Coordination Sequence:
#
# PCOD9355698 Si02
#       7
#     8   8   8   8   8   8   8
#     4  12  23  45  77 109 152 198 262 319 399 465
#     4  12  25  49  74 109 156 201 260 321 393 465
#     4  12  28  48  76 106 155 200 267 328 398 478
#     4  12  28  49  75 111 158 207 263 327 394 465
#     4  12  25  46  72 110 148 197 251 331 387 469
#     4  12  30  47  76 114 151 213 263 325 392 483
#     4  12  23  45  76 108 148 205 254 326 395 466
#
# _framework density 22.367415000000001
#
# number of rings (size 3 to 8) (size 9 to 14) (size 15 to 20)
#    0.000    0.000    5.714    2.571    8.000    2.286 
#    0.000    1.429    0.000    0.000    0.000    0.000 
#    0.000    0.000    0.000    0.000    0.000    0.000 
#
# Total GULP energy -156417.885044 kJ/mol
# GULP energy per Si atom -5586.353037 kJ/mol
# Density = 2.231651 g / cm^3
# Si number density = 22.367415 Si / 1000 Ang^3
#
#
#
# Elastic Constant Matrix: (Units=GPa)
#
#
# Indices 1 2 3 4 5 6 
#
# 1 72.9673 14.8269 15.9217 0.0000 0.0000 0.0000
# 2 14.8269 104.9361 32.6626 0.0000 0.0000 0.0000
# 3 15.9217 32.6626 55.2287 0.0000 0.0000 0.0000
# 4 0.0000 0.0000 0.0000 54.6775 0.0000 0.0000
# 5 0.0000 0.0000 0.0000 0.0000 36.5694 0.0000
# 6 0.0000 0.0000 0.0000 0.0000 0.0000 29.0029
#
#
#
# Elastic Compliance Matrix: (Units=1/GPa)
#
#
# Indices 1 2 3 4 5 6 
#
# 1 0.014698 -0.000929 -0.003688 0.000000 0.000000 0.000000
# 2 -0.000929 0.011738 -0.006674 0.000000 0.000000 0.000000
# 3 -0.003688 -0.006674 0.023117 0.000000 0.000000 0.000000
# 4 0.000000 0.000000 0.000000 0.018289 0.000000 0.000000
# 5 0.000000 0.000000 0.000000 0.000000 0.027345 0.000000
# 6 0.000000 0.000000 0.000000 0.000000 0.000000 0.034479
#
#
# Mechanical properties :
#
#
# Convention : Reuss Voigt Hill
#
# Bulk Modulus (GPa) = 37.07659 39.99493 38.53576
# Shear Modulus (GPa) = 31.00970 35.36469 33.18719
#
# Velocity S-wave (km/s) = 3.72745 3.98059 3.85610
# Velocity P-wave (km/s) = 5.92767 6.24872 6.09031
#
# Compressibility (1/GPa) = 0.02697120
#
# Stress axis : x y z
#
# Youngs Moduli (GPa) = 68.03540 85.19109 43.25827
#
# Poissons Ratio (x) = 0.07913 0.15954
# Poissons Ratio (y) = 0.06320 0.28872
# Poissons Ratio (z) = 0.25091 0.56859
#
# Static dielectric constant tensor:
#      x y z
#    x 1.821990 0.000000 0.000000 
#    y 0.000000 1.796640 0.000000 
#    z 0.000000 0.000000 1.869160 
# 
# From -- ./inp_files/3660.got.cif
#   From: 2010.05.17/outbox.cif.g08.bks.cpg/sg37_2_cif.got.tgz:3660.got - 2010.06.03 17:53:42.
