data_PCOD9355404
_publ_section_title
;
Structure prediction by ZEFSAII (Michael W. Deem and Ramdas Pophale) SiO2 
 PCOD9355404
Probable space group: C C C 2
;
_chemical_formula_sum "Si O2"
_cell_formula_units_Z 32
_cell_length_a 11.805764
_cell_length_b 9.042561
_cell_length_c 10.373561
_cell_angle_alpha 90.000000
_cell_angle_beta 90.000000
_cell_angle_gamma 90.000000
_cell_volume 1107.422670
_symmetry_space_group_name_H-M "C C C 2"
_symmetry_group_IT_number 37
_symmetry_cell_setting 'orthorhombic'
loop_
_space_group_symop_operation_xyz
x,y,z
-x,-y,z
-x,y,1/2+z
x,-y,1/2+z
1/2+x,1/2+y,z
1/2-x,1/2-y,z
1/2-x,1/2+y,1/2+z
1/2+x,1/2-y,1/2+z
loop_
_atom_site_type_symbol
_atom_site_label
_atom_site_fract_x
_atom_site_fract_y
_atom_site_fract_z
Si Si1 0.250000 0.250000 0.106550
Si Si2 0.110052 0.808251 0.850024
Si Si3 0.624441 0.969984 0.508152
Si Si4 0.500000 0.500000 0.535813
Si Si5 0.884720 0.754608 0.729560
O O1 0.158732 0.181853 0.205968
O O2 0.194395 0.381636 0.027395
O O3 0.166267 0.662369 0.916335
O O4 0.100517 0.962005 0.927387
O O5 0.976297 0.764503 0.842006
O O6 0.607353 0.896503 0.648278
O O7 0.500000 0.000000 0.460432
O O8 0.438868 0.380384 0.633627
O O9 0.750000 0.750000 0.758217
#
# Coordination Sequence:
#
# PCOD9355404 Si02
#       5
#     4   8   8   4   8
#     4  12  28  52  86 114 176 224 284 356 422 506
#     4  11  27  50  82 122 171 223 281 347 441 501
#     4  11  27  51  77 120 169 221 290 351 414 515
#     4  10  26  48  80 126 170 216 286 348 422 518
#     4  11  26  50  79 118 173 220 281 352 420 513
#
# _framework density 28.895921000000001
#
# number of rings (size 3 to 8) (size 9 to 14) (size 15 to 20)
#    0.000    1.000    2.500    0.750   17.500    0.000 
#    6.750    0.000    0.000    0.000    0.000    0.000 
#    0.000    0.000    0.000    0.000    0.000    0.000 
#
# Total GULP energy -89199.828771 kJ/mol
# GULP energy per Si atom -5574.989298 kJ/mol
# Density = 2.883015 g / cm^3
# Si number density = 28.895921 Si / 1000 Ang^3
#
#
#
# Elastic Constant Matrix: (Units=GPa)
#
#
# Indices 1 2 3 4 5 6 
#
# 1 168.4576 107.0983 39.5101 0.0000 0.0000 0.0000
# 2 107.0983 234.6069 77.4398 0.0000 0.0000 0.0000
# 3 39.5101 77.4398 73.3457 0.0000 0.0000 0.0000
# 4 0.0000 0.0000 0.0000 46.4968 0.0000 0.0000
# 5 0.0000 0.0000 0.0000 0.0000 45.3262 0.0000
# 6 0.0000 0.0000 0.0000 0.0000 0.0000 90.6454
#
#
#
# Elastic Compliance Matrix: (Units=1/GPa)
#
#
# Indices 1 2 3 4 5 6 
#
# 1 0.008389 -0.003589 -0.000730 0.000000 0.000000 0.000000
# 2 -0.003589 0.008078 -0.006595 0.000000 0.000000 0.000000
# 3 -0.000730 -0.006595 0.020991 0.000000 0.000000 0.000000
# 4 0.000000 0.000000 0.000000 0.021507 0.000000 0.000000
# 5 0.000000 0.000000 0.000000 0.000000 0.022062 0.000000
# 6 0.000000 0.000000 0.000000 0.000000 0.000000 0.011032
#
#
# Mechanical properties :
#
#
# Convention : Reuss Voigt Hill
#
# Bulk Modulus (GPa) = 63.98235 102.72297 83.35266
# Shear Modulus (GPa) = 41.98267 53.31780 47.65023
#
# Velocity S-wave (km/s) = 3.81582 4.30020 4.06523
# Velocity P-wave (km/s) = 6.45014 7.76416 7.13745
#
# Compressibility (1/GPa) = 0.01562931
#
# Stress axis : x y z
#
# Youngs Moduli (GPa) = 119.20508 123.79781 47.63949
#
# Poissons Ratio (x) = 0.44425 0.03478
# Poissons Ratio (y) = 0.42777 0.31421
# Poissons Ratio (z) = 0.08703 0.81651
#
# Static dielectric constant tensor:
#      x y z
#    x 2.312730 0.000000 0.000000 
#    y 0.000000 2.210000 0.000000 
#    z 0.000000 0.000000 2.332250 
# 
# From -- ./inp_files/7580.got.cif
#   From: 2010.05.17/outbox.cif.g08.bks.cpg/sg37_4_cif.got.tgz:7580.got - 2010.06.03 17:53:42.
