data_PCOD9355620
_publ_section_title
;
Structure prediction by ZEFSAII (Michael W. Deem and Ramdas Pophale) SiO2 
 PCOD9355620
Probable space group: C C C 2
;
_chemical_formula_sum "Si O2"
_cell_formula_units_Z 48
_cell_length_a 9.350201
_cell_length_b 9.741816
_cell_length_c 25.095995
_cell_angle_alpha 90.000000
_cell_angle_beta 90.000000
_cell_angle_gamma 90.000000
_cell_volume 2285.942429
_symmetry_space_group_name_H-M "C C C 2"
_symmetry_group_IT_number 37
_symmetry_cell_setting 'orthorhombic'
loop_
_space_group_symop_operation_xyz
x,y,z
-x,-y,z
-x,y,1/2+z
x,-y,1/2+z
1/2+x,1/2+y,z
1/2-x,1/2-y,z
1/2-x,1/2+y,1/2+z
1/2+x,1/2-y,1/2+z
loop_
_atom_site_type_symbol
_atom_site_label
_atom_site_fract_x
_atom_site_fract_y
_atom_site_fract_z
Si Si1 0.667815 0.973423 0.914800
Si Si2 0.250000 0.750000 0.327857
Si Si3 0.750000 0.750000 0.372086
Si Si4 0.000000 0.000000 0.703886
Si Si5 0.831937 0.405420 0.536947
Si Si6 0.456513 0.740161 0.774328
Si Si7 0.000000 0.500000 0.703209
Si Si8 0.257283 0.596148 0.128120
O O1 0.717635 0.875094 0.867388
O O2 0.500000 0.000000 0.907204
O O3 0.749701 0.116081 0.907805
O O4 0.688494 0.917832 0.974100
O O5 0.379534 0.717966 0.289037
O O6 0.619591 0.751969 0.330855
O O7 0.086693 0.892082 0.740123
O O8 0.894334 0.917972 0.665696
O O9 0.750000 0.250000 0.547657
O O10 0.743801 0.494938 0.578385
O O11 0.000000 0.500000 0.542833
O O12 0.441808 0.878129 0.740464
O O13 0.876963 0.559895 0.665585
O O14 0.250000 0.750000 0.107679
#
# Coordination Sequence:
#
# PCOD9355620 Si02
#       8
#     8   4   4   4   8   8   4   8
#     4  11  24  48  71 105 147 185 241 307 375 443
#     4  12  22  46  70 102 146 190 240 304 366 440
#     4  12  24  42  72 108 136 194 244 292 360 448
#     4  12  26  44  68 106 146 184 250 308 362 446
#     4  11  27  50  82 109 148 198 248 316 398 461
#     4  12  24  42  69 104 143 194 244 293 363 443
#     4  12  24  48  68  98 148 198 236 302 370 442
#     4  12  27  48  73 106 143 192 249 309 378 448
#
# _framework density 20.997902
#
# number of rings (size 3 to 8) (size 9 to 14) (size 15 to 20)
#    0.000    0.333    5.000    4.000    5.833    0.000 
#    0.000    1.667    0.000    0.000    0.000    0.000 
#    0.000    0.000    0.000    0.000    0.000    0.000 
#
# Total GULP energy -133625.789531 kJ/mol
# GULP energy per Si atom -5567.741230 kJ/mol
# Density = 2.095011 g / cm^3
# Si number density = 20.997902 Si / 1000 Ang^3
#
#
#
# Elastic Constant Matrix: (Units=GPa)
#
#
# Indices 1 2 3 4 5 6 
#
# 1 58.8852 7.4262 11.9182 0.0000 0.0000 0.0000
# 2 7.4262 178.2459 47.5058 0.0000 0.0000 0.0000
# 3 11.9182 47.5058 71.6150 0.0000 0.0000 0.0000
# 4 0.0000 0.0000 0.0000 39.6939 0.0000 0.0000
# 5 0.0000 0.0000 0.0000 0.0000 -3.7541 0.0000
# 6 0.0000 0.0000 0.0000 0.0000 0.0000 19.9145
#
#
#
# Elastic Compliance Matrix: (Units=1/GPa)
#
#
# Indices 1 2 3 4 5 6 
#
# 1 0.017575 0.000057 -0.002963 0.000000 0.000000 0.000000
# 2 0.000057 0.006815 -0.004530 0.000000 0.000000 0.000000
# 3 -0.002963 -0.004530 0.017462 0.000000 0.000000 0.000000
# 4 0.000000 0.000000 0.000000 0.025193 0.000000 0.000000
# 5 0.000000 0.000000 0.000000 0.000000 -0.266374 0.000000
# 6 0.000000 0.000000 0.000000 0.000000 0.000000 0.050215
#
#
# Mechanical properties :
#
#
# Convention : Reuss Voigt Hill
#
# Bulk Modulus (GPa) = 37.06447 49.16072 43.11260
# Shear Modulus (GPa) = -39.92016 27.29725 -6.31146
#
# Velocity S-wave (km/s) = -4.36495 3.60946 -1.73559
# Velocity P-wave (km/s) = 2.77738 6.39015 4.06941
#
# Compressibility (1/GPa) = 0.02698001
#
# Stress axis : x y z
#
# Youngs Moduli (GPa) = 56.90022 146.72892 57.26749
#
# Poissons Ratio (x) = -0.00843 0.16968
# Poissons Ratio (y) = -0.00327 0.25945
# Poissons Ratio (z) = 0.16859 0.66475
#
# Static dielectric constant tensor:
#      x y z
#    x 1.972120 0.000000 0.000000 
#    y 0.000000 2.022000 0.000000 
#    z 0.000000 0.000000 1.677410 
# 
# From -- ./inp_files/20393.got.cif
#   From: 2010.05.17/outbox.cif.g08.bks.cpg/sg37_11_cif.got.tgz:20393.got - 2010.06.03 17:53:42.
