data_PCOD9355224
_publ_section_title
;
Structure prediction by ZEFSAII (Michael W. Deem and Ramdas Pophale) SiO2 
 PCOD9355224
Probable space group: C C C 2
;
_chemical_formula_sum "Si O2"
_cell_formula_units_Z 52
_cell_length_a 11.258594
_cell_length_b 23.595437
_cell_length_c 9.517243
_cell_angle_alpha 90.000000
_cell_angle_beta 90.000000
_cell_angle_gamma 90.000000
_cell_volume 2528.269360
_symmetry_space_group_name_H-M "C C C 2"
_symmetry_group_IT_number 37
_symmetry_cell_setting 'orthorhombic'
loop_
_space_group_symop_operation_xyz
x,y,z
-x,-y,z
-x,y,1/2+z
x,-y,1/2+z
1/2+x,1/2+y,z
1/2-x,1/2-y,z
1/2-x,1/2+y,1/2+z
1/2+x,1/2-y,1/2+z
loop_
_atom_site_type_symbol
_atom_site_label
_atom_site_fract_x
_atom_site_fract_y
_atom_site_fract_z
Si Si1 0.230418 0.590635 0.229190
Si Si2 0.868324 0.023678 0.731893
Si Si3 0.627369 0.386435 0.498041
Si Si4 0.143768 0.123809 0.447980
Si Si5 0.500000 0.000000 0.961672
Si Si6 0.449610 0.918064 0.708843
Si Si7 0.759127 0.683819 0.220164
O O1 0.273153 0.525747 0.232260
O O2 0.276119 0.615323 0.375833
O O3 0.090441 0.595943 0.205931
O O4 0.307023 0.615810 0.102674
O O5 0.875255 0.053436 0.579406
O O6 0.833204 0.069229 0.849263
O O7 0.000000 0.000000 0.763061
O O8 0.497572 0.371537 0.443644
O O9 0.662318 0.343461 0.618395
O O10 0.212726 0.175112 0.377498
O O11 0.562864 0.044101 0.852413
O O12 0.429103 0.041237 0.071522
O O13 0.372117 0.860020 0.705164
O O14 0.750000 0.750000 0.187695
#
# Coordination Sequence:
#
# PCOD9355224 Si02
#       7
#     8   8   8   8   4   8   8
#     4  12  23  35  69 105 149 182 236 290 355 436
#     4  11  21  36  63 101 150 193 224 276 350 429
#     4  11  23  42  66 102 136 185 246 286 355 418
#     4  11  23  42  66 102 136 185 246 286 355 418
#     4  10  24  42  64 106 154 178 220 284 352 456
#     4  11  25  43  68 106 142 192 231 283 371 430
#     4  11  27  54  72  92 139 196 244 305 361 428
#
# _framework density 20.567429000000001
#
# number of rings (size 3 to 8) (size 9 to 14) (size 15 to 20)
#    0.000    0.923    3.077    3.692   12.923    0.000 
#    8.308    0.769    0.000    0.000    0.000    0.000 
#    0.000    0.000    0.000    0.000    0.000    0.000 
#
# Total GULP energy -145209.801802 kJ/mol
# GULP energy per Si atom -5584.992377 kJ/mol
# Density = 2.052062 g / cm^3
# Si number density = 20.567429 Si / 1000 Ang^3
#
#
#
# Elastic Constant Matrix: (Units=GPa)
#
#
# Indices 1 2 3 4 5 6 
#
# 1 103.9272 24.3134 -15.5952 0.0000 0.0000 0.0000
# 2 24.3134 99.2494 9.7184 0.0000 0.0000 0.0000
# 3 -15.5952 9.7184 88.3214 0.0000 0.0000 0.0000
# 4 0.0000 0.0000 0.0000 12.5620 0.0000 0.0000
# 5 0.0000 0.0000 0.0000 0.0000 1.6506 0.0000
# 6 0.0000 0.0000 0.0000 0.0000 0.0000 14.1856
#
#
#
# Elastic Compliance Matrix: (Units=1/GPa)
#
#
# Indices 1 2 3 4 5 6 
#
# 1 0.010608 -0.002812 0.002182 0.000000 0.000000 0.000000
# 2 -0.002812 0.010931 -0.001699 0.000000 0.000000 0.000000
# 3 0.002182 -0.001699 0.011895 0.000000 0.000000 0.000000
# 4 0.000000 0.000000 0.000000 0.079605 0.000000 0.000000
# 5 0.000000 0.000000 0.000000 0.000000 0.605846 0.000000
# 6 0.000000 0.000000 0.000000 0.000000 0.000000 0.070494
#
#
# Mechanical properties :
#
#
# Convention : Reuss Voigt Hill
#
# Bulk Modulus (GPa) = 34.75264 36.48570 35.61917
# Shear Modulus (GPa) = 6.22178 23.88373 15.05275
#
# Velocity S-wave (km/s) = 1.74116 3.41139 2.70825
# Velocity P-wave (km/s) = 4.57993 5.77017 5.20916
#
# Compressibility (1/GPa) = 0.02877479
#
# Stress axis : x y z
#
# Youngs Moduli (GPa) = 94.27259 91.48334 84.07154
#
# Poissons Ratio (x) = 0.25727 -0.18348
# Poissons Ratio (y) = 0.26512 0.14287
# Poissons Ratio (z) = -0.20575 0.15546
#
# Static dielectric constant tensor:
#      x y z
#    x 1.817450 0.000000 0.000000 
#    y 0.000000 1.777860 0.000000 
#    z 0.000000 0.000000 1.756010 
# 
# From -- ./inp_files/3001.got.cif
#   From: 2010.05.17/outbox.cif.g08.bks.cpg/sg37_2_cif.got.tgz:3001.got - 2010.06.03 17:53:42.
