data_PCOD9355060
_publ_section_title
;
Structure prediction by ZEFSAII (Michael W. Deem and Ramdas Pophale) SiO2 
 PCOD9355060
Probable space group: C C C 2
;
_chemical_formula_sum "Si O2"
_cell_formula_units_Z 52
_cell_length_a 8.478331
_cell_length_b 25.751535
_cell_length_c 11.741132
_cell_angle_alpha 90.000000
_cell_angle_beta 90.000000
_cell_angle_gamma 90.000000
_cell_volume 2563.441790
_symmetry_space_group_name_H-M "C C C 2"
_symmetry_group_IT_number 37
_symmetry_cell_setting 'orthorhombic'
loop_
_space_group_symop_operation_xyz
x,y,z
-x,-y,z
-x,y,1/2+z
x,-y,1/2+z
1/2+x,1/2+y,z
1/2-x,1/2-y,z
1/2-x,1/2+y,1/2+z
1/2+x,1/2-y,1/2+z
loop_
_atom_site_type_symbol
_atom_site_label
_atom_site_fract_x
_atom_site_fract_y
_atom_site_fract_z
Si Si1 0.765996 0.582274 0.700370
Si Si2 0.594784 0.831750 0.536085
Si Si3 0.931982 0.124501 0.641973
Si Si4 0.827592 0.591489 0.965043
Si Si5 0.000000 0.500000 0.089232
Si Si6 0.665624 0.301628 0.835902
Si Si7 0.569816 0.731231 0.011754
O O1 0.848664 0.631157 0.637167
O O2 0.583584 0.588465 0.662684
O O3 0.771028 0.587167 0.836137
O O4 0.867166 0.531616 0.661615
O O5 0.447640 0.860441 0.476238
O O6 0.727748 0.819962 0.442342
O O7 0.530243 0.776152 0.572468
O O8 0.809341 0.097698 0.557818
O O9 0.857061 0.147974 0.757477
O O10 0.964719 0.178596 0.578273
O O11 0.920686 0.541423 0.006575
O O12 0.750000 0.250000 0.783600
O O13 0.501110 0.280317 0.886595
O O14 0.750000 0.750000 0.007424
#
# Coordination Sequence:
#
# PCOD9355060 Si02
#       7
#     8   8   8   8   4   8   8
#     4  11  25  46  73  99 136 176 224 296 348 420
#     4  10  23  40  67  97 140 184 231 274 327 408
#     4  12  24  41  67 105 140 179 228 281 338 412
#     4  11  25  45  73 102 130 178 227 287 362 412
#     4  10  26  52  72 102 126 168 240 288 368 428
#     4  10  23  40  60  96 146 191 227 273 322 394
#     4  11  21  40  60 100 144 186 231 271 325 398
#
# _framework density 20.285226000000002
#
# number of rings (size 3 to 8) (size 9 to 14) (size 15 to 20)
#    0.000    1.231    3.077    1.846    4.308    1.846 
#    0.000    1.538    0.000    0.000    0.000    0.000 
#    0.000    0.000    0.000    0.000    0.000    0.000 
#
# Total GULP energy -145163.619712 kJ/mol
# GULP energy per Si atom -5583.216143 kJ/mol
# Density = 2.023906 g / cm^3
# Si number density = 20.285226 Si / 1000 Ang^3
#
#
#
# Elastic Constant Matrix: (Units=GPa)
#
#
# Indices 1 2 3 4 5 6 
#
# 1 129.5862 32.3523 54.9722 0.0000 0.0000 0.0000
# 2 32.3523 88.9702 16.2575 0.0000 0.0000 0.0000
# 3 54.9722 16.2575 81.7496 0.0000 0.0000 0.0000
# 4 0.0000 0.0000 0.0000 27.2955 0.0000 0.0000
# 5 0.0000 0.0000 0.0000 0.0000 17.3577 0.0000
# 6 0.0000 0.0000 0.0000 0.0000 0.0000 44.9304
#
#
#
# Elastic Compliance Matrix: (Units=1/GPa)
#
#
# Indices 1 2 3 4 5 6 
#
# 1 0.011459 -0.002863 -0.007136 0.000000 0.000000 0.000000
# 2 -0.002863 0.012379 -0.000537 0.000000 0.000000 0.000000
# 3 -0.007136 -0.000537 0.017138 0.000000 0.000000 0.000000
# 4 0.000000 0.000000 0.000000 0.036636 0.000000 0.000000
# 5 0.000000 0.000000 0.000000 0.000000 0.057611 0.000000
# 6 0.000000 0.000000 0.000000 0.000000 0.000000 0.022257
#
#
# Mechanical properties :
#
#
# Convention : Reuss Voigt Hill
#
# Bulk Modulus (GPa) = 50.24047 56.38554 53.31301
# Shear Modulus (GPa) = 26.99996 31.03165 29.01581
#
# Velocity S-wave (km/s) = 3.65227 3.91547 3.78615
# Velocity P-wave (km/s) = 6.52734 6.94967 6.74181
#
# Compressibility (1/GPa) = 0.01990427
#
# Stress axis : x y z
#
# Youngs Moduli (GPa) = 87.26888 80.78330 58.35036
#
# Poissons Ratio (x) = 0.23127 0.41640
# Poissons Ratio (y) = 0.24983 0.03132
# Poissons Ratio (z) = 0.62276 0.04335
#
# Static dielectric constant tensor:
#      x y z
#    x 1.754760 0.000000 0.000000 
#    y 0.000000 1.661460 0.000000 
#    z 0.000000 0.000000 1.742770 
# 
# From -- ./inp_files/6496.got.cif
#   From: 2010.05.17/outbox.cif.g08.bks.cpg/sg37_4_cif.got.tgz:6496.got - 2010.06.03 17:53:42.
