data_PCOD9355819
_publ_section_title
;
Structure prediction by ZEFSAII (Michael W. Deem and Ramdas Pophale) SiO2 
 PCOD9355819
Probable space group: A M M 2
;
_chemical_formula_sum "Si O2"
_cell_formula_units_Z 52
_cell_length_a 9.179114
_cell_length_b 12.024687
_cell_length_c 25.718878
_cell_angle_alpha 90.000000
_cell_angle_beta 90.000000
_cell_angle_gamma 90.000000
_cell_volume 2838.746178
_symmetry_space_group_name_H-M "A M M 2"
_symmetry_group_IT_number 38
_symmetry_cell_setting 'orthorhombic'
loop_
_space_group_symop_operation_xyz
x,y,z
-x,-y,z
-x,y,z
x,-y,z
x,1/2+y,1/2+z
-x,1/2-y,1/2+z
-x,1/2+y,1/2+z
x,1/2-y,1/2+z
loop_
_atom_site_type_symbol
_atom_site_label
_atom_site_fract_x
_atom_site_fract_y
_atom_site_fract_z
Si Si1 0.327382 0.631701 0.420360
Si Si2 0.664870 0.250708 0.523381
Si Si3 0.325818 0.130743 0.239913
Si Si4 0.253877 0.000000 0.515562
Si Si5 0.165407 0.000000 0.632791
Si Si6 0.324453 0.230037 0.637795
Si Si7 0.832385 0.000000 0.398434
Si Si8 0.824510 0.219852 0.340399
O O1 0.500000 0.658881 0.414508
O O2 0.313991 0.500000 0.426730
O O3 0.268200 0.693404 0.472322
O O4 0.242413 0.675555 0.370225
O O5 0.500000 0.294736 0.525211
O O6 0.662365 0.117157 0.516744
O O7 0.729032 0.270033 0.580761
O O8 0.500000 0.140512 0.249420
O O9 0.296448 0.182508 0.183289
O O10 0.237948 0.198407 0.283266
O O11 0.287743 0.000000 0.242396
O O12 0.165684 0.000000 0.569460
O O13 0.174114 0.000000 0.460418
O O14 0.250035 0.888450 0.648912
O O15 0.000000 0.000000 0.651647
O O16 0.500000 0.213363 0.633960
O O17 0.770436 0.112474 0.374024
O O18 0.000000 0.000000 0.381961
O O19 0.000000 0.225603 0.340156
#
# Coordination Sequence:
#
# PCOD9355819 Si02
#       8
#     8   8   8   4   4   8   4   8
#     4  10  21  37  56  82 115 148 184 225 272 328
#     4   9  17  30  52  82 111 143 180 222 270 326
#     4  10  21  38  60  85 110 140 182 231 280 331
#     4  10  16  30  51  79 112 144 178 224 270 324
#     4  10  20  33  54  83 114 147 185 226 268 322
#     4   9  19  36  57  81 112 147 183 225 278 329
#     4  10  19  31  51  80 109 141 174 216 275 324
#     4  11  22  38  58  81 111 145 183 226 277 331
#
# _framework density 18.317945999999999
#
# number of rings (size 3 to 8) (size 9 to 14) (size 15 to 20)
#    0.000    2.154    2.308    1.154    0.000    3.385 
#    1.385    3.077    0.000    0.000    0.000    2.154 
#    0.000    0.000    0.000    0.000    0.000    0.000 
#
# Total GULP energy -144885.852935 kJ/mol
# GULP energy per Si atom -5572.532805 kJ/mol
# Density = 1.827625 g / cm^3
# Si number density = 18.317946 Si / 1000 Ang^3
#
#
#
# Elastic Constant Matrix: (Units=GPa)
#
#
# Indices 1 2 3 4 5 6 
#
# 1 45.9190 30.8332 38.5863 0.0000 0.0000 0.0000
# 2 30.8332 68.2299 55.6657 0.0000 0.0000 0.0000
# 3 38.5863 55.6657 120.5045 0.0000 0.0000 0.0000
# 4 0.0000 0.0000 0.0000 31.3279 0.0000 0.0000
# 5 0.0000 0.0000 0.0000 0.0000 12.4561 0.0000
# 6 0.0000 0.0000 0.0000 0.0000 0.0000 14.1258
#
#
#
# Elastic Compliance Matrix: (Units=1/GPa)
#
#
# Indices 1 2 3 4 5 6 
#
# 1 0.033803 -0.010343 -0.006046 0.000000 0.000000 0.000000
# 2 -0.010343 0.026685 -0.009015 0.000000 0.000000 0.000000
# 3 -0.006046 -0.009015 0.014399 0.000000 0.000000 0.000000
# 4 0.000000 0.000000 0.000000 0.031920 0.000000 0.000000
# 5 0.000000 0.000000 0.000000 0.000000 0.080282 0.000000
# 6 0.000000 0.000000 0.000000 0.000000 0.000000 0.070793
#
#
# Mechanical properties :
#
#
# Convention : Reuss Voigt Hill
#
# Bulk Modulus (GPa) = 41.53002 53.86930 47.69966
# Shear Modulus (GPa) = 15.78697 18.88650 17.33674
#
# Velocity S-wave (km/s) = 2.93888 3.21446 3.07975
# Velocity P-wave (km/s) = 5.85124 6.57638 6.22438
#
# Compressibility (1/GPa) = 0.02407897
#
# Stress axis : x y z
#
# Youngs Moduli (GPa) = 29.58310 37.47383 69.44964
#
# Poissons Ratio (x) = 0.38758 0.41991
# Poissons Ratio (y) = 0.30597 0.62610
# Poissons Ratio (z) = 0.17887 0.33783
#
# Static dielectric constant tensor:
#      x y z
#    x 1.627250 0.000000 0.000000 
#    y 0.000000 1.623310 0.000000 
#    z 0.000000 0.000000 1.641170 
# 
# From -- ./inp_files/23427.got.cif
#   From: 2010.05.17/outbox.cif.g08.bks.cpg/sg38_12_cif.got.tgz:23427.got - 2010.06.03 18:07:57.
