data_PCOD9355262
_publ_section_title
;
Structure prediction by ZEFSAII (Michael W. Deem and Ramdas Pophale) SiO2 
 PCOD9355262
Probable space group: C C C 2
;
_chemical_formula_sum "Si O2"
_cell_formula_units_Z 36
_cell_length_a 5.905474
_cell_length_b 28.093300
_cell_length_c 10.104046
_cell_angle_alpha 90.000000
_cell_angle_beta 90.000000
_cell_angle_gamma 90.000000
_cell_volume 1676.304201
_symmetry_space_group_name_H-M "C C C 2"
_symmetry_group_IT_number 37
_symmetry_cell_setting 'orthorhombic'
loop_
_space_group_symop_operation_xyz
x,y,z
-x,-y,z
-x,y,1/2+z
x,-y,1/2+z
1/2+x,1/2+y,z
1/2-x,1/2-y,z
1/2-x,1/2+y,1/2+z
1/2+x,1/2-y,1/2+z
loop_
_atom_site_type_symbol
_atom_site_label
_atom_site_fract_x
_atom_site_fract_y
_atom_site_fract_z
Si Si1 0.172188 0.923983 0.324640
Si Si2 0.790716 0.918314 0.524707
Si Si3 0.514519 0.839111 0.902879
Si Si4 0.005755 0.275266 0.151387
Si Si5 0.500000 0.000000 0.930001
O O1 0.117196 0.912777 0.172468
O O2 0.283316 0.877151 0.391406
O O3 0.964728 0.936465 0.416545
O O4 0.338430 0.968636 0.337186
O O5 0.690489 0.869864 0.463865
O O6 0.605092 0.959639 0.523660
O O7 0.492275 0.818420 0.756229
O O8 0.537978 0.795501 0.003543
O O9 0.750000 0.250000 0.160959
O O10 0.250000 0.250000 0.181214
#
# Coordination Sequence:
#
# PCOD9355262 Si02
#       5
#     8   8   8   8   4
#     4  11  25  43  71 101 145 188 239 300 362 445
#     4  11  25  43  71 101 145 188 239 300 362 445
#     4  11  26  45  70 106 144 188 242 299 372 435
#     4  12  28  48  76 107 148 195 248 308 372 444
#     4  10  24  44  68 104 138 184 246 294 366 428
#
# _framework density 21.475815000000001
#
# number of rings (size 3 to 8) (size 9 to 14) (size 15 to 20)
#    0.000    0.889    2.222    2.667    9.333    5.333 
#    0.000    0.000    0.000    0.000    0.000    0.000 
#    0.000    0.000    0.000    0.000    0.000    0.000 
#
# Total GULP energy -100365.363135 kJ/mol
# GULP energy per Si atom -5575.853507 kJ/mol
# Density = 2.142694 g / cm^3
# Si number density = 21.475815 Si / 1000 Ang^3
#
#
#
# Elastic Constant Matrix: (Units=GPa)
#
#
# Indices 1 2 3 4 5 6 
#
# 1 64.0803 26.7167 13.3325 0.0000 0.0000 0.0000
# 2 26.7167 64.1292 -15.2070 0.0000 0.0000 0.0000
# 3 13.3325 -15.2070 113.8893 0.0000 0.0000 0.0000
# 4 0.0000 0.0000 0.0000 14.9985 0.0000 0.0000
# 5 0.0000 0.0000 0.0000 0.0000 29.7868 0.0000
# 6 0.0000 0.0000 0.0000 0.0000 0.0000 9.8243
#
#
#
# Elastic Compliance Matrix: (Units=1/GPa)
#
#
# Indices 1 2 3 4 5 6 
#
# 1 0.020226 -0.009281 -0.003607 0.000000 0.000000 0.000000
# 2 -0.009281 0.020363 0.003805 0.000000 0.000000 0.000000
# 3 -0.003607 0.003805 0.009711 0.000000 0.000000 0.000000
# 4 0.000000 0.000000 0.000000 0.066673 0.000000 0.000000
# 5 0.000000 0.000000 0.000000 0.000000 0.033572 0.000000
# 6 0.000000 0.000000 0.000000 0.000000 0.000000 0.101789
#
#
# Mechanical properties :
#
#
# Convention : Reuss Voigt Hill
#
# Bulk Modulus (GPa) = 31.12069 32.42037 31.77053
# Shear Modulus (GPa) = 17.78032 25.40569 21.59301
#
# Velocity S-wave (km/s) = 2.88049 3.44319 3.17433
# Velocity P-wave (km/s) = 5.05820 5.56205 5.31610
#
# Compressibility (1/GPa) = 0.03213296
#
# Stress axis : x y z
#
# Youngs Moduli (GPa) = 49.44237 49.10956 102.97775
#
# Poissons Ratio (x) = 0.45581 0.37144
# Poissons Ratio (y) = 0.45890 -0.39188
# Poissons Ratio (z) = 0.17834 -0.18688
#
# Static dielectric constant tensor:
#      x y z
#    x 1.505850 0.000000 0.000000 
#    y 0.000000 1.840430 0.000000 
#    z 0.000000 0.000000 1.757170 
# 
# From -- ./inp_files/5449.got.cif
#   From: 2010.05.17/outbox.cif.g08.bks.cpg/sg37_3_cif.got.tgz:5449.got - 2010.06.03 17:53:42.
