data_PCOD9355017
_publ_section_title
;
Structure prediction by ZEFSAII (Michael W. Deem and Ramdas Pophale) SiO2 
 PCOD9355017
Probable space group: C C C 2
;
_chemical_formula_sum "Si O2"
_cell_formula_units_Z 48
_cell_length_a 5.110764
_cell_length_b 13.982266
_cell_length_c 28.889873
_cell_angle_alpha 90.000000
_cell_angle_beta 90.000000
_cell_angle_gamma 90.000000
_cell_volume 2064.472107
_symmetry_space_group_name_H-M "C C C 2"
_symmetry_group_IT_number 37
_symmetry_cell_setting 'orthorhombic'
loop_
_space_group_symop_operation_xyz
x,y,z
-x,-y,z
-x,y,1/2+z
x,-y,1/2+z
1/2+x,1/2+y,z
1/2-x,1/2-y,z
1/2-x,1/2+y,1/2+z
1/2+x,1/2-y,1/2+z
loop_
_atom_site_type_symbol
_atom_site_label
_atom_site_fract_x
_atom_site_fract_y
_atom_site_fract_z
Si Si1 0.978126 0.891316 0.696120
Si Si2 0.131163 0.101253 0.484173
Si Si3 0.391430 0.652046 0.392035
Si Si4 0.250000 0.250000 0.123771
Si Si5 0.473949 0.889514 0.758768
Si Si6 0.250000 0.250000 0.562762
Si Si7 0.250000 0.750000 0.826692
Si Si8 0.000000 0.500000 0.415566
O O1 0.691212 0.873950 0.718214
O O2 0.096425 0.823861 0.656871
O O3 0.183683 0.883975 0.737746
O O4 0.000000 0.000000 0.678667
O O5 0.177368 0.162816 0.529065
O O6 0.376603 0.076187 0.451343
O O7 0.956770 0.155106 0.446388
O O8 0.000000 0.000000 0.495890
O O9 0.250000 0.750000 0.381386
O O10 0.640430 0.664260 0.358929
O O11 0.220557 0.556294 0.387044
O O12 0.494211 0.217663 0.091847
O O13 0.466888 0.804096 0.795478
O O14 0.500000 0.000000 0.775189
#
# Coordination Sequence:
#
# PCOD9355017 Si02
#       8
#     8   8   8   4   8   4   4   4
#     4  10  23  50  76 102 143 196 241 291 378 465
#     4  10  24  46  72  97 143 208 244 296 368 449
#     4  11  24  45  69 102 146 201 248 310 370 445
#     4  12  27  44  78 113 148 185 240 316 383 450
#     4  10  24  47  77 105 144 196 247 301 368 453
#     4  12  27  44  72 117 146 183 246 318 369 442
#     4  12  26  42  72 114 154 188 256 330 376 428
#     4  10  22  46  74  94 140 214 254 292 376 452
#
# _framework density 23.250492999999999
#
# number of rings (size 3 to 8) (size 9 to 14) (size 15 to 20)
#    0.000    1.333    0.000    4.000    8.167    2.000 
#   12.000    0.000    0.000    0.000    0.000    0.000 
#    0.000    0.000    0.000    0.000    0.000    0.000 
#
# Total GULP energy -134131.497527 kJ/mol
# GULP energy per Si atom -5588.812397 kJ/mol
# Density = 2.319757 g / cm^3
# Si number density = 23.250493 Si / 1000 Ang^3
#
#
#
# Elastic Constant Matrix: (Units=GPa)
#
#
# Indices 1 2 3 4 5 6 
#
# 1 107.2027 43.6703 29.4657 0.0000 0.0000 0.0000
# 2 43.6703 126.9394 84.6066 0.0000 0.0000 0.0000
# 3 29.4657 84.6066 102.0266 0.0000 0.0000 0.0000
# 4 0.0000 0.0000 0.0000 -19.3819 0.0000 0.0000
# 5 0.0000 0.0000 0.0000 0.0000 -126.9878 0.0000
# 6 0.0000 0.0000 0.0000 0.0000 0.0000 34.6259
#
#
#
# Elastic Compliance Matrix: (Units=1/GPa)
#
#
# Indices 1 2 3 4 5 6 
#
# 1 0.010849 -0.003675 -0.000085 0.000000 0.000000 0.000000
# 2 -0.003675 0.018857 -0.014576 0.000000 0.000000 0.000000
# 3 -0.000085 -0.014576 0.021914 0.000000 0.000000 0.000000
# 4 0.000000 0.000000 0.000000 -0.051594 0.000000 0.000000
# 5 0.000000 0.000000 0.000000 0.000000 -0.007875 0.000000
# 6 0.000000 0.000000 0.000000 0.000000 0.000000 0.028880
#
#
# Mechanical properties :
#
#
# Convention : Reuss Voigt Hill
#
# Bulk Modulus (GPa) = 66.90839 72.40601 69.65720
# Shear Modulus (GPa) = 79.76178 -10.45370 34.65404
#
# Velocity S-wave (km/s) = 5.86344 -2.12271 3.86484
# Velocity P-wave (km/s) = 8.64173 5.02011 7.06686
#
# Compressibility (1/GPa) = 0.01494581
#
# Stress axis : x y z
#
# Youngs Moduli (GPa) = 92.17621 53.02937 45.63386
#
# Poissons Ratio (x) = 0.19490 0.00389
# Poissons Ratio (y) = 0.33878 0.66517
# Poissons Ratio (z) = 0.00786 0.77297
#
# Static dielectric constant tensor:
#      x y z
#    x 3.025990 0.000000 0.000000 
#    y 0.000000 1.932730 0.000000 
#    z 0.000000 0.000000 1.846560 
# 
# From -- ./inp_files/19435.got.cif
#   From: 2010.05.17/outbox.cif.g08.bks.cpg/sg37_10_cif.got.tgz:19435.got - 2010.06.03 17:53:42.
