data_PCOD9355744
_publ_section_title
;
Structure prediction by ZEFSAII (Michael W. Deem and Ramdas Pophale) SiO2 
 PCOD9355744
Probable space group: C C C 2
;
_chemical_formula_sum "Si O2"
_cell_formula_units_Z 16
_cell_length_a 6.912640
_cell_length_b 7.568775
_cell_length_c 12.326186
_cell_angle_alpha 90.000000
_cell_angle_beta 90.000000
_cell_angle_gamma 90.000000
_cell_volume 644.908724
_symmetry_space_group_name_H-M "C C C 2"
_symmetry_group_IT_number 37
_symmetry_cell_setting 'orthorhombic'
loop_
_space_group_symop_operation_xyz
x,y,z
-x,-y,z
-x,y,1/2+z
x,-y,1/2+z
1/2+x,1/2+y,z
1/2-x,1/2-y,z
1/2-x,1/2+y,1/2+z
1/2+x,1/2-y,1/2+z
loop_
_atom_site_type_symbol
_atom_site_label
_atom_site_fract_x
_atom_site_fract_y
_atom_site_fract_z
Si Si1 0.500000 0.000000 0.822330
Si Si2 0.750000 0.750000 0.966190
Si Si3 0.525925 0.303827 0.163121
O O1 0.562858 0.156814 0.742191
O O2 0.332333 0.088834 0.894794
O O3 0.576895 0.699551 0.046892
O O4 0.500000 0.500000 0.208172
O O5 0.750000 0.250000 0.151807
#
# Coordination Sequence:
#
# PCOD9355744 Si02
#       3
#     4   4   8
#     4  12  26  54  84 130 166 230 276 350 426 502
#     4  12  28  52  88 124 174 222 284 348 426 498
#     4  12  27  55  84 123 174 221 285 347 417 512
#
# _framework density 24.809712000000001
#
# number of rings (size 3 to 8) (size 9 to 14) (size 15 to 20)
#    0.000    0.000    2.500    7.500    0.000    2.000 
#   22.500    0.000    0.000    0.000    0.000    0.000 
#    0.000    0.000    0.000    0.000    0.000    0.000 
#
# Total GULP energy -44881.262497 kJ/mol
# GULP energy per Si atom -5610.157812 kJ/mol
# Density = 2.475324 g / cm^3
# Si number density = 24.809712 Si / 1000 Ang^3
#
#
#
# Elastic Constant Matrix: (Units=GPa)
#
#
# Indices 1 2 3 4 5 6 
#
# 1 189.7205 98.0327 75.8491 0.0000 0.0000 0.0000
# 2 98.0327 274.5216 110.7204 0.0000 0.0000 0.0000
# 3 75.8491 110.7204 173.1306 0.0000 0.0000 0.0000
# 4 0.0000 0.0000 0.0000 92.0142 0.0000 0.0000
# 5 0.0000 0.0000 0.0000 0.0000 74.9965 0.0000
# 6 0.0000 0.0000 0.0000 0.0000 0.0000 55.8148
#
#
#
# Elastic Compliance Matrix: (Units=1/GPa)
#
#
# Indices 1 2 3 4 5 6 
#
# 1 0.006923 -0.001683 -0.001957 0.000000 0.000000 0.000000
# 2 -0.001683 0.005318 -0.002664 0.000000 0.000000 0.000000
# 3 -0.001957 -0.002664 0.008337 0.000000 0.000000 0.000000
# 4 0.000000 0.000000 0.000000 0.010868 0.000000 0.000000
# 5 0.000000 0.000000 0.000000 0.000000 0.013334 0.000000
# 6 0.000000 0.000000 0.000000 0.000000 0.000000 0.017916
#
#
# Mechanical properties :
#
#
# Convention : Reuss Voigt Hill
#
# Bulk Modulus (GPa) = 125.45546 134.06412 129.75979
# Shear Modulus (GPa) = 64.13618 68.08313 66.10966
#
# Velocity S-wave (km/s) = 5.08993 5.24421 5.16764
# Velocity P-wave (km/s) = 9.23147 9.53012 9.38198
#
# Compressibility (1/GPa) = 0.00797096
#
# Stress axis : x y z
#
# Youngs Moduli (GPa) = 144.45030 188.03997 119.95276
#
# Poissons Ratio (x) = 0.31648 0.23470
# Poissons Ratio (y) = 0.24311 0.31951
# Poissons Ratio (z) = 0.28263 0.50087
#
# Static dielectric constant tensor:
#      x y z
#    x 1.975860 0.000000 0.000000 
#    y 0.000000 1.909690 0.000000 
#    z 0.000000 0.000000 1.955930 
# 
# From -- ./inp_files/5674.got.cif
#   From: 2010.05.17/outbox.cif.g08.bks.cpg/sg37_3_cif.got.tgz:5674.got - 2010.06.03 17:53:42.
