data_PCOD9355463
_publ_section_title
;
Structure prediction by ZEFSAII (Michael W. Deem and Ramdas Pophale) SiO2 
 PCOD9355463
Probable space group: C C C 2
;
_chemical_formula_sum "Si O2"
_cell_formula_units_Z 56
_cell_length_a 11.783766
_cell_length_b 14.578343
_cell_length_c 15.198896
_cell_angle_alpha 90.000000
_cell_angle_beta 90.000000
_cell_angle_gamma 90.000000
_cell_volume 2610.984642
_symmetry_space_group_name_H-M "C C C 2"
_symmetry_group_IT_number 37
_symmetry_cell_setting 'orthorhombic'
loop_
_space_group_symop_operation_xyz
x,y,z
-x,-y,z
-x,y,1/2+z
x,-y,1/2+z
1/2+x,1/2+y,z
1/2-x,1/2-y,z
1/2-x,1/2+y,1/2+z
1/2+x,1/2-y,1/2+z
loop_
_atom_site_type_symbol
_atom_site_label
_atom_site_fract_x
_atom_site_fract_y
_atom_site_fract_z
Si Si1 0.592106 0.082914 0.425960
Si Si2 0.667254 0.663349 0.130806
Si Si3 0.764999 0.008504 0.043632
Si Si4 0.985180 0.392453 0.253738
Si Si5 0.377142 0.732185 0.824735
Si Si6 0.451895 0.649563 0.001298
Si Si7 0.922394 0.334651 0.065078
O O1 0.611792 0.118073 0.327501
O O2 0.525368 0.145363 0.496393
O O3 0.500000 0.000000 0.415552
O O4 0.709645 0.049510 0.465034
O O5 0.750000 0.750000 0.111736
O O6 0.728189 0.564389 0.123022
O O7 0.625852 0.680268 0.230770
O O8 0.569259 0.654412 0.056295
O O9 0.672451 0.087744 0.058305
O O10 0.882666 0.056786 0.018998
O O11 0.968519 0.341652 0.162971
O O12 0.000000 0.500000 0.233652
O O13 0.082578 0.335945 0.303949
O O14 0.250000 0.750000 0.858386
O O15 0.449311 0.677349 0.897911
O O16 0.381993 0.733329 0.044643
#
# Coordination Sequence:
#
# PCOD9355463 Si02
#       7
#     8   8   8   8   8   8   8
#     4   9  20  36  61  97 135 169 223 289 340 401
#     4  11  26  47  72  97 137 188 234 286 350 425
#     4  11  24  41  68  98 136 188 228 277 356 412
#     4  11  22  36  66 103 139 171 236 291 348 401
#     4  11  25  42  71 104 140 183 230 286 353 420
#     4  12  24  45  69 100 142 180 230 289 349 420
#     4  11  21  39  67  98 135 175 228 296 339 406
#
# _framework density 21.447846999999999
#
# number of rings (size 3 to 8) (size 9 to 14) (size 15 to 20)
#    0.000    1.143    2.857    3.857   10.000    0.000 
#    0.000    4.286    0.000    0.000    0.000    0.000 
#    0.000    0.000    0.000    0.000    0.000    0.000 
#
# Total GULP energy -156191.622833 kJ/mol
# GULP energy per Si atom -5578.272244 kJ/mol
# Density = 2.139903 g / cm^3
# Si number density = 21.447847 Si / 1000 Ang^3
#
#
#
# Elastic Constant Matrix: (Units=GPa)
#
#
# Indices 1 2 3 4 5 6 
#
# 1 70.6558 20.9240 30.9077 0.0000 0.0000 0.0000
# 2 20.9240 114.8711 32.5559 0.0000 0.0000 0.0000
# 3 30.9077 32.5559 146.8948 0.0000 0.0000 0.0000
# 4 0.0000 0.0000 0.0000 15.6203 0.0000 0.0000
# 5 0.0000 0.0000 0.0000 0.0000 23.8201 0.0000
# 6 0.0000 0.0000 0.0000 0.0000 0.0000 35.3662
#
#
#
# Elastic Compliance Matrix: (Units=1/GPa)
#
#
# Indices 1 2 3 4 5 6 
#
# 1 0.016048 -0.002098 -0.002912 0.000000 0.000000 0.000000
# 2 -0.002098 0.009563 -0.001678 0.000000 0.000000 0.000000
# 3 -0.002912 -0.001678 0.007792 0.000000 0.000000 0.000000
# 4 0.000000 0.000000 0.000000 0.064019 0.000000 0.000000
# 5 0.000000 0.000000 0.000000 0.000000 0.041981 0.000000
# 6 0.000000 0.000000 0.000000 0.000000 0.000000 0.028276
#
#
# Mechanical properties :
#
#
# Convention : Reuss Voigt Hill
#
# Bulk Modulus (GPa) = 49.93008 55.68855 52.80932
# Shear Modulus (GPa) = 26.63388 31.49692 29.06540
#
# Velocity S-wave (km/s) = 3.52774 3.83630 3.68525
# Velocity P-wave (km/s) = 6.31851 6.75603 6.54093
#
# Compressibility (1/GPa) = 0.02002801
#
# Stress axis : x y z
#
# Youngs Moduli (GPa) = 62.31266 104.56817 128.33470
#
# Poissons Ratio (x) = 0.21938 0.37367
# Poissons Ratio (y) = 0.13073 0.21535
# Poissons Ratio (z) = 0.18143 0.17547
#
# Static dielectric constant tensor:
#      x y z
#    x 1.848900 0.000000 0.000000 
#    y 0.000000 1.879030 0.000000 
#    z 0.000000 0.000000 1.810780 
# 
# From -- ./inp_files/11594.got.cif
#   From: 2010.05.17/outbox.cif.g08.bks.cpg/sg37_6_cif.got.tgz:11594.got - 2010.06.03 17:53:42.
