data_PCOD9355188
_publ_section_title
;
Structure prediction by ZEFSAII (Michael W. Deem and Ramdas Pophale) SiO2 
 PCOD9355188
Probable space group: C C C 2
;
_chemical_formula_sum "Si O2"
_cell_formula_units_Z 56
_cell_length_a 5.162666
_cell_length_b 29.418486
_cell_length_c 14.727229
_cell_angle_alpha 90.000000
_cell_angle_beta 90.000000
_cell_angle_gamma 90.000000
_cell_volume 2236.739398
_symmetry_space_group_name_H-M "C C C 2"
_symmetry_group_IT_number 37
_symmetry_cell_setting 'orthorhombic'
loop_
_space_group_symop_operation_xyz
x,y,z
-x,-y,z
-x,y,1/2+z
x,-y,1/2+z
1/2+x,1/2+y,z
1/2-x,1/2-y,z
1/2-x,1/2+y,1/2+z
1/2+x,1/2-y,1/2+z
loop_
_atom_site_type_symbol
_atom_site_label
_atom_site_fract_x
_atom_site_fract_y
_atom_site_fract_z
Si Si1 0.250000 0.250000 0.256711
Si Si2 0.048599 0.372488 0.164148
Si Si3 0.498298 0.299494 0.105943
Si Si4 0.075496 0.046529 0.927992
Si Si5 0.250000 0.250000 0.952668
Si Si6 0.541482 0.171617 0.340905
Si Si7 0.264611 0.877845 0.002584
Si Si8 0.084577 0.546842 0.799800
O O1 0.483054 0.266732 0.192614
O O2 0.319274 0.207330 0.316324
O O3 0.256614 0.334798 0.128734
O O4 0.869335 0.347846 0.243420
O O5 0.945292 0.400660 0.077580
O O6 0.140910 0.412357 0.231195
O O7 0.707674 0.333558 0.065002
O O8 0.467658 0.263261 0.024693
O O9 0.853566 0.042203 0.851599
O O10 0.352268 0.051068 0.876797
O O11 0.986301 0.092478 0.979501
O O12 0.000000 0.000000 0.982585
O O13 0.265552 0.204578 0.893546
O O14 0.414681 0.137076 0.412356
O O15 0.000000 0.500000 0.251934
#
# Coordination Sequence:
#
# PCOD9355188 Si02
#       8
#     4   8   8   8   4   8   8   8
#     4   9  22  42  57  96 130 180 235 294 355 430
#     4  11  25  44  66 108 140 184 244 306 363 445
#     4  10  24  42  63  95 139 175 244 301 356 430
#     4  10  24  47  76 108 144 193 242 300 367 452
#     4  11  22  42  63  92 134 184 243 300 359 430
#     4  11  23  42  69  94 139 191 245 293 379 431
#     4  12  25  42  72 102 140 192 244 306 368 445
#     4  10  23  47  76 105 147 191 239 297 371 448
#
# _framework density 25.036441
#
# number of rings (size 3 to 8) (size 9 to 14) (size 15 to 20)
#    0.000    1.429    2.857    0.857    8.000    0.000 
#    2.571    0.000    0.000    0.000    0.000    0.000 
#    0.000    0.000    0.000    0.000    0.000    0.000 
#
# Total GULP energy -155997.377661 kJ/mol
# GULP energy per Si atom -5571.334916 kJ/mol
# Density = 2.497946 g / cm^3
# Si number density = 25.036441 Si / 1000 Ang^3
#
#
#
# Elastic Constant Matrix: (Units=GPa)
#
#
# Indices 1 2 3 4 5 6 
#
# 1 89.4821 11.5411 26.0511 0.0000 0.0000 0.0000
# 2 11.5411 104.1303 22.8203 0.0000 0.0000 0.0000
# 3 26.0511 22.8203 129.5464 0.0000 0.0000 0.0000
# 4 0.0000 0.0000 0.0000 23.1991 0.0000 0.0000
# 5 0.0000 0.0000 0.0000 0.0000 -0.1746 0.0000
# 6 0.0000 0.0000 0.0000 0.0000 0.0000 33.6208
#
#
#
# Elastic Compliance Matrix: (Units=1/GPa)
#
#
# Indices 1 2 3 4 5 6 
#
# 1 0.011939 -0.000829 -0.002255 0.000000 0.000000 0.000000
# 2 -0.000829 0.010047 -0.001603 0.000000 0.000000 0.000000
# 3 -0.002255 -0.001603 0.008455 0.000000 0.000000 0.000000
# 4 0.000000 0.000000 0.000000 0.043105 0.000000 0.000000
# 5 0.000000 0.000000 0.000000 0.000000 -5.727735 0.000000
# 6 0.000000 0.000000 0.000000 0.000000 0.000000 0.029744
#
#
# Mechanical properties :
#
#
# Convention : Reuss Voigt Hill
#
# Bulk Modulus (GPa) = 47.46847 49.33152 48.39999
# Shear Modulus (GPa) = -0.89158 28.84548 13.97695
#
# Velocity S-wave (km/s) = -0.59740 3.39800 2.36533
# Velocity P-wave (km/s) = 4.30408 5.92806 5.18010
#
# Compressibility (1/GPa) = 0.02106662
#
# Stress axis : x y z
#
# Youngs Moduli (GPa) = 83.76055 99.53671 118.27254
#
# Poissons Ratio (x) = 0.08252 0.26668
# Poissons Ratio (y) = 0.06944 0.18959
# Poissons Ratio (z) = 0.18886 0.15956
#
# Static dielectric constant tensor:
#      x y z
#    x 1.535430 0.000000 0.000000 
#    y 0.000000 2.195430 0.000000 
#    z 0.000000 0.000000 2.040180 
# 
# From -- ./inp_files/9934.got.cif
#   From: 2010.05.17/outbox.cif.g08.bks.cpg/sg37_5_cif.got.tgz:9934.got - 2010.06.03 17:53:42.
