data_PCOD9355539
_publ_section_title
;
Structure prediction by ZEFSAII (Michael W. Deem and Ramdas Pophale) SiO2 
 PCOD9355539
Probable space group: C C C 2
;
_chemical_formula_sum "Si O2"
_cell_formula_units_Z 40
_cell_length_a 8.650494
_cell_length_b 24.420816
_cell_length_c 8.337303
_cell_angle_alpha 90.000000
_cell_angle_beta 90.000000
_cell_angle_gamma 90.000000
_cell_volume 1761.272953
_symmetry_space_group_name_H-M "C C C 2"
_symmetry_group_IT_number 37
_symmetry_cell_setting 'orthorhombic'
loop_
_space_group_symop_operation_xyz
x,y,z
-x,-y,z
-x,y,1/2+z
x,-y,1/2+z
1/2+x,1/2+y,z
1/2-x,1/2-y,z
1/2-x,1/2+y,1/2+z
1/2+x,1/2-y,1/2+z
loop_
_atom_site_type_symbol
_atom_site_label
_atom_site_fract_x
_atom_site_fract_y
_atom_site_fract_z
Si Si1 0.144428 0.530751 0.205770
Si Si2 0.070951 0.367914 0.937116
Si Si3 0.697957 0.420682 0.680017
Si Si4 0.898691 0.098058 0.016762
Si Si5 0.288277 0.187005 0.631804
O O1 0.077196 0.574251 0.334969
O O2 0.244330 0.478035 0.254426
O O3 0.000000 0.500000 0.124688
O O4 0.258783 0.562752 0.090180
O O5 0.147878 0.326361 0.810131
O O6 0.172980 0.384515 0.092060
O O7 0.914436 0.340450 0.007750
O O8 0.623106 0.391484 0.830805
O O9 0.562323 0.429495 0.551505
O O10 0.872235 0.154999 0.106579
O O11 0.250000 0.250000 0.605696
#
# Coordination Sequence:
#
# PCOD9355539 Si02
#       5
#     8   8   8   8   8
#     4  11  23  41  66  98 137 182 228 281 354 438
#     4  11  25  45  70 102 139 184 241 292 357 442
#     4  12  24  42  66  98 141 183 226 292 360 431
#     4  11  24  41  64  98 136 177 233 289 349 425
#     4  11  25  47  72 100 136 184 241 302 360 420
#
# _framework density 22.710847999999999
#
# number of rings (size 3 to 8) (size 9 to 14) (size 15 to 20)
#    0.000    0.800    0.000    9.000    0.000    8.000 
#    0.000    2.000    0.000    0.000    0.000    0.000 
#    0.000    0.000    0.000    0.000    0.000    0.000 
#
# Total GULP energy -111648.947067 kJ/mol
# GULP energy per Si atom -5582.447353 kJ/mol
# Density = 2.265916 g / cm^3
# Si number density = 22.710848 Si / 1000 Ang^3
#
#
#
# Elastic Constant Matrix: (Units=GPa)
#
#
# Indices 1 2 3 4 5 6 
#
# 1 94.4279 69.0568 36.3997 0.0000 0.0000 0.0000
# 2 69.0568 140.8985 30.4333 0.0000 0.0000 0.0000
# 3 36.3997 30.4333 98.7167 0.0000 0.0000 0.0000
# 4 0.0000 0.0000 0.0000 24.8104 0.0000 0.0000
# 5 0.0000 0.0000 0.0000 0.0000 34.6721 0.0000
# 6 0.0000 0.0000 0.0000 0.0000 0.0000 28.4268
#
#
#
# Elastic Compliance Matrix: (Units=1/GPa)
#
#
# Indices 1 2 3 4 5 6 
#
# 1 0.017994 -0.007913 -0.004196 0.000000 0.000000 0.000000
# 2 -0.007913 0.011083 -0.000499 0.000000 0.000000 0.000000
# 3 -0.004196 -0.000499 0.011831 0.000000 0.000000 0.000000
# 4 0.000000 0.000000 0.000000 0.040306 0.000000 0.000000
# 5 0.000000 0.000000 0.000000 0.000000 0.028842 0.000000
# 6 0.000000 0.000000 0.000000 0.000000 0.000000 0.035178
#
#
# Mechanical properties :
#
#
# Convention : Reuss Voigt Hill
#
# Bulk Modulus (GPa) = 63.72188 67.31364 65.51776
# Shear Modulus (GPa) = 28.46071 30.79208 29.62640
#
# Velocity S-wave (km/s) = 3.54386 3.68616 3.61571
# Velocity P-wave (km/s) = 6.69807 6.91526 6.80753
#
# Compressibility (1/GPa) = 0.01569320
#
# Stress axis : x y z
#
# Youngs Moduli (GPa) = 55.57285 90.22426 84.52465
#
# Poissons Ratio (x) = 0.71396 0.35462
# Poissons Ratio (y) = 0.43976 0.04219
# Poissons Ratio (z) = 0.23316 0.04503
#
# Static dielectric constant tensor:
#      x y z
#    x 1.925780 0.000000 0.000000 
#    y 0.000000 1.863850 0.000000 
#    z 0.000000 0.000000 1.867870 
# 
# From -- ./inp_files/2206.got.cif
#   From: 2010.05.17/outbox.cif.g08.bks.cpg/sg37_2_cif.got.tgz:2206.got - 2010.06.03 17:53:42.
