data_PCOD9355393
_publ_section_title
;
Structure prediction by ZEFSAII (Michael W. Deem and Ramdas Pophale) SiO2 
 PCOD9355393
Probable space group: C C C 2
;
_chemical_formula_sum "Si O2"
_cell_formula_units_Z 40
_cell_length_a 17.479101
_cell_length_b 8.755924
_cell_length_c 10.772617
_cell_angle_alpha 90.000000
_cell_angle_beta 90.000000
_cell_angle_gamma 90.000000
_cell_volume 1648.702494
_symmetry_space_group_name_H-M "C C C 2"
_symmetry_group_IT_number 37
_symmetry_cell_setting 'orthorhombic'
loop_
_space_group_symop_operation_xyz
x,y,z
-x,-y,z
-x,y,1/2+z
x,-y,1/2+z
1/2+x,1/2+y,z
1/2-x,1/2-y,z
1/2-x,1/2+y,1/2+z
1/2+x,1/2-y,1/2+z
loop_
_atom_site_type_symbol
_atom_site_label
_atom_site_fract_x
_atom_site_fract_y
_atom_site_fract_z
Si Si1 0.295523 0.391580 0.783770
Si Si2 0.916286 0.673712 0.698931
Si Si3 0.597177 0.171630 0.711498
Si Si4 0.315819 0.407786 0.060354
Si Si5 0.341576 0.721859 0.965664
O O1 0.250000 0.250000 0.727387
O O2 0.380406 0.316840 0.774772
O O3 0.280055 0.531412 0.690557
O O4 0.272339 0.405449 0.927686
O O5 0.893434 0.506366 0.748842
O O6 0.881536 0.664930 0.560621
O O7 0.006957 0.690019 0.690198
O O8 0.643267 0.249943 0.596934
O O9 0.623670 0.265632 0.830863
O O10 0.364963 0.557757 0.024875
O O11 0.250000 0.750000 0.959725
#
# Coordination Sequence:
#
# PCOD9355393 Si02
#       5
#     8   8   8   8   8
#     4  11  26  46  72 106 148 190 249 306 368 444
#     4  10  26  46  72 106 144 190 245 309 372 451
#     4  11  26  46  75 103 144 196 244 301 385 443
#     4  11  24  48  68 108 142 194 247 294 384 431
#     4  11  26  46  72 106 149 189 254 313 363 452
#
# _framework density 24.261502
#
# number of rings (size 3 to 8) (size 9 to 14) (size 15 to 20)
#    0.000    1.200    2.000    2.400    8.400    8.800 
#    0.000    0.000    0.000    0.000    0.000    0.000 
#    0.000    0.000    0.000    0.000    0.000    0.000 
#
# Total GULP energy -111487.808584 kJ/mol
# GULP energy per Si atom -5574.390429 kJ/mol
# Density = 2.420628 g / cm^3
# Si number density = 24.261502 Si / 1000 Ang^3
#
#
#
# Elastic Constant Matrix: (Units=GPa)
#
#
# Indices 1 2 3 4 5 6 
#
# 1 107.9192 13.9075 52.4969 0.0000 0.0000 0.0000
# 2 13.9075 90.5206 28.4393 0.0000 0.0000 0.0000
# 3 52.4969 28.4393 164.5678 0.0000 0.0000 0.0000
# 4 0.0000 0.0000 0.0000 43.2257 0.0000 0.0000
# 5 0.0000 0.0000 0.0000 0.0000 23.0551 0.0000
# 6 0.0000 0.0000 0.0000 0.0000 0.0000 27.3255
#
#
#
# Elastic Compliance Matrix: (Units=1/GPa)
#
#
# Indices 1 2 3 4 5 6 
#
# 1 0.011001 -0.000621 -0.003402 0.000000 0.000000 0.000000
# 2 -0.000621 0.011717 -0.001827 0.000000 0.000000 0.000000
# 3 -0.003402 -0.001827 0.007477 0.000000 0.000000 0.000000
# 4 0.000000 0.000000 0.000000 0.023134 0.000000 0.000000
# 5 0.000000 0.000000 0.000000 0.000000 0.043374 0.000000
# 6 0.000000 0.000000 0.000000 0.000000 0.000000 0.036596
#
#
# Mechanical properties :
#
#
# Convention : Reuss Voigt Hill
#
# Bulk Modulus (GPa) = 54.06784 61.41057 57.73920
# Shear Modulus (GPa) = 33.07655 36.59886 34.83770
#
# Velocity S-wave (km/s) = 3.69634 3.88818 3.79347
# Velocity P-wave (km/s) = 6.36797 6.74715 6.56030
#
# Compressibility (1/GPa) = 0.01849528
#
# Stress axis : x y z
#
# Youngs Moduli (GPa) = 90.89964 85.34951 133.73644
#
# Poissons Ratio (x) = 0.05303 0.45497
# Poissons Ratio (y) = 0.05648 0.24427
# Poissons Ratio (z) = 0.30924 0.15589
#
# Static dielectric constant tensor:
#      x y z
#    x 1.981350 0.000000 0.000000 
#    y 0.000000 2.121970 0.000000 
#    z 0.000000 0.000000 1.963380 
# 
# From -- ./inp_files/8133.got.cif
#   From: 2010.05.17/outbox.cif.g08.bks.cpg/sg37_5_cif.got.tgz:8133.got - 2010.06.03 17:53:42.
