data_PCOD9355941
_publ_section_title
;
Structure prediction by ZEFSAII (Michael W. Deem and Ramdas Pophale) SiO2 
 PCOD9355941
Probable space group: A M M 2
;
_chemical_formula_sum "Si O2"
_cell_formula_units_Z 64
_cell_length_a 16.108123
_cell_length_b 7.618154
_cell_length_c 24.331457
_cell_angle_alpha 90.000000
_cell_angle_beta 90.000000
_cell_angle_gamma 90.000000
_cell_volume 2985.814348
_symmetry_space_group_name_H-M "A M M 2"
_symmetry_group_IT_number 38
_symmetry_cell_setting 'orthorhombic'
loop_
_space_group_symop_operation_xyz
x,y,z
-x,-y,z
-x,y,z
x,-y,z
x,1/2+y,1/2+z
-x,1/2-y,1/2+z
-x,1/2+y,1/2+z
x,1/2-y,1/2+z
loop_
_atom_site_type_symbol
_atom_site_label
_atom_site_fract_x
_atom_site_fract_y
_atom_site_fract_z
Si Si1 0.090432 0.204610 0.788670
Si Si2 0.092287 0.712422 0.029080
Si Si3 0.143563 0.204816 0.408854
Si Si4 0.593400 0.714560 0.528292
Si Si5 0.750135 0.294931 0.227672
Si Si6 0.337731 0.787437 0.910559
Si Si7 0.592153 0.714732 0.292745
Si Si8 0.252714 0.706806 0.601897
O O1 0.109270 0.210528 0.853541
O O2 0.168352 0.284287 0.756351
O O3 0.000000 0.283949 0.777797
O O4 0.085819 0.000000 0.772308
O O5 0.093312 0.500000 0.028081
O O6 0.108672 0.774170 0.966603
O O7 0.000000 0.768326 0.047184
O O8 0.168709 0.766952 0.067200
O O9 0.242986 0.224137 0.410246
O O10 0.121434 0.000000 0.405487
O O11 0.500000 0.770253 0.543037
O O12 0.594222 0.500000 0.528820
O O13 0.616398 0.768453 0.466172
O O14 0.667357 0.775053 0.568200
O O15 0.749474 0.500000 0.244028
O O16 0.664541 0.222439 0.252242
O O17 0.754251 0.284408 0.162434
O O18 0.383454 0.733767 0.854776
O O19 0.334971 0.000000 0.910805
O O20 0.500000 0.775409 0.278351
O O21 0.590277 0.500000 0.291685
O O22 0.265062 0.500000 0.609082
#
# Coordination Sequence:
#
# PCOD9355941 Si02
#       8
#     8   8   8   8   8   8   8   8
#     4  10  21  38  60  84 109 144 189 231 273 329
#     4  10  22  40  60  82 112 151 188 224 279 344
#     4  11  21  34  57  87 120 149 177 220 282 341
#     4   9  18  33  56  85 115 148 185 228 280 335
#     4  10  21  38  57  79 111 149 191 233 279 330
#     4  10  17  32  58  85 113 146 186 228 276 332
#     4   9  17  31  56  86 111 141 186 233 273 324
#     4  11  23  38  58  84 113 146 192 241 282 326
#
# _framework density 21.434688000000001
#
# number of rings (size 3 to 8) (size 9 to 14) (size 15 to 20)
#    0.000    2.000    2.500    1.500    0.000    4.500 
#    0.000    1.250    0.000    4.875    0.000    0.000 
#    0.000    0.000    0.000    0.000    0.000    0.000 
#
# Total GULP energy -178781.083747 kJ/mol
# GULP energy per Si atom -5586.908867 kJ/mol
# Density = 2.138590 g / cm^3
# Si number density = 21.434688 Si / 1000 Ang^3
#
#
#
# Elastic Constant Matrix: (Units=GPa)
#
#
# Indices 1 2 3 4 5 6 
#
# 1 215.3235 -1.0532 79.8042 0.0000 0.0000 0.0000
# 2 -1.0532 42.4157 -11.2282 0.0000 0.0000 0.0000
# 3 79.8042 -11.2282 117.7905 0.0000 0.0000 0.0000
# 4 0.0000 0.0000 0.0000 -7.8696 0.0000 0.0000
# 5 0.0000 0.0000 0.0000 0.0000 5.5444 0.0000
# 6 0.0000 0.0000 0.0000 0.0000 0.0000 3.3222
#
#
#
# Elastic Compliance Matrix: (Units=1/GPa)
#
#
# Indices 1 2 3 4 5 6 
#
# 1 0.006242 -0.000989 -0.004323 0.000000 0.000000 0.000000
# 2 -0.000989 0.024343 0.002991 0.000000 0.000000 0.000000
# 3 -0.004323 0.002991 0.011704 0.000000 0.000000 0.000000
# 4 0.000000 0.000000 0.000000 -0.127070 0.000000 0.000000
# 5 0.000000 0.000000 0.000000 0.000000 0.180361 0.000000
# 6 0.000000 0.000000 0.000000 0.000000 0.000000 0.301008
#
#
# Mechanical properties :
#
#
# Convention : Reuss Voigt Hill
#
# Bulk Modulus (GPa) = 26.56371 56.73056 41.64713
# Shear Modulus (GPa) = 12.08375 20.73318 16.40846
#
# Velocity S-wave (km/s) = 2.37691 3.11347 2.76979
# Velocity P-wave (km/s) = 4.46685 6.28085 5.44985
#
# Compressibility (1/GPa) = 0.03764535
#
# Stress axis : x y z
#
# Youngs Moduli (GPa) = 160.21641 41.07898 85.44347
#
# Poissons Ratio (x) = 0.04064 0.36937
# Poissons Ratio (y) = 0.15852 -0.25555
# Poissons Ratio (z) = 0.69262 -0.12286
#
# Static dielectric constant tensor:
#      x y z
#    x 1.779390 0.000000 0.000000 
#    y 0.000000 1.813910 0.000000 
#    z 0.000000 0.000000 1.722020 
# 
# From -- ./inp_files/22895.got.cif
#   From: 2010.05.17/outbox.cif.g08.bks.cpg/sg38_12_cif.got.tgz:22895.got - 2010.06.03 18:07:57.
