data_PCOD9355221
_publ_section_title
;
Structure prediction by ZEFSAII (Michael W. Deem and Ramdas Pophale) SiO2 
 PCOD9355221
Probable space group: C C C 2
;
_chemical_formula_sum "Si O2"
_cell_formula_units_Z 48
_cell_length_a 6.916450
_cell_length_b 26.975958
_cell_length_c 10.002628
_cell_angle_alpha 90.000000
_cell_angle_beta 90.000000
_cell_angle_gamma 90.000000
_cell_volume 1866.268974
_symmetry_space_group_name_H-M "C C C 2"
_symmetry_group_IT_number 37
_symmetry_cell_setting 'orthorhombic'
loop_
_space_group_symop_operation_xyz
x,y,z
-x,-y,z
-x,y,1/2+z
x,-y,1/2+z
1/2+x,1/2+y,z
1/2-x,1/2-y,z
1/2-x,1/2+y,1/2+z
1/2+x,1/2-y,1/2+z
loop_
_atom_site_type_symbol
_atom_site_label
_atom_site_fract_x
_atom_site_fract_y
_atom_site_fract_z
Si Si1 0.429726 0.080872 0.509010
Si Si2 0.309689 0.836589 0.578427
Si Si3 0.000000 0.500000 0.730583
Si Si4 0.821046 0.029707 0.374672
Si Si5 0.750000 0.750000 0.285349
Si Si6 0.640857 0.704861 0.810255
Si Si7 0.932419 0.893964 0.645456
O O1 0.495034 0.135339 0.551079
O O2 0.626966 0.060867 0.427221
O O3 0.805264 0.091646 0.014204
O O4 0.441928 0.043728 0.633432
O O5 0.319694 0.795887 0.693422
O O6 0.249349 0.809815 0.443699
O O7 0.151200 0.879762 0.608069
O O8 0.812659 0.485078 0.815726
O O9 0.912753 0.063092 0.257630
O O10 0.000000 0.000000 0.445811
O O11 0.567269 0.725906 0.356266
O O12 0.750000 0.750000 0.739798
O O13 0.629995 0.657039 0.717375
#
# Coordination Sequence:
#
# PCOD9355221 Si02
#       7
#     8   8   4   8   4   8   8
#     4  11  23  42  67  95 132 175 224 278 343 408
#     4  11  22  42  68  98 132 179 225 279 349 413
#     4  10  24  42  60  96 130 172 228 280 336 402
#     4  11  23  42  67  95 133 176 225 281 345 412
#     4  10  24  42  64 100 134 174 224 286 340 418
#     4  11  22  43  68  97 134 175 228 280 349 414
#     4  10  24  44  63  99 136 174 226 286 342 414
#
# _framework density 25.719767000000001
#
# number of rings (size 3 to 8) (size 9 to 14) (size 15 to 20)
#    0.000    1.333    2.500    2.500    0.000    6.000 
#   18.000    0.000    0.000    0.000    0.000    0.000 
#    0.000    0.000    0.000    0.000    0.000    0.000 
#
# Total GULP energy -133667.123136 kJ/mol
# GULP energy per Si atom -5569.463464 kJ/mol
# Density = 2.566123 g / cm^3
# Si number density = 25.719767 Si / 1000 Ang^3
#
#
#
# Elastic Constant Matrix: (Units=GPa)
#
#
# Indices 1 2 3 4 5 6 
#
# 1 99.4075 39.1723 16.9963 0.0000 0.0000 0.0000
# 2 39.1723 78.2728 -10.3880 0.0000 0.0000 0.0000
# 3 16.9963 -10.3880 19.8405 0.0000 0.0000 0.0000
# 4 0.0000 0.0000 0.0000 19.9171 0.0000 0.0000
# 5 0.0000 0.0000 0.0000 0.0000 25.0913 0.0000
# 6 0.0000 0.0000 0.0000 0.0000 0.0000 61.9585
#
#
#
# Elastic Compliance Matrix: (Units=1/GPa)
#
#
# Indices 1 2 3 4 5 6 
#
# 1 0.018825 -0.012425 -0.022632 0.000000 0.000000 0.000000
# 2 -0.012425 0.021930 0.022126 0.000000 0.000000 0.000000
# 3 -0.022632 0.022126 0.081374 0.000000 0.000000 0.000000
# 4 0.000000 0.000000 0.000000 0.050208 0.000000 0.000000
# 5 0.000000 0.000000 0.000000 0.000000 0.039854 0.000000
# 6 0.000000 0.000000 0.000000 0.000000 0.000000 0.016140
#
#
# Mechanical properties :
#
#
# Convention : Reuss Voigt Hill
#
# Bulk Modulus (GPa) = 10.38762 32.12021 21.25391
# Shear Modulus (GPa) = 17.46519 31.50940 24.48730
#
# Velocity S-wave (km/s) = 2.60870 3.50395 3.08893
# Velocity P-wave (km/s) = 3.62233 5.37455 4.58296
#
# Compressibility (1/GPa) = 0.09626844
#
# Stress axis : x y z
#
# Youngs Moduli (GPa) = 53.12015 45.59869 12.28887
#
# Poissons Ratio (x) = 0.56656 0.27812
# Poissons Ratio (y) = 0.66001 -0.27190
# Poissons Ratio (z) = 1.20222 -1.00892
#
# Static dielectric constant tensor:
#      x y z
#    x 2.109940 0.000000 0.000000 
#    y 0.000000 2.047190 0.000000 
#    z 0.000000 0.000000 2.143310 
# 
# From -- ./inp_files/6467.got.cif
#   From: 2010.05.17/outbox.cif.g08.bks.cpg/sg37_4_cif.got.tgz:6467.got - 2010.06.03 17:53:42.
