data_PCOD9355202
_publ_section_title
;
Structure prediction by ZEFSAII (Michael W. Deem and Ramdas Pophale) SiO2 
 PCOD9355202
Probable space group: C C C 2
;
_chemical_formula_sum "Si O2"
_cell_formula_units_Z 36
_cell_length_a 16.218188
_cell_length_b 9.023271
_cell_length_c 9.393778
_cell_angle_alpha 90.000000
_cell_angle_beta 90.000000
_cell_angle_gamma 90.000000
_cell_volume 1374.695857
_symmetry_space_group_name_H-M "C C C 2"
_symmetry_group_IT_number 37
_symmetry_cell_setting 'orthorhombic'
loop_
_space_group_symop_operation_xyz
x,y,z
-x,-y,z
-x,y,1/2+z
x,-y,1/2+z
1/2+x,1/2+y,z
1/2-x,1/2-y,z
1/2-x,1/2+y,1/2+z
1/2+x,1/2-y,1/2+z
loop_
_atom_site_type_symbol
_atom_site_label
_atom_site_fract_x
_atom_site_fract_y
_atom_site_fract_z
Si Si1 0.750000 0.250000 0.130690
Si Si2 0.309168 0.541581 0.715875
Si Si3 0.344308 0.048252 0.408105
Si Si4 0.042161 0.226313 0.291784
Si Si5 0.602881 0.279122 0.486613
O O1 0.692861 0.364052 0.215162
O O2 0.693435 0.141175 0.037890
O O3 0.219885 0.579129 0.779224
O O4 0.379471 0.616863 0.811968
O O5 0.331350 0.608018 0.559558
O O6 0.429754 0.120114 0.361044
O O7 0.355631 0.876291 0.443947
O O8 0.040852 0.244540 0.122144
O O9 0.959505 0.172096 0.363671
#
# Coordination Sequence:
#
# PCOD9355202 Si02
#       5
#     4   8   8   8   8
#     4  12  24  44  82 114 166 224 286 348 424 498
#     4  10  26  49  78 125 167 224 293 357 426 533
#     4  12  23  46  82 124 166 227 292 358 430 529
#     4  10  23  50  80 125 172 220 285 361 448 519
#     4  10  25  47  86 119 179 219 288 367 438 525
#
# _framework density 26.187611
#
# number of rings (size 3 to 8) (size 9 to 14) (size 15 to 20)
#    1.333    0.000    2.222    2.000    3.111    7.111 
#    0.000    1.111   19.556    0.000    0.000    0.000 
#    0.000    0.000    0.000    0.000    0.000    0.000 
#
# Total GULP energy -100803.852297 kJ/mol
# GULP energy per Si atom -5600.214017 kJ/mol
# Density = 2.612801 g / cm^3
# Si number density = 26.187611 Si / 1000 Ang^3
#
#
#
# Elastic Constant Matrix: (Units=GPa)
#
#
# Indices 1 2 3 4 5 6 
#
# 1 134.2222 61.1289 64.6979 0.0000 0.0000 0.0000
# 2 61.1289 183.0595 29.7074 0.0000 0.0000 0.0000
# 3 64.6979 29.7074 73.4306 0.0000 0.0000 0.0000
# 4 0.0000 0.0000 0.0000 47.3819 0.0000 0.0000
# 5 0.0000 0.0000 0.0000 0.0000 45.8614 0.0000
# 6 0.0000 0.0000 0.0000 0.0000 0.0000 40.8354
#
#
#
# Elastic Compliance Matrix: (Units=1/GPa)
#
#
# Indices 1 2 3 4 5 6 
#
# 1 0.014270 -0.002916 -0.011393 0.000000 0.000000 0.000000
# 2 -0.002916 0.006443 -0.000037 0.000000 0.000000 0.000000
# 3 -0.011393 -0.000037 0.023672 0.000000 0.000000 0.000000
# 4 0.000000 0.000000 0.000000 0.021105 0.000000 0.000000
# 5 0.000000 0.000000 0.000000 0.000000 0.021805 0.000000
# 6 0.000000 0.000000 0.000000 0.000000 0.000000 0.024489
#
#
# Mechanical properties :
#
#
# Convention : Reuss Voigt Hill
#
# Bulk Modulus (GPa) = 63.72971 77.97565 70.85268
# Shear Modulus (GPa) = 34.31543 42.49428 38.40486
#
# Velocity S-wave (km/s) = 3.62383 4.03263 3.83368
# Velocity P-wave (km/s) = 6.47288 7.17797 6.83452
#
# Compressibility (1/GPa) = 0.01569127
#
# Stress axis : x y z
#
# Youngs Moduli (GPa) = 70.07506 155.21816 42.24447
#
# Poissons Ratio (x) = 0.45267 0.48131
# Poissons Ratio (y) = 0.20436 0.00156
# Poissons Ratio (z) = 0.79840 0.00573
#
# Static dielectric constant tensor:
#      x y z
#    x 2.002350 0.000000 0.000000 
#    y 0.000000 2.076600 0.000000 
#    z 0.000000 0.000000 2.107050 
# 
# From -- ./inp_files/8162.got.cif
#   From: 2010.05.17/outbox.cif.g08.bks.cpg/sg37_5_cif.got.tgz:8162.got - 2010.06.03 17:53:42.
