data_PCOD9355040
_publ_section_title
;
Structure prediction by ZEFSAII (Michael W. Deem and Ramdas Pophale) SiO2 
 PCOD9355040
Probable space group: C C C 2
;
_chemical_formula_sum "Si O2"
_cell_formula_units_Z 44
_cell_length_a 10.753374
_cell_length_b 21.124148
_cell_length_c 8.496498
_cell_angle_alpha 90.000000
_cell_angle_beta 90.000000
_cell_angle_gamma 90.000000
_cell_volume 1930.029343
_symmetry_space_group_name_H-M "C C C 2"
_symmetry_group_IT_number 37
_symmetry_cell_setting 'orthorhombic'
loop_
_space_group_symop_operation_xyz
x,y,z
-x,-y,z
-x,y,1/2+z
x,-y,1/2+z
1/2+x,1/2+y,z
1/2-x,1/2-y,z
1/2-x,1/2+y,1/2+z
1/2+x,1/2-y,1/2+z
loop_
_atom_site_type_symbol
_atom_site_label
_atom_site_fract_x
_atom_site_fract_y
_atom_site_fract_z
Si Si1 0.750000 0.250000 0.581831
Si Si2 0.360080 0.084528 0.870268
Si Si3 0.194097 0.041390 0.377799
Si Si4 0.876839 0.371365 0.727856
Si Si5 0.631750 0.657787 0.850848
Si Si6 0.503362 0.583000 0.117327
O O1 0.829646 0.300277 0.684340
O O2 0.651422 0.282263 0.461047
O O3 0.492033 0.103899 0.796554
O O4 0.267325 0.136321 0.797571
O O5 0.291115 0.016468 0.852125
O O6 0.367065 0.094744 0.057896
O O7 0.276821 0.103310 0.352088
O O8 0.088993 0.047888 0.243682
O O9 0.115188 0.048275 0.538342
O O10 0.541580 0.647760 0.704374
O O11 0.588096 0.602967 0.971480
#
# Coordination Sequence:
#
# PCOD9355040 Si02
#       6
#     4   8   8   8   8   8
#     4  10  22  50  74 102 150 186 268 314 370 462
#     4  11  26  44  70 103 153 191 248 304 386 453
#     4  11  24  45  70 106 152 192 251 312 383 464
#     4  11  26  49  70 109 145 206 244 316 385 451
#     4  10  23  42  70 104 137 191 249 309 378 436
#     4  10  23  44  71 105 142 192 249 303 380 453
#
# _framework density 22.797581999999998
#
# number of rings (size 3 to 8) (size 9 to 14) (size 15 to 20)
#    0.000    1.455    3.636    0.545    5.091    8.727 
#    0.000    0.909    0.000    0.000    0.000    0.000 
#    0.000    0.000    0.000    0.000    0.000    0.000 
#
# Total GULP energy -122608.675122 kJ/mol
# GULP energy per Si atom -5573.121596 kJ/mol
# Density = 2.274569 g / cm^3
# Si number density = 22.797582 Si / 1000 Ang^3
#
#
#
# Elastic Constant Matrix: (Units=GPa)
#
#
# Indices 1 2 3 4 5 6 
#
# 1 166.9048 59.1684 53.4113 0.0000 0.0000 0.0000
# 2 59.1684 127.1235 27.0738 0.0000 0.0000 0.0000
# 3 53.4113 27.0738 76.7019 0.0000 0.0000 0.0000
# 4 0.0000 0.0000 0.0000 41.8026 0.0000 0.0000
# 5 0.0000 0.0000 0.0000 0.0000 48.4192 0.0000
# 6 0.0000 0.0000 0.0000 0.0000 0.0000 34.5672
#
#
#
# Elastic Compliance Matrix: (Units=1/GPa)
#
#
# Indices 1 2 3 4 5 6 
#
# 1 0.008629 -0.002959 -0.004964 0.000000 0.000000 0.000000
# 2 -0.002959 0.009520 -0.001300 0.000000 0.000000 0.000000
# 3 -0.004964 -0.001300 0.016953 0.000000 0.000000 0.000000
# 4 0.000000 0.000000 0.000000 0.023922 0.000000 0.000000
# 5 0.000000 0.000000 0.000000 0.000000 0.020653 0.000000
# 6 0.000000 0.000000 0.000000 0.000000 0.000000 0.028929
#
#
# Mechanical properties :
#
#
# Convention : Reuss Voigt Hill
#
# Bulk Modulus (GPa) = 60.03819 72.22636 66.13228
# Shear Modulus (GPa) = 37.70576 40.36292 39.03434
#
# Velocity S-wave (km/s) = 4.07127 4.21229 4.14238
# Velocity P-wave (km/s) = 6.96368 7.44367 7.20767
#
# Compressibility (1/GPa) = 0.01665607
#
# Stress axis : x y z
#
# Youngs Moduli (GPa) = 115.88707 105.03669 58.98564
#
# Poissons Ratio (x) = 0.31081 0.29283
# Poissons Ratio (y) = 0.34292 0.07668
# Poissons Ratio (z) = 0.57531 0.13654
#
# Static dielectric constant tensor:
#      x y z
#    x 1.893920 0.000000 0.000000 
#    y 0.000000 1.970980 0.000000 
#    z 0.000000 0.000000 1.843520 
# 
# From -- ./inp_files/2904.got.cif
#   From: 2010.05.17/outbox.cif.g08.bks.cpg/sg37_2_cif.got.tgz:2904.got - 2010.06.03 17:53:42.
