data_PCOD9355873
_publ_section_title
;
Structure prediction by ZEFSAII (Michael W. Deem and Ramdas Pophale) SiO2 
 PCOD9355873
Probable space group: A M M 2
;
_chemical_formula_sum "Si O2"
_cell_formula_units_Z 64
_cell_length_a 7.477775
_cell_length_b 24.243443
_cell_length_c 19.845931
_cell_angle_alpha 90.000000
_cell_angle_beta 90.000000
_cell_angle_gamma 90.000000
_cell_volume 3597.809531
_symmetry_space_group_name_H-M "A M M 2"
_symmetry_group_IT_number 38
_symmetry_cell_setting 'orthorhombic'
loop_
_space_group_symop_operation_xyz
x,y,z
-x,-y,z
-x,y,z
x,-y,z
x,1/2+y,1/2+z
-x,1/2-y,1/2+z
-x,1/2+y,1/2+z
x,1/2-y,1/2+z
loop_
_atom_site_type_symbol
_atom_site_label
_atom_site_fract_x
_atom_site_fract_y
_atom_site_fract_z
Si Si1 0.790145 0.669371 0.071560
Si Si2 0.284670 0.271111 0.938815
Si Si3 0.280477 0.755997 0.791482
Si Si4 0.293873 0.719502 0.649327
Si Si5 0.789013 0.561924 0.144919
Si Si6 0.281157 0.162021 0.019726
Si Si7 0.284094 0.884036 0.788475
Si Si8 0.281399 0.937526 0.929165
O O1 0.707713 0.720545 0.112845
O O2 0.717158 0.610759 0.096965
O O3 0.000000 0.671255 0.088014
O O4 0.769837 0.682442 0.992443
O O5 0.500000 0.271144 0.938049
O O6 0.224118 0.271879 0.861566
O O7 0.227934 0.212596 0.971143
O O8 0.500000 0.756323 0.790505
O O9 0.216042 0.726632 0.723495
O O10 0.225410 0.820259 0.788943
O O11 0.500000 0.703204 0.658780
O O12 0.216165 0.677630 0.594281
O O13 0.713937 0.500000 0.138304
O O14 0.770151 0.584010 0.221170
O O15 0.000000 0.557985 0.130205
O O16 0.500000 0.162549 0.021043
O O17 0.224272 0.104940 0.986888
O O18 0.500000 0.883326 0.789327
O O19 0.224502 0.914402 0.856417
O O20 0.500000 0.937268 0.928773
O O21 0.222701 0.000000 0.939169
#
# Coordination Sequence:
#
# PCOD9355873 Si02
#       8
#     8   8   8   8   8   8   8   8
#     4  10  19  30  43  62  85 110 145 183 216 252
#     4   9  16  28  45  61  83 110 137 174 221 264
#     4   9  15  25  44  67  86 108 140 175 214 261
#     4   9  16  27  45  63  83 111 142 173 212 258
#     4  10  21  34  44  57  85 122 150 176 217 262
#     4   8  13  22  36  55  78 107 136 163 199 246
#     4  10  17  27  43  65  87 110 148 184 205 239
#     4   9  15  22  35  58  86 112 139 173 204 230
#
# _framework density 17.788602000000001
#
# number of rings (size 3 to 8) (size 9 to 14) (size 15 to 20)
#    0.000    2.750    2.500    1.500    0.000    1.250 
#    0.000    1.250    0.000    0.000    0.000    0.875 
#    0.000    3.000    0.000    0.000    0.000    0.000 
#
# Total GULP energy -178442.907451 kJ/mol
# GULP energy per Si atom -5576.340858 kJ/mol
# Density = 1.774811 g / cm^3
# Si number density = 17.788602 Si / 1000 Ang^3
#
#
#
# Elastic Constant Matrix: (Units=GPa)
#
#
# Indices 1 2 3 4 5 6 
#
# 1 49.2685 -0.3568 -2.3683 0.0000 0.0000 0.0000
# 2 -0.3568 124.1942 89.5488 0.0000 0.0000 0.0000
# 3 -2.3683 89.5488 163.4145 0.0000 0.0000 0.0000
# 4 0.0000 0.0000 0.0000 19.0302 0.0000 0.0000
# 5 0.0000 0.0000 0.0000 0.0000 15.0639 0.0000
# 6 0.0000 0.0000 0.0000 0.0000 0.0000 10.5761
#
#
#
# Elastic Compliance Matrix: (Units=1/GPa)
#
#
# Indices 1 2 3 4 5 6 
#
# 1 0.020316 -0.000254 0.000434 0.000000 0.000000 0.000000
# 2 -0.000254 0.013315 -0.007300 0.000000 0.000000 0.000000
# 3 0.000434 -0.007300 0.010126 0.000000 0.000000 0.000000
# 4 0.000000 0.000000 0.000000 0.052548 0.000000 0.000000
# 5 0.000000 0.000000 0.000000 0.000000 0.066384 0.000000
# 6 0.000000 0.000000 0.000000 0.000000 0.000000 0.094553
#
#
# Mechanical properties :
#
#
# Convention : Reuss Voigt Hill
#
# Bulk Modulus (GPa) = 33.88045 56.72494 45.30269
# Shear Modulus (GPa) = 17.77327 25.60426 21.68877
#
# Velocity S-wave (km/s) = 3.16434 3.79801 3.49557
# Velocity P-wave (km/s) = 5.69546 7.15477 6.46641
#
# Compressibility (1/GPa) = 0.02951555
#
# Stress axis : x y z
#
# Youngs Moduli (GPa) = 49.22235 75.10477 98.75592
#
# Poissons Ratio (x) = 0.01911 -0.04285
# Poissons Ratio (y) = 0.01253 0.72092
# Poissons Ratio (z) = -0.02136 0.54826
#
# Static dielectric constant tensor:
#      x y z
#    x 1.661840 0.000000 0.000000 
#    y 0.000000 1.592660 0.000000 
#    z 0.000000 0.000000 1.615610 
# 
# From -- ./inp_files/20238.got.cif
#   From: 2010.05.17/outbox.cif.g08.bks.cpg/sg38_11_cif.got.tgz:20238.got - 2010.06.03 18:07:57.
