data_PCOD9355626
_publ_section_title
;
Structure prediction by ZEFSAII (Michael W. Deem and Ramdas Pophale) SiO2 
 PCOD9355626
Probable space group: C C C 2
;
_chemical_formula_sum "Si O2"
_cell_formula_units_Z 60
_cell_length_a 5.567650
_cell_length_b 18.100186
_cell_length_c 26.971859
_cell_angle_alpha 90.000000
_cell_angle_beta 90.000000
_cell_angle_gamma 90.000000
_cell_volume 2718.102592
_symmetry_space_group_name_H-M "C C C 2"
_symmetry_group_IT_number 37
_symmetry_cell_setting 'orthorhombic'
loop_
_space_group_symop_operation_xyz
x,y,z
-x,-y,z
-x,y,1/2+z
x,-y,1/2+z
1/2+x,1/2+y,z
1/2-x,1/2-y,z
1/2-x,1/2+y,1/2+z
1/2+x,1/2-y,1/2+z
loop_
_atom_site_type_symbol
_atom_site_label
_atom_site_fract_x
_atom_site_fract_y
_atom_site_fract_z
Si Si1 0.427998 0.319672 0.548420
Si Si2 0.844263 0.425157 0.837132
Si Si3 0.220700 0.387667 0.980713
Si Si4 0.240960 0.328126 0.145524
Si Si5 0.499173 0.204960 0.400627
Si Si6 0.500000 0.500000 0.411959
Si Si7 0.947727 0.578647 0.579194
Si Si8 0.253331 0.453911 0.226011
O O1 0.250000 0.250000 0.544739
O O2 0.583907 0.327620 0.498862
O O3 0.583823 0.314488 0.598551
O O4 0.302478 0.399436 0.555401
O O5 0.631494 0.441720 0.875987
O O6 0.763295 0.417664 0.780550
O O7 0.000000 0.500000 0.839443
O O8 0.986494 0.354157 0.855981
O O9 0.018421 0.344874 0.950199
O O10 0.324197 0.452614 0.946820
O O11 0.125634 0.418426 0.032577
O O12 0.250000 0.250000 0.172647
O O13 0.291344 0.393559 0.183236
O O14 0.000007 0.356401 0.118248
O O15 0.750000 0.250000 0.397091
O O16 0.250000 0.250000 0.400091
O O17 0.000000 0.500000 0.603088
O O18 0.500000 0.500000 0.225740
O O19 0.000000 0.500000 0.219789
#
# Coordination Sequence:
#
# PCOD9355626 Si02
#       8
#     8   8   8   8   8   4   8   8
#     4  11  25  44  71  98 154 199 250 305 377 447
#     4  11  25  49  76 106 150 195 254 316 383 453
#     4  11  27  39  68 107 142 203 252 304 369 451
#     4  11  25  46  69 105 142 194 241 307 381 451
#     4  12  29  46  72 111 156 204 255 312 384 451
#     4  12  22  46  74 106 152 200 258 318 378 448
#     4  11  25  42  66 102 140 190 246 306 362 439
#     4  11  27  49  81 114 142 190 250 315 386 449
#
# _framework density 22.074223
#
# number of rings (size 3 to 8) (size 9 to 14) (size 15 to 20)
#    0.000    0.800    3.333    2.000   11.200    1.600 
#    0.000    0.000    0.000    0.000    0.000    0.000 
#    0.000    0.000    0.000    0.000    0.000    0.000 
#
# Total GULP energy -167664.815199 kJ/mol
# GULP energy per Si atom -5588.827173 kJ/mol
# Density = 2.202398 g / cm^3
# Si number density = 22.074223 Si / 1000 Ang^3
#
#
#
# Elastic Constant Matrix: (Units=GPa)
#
#
# Indices 1 2 3 4 5 6 
#
# 1 91.4805 37.5176 22.7912 0.0000 0.0000 0.0000
# 2 37.5176 113.1625 37.7342 0.0000 0.0000 0.0000
# 3 22.7912 37.7342 115.8979 0.0000 0.0000 0.0000
# 4 0.0000 0.0000 0.0000 21.2519 0.0000 0.0000
# 5 0.0000 0.0000 0.0000 0.0000 -3.7785 0.0000
# 6 0.0000 0.0000 0.0000 0.0000 0.0000 41.2346
#
#
#
# Elastic Compliance Matrix: (Units=1/GPa)
#
#
# Indices 1 2 3 4 5 6 
#
# 1 0.012817 -0.003824 -0.001275 0.000000 0.000000 0.000000
# 2 -0.003824 0.011054 -0.002847 0.000000 0.000000 0.000000
# 3 -0.001275 -0.002847 0.009806 0.000000 0.000000 0.000000
# 4 0.000000 0.000000 0.000000 0.047055 0.000000 0.000000
# 5 0.000000 0.000000 0.000000 0.000000 -0.264655 0.000000
# 6 0.000000 0.000000 0.000000 0.000000 0.000000 0.024251
#
#
# Mechanical properties :
#
#
# Convention : Reuss Voigt Hill
#
# Bulk Modulus (GPa) = 56.22934 57.40295 56.81614
# Shear Modulus (GPa) = -36.27132 26.57480 -4.84826
#
# Velocity S-wave (km/s) = -4.05798 3.47347 -1.48361
# Velocity P-wave (km/s) = 1.88994 6.49212 4.78119
#
# Compressibility (1/GPa) = 0.01778431
#
# Stress axis : x y z
#
# Youngs Moduli (GPa) = 78.01894 90.46483 101.97815
#
# Poissons Ratio (x) = 0.34595 0.13007
# Poissons Ratio (y) = 0.29836 0.29033
# Poissons Ratio (z) = 0.09951 0.25755
#
# Static dielectric constant tensor:
#      x y z
#    x 1.905540 0.000000 0.000000 
#    y 0.000000 1.845800 0.000000 
#    z 0.000000 0.000000 1.774130 
# 
# From -- ./inp_files/19524.got.cif
#   From: 2010.05.17/outbox.cif.g08.bks.cpg/sg37_10_cif.got.tgz:19524.got - 2010.06.03 17:53:42.
