data_PCOD9355330
_publ_section_title
;
Structure prediction by ZEFSAII (Michael W. Deem and Ramdas Pophale) SiO2 
 PCOD9355330
Probable space group: C C C 2
;
_chemical_formula_sum "Si O2"
_cell_formula_units_Z 36
_cell_length_a 4.448700
_cell_length_b 33.654161
_cell_length_c 8.235696
_cell_angle_alpha 90.000000
_cell_angle_beta 90.000000
_cell_angle_gamma 90.000000
_cell_volume 1233.025889
_symmetry_space_group_name_H-M "C C C 2"
_symmetry_group_IT_number 37
_symmetry_cell_setting 'orthorhombic'
loop_
_space_group_symop_operation_xyz
x,y,z
-x,-y,z
-x,y,1/2+z
x,-y,1/2+z
1/2+x,1/2+y,z
1/2-x,1/2-y,z
1/2-x,1/2+y,1/2+z
1/2+x,1/2-y,1/2+z
loop_
_atom_site_type_symbol
_atom_site_label
_atom_site_fract_x
_atom_site_fract_y
_atom_site_fract_z
Si Si1 0.714197 0.857269 0.871120
Si Si2 0.250000 0.250000 0.423680
Si Si3 0.736020 0.529063 0.645359
Si Si4 0.652671 0.694826 0.148878
Si Si5 0.802214 0.083746 0.869681
O O1 0.907033 0.832562 0.739933
O O2 0.956419 0.887350 0.949387
O O3 0.449534 0.885517 0.804210
O O4 0.642540 0.829157 0.023298
O O5 0.161934 0.284076 0.292696
O O6 0.481675 0.272543 0.539152
O O7 0.500000 0.500000 0.559667
O O8 0.483971 0.444376 0.758944
O O9 0.861428 0.557504 0.506028
O O10 0.500000 0.000000 0.712162
#
# Coordination Sequence:
#
# PCOD9355330 Si02
#       5
#     8   4   8   8   8
#     4  11  26  48  77 116 159 212 269 337 406 485
#     4  10  24  48  72 112 158 216 274 344 406 484
#     4  12  27  50  78 113 154 203 260 323 397 482
#     4  10  25  46  77 114 161 214 277 339 412 482
#     4  12  27  50  77 113 158 205 264 326 399 481
#
# _framework density 29.196465
#
# number of rings (size 3 to 8) (size 9 to 14) (size 15 to 20)
#    0.000    0.889    0.000    4.667    0.000   17.778 
#    0.000    2.222    0.000    0.000    0.000    0.000 
#    0.000    0.000    0.000    0.000    0.000    0.000 
#
# Total GULP energy -100791.226397 kJ/mol
# GULP energy per Si atom -5599.512578 kJ/mol
# Density = 2.913001 g / cm^3
# Si number density = 29.196465 Si / 1000 Ang^3
#
#
#
# Elastic Constant Matrix: (Units=GPa)
#
#
# Indices 1 2 3 4 5 6 
#
# 1 131.2023 91.8884 51.4443 0.0000 0.0000 0.0000
# 2 91.8884 178.1324 119.7603 0.0000 0.0000 0.0000
# 3 51.4443 119.7603 168.0583 0.0000 0.0000 0.0000
# 4 0.0000 0.0000 0.0000 86.7309 0.0000 0.0000
# 5 0.0000 0.0000 0.0000 0.0000 38.2083 0.0000
# 6 0.0000 0.0000 0.0000 0.0000 0.0000 80.9302
#
#
#
# Elastic Compliance Matrix: (Units=1/GPa)
#
#
# Indices 1 2 3 4 5 6 
#
# 1 0.012109 -0.007207 0.001429 0.000000 0.000000 0.000000
# 2 -0.007207 0.015067 -0.008531 0.000000 0.000000 0.000000
# 3 0.001429 -0.008531 0.011592 0.000000 0.000000 0.000000
# 4 0.000000 0.000000 0.000000 0.011530 0.000000 0.000000
# 5 0.000000 0.000000 0.000000 0.000000 0.026172 0.000000
# 6 0.000000 0.000000 0.000000 0.000000 0.000000 0.012356
#
#
# Mechanical properties :
#
#
# Convention : Reuss Voigt Hill
#
# Bulk Modulus (GPa) = 98.51703 111.50876 105.01290
# Shear Modulus (GPa) = 41.38151 55.46056 48.42104
#
# Velocity S-wave (km/s) = 3.76885 4.36313 4.07683
# Velocity P-wave (km/s) = 7.26327 7.97859 7.62932
#
# Compressibility (1/GPa) = 0.01015053
#
# Stress axis : x y z
#
# Youngs Moduli (GPa) = 82.58263 66.37089 86.26809
#
# Poissons Ratio (x) = 0.47836 -0.12330
# Poissons Ratio (y) = 0.59520 0.73592
# Poissons Ratio (z) = -0.11804 0.56618
#
# Static dielectric constant tensor:
#      x y z
#    x 2.232760 0.000000 0.000000 
#    y 0.000000 2.372880 0.000000 
#    z 0.000000 0.000000 2.134620 
# 
# From -- ./inp_files/2273.got.cif
#   From: 2010.05.17/outbox.cif.g08.bks.cpg/sg37_2_cif.got.tgz:2273.got - 2010.06.03 17:53:42.
