data_PCOD9355231
_publ_section_title
;
Structure prediction by ZEFSAII (Michael W. Deem and Ramdas Pophale) SiO2 
 PCOD9355231
Probable space group: C C C 2
;
_chemical_formula_sum "Si O2"
_cell_formula_units_Z 48
_cell_length_a 11.738823
_cell_length_b 9.035007
_cell_length_c 21.830116
_cell_angle_alpha 90.000000
_cell_angle_beta 90.000000
_cell_angle_gamma 90.000000
_cell_volume 2315.309699
_symmetry_space_group_name_H-M "C C C 2"
_symmetry_group_IT_number 37
_symmetry_cell_setting 'orthorhombic'
loop_
_space_group_symop_operation_xyz
x,y,z
-x,-y,z
-x,y,1/2+z
x,-y,1/2+z
1/2+x,1/2+y,z
1/2-x,1/2-y,z
1/2-x,1/2+y,1/2+z
1/2+x,1/2-y,1/2+z
loop_
_atom_site_type_symbol
_atom_site_label
_atom_site_fract_x
_atom_site_fract_y
_atom_site_fract_z
Si Si1 0.373775 0.735266 0.523680
Si Si2 0.566328 0.809346 0.807419
Si Si3 0.384978 0.236445 0.673131
Si Si4 0.000000 0.500000 0.082772
Si Si5 0.500000 0.500000 0.605465
Si Si6 0.679872 0.889282 0.340927
Si Si7 0.626398 0.568769 0.897402
O O1 0.250000 0.750000 0.551072
O O2 0.433138 0.607449 0.561034
O O3 0.363242 0.680261 0.454219
O O4 0.435483 0.888006 0.537700
O O5 0.544727 0.784640 0.735914
O O6 0.449971 0.827892 0.847653
O O7 0.627183 0.667955 0.836380
O O8 0.643339 0.956996 0.808859
O O9 0.250000 0.250000 0.685052
O O10 0.420493 0.103563 0.626508
O O11 0.421870 0.392980 0.645140
O O12 0.750000 0.750000 0.312553
O O13 0.769623 0.949671 0.392801
O O14 0.500000 0.500000 0.901771
#
# Coordination Sequence:
#
# PCOD9355231 Si02
#       7
#     8   8   8   4   4   8   8
#     4  11  23  44  67  96 133 179 224 283 336 400
#     4  11  25  42  67 100 136 175 223 275 348 417
#     4  11  23  43  68  99 135 177 225 286 340 408
#     4  10  24  44  66  96 130 174 230 276 340 402
#     4  10  24  42  68 100 134 178 238 280 340 404
#     4  11  23  42  63  94 133 172 216 272 334 416
#     4  12  24  43  67  98 135 178 223 278 347 410
#
# _framework density 20.731566999999998
#
# number of rings (size 3 to 8) (size 9 to 14) (size 15 to 20)
#    0.000    1.000    2.500    4.500    1.167    4.000 
#    0.000    5.000    0.000    0.000    0.000    0.000 
#    0.000    0.000    0.000    0.000    0.000    0.000 
#
# Total GULP energy -133722.367414 kJ/mol
# GULP energy per Si atom -5571.765309 kJ/mol
# Density = 2.068438 g / cm^3
# Si number density = 20.731567 Si / 1000 Ang^3
#
#
#
# Elastic Constant Matrix: (Units=GPa)
#
#
# Indices 1 2 3 4 5 6 
#
# 1 130.9077 65.5224 27.2083 0.0000 0.0000 0.0000
# 2 65.5224 130.7855 25.2507 0.0000 0.0000 0.0000
# 3 27.2083 25.2507 65.8391 0.0000 0.0000 0.0000
# 4 0.0000 0.0000 0.0000 8.6085 0.0000 0.0000
# 5 0.0000 0.0000 0.0000 0.0000 19.2081 0.0000
# 6 0.0000 0.0000 0.0000 0.0000 0.0000 9.8220
#
#
#
# Elastic Compliance Matrix: (Units=1/GPa)
#
#
# Indices 1 2 3 4 5 6 
#
# 1 0.010570 -0.004808 -0.002524 0.000000 0.000000 0.000000
# 2 -0.004808 0.010445 -0.002019 0.000000 0.000000 0.000000
# 3 -0.002524 -0.002019 0.017006 0.000000 0.000000 0.000000
# 4 0.000000 0.000000 0.000000 0.116164 0.000000 0.000000
# 5 0.000000 0.000000 0.000000 0.000000 0.052061 0.000000
# 6 0.000000 0.000000 0.000000 0.000000 0.000000 0.101812
#
#
# Mechanical properties :
#
#
# Convention : Reuss Voigt Hill
#
# Bulk Modulus (GPa) = 51.76362 62.61059 57.18711
# Shear Modulus (GPa) = 15.00596 21.49777 18.25187
#
# Velocity S-wave (km/s) = 2.69331 3.22368 2.97036
# Velocity P-wave (km/s) = 5.89021 6.64246 6.27762
#
# Compressibility (1/GPa) = 0.01931859
#
# Stress axis : x y z
#
# Youngs Moduli (GPa) = 94.60519 95.74168 58.80320
#
# Poissons Ratio (x) = 0.46035 0.14843
# Poissons Ratio (y) = 0.45489 0.11871
# Poissons Ratio (z) = 0.23880 0.19328
#
# Static dielectric constant tensor:
#      x y z
#    x 1.814800 0.000000 0.000000 
#    y 0.000000 1.731330 0.000000 
#    z 0.000000 0.000000 1.744770 
# 
# From -- ./inp_files/18663.got.cif
#   From: 2010.05.17/outbox.cif.g08.bks.cpg/sg37_10_cif.got.tgz:18663.got - 2010.06.03 17:53:42.
