data_PCOD9355205
_publ_section_title
;
Structure prediction by ZEFSAII (Michael W. Deem and Ramdas Pophale) SiO2 
 PCOD9355205
Probable space group: C C C 2
;
_chemical_formula_sum "Si O2"
_cell_formula_units_Z 52
_cell_length_a 18.786007
_cell_length_b 9.360173
_cell_length_c 13.427736
_cell_angle_alpha 90.000000
_cell_angle_beta 90.000000
_cell_angle_gamma 90.000000
_cell_volume 2361.136798
_symmetry_space_group_name_H-M "C C C 2"
_symmetry_group_IT_number 37
_symmetry_cell_setting 'orthorhombic'
loop_
_space_group_symop_operation_xyz
x,y,z
-x,-y,z
-x,y,1/2+z
x,-y,1/2+z
1/2+x,1/2+y,z
1/2-x,1/2-y,z
1/2-x,1/2+y,1/2+z
1/2+x,1/2-y,1/2+z
loop_
_atom_site_type_symbol
_atom_site_label
_atom_site_fract_x
_atom_site_fract_y
_atom_site_fract_z
Si Si1 0.112553 0.215094 0.596720
Si Si2 0.379970 0.303982 0.380713
Si Si3 0.158447 0.513234 0.180996
Si Si4 0.750000 0.250000 0.739355
Si Si5 0.079043 0.523966 0.371783
Si Si6 0.422876 0.450788 0.194238
Si Si7 0.947006 0.688567 0.075809
O O1 0.124153 0.136949 0.491229
O O2 0.165742 0.347325 0.613407
O O3 0.030896 0.278351 0.592757
O O4 0.121368 0.095497 0.682134
O O5 0.310171 0.308916 0.313237
O O6 0.397878 0.137521 0.398985
O O7 0.432069 0.383637 0.304048
O O8 0.217515 0.388365 0.183112
O O9 0.137266 0.569033 0.290882
O O10 0.086837 0.433192 0.144473
O O11 0.068764 0.631484 0.464519
O O12 0.000000 0.500000 0.329405
O O13 0.500000 0.500000 0.159930
O O14 0.404145 0.327194 0.115494
#
# Coordination Sequence:
#
# PCOD9355205 Si02
#       7
#     8   8   8   4   8   8   8
#     4  11  23  39  66 103 129 176 223 284 351 416
#     4  11  22  44  62  97 132 178 223 277 344 402
#     4  11  22  39  66  93 130 177 235 271 333 402
#     4  10  24  44  66  90 136 184 222 282 328 388
#     4  11  19  32  66  98 126 164 224 292 333 399
#     4  10  24  39  63  98 146 175 207 288 363 407
#     4  11  19  38  64 104 131 164 227 285 353 399
#
# _framework density 22.023288999999998
#
# number of rings (size 3 to 8) (size 9 to 14) (size 15 to 20)
#    0.000    1.231    6.154    1.385    2.154    3.077 
#    2.769    0.000    0.000    0.000    0.000    0.000 
#    0.000    0.000    0.000    0.000    0.000    0.000 
#
# Total GULP energy -144837.938108 kJ/mol
# GULP energy per Si atom -5570.689927 kJ/mol
# Density = 2.197316 g / cm^3
# Si number density = 22.023289 Si / 1000 Ang^3
#
#
#
# Elastic Constant Matrix: (Units=GPa)
#
#
# Indices 1 2 3 4 5 6 
#
# 1 36.3592 18.4489 5.3756 0.0000 0.0000 0.0000
# 2 18.4489 135.3203 63.0101 0.0000 0.0000 0.0000
# 3 5.3756 63.0101 95.4998 0.0000 0.0000 0.0000
# 4 0.0000 0.0000 0.0000 32.1158 0.0000 0.0000
# 5 0.0000 0.0000 0.0000 0.0000 18.8629 0.0000
# 6 0.0000 0.0000 0.0000 0.0000 0.0000 30.2569
#
#
#
# Elastic Compliance Matrix: (Units=1/GPa)
#
#
# Indices 1 2 3 4 5 6 
#
# 1 0.029684 -0.004719 0.001442 0.000000 0.000000 0.000000
# 2 -0.004719 0.011417 -0.007267 0.000000 0.000000 0.000000
# 3 0.001442 -0.007267 0.015185 0.000000 0.000000 0.000000
# 4 0.000000 0.000000 0.000000 0.031137 0.000000 0.000000
# 5 0.000000 0.000000 0.000000 0.000000 0.053014 0.000000
# 6 0.000000 0.000000 0.000000 0.000000 0.000000 0.033050
#
#
# Mechanical properties :
#
#
# Convention : Reuss Voigt Hill
#
# Bulk Modulus (GPa) = 28.40960 48.98315 38.69637
# Shear Modulus (GPa) = 24.23553 28.27009 26.25281
#
# Velocity S-wave (km/s) = 3.32090 3.58669 3.45635
# Velocity P-wave (km/s) = 5.25665 6.28031 5.79114
#
# Compressibility (1/GPa) = 0.03519938
#
# Stress axis : x y z
#
# Youngs Moduli (GPa) = 33.68772 87.58767 65.85459
#
# Poissons Ratio (x) = 0.41330 -0.09499
# Poissons Ratio (y) = 0.15896 0.47859
# Poissons Ratio (z) = -0.04859 0.63653
#
# Static dielectric constant tensor:
#      x y z
#    x 1.924650 0.000000 0.000000 
#    y 0.000000 1.969490 0.000000 
#    z 0.000000 0.000000 1.903630 
# 
# From -- ./inp_files/12896.got.cif
#   From: 2010.05.17/outbox.cif.g08.bks.cpg/sg37_7_cif.got.tgz:12896.got - 2010.06.03 17:53:42.
