data_PCOD9355318
_publ_section_title
;
Structure prediction by ZEFSAII (Michael W. Deem and Ramdas Pophale) SiO2 
 PCOD9355318
Probable space group: C C C 2
;
_chemical_formula_sum "Si O2"
_cell_formula_units_Z 48
_cell_length_a 5.370467
_cell_length_b 14.040794
_cell_length_c 26.272540
_cell_angle_alpha 90.000000
_cell_angle_beta 90.000000
_cell_angle_gamma 90.000000
_cell_volume 1981.097190
_symmetry_space_group_name_H-M "C C C 2"
_symmetry_group_IT_number 37
_symmetry_cell_setting 'orthorhombic'
loop_
_space_group_symop_operation_xyz
x,y,z
-x,-y,z
-x,y,1/2+z
x,-y,1/2+z
1/2+x,1/2+y,z
1/2-x,1/2-y,z
1/2-x,1/2+y,1/2+z
1/2+x,1/2-y,1/2+z
loop_
_atom_site_type_symbol
_atom_site_label
_atom_site_fract_x
_atom_site_fract_y
_atom_site_fract_z
Si Si1 0.872401 0.899454 0.460200
Si Si2 0.000000 0.500000 0.722659
Si Si3 0.313935 0.640351 0.153600
Si Si4 0.877105 0.146705 0.743610
Si Si5 0.750000 0.250000 0.875048
Si Si6 0.500000 0.000000 0.032500
Si Si7 0.879059 0.848149 0.059975
Si Si8 0.750000 0.750000 0.809996
O O1 0.812620 0.838362 0.411337
O O2 0.044046 0.843535 0.500821
O O3 0.635466 0.927030 0.494199
O O4 0.000000 0.000000 0.447320
O O5 0.875302 0.574660 0.683598
O O6 0.804247 0.440079 0.757229
O O7 0.250000 0.750000 0.162233
O O8 0.566015 0.623988 0.185008
O O9 0.380629 0.631168 0.094674
O O10 0.750000 0.250000 0.746126
O O11 0.134545 0.165058 0.774637
O O12 0.496327 0.227260 0.843534
O O13 0.307222 0.063165 0.064063
O O14 0.750000 0.750000 0.076329
#
# Coordination Sequence:
#
# PCOD9355318 Si02
#       8
#     8   4   8   8   4   4   8   4
#     4  10  25  47  78 113 155 199 264 327 389 487
#     4  12  28  49  85 110 164 216 265 326 421 470
#     4  12  27  47  76 115 162 209 267 321 390 492
#     4  12  24  54  82 115 157 209 269 338 401 485
#     4  12  28  50  87 114 155 214 260 336 434 464
#     4  10  24  47  71 104 164 194 269 318 389 478
#     4  11  26  45  72 112 156 211 257 319 391 472
#     4  12  28  52  89 116 159 208 276 348 412 496
#
# _framework density 24.228998000000001
#
# number of rings (size 3 to 8) (size 9 to 14) (size 15 to 20)
#    0.000    0.667    3.333    2.000    9.333    5.333 
#    0.000    4.167    0.000    0.000    0.000    0.000 
#    0.000    0.000    0.000    0.000    0.000    0.000 
#
# Total GULP energy -134289.120325 kJ/mol
# GULP energy per Si atom -5595.380014 kJ/mol
# Density = 2.417385 g / cm^3
# Si number density = 24.228998 Si / 1000 Ang^3
#
#
#
# Elastic Constant Matrix: (Units=GPa)
#
#
# Indices 1 2 3 4 5 6 
#
# 1 137.3871 64.7937 51.8820 0.0000 0.0000 0.0000
# 2 64.7937 144.8470 49.9612 0.0000 0.0000 0.0000
# 3 51.8820 49.9612 123.3535 0.0000 0.0000 0.0000
# 4 0.0000 0.0000 0.0000 11.9958 0.0000 0.0000
# 5 0.0000 0.0000 0.0000 0.0000 30.1906 0.0000
# 6 0.0000 0.0000 0.0000 0.0000 0.0000 48.8721
#
#
#
# Elastic Compliance Matrix: (Units=1/GPa)
#
#
# Indices 1 2 3 4 5 6 
#
# 1 0.009982 -0.003507 -0.002778 0.000000 0.000000 0.000000
# 2 -0.003507 0.009257 -0.002274 0.000000 0.000000 0.000000
# 3 -0.002778 -0.002274 0.010196 0.000000 0.000000 0.000000
# 4 0.000000 0.000000 0.000000 0.083363 0.000000 0.000000
# 5 0.000000 0.000000 0.000000 0.000000 0.033123 0.000000
# 6 0.000000 0.000000 0.000000 0.000000 0.000000 0.020462
#
#
# Mechanical properties :
#
#
# Convention : Reuss Voigt Hill
#
# Bulk Modulus (GPa) = 81.19001 82.09572 81.64286
# Shear Modulus (GPa) = 26.65162 34.14174 30.39668
#
# Velocity S-wave (km/s) = 3.32021 3.75791 3.54582
# Velocity P-wave (km/s) = 6.94842 7.26539 7.10867
#
# Compressibility (1/GPa) = 0.01231679
#
# Stress axis : x y z
#
# Youngs Moduli (GPa) = 100.18427 108.02603 98.07475
#
# Poissons Ratio (x) = 0.37883 0.27244
# Poissons Ratio (y) = 0.35133 0.22306
# Poissons Ratio (z) = 0.27830 0.24569
#
# Static dielectric constant tensor:
#      x y z
#    x 2.082480 0.000000 0.000000 
#    y 0.000000 1.941750 0.000000 
#    z 0.000000 0.000000 1.898960 
# 
# From -- ./inp_files/19409.got.cif
#   From: 2010.05.17/outbox.cif.g08.bks.cpg/sg37_10_cif.got.tgz:19409.got - 2010.06.03 17:53:42.
