data_PCOD9355058
_publ_section_title
;
Structure prediction by ZEFSAII (Michael W. Deem and Ramdas Pophale) SiO2 
 PCOD9355058
Probable space group: C C C 2
;
_chemical_formula_sum "Si O2"
_cell_formula_units_Z 48
_cell_length_a 18.129998
_cell_length_b 5.671203
_cell_length_c 21.124914
_cell_angle_alpha 90.000000
_cell_angle_beta 90.000000
_cell_angle_gamma 90.000000
_cell_volume 2172.040400
_symmetry_space_group_name_H-M "C C C 2"
_symmetry_group_IT_number 37
_symmetry_cell_setting 'orthorhombic'
loop_
_space_group_symop_operation_xyz
x,y,z
-x,-y,z
-x,y,1/2+z
x,-y,1/2+z
1/2+x,1/2+y,z
1/2-x,1/2-y,z
1/2-x,1/2+y,1/2+z
1/2+x,1/2-y,1/2+z
loop_
_atom_site_type_symbol
_atom_site_label
_atom_site_fract_x
_atom_site_fract_y
_atom_site_fract_z
Si Si1 0.930380 0.823557 0.335720
Si Si2 0.586902 0.708493 0.652319
Si Si3 0.576001 0.981217 0.955216
Si Si4 0.177116 0.902768 0.407150
Si Si5 0.080863 0.710607 0.697471
Si Si6 0.172495 0.214983 0.532444
O O1 0.937454 0.670429 0.399485
O O2 0.927942 0.670117 0.272401
O O3 0.850644 0.944701 0.347961
O O4 0.000000 0.000000 0.328444
O O5 0.613739 0.476389 0.690742
O O6 0.500067 0.748564 0.666133
O O7 0.609670 0.639717 0.581046
O O8 0.616730 0.973700 0.668143
O O9 0.500000 0.000000 0.992941
O O10 0.603860 0.748293 0.921979
O O11 0.642077 0.047900 0.001217
O O12 0.250000 0.750000 0.395074
O O13 0.187415 0.051026 0.471599
O O14 0.250000 0.250000 0.566611
#
# Coordination Sequence:
#
# PCOD9355058 Si02
#       6
#     8   8   8   8   8   8
#     4  11  22  40  68 101 137 180 233 294 353 420
#     4  10  23  39  69  94 131 184 237 278 356 401
#     4  11  24  37  69 102 130 173 233 285 357 420
#     4  11  24  43  68 100 143 183 224 289 373 429
#     4  10  23  42  67  99 135 179 234 298 340 408
#     4  11  25  43  65  96 140 184 228 294 356 428
#
# _framework density 22.099036000000002
#
# number of rings (size 3 to 8) (size 9 to 14) (size 15 to 20)
#    0.000    1.333    5.000    0.000    9.333    1.333 
#    0.000    0.833    3.667    0.000    0.000    0.000 
#    0.000    0.000    0.000    0.000    0.000    0.000 
#
# Total GULP energy -133689.377007 kJ/mol
# GULP energy per Si atom -5570.390709 kJ/mol
# Density = 2.204874 g / cm^3
# Si number density = 22.099036 Si / 1000 Ang^3
#
#
#
# Elastic Constant Matrix: (Units=GPa)
#
#
# Indices 1 2 3 4 5 6 
#
# 1 98.9822 9.7678 23.6211 0.0000 0.0000 0.0000
# 2 9.7678 94.5402 -7.9009 0.0000 0.0000 0.0000
# 3 23.6211 -7.9009 75.6743 0.0000 0.0000 0.0000
# 4 0.0000 0.0000 0.0000 31.5513 0.0000 0.0000
# 5 0.0000 0.0000 0.0000 0.0000 20.1420 0.0000
# 6 0.0000 0.0000 0.0000 0.0000 0.0000 30.1505
#
#
#
# Elastic Compliance Matrix: (Units=1/GPa)
#
#
# Indices 1 2 3 4 5 6 
#
# 1 0.011110 -0.001450 -0.003619 0.000000 0.000000 0.000000
# 2 -0.001450 0.010860 0.001587 0.000000 0.000000 0.000000
# 3 -0.003619 0.001587 0.014510 0.000000 0.000000 0.000000
# 4 0.000000 0.000000 0.000000 0.031694 0.000000 0.000000
# 5 0.000000 0.000000 0.000000 0.000000 0.049648 0.000000
# 6 0.000000 0.000000 0.000000 0.000000 0.000000 0.033167
#
#
# Mechanical properties :
#
#
# Convention : Reuss Voigt Hill
#
# Bulk Modulus (GPa) = 33.88274 35.57475 34.72875
# Shear Modulus (GPa) = 29.79878 32.61600 31.20739
#
# Velocity S-wave (km/s) = 3.67607 3.84591 3.76195
# Velocity P-wave (km/s) = 5.77784 5.98784 5.88378
#
# Compressibility (1/GPa) = 0.02951355
#
# Stress axis : x y z
#
# Youngs Moduli (GPa) = 90.01202 92.08146 68.91861
#
# Poissons Ratio (x) = 0.13355 0.24943
# Poissons Ratio (y) = 0.13054 -0.10934
# Poissons Ratio (z) = 0.32577 -0.14609
#
# Static dielectric constant tensor:
#      x y z
#    x 1.920830 0.000000 0.000000 
#    y 0.000000 1.874710 0.000000 
#    z 0.000000 0.000000 1.815770 
# 
# From -- ./inp_files/15770.got.cif
#   From: 2010.05.17/outbox.cif.g08.bks.cpg/sg37_8_cif.got.tgz:15770.got - 2010.06.03 17:53:42.
