data_PCOD9355326
_publ_section_title
;
Structure prediction by ZEFSAII (Michael W. Deem and Ramdas Pophale) SiO2 
 PCOD9355326
Probable space group: C C C 2
;
_chemical_formula_sum "Si O2"
_cell_formula_units_Z 20
_cell_length_a 17.698917
_cell_length_b 5.012303
_cell_length_c 8.145268
_cell_angle_alpha 90.000000
_cell_angle_beta 90.000000
_cell_angle_gamma 90.000000
_cell_volume 722.585742
_symmetry_space_group_name_H-M "C C C 2"
_symmetry_group_IT_number 37
_symmetry_cell_setting 'orthorhombic'
loop_
_space_group_symop_operation_xyz
x,y,z
-x,-y,z
-x,y,1/2+z
x,-y,1/2+z
1/2+x,1/2+y,z
1/2-x,1/2-y,z
1/2-x,1/2+y,1/2+z
1/2+x,1/2-y,1/2+z
loop_
_atom_site_type_symbol
_atom_site_label
_atom_site_fract_x
_atom_site_fract_y
_atom_site_fract_z
Si Si1 0.053582 0.248610 0.197370
Si Si2 0.653834 0.879593 0.487148
Si Si3 0.750000 0.750000 0.776123
O O1 0.106628 0.365087 0.053686
O O2 0.000000 0.500000 0.235124
O O3 0.895753 0.214805 0.859846
O O4 0.000000 0.000000 0.159688
O O5 0.680261 0.722797 0.649188
O O6 0.724419 0.010055 0.391006
#
# Coordination Sequence:
#
# PCOD9355326 Si02
#       3
#     8   8   4
#     4  11  26  48  76 112 152 199 251 312 379 451
#     4  10  25  46  76 110 151 198 254 312 376 450
#     4  10  24  48  70 108 148 198 252 310 376 446
#
# _framework density 27.678374000000002
#
# number of rings (size 3 to 8) (size 9 to 14) (size 15 to 20)
#    0.000    1.600    0.000    1.200    0.000   25.600 
#    0.000    6.000    0.000    0.000    0.000    0.000 
#    0.000    0.000    0.000    0.000    0.000    0.000 
#
# Total GULP energy -56141.393215 kJ/mol
# GULP energy per Si atom -5614.139321 kJ/mol
# Density = 2.761538 g / cm^3
# Si number density = 27.678374 Si / 1000 Ang^3
#
#
#
# Elastic Constant Matrix: (Units=GPa)
#
#
# Indices 1 2 3 4 5 6 
#
# 1 138.9966 100.9868 70.7556 0.0000 0.0000 0.0000
# 2 100.9868 150.7205 89.9045 0.0000 0.0000 0.0000
# 3 70.7556 89.9045 178.3263 0.0000 0.0000 0.0000
# 4 0.0000 0.0000 0.0000 37.6910 0.0000 0.0000
# 5 0.0000 0.0000 0.0000 0.0000 55.3085 0.0000
# 6 0.0000 0.0000 0.0000 0.0000 0.0000 57.6336
#
#
#
# Elastic Compliance Matrix: (Units=1/GPa)
#
#
# Indices 1 2 3 4 5 6 
#
# 1 0.014195 -0.008797 -0.001197 0.000000 0.000000 0.000000
# 2 -0.008797 0.014940 -0.004042 0.000000 0.000000 0.000000
# 3 -0.001197 -0.004042 0.008120 0.000000 0.000000 0.000000
# 4 0.000000 0.000000 0.000000 0.026532 0.000000 0.000000
# 5 0.000000 0.000000 0.000000 0.000000 0.018080 0.000000
# 6 0.000000 0.000000 0.000000 0.000000 0.000000 0.017351
#
#
# Mechanical properties :
#
#
# Convention : Reuss Voigt Hill
#
# Bulk Modulus (GPa) = 108.88855 110.14858 109.51856
# Shear Modulus (GPa) = 38.35780 43.88637 41.12208
#
# Velocity S-wave (km/s) = 3.72673 3.98626 3.85867
# Velocity P-wave (km/s) = 7.61210 7.81468 7.71406
#
# Compressibility (1/GPa) = 0.00918370
#
# Stress axis : x y z
#
# Youngs Moduli (GPa) = 70.44567 66.93489 123.14777
#
# Poissons Ratio (x) = 0.58883 0.14744
# Poissons Ratio (y) = 0.61972 0.49771
# Poissons Ratio (z) = 0.08434 0.27052
#
# Static dielectric constant tensor:
#      x y z
#    x 2.251650 0.000000 0.000000 
#    y 0.000000 2.083580 0.000000 
#    z 0.000000 0.000000 2.057790 
# 
# From -- ./inp_files/1602.got.cif
#   From: 2010.05.17/outbox.cif.g08.bks.cpg/sg37_1_cif.got.tgz:1602.got - 2010.06.03 17:53:42.
