data_PCOD9355377
_publ_section_title
;
Structure prediction by ZEFSAII (Michael W. Deem and Ramdas Pophale) SiO2 
 PCOD9355377
Probable space group: C C C 2
;
_chemical_formula_sum "Si O2"
_cell_formula_units_Z 56
_cell_length_a 13.777793
_cell_length_b 8.584906
_cell_length_c 19.955106
_cell_angle_alpha 90.000000
_cell_angle_beta 90.000000
_cell_angle_gamma 90.000000
_cell_volume 2360.311046
_symmetry_space_group_name_H-M "C C C 2"
_symmetry_group_IT_number 37
_symmetry_cell_setting 'orthorhombic'
loop_
_space_group_symop_operation_xyz
x,y,z
-x,-y,z
-x,y,1/2+z
x,-y,1/2+z
1/2+x,1/2+y,z
1/2-x,1/2-y,z
1/2-x,1/2+y,1/2+z
1/2+x,1/2-y,1/2+z
loop_
_atom_site_type_symbol
_atom_site_label
_atom_site_fract_x
_atom_site_fract_y
_atom_site_fract_z
Si Si1 0.000000 0.000000 0.669940
Si Si2 0.156437 0.691306 0.848288
Si Si3 0.449264 0.833394 0.502619
Si Si4 0.986844 0.329628 0.244363
Si Si5 0.701553 0.577057 0.597860
Si Si6 0.152486 0.344847 0.864810
Si Si7 0.250000 0.250000 0.081022
Si Si8 0.405770 0.604450 0.971796
O O1 0.990322 0.165378 0.709052
O O2 0.096967 0.041608 0.629738
O O3 0.250000 0.750000 0.808953
O O4 0.177806 0.523511 0.878147
O O5 0.132997 0.813790 0.905842
O O6 0.066800 0.662474 0.801710
O O7 0.424867 0.810826 0.423453
O O8 0.351180 0.776012 0.539151
O O9 0.540051 0.726024 0.520334
O O10 0.500000 0.000000 0.512929
O O11 0.888171 0.320696 0.289157
O O12 0.000000 0.500000 0.208074
O O13 0.750000 0.750000 0.610396
O O14 0.753915 0.416005 0.620123
O O15 0.684844 0.553919 0.517508
O O16 0.250000 0.250000 0.874185
O O17 0.500000 0.500000 0.954942
#
# Coordination Sequence:
#
# PCOD9355377 Si02
#       8
#     4   8   8   8   8   8   4   8
#     4  12  28  54  78  98 138 204 258 310 374 422
#     4  11  25  39  66 111 144 186 231 297 376 452
#     4  12  21  38  63 100 147 188 224 282 358 451
#     4  10  25  50  73 102 146 188 247 311 372 438
#     4  12  28  50  73 107 140 188 254 308 366 442
#     4  11  23  40  64 105 148 185 236 288 365 453
#     4  12  26  44  72 108 142 186 234 300 374 440
#     4  12  23  41  69  98 151 188 226 288 372 447
#
# _framework density 23.725687000000001
#
# number of rings (size 3 to 8) (size 9 to 14) (size 15 to 20)
#    0.000    0.571    5.714    1.714    7.000    1.714 
#    3.857    0.714    0.000    0.000    0.000    0.000 
#    0.000    0.000    0.000    0.000    0.000    0.000 
#
# Total GULP energy -155980.272753 kJ/mol
# GULP energy per Si atom -5570.724027 kJ/mol
# Density = 2.367169 g / cm^3
# Si number density = 23.725687 Si / 1000 Ang^3
#
#
#
# Elastic Constant Matrix: (Units=GPa)
#
#
# Indices 1 2 3 4 5 6 
#
# 1 76.8779 35.3112 5.6668 0.0000 0.0000 0.0000
# 2 35.3112 210.4109 42.0530 0.0000 0.0000 0.0000
# 3 5.6668 42.0530 29.1255 0.0000 0.0000 0.0000
# 4 0.0000 0.0000 0.0000-1947.9803 0.0000 0.0000
# 5 0.0000 0.0000 0.0000 0.0000 10.5656 0.0000
# 6 0.0000 0.0000 0.0000 0.0000 0.0000 54.9468
#
#
#
# Elastic Compliance Matrix: (Units=1/GPa)
#
#
# Indices 1 2 3 4 5 6 
#
# 1 0.014113 -0.002558 0.000947 0.000000 0.000000 0.000000
# 2 -0.002558 0.007144 -0.009817 0.000000 0.000000 0.000000
# 3 0.000947 -0.009817 0.048324 0.000000 0.000000 0.000000
# 4 0.000000 0.000000 0.000000 -0.000513 0.000000 0.000000
# 5 0.000000 0.000000 0.000000 0.000000 0.094647 0.000000
# 6 0.000000 0.000000 0.000000 0.000000 0.000000 0.018199
#
#
# Mechanical properties :
#
#
# Convention : Reuss Voigt Hill
#
# Bulk Modulus (GPa) = 21.40162 53.60848 37.50505
# Shear Modulus (GPa) = 22.69172 -360.93470 -169.12149
#
# Velocity S-wave (km/s) = 3.09596 -12.34741 -8.45203
# Velocity P-wave (km/s) = 4.67119 13.44001 8.91106
#
# Compressibility (1/GPa) = 0.04672544
#
# Stress axis : x y z
#
# Youngs Moduli (GPa) = 70.85861 139.97963 20.69351
#
# Poissons Ratio (x) = 0.35802 -0.01960
# Poissons Ratio (y) = 0.18123 0.20315
# Poissons Ratio (z) = -0.06711 1.37420
#
# Static dielectric constant tensor:
#      x y z
#    x 2.004780 0.000000 0.000000 
#    y 0.000000 7.456640 0.000000 
#    z 0.000000 0.000000 1.941030 
# 
# From -- ./inp_files/17221.got.cif
#   From: 2010.05.17/outbox.cif.g08.bks.cpg/sg37_9_cif.got.tgz:17221.got - 2010.06.03 17:53:42.
