data_PCOD9355010
_publ_section_title
;
Structure prediction by ZEFSAII (Michael W. Deem and Ramdas Pophale) SiO2 
 PCOD9355010
Probable space group: C C C 2
;
_chemical_formula_sum "Si O2"
_cell_formula_units_Z 56
_cell_length_a 6.326825
_cell_length_b 31.821095
_cell_length_c 12.883567
_cell_angle_alpha 90.000000
_cell_angle_beta 90.000000
_cell_angle_gamma 90.000000
_cell_volume 2593.803444
_symmetry_space_group_name_H-M "C C C 2"
_symmetry_group_IT_number 37
_symmetry_cell_setting 'orthorhombic'
loop_
_space_group_symop_operation_xyz
x,y,z
-x,-y,z
-x,y,1/2+z
x,-y,1/2+z
1/2+x,1/2+y,z
1/2-x,1/2-y,z
1/2-x,1/2+y,1/2+z
1/2+x,1/2-y,1/2+z
loop_
_atom_site_type_symbol
_atom_site_label
_atom_site_fract_x
_atom_site_fract_y
_atom_site_fract_z
Si Si1 0.897720 0.310301 0.181100
Si Si2 0.375333 0.709147 0.383775
Si Si3 0.500000 0.500000 0.940574
Si Si4 0.713649 0.882427 0.208964
Si Si5 0.880288 0.459734 0.567136
Si Si6 0.253078 0.080161 0.428750
Si Si7 0.452650 0.346959 0.558967
Si Si8 0.250000 0.750000 0.758887
O O1 0.768016 0.305369 0.287409
O O2 0.729287 0.313285 0.088549
O O3 0.013793 0.354579 0.179382
O O4 0.082123 0.275575 0.188819
O O5 0.250000 0.750000 0.425460
O O6 0.402211 0.674489 0.471972
O O7 0.602434 0.721599 0.333871
O O8 0.321874 0.478038 0.009517
O O9 0.382123 0.539752 0.889070
O O10 0.713744 0.889835 0.330971
O O11 0.916436 0.858744 0.161868
O O12 0.688454 0.926531 0.151843
O O13 0.000000 0.500000 0.613886
O O14 0.036516 0.437848 0.483346
O O15 0.136024 0.109426 0.512945
#
# Coordination Sequence:
#
# PCOD9355010 Si02
#       8
#     8   8   4   8   8   8   8   4
#     4  11  24  44  72 101 140 182 232 294 346 429
#     4  10  25  49  72  99 140 181 234 291 354 423
#     4  10  22  46  70  96 148 178 232 292 352 412
#     4  12  26  43  72 103 139 186 233 287 354 418
#     4  10  23  44  68 102 140 182 232 287 344 423
#     4  11  24  43  70 102 141 182 233 288 350 415
#     4  12  24  45  70 109 139 186 231 292 354 423
#     4  10  22  50  66 100 138 186 234 288 350 424
#
# _framework density 21.589915999999999
#
# number of rings (size 3 to 8) (size 9 to 14) (size 15 to 20)
#    0.000    1.143    2.857    2.571    2.000    5.714 
#   16.714    0.000    0.000    0.000    0.000    0.000 
#    0.000    0.000    0.000    0.000    0.000    0.000 
#
# Total GULP energy -156530.441387 kJ/mol
# GULP energy per Si atom -5590.372907 kJ/mol
# Density = 2.154078 g / cm^3
# Si number density = 21.589916 Si / 1000 Ang^3
#
#
#
# Elastic Constant Matrix: (Units=GPa)
#
#
# Indices 1 2 3 4 5 6 
#
# 1 101.8639 35.0218 23.8028 0.0000 0.0000 0.0000
# 2 35.0218 86.3980 19.5259 0.0000 0.0000 0.0000
# 3 23.8028 19.5259 53.8839 0.0000 0.0000 0.0000
# 4 0.0000 0.0000 0.0000 11.3493 0.0000 0.0000
# 5 0.0000 0.0000 0.0000 0.0000 5.0748 0.0000
# 6 0.0000 0.0000 0.0000 0.0000 0.0000 46.0306
#
#
#
# Elastic Compliance Matrix: (Units=1/GPa)
#
#
# Indices 1 2 3 4 5 6 
#
# 1 0.012112 -0.004030 -0.003890 0.000000 0.000000 0.000000
# 2 -0.004030 0.013948 -0.003274 0.000000 0.000000 0.000000
# 3 -0.003890 -0.003274 0.021463 0.000000 0.000000 0.000000
# 4 0.000000 0.000000 0.000000 0.088111 0.000000 0.000000
# 5 0.000000 0.000000 0.000000 0.000000 0.197052 0.000000
# 6 0.000000 0.000000 0.000000 0.000000 0.000000 0.021725
#
#
# Mechanical properties :
#
#
# Convention : Reuss Voigt Hill
#
# Bulk Modulus (GPa) = 39.78588 44.31630 42.05109
# Shear Modulus (GPa) = 12.98104 23.41061 18.19583
#
# Velocity S-wave (km/s) = 2.45471 3.29649 2.90624
# Velocity P-wave (km/s) = 5.14802 5.92116 5.54807
#
# Compressibility (1/GPa) = 0.02513454
#
# Stress axis : x y z
#
# Youngs Moduli (GPa) = 82.56517 71.69485 46.59166
#
# Poissons Ratio (x) = 0.28896 0.18123
# Poissons Ratio (y) = 0.33277 0.15254
# Poissons Ratio (z) = 0.32116 0.23472
#
# Static dielectric constant tensor:
#      x y z
#    x 1.803840 0.000000 0.000000 
#    y 0.000000 1.836480 0.000000 
#    z 0.000000 0.000000 1.722680 
# 
# From -- ./inp_files/9937.got.cif
#   From: 2010.05.17/outbox.cif.g08.bks.cpg/sg37_5_cif.got.tgz:9937.got - 2010.06.03 17:53:42.
