data_PCOD9355816
_publ_section_title
;
Structure prediction by ZEFSAII (Michael W. Deem and Ramdas Pophale) SiO2 
 PCOD9355816
Probable space group: A M M 2
;
_chemical_formula_sum "Si O2"
_cell_formula_units_Z 56
_cell_length_a 8.182017
_cell_length_b 22.098570
_cell_length_c 14.298355
_cell_angle_alpha 90.000000
_cell_angle_beta 90.000000
_cell_angle_gamma 90.000000
_cell_volume 2585.298085
_symmetry_space_group_name_H-M "A M M 2"
_symmetry_group_IT_number 38
_symmetry_cell_setting 'orthorhombic'
loop_
_space_group_symop_operation_xyz
x,y,z
-x,-y,z
-x,y,z
x,-y,z
x,1/2+y,1/2+z
-x,1/2-y,1/2+z
-x,1/2+y,1/2+z
x,1/2-y,1/2+z
loop_
_atom_site_type_symbol
_atom_site_label
_atom_site_fract_x
_atom_site_fract_y
_atom_site_fract_z
Si Si1 0.691450 0.569864 0.537160
Si Si2 0.684474 0.315202 0.816458
Si Si3 0.301841 0.000000 0.727692
Si Si4 0.303205 0.789886 0.692281
Si Si5 0.192244 0.638459 0.006302
Si Si6 0.301944 0.617220 0.347315
Si Si7 0.190664 0.000000 0.517597
Si Si8 0.814504 0.431218 0.742509
O O1 0.500000 0.583720 0.558453
O O2 0.693152 0.500000 0.502726
O O3 0.754724 0.611526 0.453549
O O4 0.794198 0.571960 0.631035
O O5 0.500000 0.293787 0.833828
O O6 0.749054 0.277151 0.726613
O O7 0.690620 0.384310 0.784630
O O8 0.770944 0.319088 0.916818
O O9 0.258321 0.058297 0.788010
O O10 0.500000 0.000000 0.711565
O O11 0.210769 0.000000 0.629750
O O12 0.500000 0.789800 0.683538
O O13 0.246740 0.825662 0.599962
O O14 0.251115 0.827168 0.784380
O O15 0.258526 0.568427 0.993232
O O16 0.000000 0.630271 0.014908
O O17 0.500000 0.617856 0.353304
O O18 0.000000 0.000000 0.487892
O O19 0.783524 0.500000 0.771972
O O20 0.000000 0.415116 0.769943
#
# Coordination Sequence:
#
# PCOD9355816 Si02
#       8
#     8   8   4   8   8   8   4   8
#     4   9  16  29  52  83 117 152 192 237 291 357
#     4  11  25  43  64  91 122 161 209 260 314 373
#     4  10  16  28  56  87 116 155 200 249 306 364
#     4  10  22  41  63  89 123 160 206 259 306 364
#     4  11  24  42  65  94 130 169 209 255 317 381
#     4   9  16  29  54  87 118 153 196 245 299 355
#     4  10  22  38  58  91 130 165 202 257 318 370
#     4  10  22  40  60  84 116 154 201 259 319 378
#
# _framework density 21.660945000000002
#
# number of rings (size 3 to 8) (size 9 to 14) (size 15 to 20)
#    0.000    2.000    2.143    1.286    1.000    3.714 
#    0.000    4.286    0.000    0.000    0.000    0.000 
#    0.000    0.000    0.000    0.000    0.000    0.000 
#
# Total GULP energy -156070.504986 kJ/mol
# GULP energy per Si atom -5573.946607 kJ/mol
# Density = 2.161164 g / cm^3
# Si number density = 21.660945 Si / 1000 Ang^3
#
#
#
# Elastic Constant Matrix: (Units=GPa)
#
#
# Indices 1 2 3 4 5 6 
#
# 1 27.6809 27.2164 13.0404 0.0000 0.0000 0.0000
# 2 27.2164 79.5308 37.6677 0.0000 0.0000 0.0000
# 3 13.0404 37.6677 91.7654 0.0000 0.0000 0.0000
# 4 0.0000 0.0000 0.0000 19.9194 0.0000 0.0000
# 5 0.0000 0.0000 0.0000 0.0000 68.6155 0.0000
# 6 0.0000 0.0000 0.0000 0.0000 0.0000 16.9317
#
#
#
# Elastic Compliance Matrix: (Units=1/GPa)
#
#
# Indices 1 2 3 4 5 6 
#
# 1 0.054446 -0.018580 -0.000111 0.000000 0.000000 0.000000
# 2 -0.018580 0.021948 -0.006369 0.000000 0.000000 0.000000
# 3 -0.000111 -0.006369 0.013527 0.000000 0.000000 0.000000
# 4 0.000000 0.000000 0.000000 0.050202 0.000000 0.000000
# 5 0.000000 0.000000 0.000000 0.000000 0.014574 0.000000
# 6 0.000000 0.000000 0.000000 0.000000 0.000000 0.059061
#
#
# Mechanical properties :
#
#
# Convention : Reuss Voigt Hill
#
# Bulk Modulus (GPa) = 25.12358 39.42512 32.27435
# Shear Modulus (GPa) = 18.04107 29.16349 23.60228
#
# Velocity S-wave (km/s) = 2.88911 3.67326 3.30453
# Velocity P-wave (km/s) = 4.77001 6.01922 5.43065
#
# Compressibility (1/GPa) = 0.03980324
#
# Stress axis : x y z
#
# Youngs Moduli (GPa) = 18.36682 45.56120 73.92382
#
# Poissons Ratio (x) = 0.84651 0.00817
# Poissons Ratio (y) = 0.34125 0.47083
# Poissons Ratio (z) = 0.00203 0.29018
#
# Static dielectric constant tensor:
#      x y z
#    x 1.782180 0.000000 0.000000 
#    y 0.000000 1.863870 0.000000 
#    z 0.000000 0.000000 1.793280 
# 
# From -- ./inp_files/12464.got.cif
#   From: 2010.05.17/outbox.cif.g08.bks.cpg/sg38_7_cif.got.tgz:12464.got - 2010.06.03 18:07:57.
