data_PCOD9355865
_publ_section_title
;
Structure prediction by ZEFSAII (Michael W. Deem and Ramdas Pophale) SiO2 
 PCOD9355865
Probable space group: A M M 2
;
_chemical_formula_sum "Si O2"
_cell_formula_units_Z 64
_cell_length_a 14.505391
_cell_length_b 7.554556
_cell_length_c 29.026250
_cell_angle_alpha 90.000000
_cell_angle_beta 90.000000
_cell_angle_gamma 90.000000
_cell_volume 3180.748392
_symmetry_space_group_name_H-M "A M M 2"
_symmetry_group_IT_number 38
_symmetry_cell_setting 'orthorhombic'
loop_
_space_group_symop_operation_xyz
x,y,z
-x,-y,z
-x,y,z
x,-y,z
x,1/2+y,1/2+z
-x,1/2-y,1/2+z
-x,1/2+y,1/2+z
x,1/2-y,1/2+z
loop_
_atom_site_type_symbol
_atom_site_label
_atom_site_fract_x
_atom_site_fract_y
_atom_site_fract_z
Si Si1 0.251864 0.694165 0.800500
Si Si2 0.250781 0.301143 0.049043
Si Si3 0.606424 0.710433 0.623153
Si Si4 0.895827 0.710666 0.224887
Si Si5 0.891455 0.284832 0.122381
Si Si6 0.393350 0.708994 0.226972
Si Si7 0.397176 0.283873 0.870597
Si Si8 0.397199 0.784171 0.478475
O O1 0.223493 0.500000 0.816816
O O2 0.167580 0.762329 0.769507
O O3 0.332509 0.688029 0.762691
O O4 0.308317 0.783336 0.842400
O O5 0.221907 0.500000 0.034810
O O6 0.330460 0.308665 0.087378
O O7 0.167508 0.217745 0.078761
O O8 0.308237 0.218523 0.006700
O O9 0.500000 0.763744 0.618654
O O10 0.613289 0.500000 0.615670
O O11 0.635723 0.754101 0.674914
O O12 0.901266 0.500000 0.219066
O O13 0.862677 0.776456 0.174148
O O14 0.000000 0.778167 0.232129
O O15 0.880853 0.500000 0.121353
O O16 0.000000 0.245621 0.117953
O O17 0.500000 0.758662 0.230701
O O18 0.383115 0.500000 0.236120
O O19 0.500000 0.226732 0.853938
O O20 0.396520 0.500000 0.867037
O O21 0.390921 0.239544 0.924534
O O22 0.500000 0.726786 0.495129
O O23 0.396514 0.000000 0.481968
#
# Coordination Sequence:
#
# PCOD9355865 Si02
#       8
#     8   8   8   8   8   8   8   8
#     4  11  20  29  47  71  93 119 154 199 247 289
#     4  10  17  26  47  72  90 115 154 196 231 268
#     4  10  20  31  42  61  93 126 151 181 227 282
#     4   9  18  33  50  66  90 126 162 194 234 289
#     4   8  15  28  45  66  91 117 146 183 227 272
#     4  10  20  32  45  63  91 125 158 191 227 276
#     4   8  15  28  44  64  94 129 158 185 225 281
#     4   8  14  25  42  66  94 122 155 191 224 269
#
# _framework density 20.121051000000001
#
# number of rings (size 3 to 8) (size 9 to 14) (size 15 to 20)
#    0.000    2.750    0.000    4.125    0.000    3.750 
#    0.000    0.000    0.000    3.375    0.000    8.750 
#    0.000    0.000    0.000    0.000    0.000    0.000 
#
# Total GULP energy -178302.131269 kJ/mol
# GULP energy per Si atom -5571.941602 kJ/mol
# Density = 2.007525 g / cm^3
# Si number density = 20.121051 Si / 1000 Ang^3
#
#
#
# Elastic Constant Matrix: (Units=GPa)
#
#
# Indices 1 2 3 4 5 6 
#
# 1 111.3583 6.1546 59.7025 0.0000 0.0000 0.0000
# 2 6.1546 43.9499 -1.5053 0.0000 0.0000 0.0000
# 3 59.7025 -1.5053 93.3829 0.0000 0.0000 0.0000
# 4 0.0000 0.0000 0.0000 5.5589 0.0000 0.0000
# 5 0.0000 0.0000 0.0000 0.0000 38.9294 0.0000
# 6 0.0000 0.0000 0.0000 0.0000 0.0000 9.0497
#
#
#
# Elastic Compliance Matrix: (Units=1/GPa)
#
#
# Indices 1 2 3 4 5 6 
#
# 1 0.013882 -0.002249 -0.008911 0.000000 0.000000 0.000000
# 2 -0.002249 0.023130 0.001811 0.000000 0.000000 0.000000
# 3 -0.008911 0.001811 0.016435 0.000000 0.000000 0.000000
# 4 0.000000 0.000000 0.000000 0.179890 0.000000 0.000000
# 5 0.000000 0.000000 0.000000 0.000000 0.025688 0.000000
# 6 0.000000 0.000000 0.000000 0.000000 0.000000 0.110501
#
#
# Mechanical properties :
#
#
# Convention : Reuss Voigt Hill
#
# Bulk Modulus (GPa) = 28.77885 41.93273 35.35579
# Shear Modulus (GPa) = 12.50599 22.99690 17.75144
#
# Velocity S-wave (km/s) = 2.49577 3.38439 2.97346
# Velocity P-wave (km/s) = 4.75805 6.01312 5.42202
#
# Compressibility (1/GPa) = 0.03474774
#
# Stress axis : x y z
#
# Youngs Moduli (GPa) = 72.03559 43.23352 60.84524
#
# Poissons Ratio (x) = 0.09724 0.54222
# Poissons Ratio (y) = 0.16202 -0.11018
# Poissons Ratio (z) = 0.64194 -0.07829
#
# Static dielectric constant tensor:
#      x y z
#    x 1.731470 0.000000 0.000000 
#    y 0.000000 1.814390 0.000000 
#    z 0.000000 0.000000 1.735650 
# 
# From -- ./inp_files/25041.got.cif
#   From: 2010.05.17/outbox.cif.g08.bks.cpg/sg38_13_cif.got.tgz:25041.got - 2010.06.03 18:07:57.
