data_PCOD9355745
_publ_section_title
;
Structure prediction by ZEFSAII (Michael W. Deem and Ramdas Pophale) SiO2 
 PCOD9355745
Probable space group: C C C 2
;
_chemical_formula_sum "Si O2"
_cell_formula_units_Z 40
_cell_length_a 15.506317
_cell_length_b 12.158035
_cell_length_c 7.897942
_cell_angle_alpha 90.000000
_cell_angle_beta 90.000000
_cell_angle_gamma 90.000000
_cell_volume 1488.970137
_symmetry_space_group_name_H-M "C C C 2"
_symmetry_group_IT_number 37
_symmetry_cell_setting 'orthorhombic'
loop_
_space_group_symop_operation_xyz
x,y,z
-x,-y,z
-x,y,1/2+z
x,-y,1/2+z
1/2+x,1/2+y,z
1/2-x,1/2-y,z
1/2-x,1/2+y,1/2+z
1/2+x,1/2-y,1/2+z
loop_
_atom_site_type_symbol
_atom_site_label
_atom_site_fract_x
_atom_site_fract_y
_atom_site_fract_z
Si Si1 0.951774 0.336733 0.712590
Si Si2 0.813652 0.334939 0.994215
Si Si3 0.073080 0.090231 0.197619
Si Si4 0.875203 0.657427 0.833635
Si Si5 0.295396 0.464111 0.941792
O O1 0.966508 0.205623 0.756525
O O2 0.916483 0.335678 0.522070
O O3 0.042802 0.397063 0.736416
O O4 0.883115 0.371138 0.854743
O O5 0.750000 0.250000 0.903225
O O6 0.849197 0.272786 0.161687
O O7 0.758532 0.442405 0.041361
O O8 0.139499 0.034115 0.326557
O O9 0.137223 0.111354 0.041474
O O10 0.000000 0.000000 0.156813
O O11 0.781982 0.608788 0.874439
#
# Coordination Sequence:
#
# PCOD9355745 Si02
#       5
#     8   8   8   8   8
#     4  12  29  52  77 118 159 210 268 333 404 475
#     4  12  27  50  79 114 164 208 265 328 403 478
#     4  12  29  49  79 118 158 203 267 337 399 482
#     4  12  29  50  80 116 158 212 265 330 400 477
#     4  12  27  51  78 115 156 210 263 326 403 483
#
# _framework density 26.864207
#
# number of rings (size 3 to 8) (size 9 to 14) (size 15 to 20)
#    0.000    0.000    6.000    1.800   11.200    0.800 
#    0.000    0.000    0.000    0.000    0.000    0.000 
#    0.000    0.000    0.000    0.000    0.000    0.000 
#
# Total GULP energy -111538.827703 kJ/mol
# GULP energy per Si atom -5576.941385 kJ/mol
# Density = 2.680306 g / cm^3
# Si number density = 26.864207 Si / 1000 Ang^3
#
#
#
# Elastic Constant Matrix: (Units=GPa)
#
#
# Indices 1 2 3 4 5 6 
#
# 1 180.3222 16.3811 56.3730 0.0000 0.0000 0.0000
# 2 16.3811 37.1187 -11.5935 0.0000 0.0000 0.0000
# 3 56.3730 -11.5935 153.0354 0.0000 0.0000 0.0000
# 4 0.0000 0.0000 0.0000 16.7267 0.0000 0.0000
# 5 0.0000 0.0000 0.0000 0.0000 27.4702 0.0000
# 6 0.0000 0.0000 0.0000 0.0000 0.0000 31.7395
#
#
#
# Elastic Compliance Matrix: (Units=1/GPa)
#
#
# Indices 1 2 3 4 5 6 
#
# 1 0.006766 -0.003856 -0.002785 0.000000 0.000000 0.000000
# 2 -0.003856 0.029791 0.003677 0.000000 0.000000 0.000000
# 3 -0.002785 0.003677 0.007839 0.000000 0.000000 0.000000
# 4 0.000000 0.000000 0.000000 0.059785 0.000000 0.000000
# 5 0.000000 0.000000 0.000000 0.000000 0.036403 0.000000
# 6 0.000000 0.000000 0.000000 0.000000 0.000000 0.031506
#
#
# Mechanical properties :
#
#
# Convention : Reuss Voigt Hill
#
# Bulk Modulus (GPa) = 25.99462 54.75526 40.37494
# Shear Modulus (GPa) = 26.19994 35.80832 31.00413
#
# Velocity S-wave (km/s) = 3.12632 3.65490 3.40090
# Velocity P-wave (km/s) = 4.76751 6.18365 5.52118
#
# Compressibility (1/GPa) = 0.03846949
#
# Stress axis : x y z
#
# Youngs Moduli (GPa) = 147.78779 33.56737 127.57088
#
# Poissons Ratio (x) = 0.12943 0.35524
# Poissons Ratio (y) = 0.56985 -0.46911
# Poissons Ratio (z) = 0.41154 -0.12344
#
# Static dielectric constant tensor:
#      x y z
#    x 2.124940 0.000000 0.000000 
#    y 0.000000 2.218860 0.000000 
#    z 0.000000 0.000000 2.151490 
# 
# From -- ./inp_files/3329.got.cif
#   From: 2010.05.17/outbox.cif.g08.bks.cpg/sg37_2_cif.got.tgz:3329.got - 2010.06.03 17:53:42.
