data_PCOD9355785
_publ_section_title
;
Structure prediction by ZEFSAII (Michael W. Deem and Ramdas Pophale) SiO2 
 PCOD9355785
Probable space group: A M M 2
;
_chemical_formula_sum "Si O2"
_cell_formula_units_Z 48
_cell_length_a 28.684552
_cell_length_b 14.038447
_cell_length_c 5.283289
_cell_angle_alpha 90.000000
_cell_angle_beta 90.000000
_cell_angle_gamma 90.000000
_cell_volume 2127.509489
_symmetry_space_group_name_H-M "A M M 2"
_symmetry_group_IT_number 38
_symmetry_cell_setting 'orthorhombic'
loop_
_space_group_symop_operation_xyz
x,y,z
-x,-y,z
-x,y,z
x,-y,z
x,1/2+y,1/2+z
-x,1/2-y,1/2+z
-x,1/2+y,1/2+z
x,1/2-y,1/2+z
loop_
_atom_site_type_symbol
_atom_site_label
_atom_site_fract_x
_atom_site_fract_y
_atom_site_fract_z
Si Si1 0.787899 0.150614 0.436530
Si Si2 0.749768 0.635554 0.435600
Si Si3 0.449480 0.185179 0.896566
Si Si4 0.649872 0.685187 0.307922
Si Si5 0.108990 0.615245 0.799278
Si Si6 0.947257 0.115606 0.803938
O O1 0.762573 0.252300 0.468884
O O2 0.783231 0.103330 0.710013
O O3 0.840957 0.160931 0.350835
O O4 0.761020 0.098583 0.211914
O O5 0.696508 0.625391 0.352239
O O6 0.500000 0.135612 0.871433
O O7 0.448765 0.265633 0.673715
O O8 0.400011 0.134383 0.851182
O O9 0.651366 0.766172 0.530494
O O10 0.116077 0.500000 0.794854
O O11 0.085816 0.644792 0.535347
O O12 0.074720 0.636911 0.031973
O O13 0.000000 0.151990 0.829951
O O14 0.949551 0.000000 0.819544
#
# Coordination Sequence:
#
# PCOD9355785 Si02
#       6
#     8   8   8   8   8   8
#     4  10  18  28  42  60  83 104 134 169 192 226
#     4  10  17  28  41  60  76 107 146 169 192 216
#     4   8  14  20  29  45  67  95 124 156 198 238
#     4  10  14  23  36  51  73  96 135 172 192 226
#     4  10  19  30  45  67  88 106 126 155 200 240
#     4   9  17  30  47  66  86 104 126 156 192 238
#
# _framework density 22.561592000000001
#
# number of rings (size 3 to 8) (size 9 to 14) (size 15 to 20)
#    0.000    2.500    3.333    1.500    0.000    2.000 
#    0.000    0.000    0.000    0.000    0.000   46.667 
#    0.000    0.000    0.000    0.000    0.000    9.167 
#
# Total GULP energy -133899.381054 kJ/mol
# GULP energy per Si atom -5579.140877 kJ/mol
# Density = 2.251024 g / cm^3
# Si number density = 22.561592 Si / 1000 Ang^3
#
#
#
# Elastic Constant Matrix: (Units=GPa)
#
#
# Indices 1 2 3 4 5 6 
#
# 1 123.7234 -1.7326 -39.6517 0.0000 0.0000 0.0000
# 2 -1.7326 74.9925 -4.7196 0.0000 0.0000 0.0000
# 3 -39.6517 -4.7196 106.5772 0.0000 0.0000 0.0000
# 4 0.0000 0.0000 0.0000 41.1400 0.0000 0.0000
# 5 0.0000 0.0000 0.0000 0.0000 35.2808 0.0000
# 6 0.0000 0.0000 0.0000 0.0000 0.0000 166.7684
#
#
#
# Elastic Compliance Matrix: (Units=1/GPa)
#
#
# Indices 1 2 3 4 5 6 
#
# 1 0.009190 0.000429 0.003438 0.000000 0.000000 0.000000
# 2 0.000429 0.013392 0.000753 0.000000 0.000000 0.000000
# 3 0.003438 0.000753 0.010695 0.000000 0.000000 0.000000
# 4 0.000000 0.000000 0.000000 0.024307 0.000000 0.000000
# 5 0.000000 0.000000 0.000000 0.000000 0.028344 0.000000
# 6 0.000000 0.000000 0.000000 0.000000 0.000000 0.005996
#
#
# Mechanical properties :
#
#
# Convention : Reuss Voigt Hill
#
# Bulk Modulus (GPa) = 23.52010 23.67616 23.59813
# Shear Modulus (GPa) = 51.62163 72.06431 61.84297
#
# Velocity S-wave (km/s) = 4.78853 5.65778 5.24121
# Velocity P-wave (km/s) = 6.40475 7.29366 6.86361
#
# Compressibility (1/GPa) = 0.04251682
#
# Stress axis : x y z
#
# Youngs Moduli (GPa) = 108.80843 74.67179 93.49825
#
# Poissons Ratio (x) = -0.03201 -0.32147
# Poissons Ratio (y) = -0.04665 -0.07036
# Poissons Ratio (z) = -0.37411 -0.05619
#
# Static dielectric constant tensor:
#      x y z
#    x 1.846080 0.000000 0.000000 
#    y 0.000000 1.428970 0.000000 
#    z 0.000000 0.000000 1.866750 
# 
# From -- ./inp_files/2205.got.cif
#   From: 2010.05.17/outbox.cif.g08.bks.cpg/sg38_2_cif.got.tgz:2205.got - 2010.06.03 18:07:57.
