data_PCOD9355015
_publ_section_title
;
Structure prediction by ZEFSAII (Michael W. Deem and Ramdas Pophale) SiO2 
 PCOD9355015
Probable space group: C C C 2
;
_chemical_formula_sum "Si O2"
_cell_formula_units_Z 56
_cell_length_a 8.762407
_cell_length_b 20.832372
_cell_length_c 14.043165
_cell_angle_alpha 90.000000
_cell_angle_beta 90.000000
_cell_angle_gamma 90.000000
_cell_volume 2563.463525
_symmetry_space_group_name_H-M "C C C 2"
_symmetry_group_IT_number 37
_symmetry_cell_setting 'orthorhombic'
loop_
_space_group_symop_operation_xyz
x,y,z
-x,-y,z
-x,y,1/2+z
x,-y,1/2+z
1/2+x,1/2+y,z
1/2-x,1/2-y,z
1/2-x,1/2+y,1/2+z
1/2+x,1/2-y,1/2+z
loop_
_atom_site_type_symbol
_atom_site_label
_atom_site_fract_x
_atom_site_fract_y
_atom_site_fract_z
Si Si1 0.076410 0.759178 0.692130
Si Si2 0.000000 0.000000 0.496365
Si Si3 0.202987 0.536671 0.901093
Si Si4 0.157249 0.569297 0.245458
Si Si5 0.000000 0.500000 0.581080
Si Si6 0.572418 0.610048 0.630231
Si Si7 0.648728 0.807407 0.546114
Si Si8 0.467665 0.164061 0.356057
O O1 0.250000 0.750000 0.656184
O O2 0.073988 0.727356 0.797078
O O3 0.024809 0.832751 0.677154
O O4 0.947041 0.719365 0.634622
O O5 0.123140 0.028775 0.425340
O O6 0.973377 0.061090 0.566788
O O7 0.153119 0.486917 0.821526
O O8 0.156834 0.606285 0.860811
O O9 0.131414 0.513035 0.002754
O O10 0.328842 0.571412 0.206900
O O11 0.038098 0.556550 0.158018
O O12 0.111501 0.632551 0.303648
O O13 0.717591 0.642243 0.572951
O O14 0.750000 0.750000 0.503699
O O15 0.521855 0.825151 0.468479
#
# Coordination Sequence:
#
# PCOD9355015 Si02
#       8
#     8   4   8   8   4   8   8   8
#     4  11  27  46  72 105 139 193 250 301 365 440
#     4  12  26  46  76 104 160 194 232 320 378 446
#     4  12  26  42  70 113 139 191 248 296 378 446
#     4  12  24  41  74 106 143 189 251 306 361 453
#     4  12  20  44  70 102 144 186 238 296 368 432
#     4  11  25  49  71 104 147 197 239 306 379 435
#     4  10  22  46  72  96 142 187 241 303 363 433
#     4  12  22  43  74  98 138 195 240 302 362 437
#
# _framework density 21.845444000000001
#
# number of rings (size 3 to 8) (size 9 to 14) (size 15 to 20)
#    0.000    0.571    7.143    0.429    0.000    5.143 
#    7.714    0.000    0.000    0.000    0.000    0.000 
#    0.000    0.000    0.000    0.000    0.000    0.000 
#
# Total GULP energy -155907.072722 kJ/mol
# GULP energy per Si atom -5568.109740 kJ/mol
# Density = 2.179572 g / cm^3
# Si number density = 21.845444 Si / 1000 Ang^3
#
#
#
# Elastic Constant Matrix: (Units=GPa)
#
#
# Indices 1 2 3 4 5 6 
#
# 1 41.7501 2.0800 1.9850 0.0000 0.0000 0.0000
# 2 2.0800 94.2869 32.3837 0.0000 0.0000 0.0000
# 3 1.9850 32.3837 116.4221 0.0000 0.0000 0.0000
# 4 0.0000 0.0000 0.0000 10.4111 0.0000 0.0000
# 5 0.0000 0.0000 0.0000 0.0000 28.9791 0.0000
# 6 0.0000 0.0000 0.0000 0.0000 0.0000 30.2242
#
#
#
# Elastic Compliance Matrix: (Units=1/GPa)
#
#
# Indices 1 2 3 4 5 6 
#
# 1 0.023987 -0.000430 -0.000289 0.000000 0.000000 0.000000
# 2 -0.000430 0.011734 -0.003257 0.000000 0.000000 0.000000
# 3 -0.000289 -0.003257 0.009500 0.000000 0.000000 0.000000
# 4 0.000000 0.000000 0.000000 0.096052 0.000000 0.000000
# 5 0.000000 0.000000 0.000000 0.000000 0.034508 0.000000
# 6 0.000000 0.000000 0.000000 0.000000 0.000000 0.033086
#
#
# Mechanical properties :
#
#
# Convention : Reuss Voigt Hill
#
# Bulk Modulus (GPa) = 26.83136 36.15072 31.49104
# Shear Modulus (GPa) = 21.81107 28.32357 25.06732
#
# Velocity S-wave (km/s) = 3.16322 3.60466 3.39113
# Velocity P-wave (km/s) = 5.06461 5.82315 5.45708
#
# Compressibility (1/GPa) = 0.03726982
#
# Stress axis : x y z
#
# Youngs Moduli (GPa) = 41.68891 85.22320 105.26094
#
# Poissons Ratio (x) = 0.03662 0.03047
# Poissons Ratio (y) = 0.01792 0.34279
# Poissons Ratio (z) = 0.01207 0.27753
#
# Static dielectric constant tensor:
#      x y z
#    x 2.153120 0.000000 0.000000 
#    y 0.000000 1.867060 0.000000 
#    z 0.000000 0.000000 1.821790 
# 
# From -- ./inp_files/10853.got.cif
#   From: 2010.05.17/outbox.cif.g08.bks.cpg/sg37_6_cif.got.tgz:10853.got - 2010.06.03 17:53:42.
