data_PCOD9355437
_publ_section_title
;
Structure prediction by ZEFSAII (Michael W. Deem and Ramdas Pophale) SiO2 
 PCOD9355437
Probable space group: C C C 2
;
_chemical_formula_sum "Si O2"
_cell_formula_units_Z 60
_cell_length_a 14.318069
_cell_length_b 18.190020
_cell_length_c 11.267021
_cell_angle_alpha 90.000000
_cell_angle_beta 90.000000
_cell_angle_gamma 90.000000
_cell_volume 2934.450117
_symmetry_space_group_name_H-M "C C C 2"
_symmetry_group_IT_number 37
_symmetry_cell_setting 'orthorhombic'
loop_
_space_group_symop_operation_xyz
x,y,z
-x,-y,z
-x,y,1/2+z
x,-y,1/2+z
1/2+x,1/2+y,z
1/2-x,1/2-y,z
1/2-x,1/2+y,1/2+z
1/2+x,1/2-y,1/2+z
loop_
_atom_site_type_symbol
_atom_site_label
_atom_site_fract_x
_atom_site_fract_y
_atom_site_fract_z
Si Si1 0.293147 0.410070 0.462700
Si Si2 0.000000 0.000000 0.650123
Si Si3 0.794602 0.666668 0.251820
Si Si4 0.197430 0.062242 0.057111
Si Si5 0.462311 0.621298 0.806020
Si Si6 0.554242 0.242465 0.631014
Si Si7 0.652078 0.284677 0.134667
Si Si8 0.127917 0.809417 0.411442
O O1 0.220318 0.363071 0.384747
O O2 0.256065 0.486955 0.512432
O O3 0.377632 0.420319 0.367836
O O4 0.340120 0.362300 0.567126
O O5 0.090722 0.966418 0.585528
O O6 0.971090 0.934732 0.738295
O O7 0.750000 0.750000 0.244268
O O8 0.746797 0.606125 0.164661
O O9 0.901257 0.678914 0.211121
O O10 0.190212 0.123512 0.955511
O O11 0.434312 0.682800 0.709736
O O12 0.521748 0.661260 0.905494
O O13 0.443797 0.241625 0.603910
O O14 0.619560 0.248936 0.514370
O O15 0.750000 0.250000 0.098621
O O16 0.650953 0.287916 0.278003
#
# Coordination Sequence:
#
# PCOD9355437 Si02
#       8
#     8   4   8   8   8   8   8   8
#     4  12  23  40  62  99 139 175 223 284 341 418
#     4  12  18  36  54  96 138 178 210 272 352 406
#     4  12  23  42  68  94 134 189 229 260 344 437
#     4  12  24  35  62  96 136 178 219 275 342 411
#     4  11  20  34  61  94 134 176 214 263 343 414
#     4  11  22  43  66  93 129 184 227 264 337 425
#     4  11  27  41  66 100 131 169 225 295 349 389
#     4  11  21  37  60  93 135 165 217 275 337 411
#
# _framework density 20.446760000000001
#
# number of rings (size 3 to 8) (size 9 to 14) (size 15 to 20)
#    0.000    0.533    6.667    3.600    3.733    0.000 
#    0.000    0.000    0.000    0.800    0.000    0.000 
#    0.000    0.000    0.000    0.000    0.000    0.000 
#
# Total GULP energy -167253.396795 kJ/mol
# GULP energy per Si atom -5575.113226 kJ/mol
# Density = 2.040022 g / cm^3
# Si number density = 20.446760 Si / 1000 Ang^3
#
#
#
# Elastic Constant Matrix: (Units=GPa)
#
#
# Indices 1 2 3 4 5 6 
#
# 1 81.6053 44.9214 18.9699 0.0000 0.0000 0.0000
# 2 44.9214 78.4900 36.7357 0.0000 0.0000 0.0000
# 3 18.9699 36.7357 101.4394 0.0000 0.0000 0.0000
# 4 0.0000 0.0000 0.0000 38.3318 0.0000 0.0000
# 5 0.0000 0.0000 0.0000 0.0000 19.5484 0.0000
# 6 0.0000 0.0000 0.0000 0.0000 0.0000 22.5443
#
#
#
# Elastic Compliance Matrix: (Units=1/GPa)
#
#
# Indices 1 2 3 4 5 6 
#
# 1 0.017906 -0.010453 0.000437 0.000000 0.000000 0.000000
# 2 -0.010453 0.021442 -0.005810 0.000000 0.000000 0.000000
# 3 0.000437 -0.005810 0.011881 0.000000 0.000000 0.000000
# 4 0.000000 0.000000 0.000000 0.026088 0.000000 0.000000
# 5 0.000000 0.000000 0.000000 0.000000 0.051155 0.000000
# 6 0.000000 0.000000 0.000000 0.000000 0.000000 0.044357
#
#
# Mechanical properties :
#
#
# Convention : Reuss Voigt Hill
#
# Bulk Modulus (GPa) = 51.08139 51.42095 51.25117
# Shear Modulus (GPa) = 23.69583 26.81209 25.25396
#
# Velocity S-wave (km/s) = 3.40796 3.62513 3.51822
# Velocity P-wave (km/s) = 6.36573 6.53647 6.45166
#
# Compressibility (1/GPa) = 0.01957660
#
# Stress axis : x y z
#
# Youngs Moduli (GPa) = 55.84579 46.63710 84.17047
#
# Poissons Ratio (x) = 0.48748 -0.03676
# Poissons Ratio (y) = 0.58373 0.48907
# Poissons Ratio (z) = -0.02439 0.27098
#
# Static dielectric constant tensor:
#      x y z
#    x 1.810540 0.000000 0.000000 
#    y 0.000000 1.759430 0.000000 
#    z 0.000000 0.000000 1.756630 
# 
# From -- ./inp_files/7951.got.cif
#   From: 2010.05.17/outbox.cif.g08.bks.cpg/sg37_4_cif.got.tgz:7951.got - 2010.06.03 17:53:42.
