data_PCOD9355405
_publ_section_title
;
Structure prediction by ZEFSAII (Michael W. Deem and Ramdas Pophale) SiO2 
 PCOD9355405
Probable space group: C C C 2
;
_chemical_formula_sum "Si O2"
_cell_formula_units_Z 56
_cell_length_a 7.756836
_cell_length_b 15.194034
_cell_length_c 22.117324
_cell_angle_alpha 90.000000
_cell_angle_beta 90.000000
_cell_angle_gamma 90.000000
_cell_volume 2606.695387
_symmetry_space_group_name_H-M "C C C 2"
_symmetry_group_IT_number 37
_symmetry_cell_setting 'orthorhombic'
loop_
_space_group_symop_operation_xyz
x,y,z
-x,-y,z
-x,y,1/2+z
x,-y,1/2+z
1/2+x,1/2+y,z
1/2-x,1/2-y,z
1/2-x,1/2+y,1/2+z
1/2+x,1/2-y,1/2+z
loop_
_atom_site_type_symbol
_atom_site_label
_atom_site_fract_x
_atom_site_fract_y
_atom_site_fract_z
Si Si1 0.456629 0.100307 0.454460
Si Si2 0.451621 0.598874 0.955346
Si Si3 0.500000 0.000000 0.739392
Si Si4 0.250000 0.250000 0.148661
Si Si5 0.937263 0.655236 0.822944
Si Si6 0.347613 0.438705 0.207589
Si Si7 0.464659 0.646379 0.319091
Si Si8 0.456759 0.752040 0.050283
O O1 0.252414 0.107789 0.445229
O O2 0.548032 0.131114 0.393200
O O3 0.499695 0.164054 0.509032
O O4 0.500000 0.000000 0.467187
O O5 0.500000 0.500000 0.973017
O O6 0.527469 0.618738 0.889137
O O7 0.499477 0.667885 0.007651
O O8 0.471475 0.917193 0.782964
O O9 0.321935 0.000076 0.703891
O O10 0.289925 0.342940 0.182092
O O11 0.421690 0.241282 0.107880
O O12 0.737943 0.648142 0.803339
O O13 0.016053 0.751350 0.813944
O O14 0.500000 0.500000 0.179219
O O15 0.424667 0.413443 0.274161
O O16 0.250000 0.750000 0.063160
#
# Coordination Sequence:
#
# PCOD9355405 Si02
#       8
#     8   8   4   4   8   8   8   8
#     4  11  22  39  63 103 145 182 231 284 362 442
#     4  11  23  38  68 104 147 184 227 298 362 438
#     4  12  24  44  72 104 144 190 242 294 374 436
#     4  12  30  52  80  96 146 200 248 318 368 424
#     4  11  22  36  67 105 146 189 220 288 363 446
#     4  12  27  51  72 106 143 190 254 308 365 443
#     4  11  23  41  66 103 149 185 233 292 365 441
#     4  10  26  50  72 104 141 188 248 300 363 440
#
# _framework density 21.483138
#
# number of rings (size 3 to 8) (size 9 to 14) (size 15 to 20)
#    0.000    0.857    3.571    3.000    4.000    2.857 
#    6.429    0.000    0.000    0.000    0.000    0.000 
#    0.000    0.000    0.000    0.000    0.000    0.000 
#
# Total GULP energy -156447.015385 kJ/mol
# GULP energy per Si atom -5587.393407 kJ/mol
# Density = 2.143424 g / cm^3
# Si number density = 21.483138 Si / 1000 Ang^3
#
#
#
# Elastic Constant Matrix: (Units=GPa)
#
#
# Indices 1 2 3 4 5 6 
#
# 1 94.9426 22.3150 40.0572 0.0000 0.0000 0.0000
# 2 22.3150 145.2066 34.8388 0.0000 0.0000 0.0000
# 3 40.0572 34.8388 61.6364 0.0000 0.0000 0.0000
# 4 0.0000 0.0000 0.0000 23.9310 0.0000 0.0000
# 5 0.0000 0.0000 0.0000 0.0000 25.1160 0.0000
# 6 0.0000 0.0000 0.0000 0.0000 0.0000 36.6041
#
#
#
# Elastic Compliance Matrix: (Units=1/GPa)
#
#
# Indices 1 2 3 4 5 6 
#
# 1 0.014512 0.000038 -0.009453 0.000000 0.000000 0.000000
# 2 0.000038 0.007967 -0.004528 0.000000 0.000000 0.000000
# 3 -0.009453 -0.004528 0.024927 0.000000 0.000000 0.000000
# 4 0.000000 0.000000 0.000000 0.041787 0.000000 0.000000
# 5 0.000000 0.000000 0.000000 0.000000 0.039815 0.000000
# 6 0.000000 0.000000 0.000000 0.000000 0.000000 0.027319
#
#
# Mechanical properties :
#
#
# Convention : Reuss Voigt Hill
#
# Bulk Modulus (GPa) = 51.22830 55.13417 53.18124
# Shear Modulus (GPa) = 26.21651 30.76852 28.49252
#
# Velocity S-wave (km/s) = 3.49711 3.78857 3.64575
# Velocity P-wave (km/s) = 6.34066 6.69756 6.52155
#
# Compressibility (1/GPa) = 0.01952046
#
# Stress axis : x y z
#
# Youngs Moduli (GPa) = 68.90883 125.51308 40.11772
#
# Poissons Ratio (x) = -0.00474 0.37922
# Poissons Ratio (y) = -0.00260 0.18165
# Poissons Ratio (z) = 0.65136 0.56831
#
# Static dielectric constant tensor:
#      x y z
#    x 1.748540 0.000000 0.000000 
#    y 0.000000 1.789840 0.000000 
#    z 0.000000 0.000000 1.774430 
# 
# From -- ./inp_files/16457.got.cif
#   From: 2010.05.17/outbox.cif.g08.bks.cpg/sg37_9_cif.got.tgz:16457.got - 2010.06.03 17:53:42.
