data_PCOD9355646
_publ_section_title
;
Structure prediction by ZEFSAII (Michael W. Deem and Ramdas Pophale) SiO2 
 PCOD9355646
Probable space group: C C C 2
;
_chemical_formula_sum "Si O2"
_cell_formula_units_Z 36
_cell_length_a 9.577421
_cell_length_b 11.702003
_cell_length_c 13.725070
_cell_angle_alpha 90.000000
_cell_angle_beta 90.000000
_cell_angle_gamma 90.000000
_cell_volume 1538.237348
_symmetry_space_group_name_H-M "C C C 2"
_symmetry_group_IT_number 37
_symmetry_cell_setting 'orthorhombic'
loop_
_space_group_symop_operation_xyz
x,y,z
-x,-y,z
-x,y,1/2+z
x,-y,1/2+z
1/2+x,1/2+y,z
1/2-x,1/2-y,z
1/2-x,1/2+y,1/2+z
1/2+x,1/2-y,1/2+z
loop_
_atom_site_type_symbol
_atom_site_label
_atom_site_fract_x
_atom_site_fract_y
_atom_site_fract_z
Si Si1 0.348592 0.353400 0.670330
Si Si2 0.250000 0.250000 0.002655
Si Si3 0.650591 0.934748 0.155258
Si Si4 0.040571 0.180308 0.458123
Si Si5 0.250000 0.750000 0.815663
Si Si6 0.500000 0.500000 0.326813
O O1 0.250000 0.250000 0.702653
O O2 0.255688 0.461040 0.641554
O O3 0.427958 0.317191 0.572182
O O4 0.448062 0.400888 0.754554
O O5 0.330980 0.152909 0.065434
O O6 0.375136 0.309415 0.945188
O O7 0.714082 0.855839 0.242473
O O8 0.500000 0.000000 0.167639
O O9 0.123462 0.268667 0.392933
O O10 0.096610 0.065621 0.404561
#
# Coordination Sequence:
#
# PCOD9355646 Si02
#       6
#     8   4   8   8   4   4
#     4  12  26  47  73 108 151 201 247 316 389 452
#     4  11  26  48  79 116 152 202 261 324 389 466
#     4  11  25  47  78 109 151 201 264 321 383 464
#     4  12  26  49  74 110 155 197 253 319 389 460
#     4  11  26  50  73 112 154 198 257 324 383 472
#     4  12  26  44  78 104 148 200 250 310 378 462
#
# _framework density 23.403410000000001
#
# number of rings (size 3 to 8) (size 9 to 14) (size 15 to 20)
#    0.000    0.444    3.333    4.667    7.778    0.000 
#    4.000    0.000    0.000    0.000    0.000    0.000 
#    0.000    0.000    0.000    0.000    0.000    0.000 
#
# Total GULP energy -100338.166940 kJ/mol
# GULP energy per Si atom -5574.342608 kJ/mol
# Density = 2.335014 g / cm^3
# Si number density = 23.403410 Si / 1000 Ang^3
#
#
#
# Elastic Constant Matrix: (Units=GPa)
#
#
# Indices 1 2 3 4 5 6 
#
# 1 141.7522 40.5953 54.3836 0.0000 0.0000 0.0000
# 2 40.5953 123.7925 40.9002 0.0000 0.0000 0.0000
# 3 54.3836 40.9002 115.8607 0.0000 0.0000 0.0000
# 4 0.0000 0.0000 0.0000 22.5253 0.0000 0.0000
# 5 0.0000 0.0000 0.0000 0.0000 124.3296 0.0000
# 6 0.0000 0.0000 0.0000 0.0000 0.0000 39.6294
#
#
#
# Elastic Compliance Matrix: (Units=1/GPa)
#
#
# Indices 1 2 3 4 5 6 
#
# 1 0.008926 -0.001746 -0.003573 0.000000 0.000000 0.000000
# 2 -0.001746 0.009486 -0.002529 0.000000 0.000000 0.000000
# 3 -0.003573 -0.002529 0.011201 0.000000 0.000000 0.000000
# 4 0.000000 0.000000 0.000000 0.044394 0.000000 0.000000
# 5 0.000000 0.000000 0.000000 0.000000 0.008043 0.000000
# 6 0.000000 0.000000 0.000000 0.000000 0.000000 0.025234
#
#
# Mechanical properties :
#
#
# Convention : Reuss Voigt Hill
#
# Bulk Modulus (GPa) = 71.86060 72.57372 72.21716
# Shear Modulus (GPa) = 39.17890 53.66529 46.42210
#
# Velocity S-wave (km/s) = 4.09598 4.79378 4.45855
# Velocity P-wave (km/s) = 7.28980 7.85606 7.57822
#
# Compressibility (1/GPa) = 0.01391583
#
# Stress axis : x y z
#
# Youngs Moduli (GPa) = 112.03847 105.41503 89.27810
#
# Poissons Ratio (x) = 0.18410 0.31899
# Poissons Ratio (y) = 0.19567 0.22579
# Poissons Ratio (z) = 0.40031 0.26660
#
# Static dielectric constant tensor:
#      x y z
#    x 0.914620 0.000000 0.000000 
#    y 0.000000 2.102670 0.000000 
#    z 0.000000 0.000000 1.843910 
# 
# From -- ./inp_files/6910.got.cif
#   From: 2010.05.17/outbox.cif.g08.bks.cpg/sg37_4_cif.got.tgz:6910.got - 2010.06.03 17:53:42.
