data_PCOD9355795
_publ_section_title
;
Structure prediction by ZEFSAII (Michael W. Deem and Ramdas Pophale) SiO2 
 PCOD9355795
Probable space group: A M M 2
;
_chemical_formula_sum "Si O2"
_cell_formula_units_Z 64
_cell_length_a 29.866911
_cell_length_b 18.658331
_cell_length_c 5.549247
_cell_angle_alpha 90.000000
_cell_angle_beta 90.000000
_cell_angle_gamma 90.000000
_cell_volume 3092.410626
_symmetry_space_group_name_H-M "A M M 2"
_symmetry_group_IT_number 38
_symmetry_cell_setting 'orthorhombic'
loop_
_space_group_symop_operation_xyz
x,y,z
-x,-y,z
-x,y,z
x,-y,z
x,1/2+y,1/2+z
-x,1/2-y,1/2+z
-x,1/2+y,1/2+z
x,1/2-y,1/2+z
loop_
_atom_site_type_symbol
_atom_site_label
_atom_site_fract_x
_atom_site_fract_y
_atom_site_fract_z
Si Si1 0.682593 0.327920 0.975710
Si Si2 0.779723 0.375449 0.902860
Si Si3 0.647539 0.162658 0.976037
Si Si4 0.853115 0.756437 0.363887
Si Si5 0.089811 0.081672 0.018035
Si Si6 0.450287 0.795739 0.946585
Si Si7 0.052620 0.586189 0.019300
Si Si8 0.807525 0.394366 0.405669
O O1 0.735879 0.327504 0.944255
O O2 0.661706 0.247725 0.984735
O O3 0.663250 0.365062 0.735632
O O4 0.670397 0.363958 0.230479
O O5 0.824370 0.328144 0.873183
O O6 0.777352 0.410721 0.638510
O O7 0.788087 0.418477 0.149100
O O8 0.594196 0.156930 0.950966
O O9 0.878457 0.749380 0.613732
O O10 0.816167 0.691759 0.373261
O O11 0.067828 0.115312 0.779592
O O12 0.142485 0.078927 0.960979
O O13 0.072197 0.000000 0.032806
O O14 0.078714 0.112601 0.281704
O O15 0.500000 0.829400 0.947756
O O16 0.447554 0.749351 0.195481
O O17 0.061313 0.500000 0.033711
O O18 0.000000 0.597079 0.984048
#
# Coordination Sequence:
#
# PCOD9355795 Si02
#       8
#     8   8   8   8   8   8   8   8
#     4  10  18  23  36  48  72  91 124 162 208 248
#     4  10  19  28  40  57  79 108 134 172 209 240
#     4  10  17  24  33  51  65  91 130 160 207 259
#     4   8  16  25  37  52  75  98 132 157 195 226
#     4  10  19  31  47  67  92 115 132 161 192 225
#     4  10  16  25  33  43  63  89 121 168 211 242
#     4   9  17  30  49  70  90 110 130 154 196 242
#     4  10  19  29  41  59  84 108 140 157 193 244
#
# _framework density 20.695829
#
# number of rings (size 3 to 8) (size 9 to 14) (size 15 to 20)
#    0.000    2.375    2.500    1.875   10.500    1.500 
#    0.000    0.000    0.000    0.000    0.000    0.000 
#    0.000   90.000    0.000    0.000    0.000    0.000 
#
# Total GULP energy -178198.890125 kJ/mol
# GULP energy per Si atom -5568.715316 kJ/mol
# Density = 2.064872 g / cm^3
# Si number density = 20.695829 Si / 1000 Ang^3
#
#
#
# Elastic Constant Matrix: (Units=GPa)
#
#
# Indices 1 2 3 4 5 6 
#
# 1 62.9156 0.1360 23.5951 0.0000 0.0000 0.0000
# 2 0.1360 29.0671 2.6636 0.0000 0.0000 0.0000
# 3 23.5951 2.6636 217.0006 0.0000 0.0000 0.0000
# 4 0.0000 0.0000 0.0000 -5.6857 0.0000 0.0000
# 5 0.0000 0.0000 0.0000 0.0000 36.9670 0.0000
# 6 0.0000 0.0000 0.0000 0.0000 0.0000 24.5942
#
#
#
# Elastic Compliance Matrix: (Units=1/GPa)
#
#
# Indices 1 2 3 4 5 6 
#
# 1 0.016570 0.000088 -0.001803 0.000000 0.000000 0.000000
# 2 0.000088 0.034442 -0.000432 0.000000 0.000000 0.000000
# 3 -0.001803 -0.000432 0.004810 0.000000 0.000000 0.000000
# 4 0.000000 0.000000 0.000000 -0.175880 0.000000 0.000000
# 5 0.000000 0.000000 0.000000 0.000000 0.027051 0.000000
# 6 0.000000 0.000000 0.000000 0.000000 0.000000 0.040660
#
#
# Mechanical properties :
#
#
# Convention : Reuss Voigt Hill
#
# Bulk Modulus (GPa) = 19.40715 40.19694 29.80205
# Shear Modulus (GPa) = -161.93568 30.01436 -65.96066
#
# Velocity S-wave (km/s) = -8.85525 3.81236 -5.65161
# Velocity P-wave (km/s) = 9.75481 6.23247 5.30625
#
# Compressibility (1/GPa) = 0.05152740
#
# Stress axis : x y z
#
# Youngs Moduli (GPa) = 60.34920 29.03400 207.91700
#
# Poissons Ratio (x) = -0.00255 0.37483
# Poissons Ratio (y) = -0.00529 0.08988
# Poissons Ratio (z) = 0.10880 0.01255
#
# Static dielectric constant tensor:
#      x y z
#    x 1.707840 0.000000 0.000000 
#    y 0.000000 1.763910 0.000000 
#    z 0.000000 0.000000 1.885980 
# 
# From -- ./inp_files/2260.got.cif
#   From: 2010.05.17/outbox.cif.g08.bks.cpg/sg38_2_cif.got.tgz:2260.got - 2010.06.03 18:07:57.
