data_PCOD9355544
_publ_section_title
;
Structure prediction by ZEFSAII (Michael W. Deem and Ramdas Pophale) SiO2 
 PCOD9355544
Probable space group: C C C 2
;
_chemical_formula_sum "Si O2"
_cell_formula_units_Z 48
_cell_length_a 14.625452
_cell_length_b 17.652129
_cell_length_c 8.560434
_cell_angle_alpha 90.000000
_cell_angle_beta 90.000000
_cell_angle_gamma 90.000000
_cell_volume 2210.050374
_symmetry_space_group_name_H-M "C C C 2"
_symmetry_group_IT_number 37
_symmetry_cell_setting 'orthorhombic'
loop_
_space_group_symop_operation_xyz
x,y,z
-x,-y,z
-x,y,1/2+z
x,-y,1/2+z
1/2+x,1/2+y,z
1/2-x,1/2-y,z
1/2-x,1/2+y,1/2+z
1/2+x,1/2-y,1/2+z
loop_
_atom_site_type_symbol
_atom_site_label
_atom_site_fract_x
_atom_site_fract_y
_atom_site_fract_z
Si Si1 0.555465 0.161286 0.621850
Si Si2 0.416332 0.324355 0.988057
Si Si3 0.763128 0.038980 0.121190
Si Si4 0.035861 0.920085 0.197318
Si Si5 0.733260 0.891834 0.963625
Si Si6 0.076650 0.429686 0.438882
O O1 0.550368 0.249175 0.576023
O O2 0.631877 0.132345 0.501229
O O3 0.463027 0.119212 0.579978
O O4 0.580113 0.126532 0.790259
O O5 0.449526 0.350602 0.817225
O O6 0.307223 0.325461 0.973855
O O7 0.455715 0.393825 0.085981
O O8 0.867682 0.068198 0.104911
O O9 0.738426 0.069350 0.293457
O O10 0.680335 0.054497 0.997853
O O11 0.763978 0.949001 0.100896
O O12 0.000000 0.000000 0.268494
O O13 0.000000 0.500000 0.416655
#
# Coordination Sequence:
#
# PCOD9355544 Si02
#       6
#     8   8   8   8   8   8
#     4  12  25  44  67  98 143 179 229 280 351 405
#     4  11  25  43  68 101 138 183 221 283 344 408
#     4  11  24  41  70 103 131 173 236 288 331 409
#     4  11  23  43  71 103 138 179 232 281 339 409
#     4  11  23  42  67  97 136 175 229 284 345 397
#     4  12  25  43  69 104 135 185 231 288 337 414
#
# _framework density 21.718962999999999
#
# number of rings (size 3 to 8) (size 9 to 14) (size 15 to 20)
#    0.000    0.667    3.333    4.500    2.333    1.333 
#    0.000    4.167    0.000    0.000    0.000    0.000 
#    0.000    0.000    0.000    0.000    0.000    0.000 
#
# Total GULP energy -133614.601804 kJ/mol
# GULP energy per Si atom -5567.275075 kJ/mol
# Density = 2.166953 g / cm^3
# Si number density = 21.718963 Si / 1000 Ang^3
#
#
#
# Elastic Constant Matrix: (Units=GPa)
#
#
# Indices 1 2 3 4 5 6 
#
# 1 118.3004 36.2877 31.7683 0.0000 0.0000 0.0000
# 2 36.2877 103.4627 35.5940 0.0000 0.0000 0.0000
# 3 31.7683 35.5940 68.5333 0.0000 0.0000 0.0000
# 4 0.0000 0.0000 0.0000 16.9518 0.0000 0.0000
# 5 0.0000 0.0000 0.0000 0.0000 16.6525 0.0000
# 6 0.0000 0.0000 0.0000 0.0000 0.0000 17.6591
#
#
#
# Elastic Compliance Matrix: (Units=1/GPa)
#
#
# Indices 1 2 3 4 5 6 
#
# 1 0.010104 -0.002353 -0.003462 0.000000 0.000000 0.000000
# 2 -0.002353 0.012316 -0.005306 0.000000 0.000000 0.000000
# 3 -0.003462 -0.005306 0.018952 0.000000 0.000000 0.000000
# 4 0.000000 0.000000 0.000000 0.058991 0.000000 0.000000
# 5 0.000000 0.000000 0.000000 0.000000 0.060051 0.000000
# 6 0.000000 0.000000 0.000000 0.000000 0.000000 0.056628
#
#
# Mechanical properties :
#
#
# Convention : Reuss Voigt Hill
#
# Bulk Modulus (GPa) = 52.27112 55.28848 53.77980
# Shear Modulus (GPa) = 20.35332 22.69578 21.52455
#
# Velocity S-wave (km/s) = 3.06457 3.23611 3.15151
# Velocity P-wave (km/s) = 6.05321 6.28290 6.16913
#
# Compressibility (1/GPa) = 0.01913102
#
# Stress axis : x y z
#
# Youngs Moduli (GPa) = 98.96636 81.19571 52.76551
#
# Poissons Ratio (x) = 0.19105 0.18266
# Poissons Ratio (y) = 0.23287 0.27996
# Poissons Ratio (z) = 0.34260 0.43081
#
# Static dielectric constant tensor:
#      x y z
#    x 1.862420 0.000000 0.000000 
#    y 0.000000 1.827730 0.000000 
#    z 0.000000 0.000000 1.796330 
# 
# From -- ./inp_files/3501.got.cif
#   From: 2010.05.17/outbox.cif.g08.bks.cpg/sg37_2_cif.got.tgz:3501.got - 2010.06.03 17:53:42.
