data_PCOD9355656
_publ_section_title
;
Structure prediction by ZEFSAII (Michael W. Deem and Ramdas Pophale) SiO2 
 PCOD9355656
Probable space group: C C C 2
;
_chemical_formula_sum "Si O2"
_cell_formula_units_Z 48
_cell_length_a 5.357959
_cell_length_b 16.926173
_cell_length_c 23.371999
_cell_angle_alpha 90.000000
_cell_angle_beta 90.000000
_cell_angle_gamma 90.000000
_cell_volume 2119.600535
_symmetry_space_group_name_H-M "C C C 2"
_symmetry_group_IT_number 37
_symmetry_cell_setting 'orthorhombic'
loop_
_space_group_symop_operation_xyz
x,y,z
-x,-y,z
-x,y,1/2+z
x,-y,1/2+z
1/2+x,1/2+y,z
1/2-x,1/2-y,z
1/2-x,1/2+y,1/2+z
1/2+x,1/2-y,1/2+z
loop_
_atom_site_type_symbol
_atom_site_label
_atom_site_fract_x
_atom_site_fract_y
_atom_site_fract_z
Si Si1 0.750000 0.750000 0.534850
Si Si2 0.460350 0.853299 0.936706
Si Si3 0.086596 0.171122 0.258147
Si Si4 0.752618 0.948983 0.344018
Si Si5 0.000000 0.000000 0.075733
Si Si6 0.000000 0.500000 0.504567
Si Si7 0.926413 0.168708 0.627537
Si Si8 0.250000 0.750000 0.346125
O O1 0.581147 0.798421 0.491208
O O2 0.614993 0.691760 0.577858
O O3 0.235807 0.892725 0.900338
O O4 0.578032 0.799430 0.888225
O O5 0.594028 0.928615 0.964344
O O6 0.250000 0.250000 0.259373
O O7 0.247368 0.100752 0.285044
O O8 0.991619 0.162385 0.193633
O O9 0.872732 0.186667 0.304049
O O10 0.500000 0.000000 0.347083
O O11 0.000000 0.000000 0.343250
O O12 0.883760 0.924170 0.110638
O O13 0.750427 0.024340 0.039438
O O14 0.750000 0.250000 0.626707
#
# Coordination Sequence:
#
# PCOD9355656 Si02
#       8
#     4   8   8   8   4   4   8   4
#     4  12  25  48  72 106 151 196 264 316 390 464
#     4  12  26  44  77 110 149 207 249 322 391 470
#     4  11  25  49  75 109 148 202 259 322 386 467
#     4  12  27  48  73 114 156 198 251 316 390 467
#     4  12  28  54  74 116 156 208 264 324 398 472
#     4  12  28  48  74 110 160 196 258 324 390 474
#     4  11  27  50  78 110 151 207 263 329 391 469
#     4  12  25  48  76 108 153 202 258 316 394 466
#
# _framework density 22.645778
#
# number of rings (size 3 to 8) (size 9 to 14) (size 15 to 20)
#    0.000    0.333    4.167    3.500    5.833    0.000 
#    1.500    0.000    0.000    0.000    0.000    0.000 
#    0.000    0.000    0.000    0.000    0.000    0.000 
#
# Total GULP energy -133794.777175 kJ/mol
# GULP energy per Si atom -5574.782382 kJ/mol
# Density = 2.259423 g / cm^3
# Si number density = 22.645778 Si / 1000 Ang^3
#
#
#
# Elastic Constant Matrix: (Units=GPa)
#
#
# Indices 1 2 3 4 5 6 
#
# 1 74.0867 23.8817 40.2067 0.0000 0.0000 0.0000
# 2 23.8817 117.2711 45.4219 0.0000 0.0000 0.0000
# 3 40.2067 45.4219 190.5619 0.0000 0.0000 0.0000
# 4 0.0000 0.0000 0.0000 6644.3113 0.0000 0.0000
# 5 0.0000 0.0000 0.0000 0.0000 -3.7505 0.0000
# 6 0.0000 0.0000 0.0000 0.0000 0.0000 32.5389
#
#
#
# Elastic Compliance Matrix: (Units=1/GPa)
#
#
# Indices 1 2 3 4 5 6 
#
# 1 0.015703 -0.002109 -0.002810 0.000000 0.000000 0.000000
# 2 -0.002109 0.009678 -0.001862 0.000000 0.000000 0.000000
# 3 -0.002810 -0.001862 0.006284 0.000000 0.000000 0.000000
# 4 0.000000 0.000000 0.000000 0.000151 0.000000 0.000000
# 5 0.000000 0.000000 0.000000 0.000000 -0.266629 0.000000
# 6 0.000000 0.000000 0.000000 0.000000 0.000000 0.030732
#
#
# Mechanical properties :
#
#
# Convention : Reuss Voigt Hill
#
# Bulk Modulus (GPa) = 55.24178 66.77115 61.00646
# Shear Modulus (GPa) = -27.10260 1352.78056 662.83898
#
# Velocity S-wave (km/s) = -3.46324 24.46758 17.12700
# Velocity P-wave (km/s) = 2.90771 28.77091 20.44774
#
# Compressibility (1/GPa) = 0.01810224
#
# Stress axis : x y z
#
# Youngs Moduli (GPa) = 63.68288 103.32824 159.12503
#
# Poissons Ratio (x) = 0.21795 0.44720
# Poissons Ratio (y) = 0.13432 0.29625
# Poissons Ratio (z) = 0.17897 0.19237
#
# Static dielectric constant tensor:
#      x y z
#    x 1.901690 0.000000 0.000000 
#    y 0.000000 -1.532680 0.000000 
#    z 0.000000 0.000000 1.818920 
# 
# From -- ./inp_files/18009.got.cif
#   From: 2010.05.17/outbox.cif.g08.bks.cpg/sg37_10_cif.got.tgz:18009.got - 2010.06.03 17:53:42.
