data_PCOD9355410
_publ_section_title
;
Structure prediction by ZEFSAII (Michael W. Deem and Ramdas Pophale) SiO2 
 PCOD9355410
Probable space group: C C C 2
;
_chemical_formula_sum "Si O2"
_cell_formula_units_Z 24
_cell_length_a 4.643830
_cell_length_b 22.070218
_cell_length_c 8.320712
_cell_angle_alpha 90.000000
_cell_angle_beta 90.000000
_cell_angle_gamma 90.000000
_cell_volume 852.792606
_symmetry_space_group_name_H-M "C C C 2"
_symmetry_group_IT_number 37
_symmetry_cell_setting 'orthorhombic'
loop_
_space_group_symop_operation_xyz
x,y,z
-x,-y,z
-x,y,1/2+z
x,-y,1/2+z
1/2+x,1/2+y,z
1/2-x,1/2-y,z
1/2-x,1/2+y,1/2+z
1/2+x,1/2-y,1/2+z
loop_
_atom_site_type_symbol
_atom_site_label
_atom_site_fract_x
_atom_site_fract_y
_atom_site_fract_z
Si Si1 0.250000 0.250000 0.226851
Si Si2 0.320702 0.329663 0.940910
Si Si3 0.000000 0.000000 0.161350
Si Si4 0.805197 0.582102 0.421655
O O1 0.169069 0.301728 0.098609
O O2 0.508545 0.279090 0.330645
O O3 0.600040 0.366217 0.991908
O O4 0.099329 0.382033 0.881634
O O5 0.662732 0.449125 0.766016
O O6 0.244442 0.969889 0.051384
#
# Coordination Sequence:
#
# PCOD9355410 Si02
#       4
#     4   8   4   8
#     4  12  30  54  86 122 168 224 286 354 426 504
#     4  12  29  52  83 123 166 223 286 351 424 508
#     4  10  26  50  82 122 172 224 278 350 424 506
#     4  11  27  49  81 121 168 220 282 345 423 508
#
# _framework density 28.142835000000002
#
# number of rings (size 3 to 8) (size 9 to 14) (size 15 to 20)
#    0.000    0.667    0.000    4.000    0.000   30.667 
#    0.000    3.333    0.000    0.000    0.000    0.000 
#    0.000    0.000    0.000    0.000    0.000    0.000 
#
# Total GULP energy -67021.172095 kJ/mol
# GULP energy per Si atom -5585.097675 kJ/mol
# Density = 2.807878 g / cm^3
# Si number density = 28.142835 Si / 1000 Ang^3
#
#
#
# Elastic Constant Matrix: (Units=GPa)
#
#
# Indices 1 2 3 4 5 6 
#
# 1 222.3315 125.9840 86.6434 0.0000 0.0000 0.0000
# 2 125.9840 164.8592 97.9750 0.0000 0.0000 0.0000
# 3 86.6434 97.9750 170.0286 0.0000 0.0000 0.0000
# 4 0.0000 0.0000 0.0000 -58.2944 0.0000 0.0000
# 5 0.0000 0.0000 0.0000 0.0000 60.0504 0.0000
# 6 0.0000 0.0000 0.0000 0.0000 0.0000 96.1916
#
#
#
# Elastic Compliance Matrix: (Units=1/GPa)
#
#
# Indices 1 2 3 4 5 6 
#
# 1 0.008012 -0.005621 -0.000844 0.000000 0.000000 0.000000
# 2 -0.005621 0.013169 -0.004724 0.000000 0.000000 0.000000
# 3 -0.000844 -0.004724 0.009033 0.000000 0.000000 0.000000
# 4 0.000000 0.000000 0.000000 -0.017154 0.000000 0.000000
# 5 0.000000 0.000000 0.000000 0.000000 0.016653 0.000000
# 6 0.000000 0.000000 0.000000 0.000000 0.000000 0.010396
#
#
# Mechanical properties :
#
#
# Convention : Reuss Voigt Hill
#
# Bulk Modulus (GPa) = 127.60469 130.93603 129.27036
# Shear Modulus (GPa) = 76.80820 36.03064 56.41942
#
# Velocity S-wave (km/s) = 5.22987 3.58198 4.48230
# Velocity P-wave (km/s) = 9.05036 7.98335 8.53355
#
# Compressibility (1/GPa) = 0.00783670
#
# Stress axis : x y z
#
# Youngs Moduli (GPa) = 124.81610 75.93738 110.70326
#
# Poissons Ratio (x) = 0.42686 0.09339
# Poissons Ratio (y) = 0.70162 0.52293
# Poissons Ratio (z) = 0.10529 0.35871
#
# Static dielectric constant tensor:
#      x y z
#    x 2.060520 0.000000 0.000000 
#    y 0.000000 5.399000 0.000000 
#    z 0.000000 0.000000 2.212050 
# 
# From -- ./inp_files/5191.got.cif
#   From: 2010.05.17/outbox.cif.g08.bks.cpg/sg37_3_cif.got.tgz:5191.got - 2010.06.03 17:53:42.
