data_PCOD9355026
_publ_section_title
;
Structure prediction by ZEFSAII (Michael W. Deem and Ramdas Pophale) SiO2 
 PCOD9355026
Probable space group: C C C 2
;
_chemical_formula_sum "Si O2"
_cell_formula_units_Z 32
_cell_length_a 11.037977
_cell_length_b 9.584567
_cell_length_c 10.303955
_cell_angle_alpha 90.000000
_cell_angle_beta 90.000000
_cell_angle_gamma 90.000000
_cell_volume 1090.098986
_symmetry_space_group_name_H-M "C C C 2"
_symmetry_group_IT_number 37
_symmetry_cell_setting 'orthorhombic'
loop_
_space_group_symop_operation_xyz
x,y,z
-x,-y,z
-x,y,1/2+z
x,-y,1/2+z
1/2+x,1/2+y,z
1/2-x,1/2-y,z
1/2-x,1/2+y,1/2+z
1/2+x,1/2-y,1/2+z
loop_
_atom_site_type_symbol
_atom_site_label
_atom_site_fract_x
_atom_site_fract_y
_atom_site_fract_z
Si Si1 0.397542 0.903903 0.051860
Si Si2 0.521521 0.648243 0.995520
Si Si3 0.786049 0.091520 0.697816
Si Si4 0.342564 0.852921 0.310315
O O1 0.712587 0.993649 0.084915
O O2 0.266686 0.997489 0.316695
O O3 0.500000 0.000000 0.982329
O O4 0.404329 0.749129 0.994209
O O5 0.500000 0.500000 0.928000
O O6 0.616440 0.750355 0.924035
O O7 0.581547 0.607456 0.133727
O O8 0.750000 0.250000 0.718578
O O9 0.444538 0.127133 0.700559
O O10 0.250000 0.750000 0.234518
#
# Coordination Sequence:
#
# PCOD9355026 Si02
#       4
#     8   8   8   8
#     4  10  23  45  73 100 151 193 256 321 386 450
#     4  12  24  43  76 107 149 208 254 314 394 457
#     4  10  22  47  73 100 150 202 240 329 387 441
#     4  10  24  43  68 109 146 184 255 314 370 476
#
# _framework density 29.355132000000001
#
# number of rings (size 3 to 8) (size 9 to 14) (size 15 to 20)
#    1.500    0.000    2.500    2.250    0.000    4.000 
#    0.000    0.000    0.000    0.000    0.000    0.000 
#    0.000    0.000    0.000    0.000    0.000    0.000 
#
# Total GULP energy -89101.787577 kJ/mol
# GULP energy per Si atom -5568.861724 kJ/mol
# Density = 2.928832 g / cm^3
# Si number density = 29.355132 Si / 1000 Ang^3
#
#
#
# Elastic Constant Matrix: (Units=GPa)
#
#
# Indices 1 2 3 4 5 6 
#
# 1 76.5051 73.9109 1.3229 0.0000 0.0000 0.0000
# 2 73.9109 359.4243 43.9122 0.0000 0.0000 0.0000
# 3 1.3229 43.9122 114.6653 0.0000 0.0000 0.0000
# 4 0.0000 0.0000 0.0000 118.2739 0.0000 0.0000
# 5 0.0000 0.0000 0.0000 0.0000 -102.0854 0.0000
# 6 0.0000 0.0000 0.0000 0.0000 0.0000 70.6391
#
#
#
# Elastic Compliance Matrix: (Units=1/GPa)
#
#
# Indices 1 2 3 4 5 6 
#
# 1 0.016457 -0.003526 0.001160 0.000000 0.000000 0.000000
# 2 -0.003526 0.003674 -0.001366 0.000000 0.000000 0.000000
# 3 0.001160 -0.001366 0.009231 0.000000 0.000000 0.000000
# 4 0.000000 0.000000 0.000000 0.008455 0.000000 0.000000
# 5 0.000000 0.000000 0.000000 0.000000 -0.009796 0.000000
# 6 0.000000 0.000000 0.000000 0.000000 0.000000 0.014156
#
#
# Mechanical properties :
#
#
# Convention : Reuss Voigt Hill
#
# Bulk Modulus (GPa) = 45.66496 87.65407 66.65951
# Shear Modulus (GPa) = 87.80895 46.12877 66.96886
#
# Velocity S-wave (km/s) = 5.47518 3.96839 4.78151
# Velocity P-wave (km/s) = 7.45385 7.13598 7.29665
#
# Compressibility (1/GPa) = 0.02189863
#
# Stress axis : x y z
#
# Youngs Moduli (GPa) = 60.76284 272.16450 108.33154
#
# Poissons Ratio (x) = 0.95966 -0.12571
# Poissons Ratio (y) = 0.21425 0.14803
# Poissons Ratio (z) = -0.07051 0.37189
#
# Static dielectric constant tensor:
#      x y z
#    x 2.791340 0.000000 0.000000 
#    y 0.000000 2.134200 0.000000 
#    z 0.000000 0.000000 2.362380 
# 
# From -- ./inp_files/10102.got.cif
#   From: 2010.05.17/outbox.cif.g08.bks.cpg/sg37_6_cif.got.tgz:10102.got - 2010.06.03 17:53:42.
