data_PCOD9355648
_publ_section_title
;
Structure prediction by ZEFSAII (Michael W. Deem and Ramdas Pophale) SiO2 
 PCOD9355648
Probable space group: C C C 2
;
_chemical_formula_sum "Si O2"
_cell_formula_units_Z 36
_cell_length_a 14.696739
_cell_length_b 5.181880
_cell_length_c 20.722188
_cell_angle_alpha 90.000000
_cell_angle_beta 90.000000
_cell_angle_gamma 90.000000
_cell_volume 1578.134240
_symmetry_space_group_name_H-M "C C C 2"
_symmetry_group_IT_number 37
_symmetry_cell_setting 'orthorhombic'
loop_
_space_group_symop_operation_xyz
x,y,z
-x,-y,z
-x,y,1/2+z
x,-y,1/2+z
1/2+x,1/2+y,z
1/2-x,1/2-y,z
1/2-x,1/2+y,1/2+z
1/2+x,1/2-y,1/2+z
loop_
_atom_site_type_symbol
_atom_site_label
_atom_site_fract_x
_atom_site_fract_y
_atom_site_fract_z
Si Si1 0.940174 0.259817 0.288100
Si Si2 0.105033 0.897736 0.423078
Si Si3 0.693243 0.989897 0.184408
Si Si4 0.896157 0.435109 0.553884
Si Si5 0.250000 0.750000 0.982344
O O1 0.880301 0.206803 0.351214
O O2 0.884011 0.383581 0.229473
O O3 0.000000 0.500000 0.311172
O O4 0.000000 0.000000 0.272353
O O5 0.103165 0.735430 0.489319
O O6 0.193659 0.066868 0.435806
O O7 0.000000 0.000000 0.419593
O O8 0.750000 0.750000 0.215317
O O9 0.649241 0.854016 0.121090
O O10 0.750000 0.250000 0.167895
O O11 0.830558 0.660049 0.529350
O O12 0.000000 0.500000 0.567930
#
# Coordination Sequence:
#
# PCOD9355648 Si02
#       5
#     8   8   8   8   4
#     4  11  26  52  78 110 159 208 266 324 396 479
#     4  11  25  47  79 115 154 201 266 323 397 463
#     4  12  27  49  75 115 157 208 266 324 397 476
#     4  12  25  46  77 110 155 201 259 326 390 466
#     4  12  24  46  74 112 148 200 252 324 384 462
#
# _framework density 22.811747
#
# number of rings (size 3 to 8) (size 9 to 14) (size 15 to 20)
#    0.000    0.444    3.333    4.667    3.111    1.778 
#    4.000    0.000    0.000    0.000    0.000    0.000 
#    0.000    0.000    0.000    0.000    0.000    0.000 
#
# Total GULP energy -100288.040665 kJ/mol
# GULP energy per Si atom -5571.557815 kJ/mol
# Density = 2.275983 g / cm^3
# Si number density = 22.811747 Si / 1000 Ang^3
#
#
#
# Elastic Constant Matrix: (Units=GPa)
#
#
# Indices 1 2 3 4 5 6 
#
# 1 97.9292 20.6858 -0.7482 0.0000 0.0000 0.0000
# 2 20.6858 79.3933 1.2384 0.0000 0.0000 0.0000
# 3 -0.7482 1.2384 100.8863 0.0000 0.0000 0.0000
# 4 0.0000 0.0000 0.0000 62.9210 0.0000 0.0000
# 5 0.0000 0.0000 0.0000 0.0000 13.1321 0.0000
# 6 0.0000 0.0000 0.0000 0.0000 0.0000 28.5507
#
#
#
# Elastic Compliance Matrix: (Units=1/GPa)
#
#
# Indices 1 2 3 4 5 6 
#
# 1 0.010808 -0.002818 0.000115 0.000000 0.000000 0.000000
# 2 -0.002818 0.013333 -0.000185 0.000000 0.000000 0.000000
# 3 0.000115 -0.000185 0.009915 0.000000 0.000000 0.000000
# 4 0.000000 0.000000 0.000000 0.015893 0.000000 0.000000
# 5 0.000000 0.000000 0.000000 0.000000 0.076149 0.000000
# 6 0.000000 0.000000 0.000000 0.000000 0.000000 0.035025
#
#
# Mechanical properties :
#
#
# Convention : Reuss Voigt Hill
#
# Bulk Modulus (GPa) = 35.36022 35.61784 35.48903
# Shear Modulus (GPa) = 28.35681 38.05629 33.20655
#
# Velocity S-wave (km/s) = 3.52956 4.08888 3.81947
# Velocity P-wave (km/s) = 5.66965 6.15952 5.91965
#
# Compressibility (1/GPa) = 0.02828036
#
# Stress axis : x y z
#
# Youngs Moduli (GPa) = 92.52821 75.00444 100.85464
#
# Poissons Ratio (x) = 0.21134 -0.01157
# Poissons Ratio (y) = 0.26071 0.01861
# Poissons Ratio (z) = -0.01062 0.01384
#
# Static dielectric constant tensor:
#      x y z
#    x 1.769550 0.000000 0.000000 
#    y 0.000000 1.881130 0.000000 
#    z 0.000000 0.000000 1.877830 
# 
# From -- ./inp_files/17030.got.cif
#   From: 2010.05.17/outbox.cif.g08.bks.cpg/sg37_9_cif.got.tgz:17030.got - 2010.06.03 17:53:42.
