data_PCOD9355501
_publ_section_title
;
Structure prediction by ZEFSAII (Michael W. Deem and Ramdas Pophale) SiO2 
 PCOD9355501
Probable space group: C C C 2
;
_chemical_formula_sum "Si O2"
_cell_formula_units_Z 48
_cell_length_a 20.962296
_cell_length_b 12.291967
_cell_length_c 8.262898
_cell_angle_alpha 90.000000
_cell_angle_beta 90.000000
_cell_angle_gamma 90.000000
_cell_volume 2129.083168
_symmetry_space_group_name_H-M "C C C 2"
_symmetry_group_IT_number 37
_symmetry_cell_setting 'orthorhombic'
loop_
_space_group_symop_operation_xyz
x,y,z
-x,-y,z
-x,y,1/2+z
x,-y,1/2+z
1/2+x,1/2+y,z
1/2-x,1/2-y,z
1/2-x,1/2+y,1/2+z
1/2+x,1/2-y,1/2+z
loop_
_atom_site_type_symbol
_atom_site_label
_atom_site_fract_x
_atom_site_fract_y
_atom_site_fract_z
Si Si1 0.423873 0.657964 0.466330
Si Si2 0.936214 0.434092 0.132405
Si Si3 0.067700 0.814766 0.074459
Si Si4 0.670093 0.477422 0.975400
Si Si5 0.751299 0.380857 0.232890
Si Si6 0.876458 0.609723 0.951126
O O1 0.423541 0.660301 0.267685
O O2 0.497184 0.649430 0.520516
O O3 0.381694 0.563227 0.546625
O O4 0.391677 0.771683 0.520022
O O5 0.930219 0.315940 0.053031
O O6 0.932349 0.412597 0.322378
O O7 0.000000 0.500000 0.100087
O O8 0.879861 0.514768 0.080284
O O9 0.123964 0.871721 0.971767
O O10 0.734482 0.434508 0.061273
O O11 0.696669 0.553897 0.832484
O O12 0.750000 0.250000 0.214227
O O13 0.813961 0.393157 0.341510
#
# Coordination Sequence:
#
# PCOD9355501 Si02
#       6
#     8   8   8   8   8   8
#     4  11  24  44  71 104 150 187 239 313 372 443
#     4  11  22  41  69 104 143 187 239 306 373 442
#     4  11  25  42  71 108 146 188 242 308 379 444
#     4  12  25  47  73 102 142 197 247 304 383 440
#     4  12  25  49  73 100 152 199 249 316 372 454
#     4  11  23  43  67 104 143 189 246 304 370 443
#
# _framework density 22.544916000000001
#
# number of rings (size 3 to 8) (size 9 to 14) (size 15 to 20)
#    0.000    0.667    5.000    3.000    4.667    1.333 
#    0.000    0.833    0.000    0.000    0.000    0.000 
#    0.000    0.000    0.000    0.000    0.000    0.000 
#
# Total GULP energy -133780.628079 kJ/mol
# GULP energy per Si atom -5574.192837 kJ/mol
# Density = 2.249360 g / cm^3
# Si number density = 22.544916 Si / 1000 Ang^3
#
#
#
# Elastic Constant Matrix: (Units=GPa)
#
#
# Indices 1 2 3 4 5 6 
#
# 1 93.5924 35.7087 -1.6797 0.0000 0.0000 0.0000
# 2 35.7087 159.7832 35.7439 0.0000 0.0000 0.0000
# 3 -1.6797 35.7439 25.3192 0.0000 0.0000 0.0000
# 4 0.0000 0.0000 0.0000 29.0191 0.0000 0.0000
# 5 0.0000 0.0000 0.0000 0.0000 32.4427 0.0000
# 6 0.0000 0.0000 0.0000 0.0000 0.0000 15.4974
#
#
#
# Elastic Compliance Matrix: (Units=1/GPa)
#
#
# Indices 1 2 3 4 5 6 
#
# 1 0.012466 -0.004342 0.006957 0.000000 0.000000 0.000000
# 2 -0.004342 0.010660 -0.015337 0.000000 0.000000 0.000000
# 3 0.006957 -0.015337 0.061609 0.000000 0.000000 0.000000
# 4 0.000000 0.000000 0.000000 0.034460 0.000000 0.000000
# 5 0.000000 0.000000 0.000000 0.000000 0.030824 0.000000
# 6 0.000000 0.000000 0.000000 0.000000 0.000000 0.064527
#
#
# Mechanical properties :
#
#
# Convention : Reuss Voigt Hill
#
# Bulk Modulus (GPa) = 16.86604 46.47119 31.66861
# Shear Modulus (GPa) = 19.24908 29.31998 24.28453
#
# Velocity S-wave (km/s) = 2.92517 3.61018 3.28558
# Velocity P-wave (km/s) = 4.34812 6.16728 5.33580
#
# Compressibility (1/GPa) = 0.05929074
#
# Stress axis : x y z
#
# Youngs Moduli (GPa) = 80.21677 93.81052 16.23150
#
# Poissons Ratio (x) = 0.40735 -0.11293
# Poissons Ratio (y) = 0.34833 0.24894
# Poissons Ratio (z) = -0.55808 1.43875
#
# Static dielectric constant tensor:
#      x y z
#    x 1.898990 0.000000 0.000000 
#    y 0.000000 1.859540 0.000000 
#    z 0.000000 0.000000 1.875780 
# 
# From -- ./inp_files/4584.got.cif
#   From: 2010.05.17/outbox.cif.g08.bks.cpg/sg37_3_cif.got.tgz:4584.got - 2010.06.03 17:53:42.
