data_PCOD9355782
_publ_section_title
;
Structure prediction by ZEFSAII (Michael W. Deem and Ramdas Pophale) SiO2 
 PCOD9355782
Probable space group: C C C 2
;
_chemical_formula_sum "Si O2"
_cell_formula_units_Z 30
_cell_length_a 27.000000
_cell_length_b 9.000000
_cell_length_c 12.000000
_cell_angle_alpha 90.000000
_cell_angle_beta 90.000000
_cell_angle_gamma 90.000000
_cell_volume 2916.000000
_symmetry_space_group_name_H-M "C C C 2"
_symmetry_group_IT_number 37
_symmetry_cell_setting 'orthorhombic'
loop_
_space_group_symop_operation_xyz
x,y,z
-x,-y,z
-x,y,1/2+z
x,-y,1/2+z
1/2+x,1/2+y,z
1/2-x,1/2-y,z
1/2-x,1/2+y,1/2+z
1/2+x,1/2-y,1/2+z
loop_
_atom_site_type_symbol
_atom_site_label
_atom_site_fract_x
_atom_site_fract_y
_atom_site_fract_z
Si Si1 0.654695 0.809997 0.399350
Si Si2 0.801115 0.656052 0.152558
Si Si3 0.012926 0.723149 0.642020
Si Si4 0.078243 0.076594 0.306116
Si Si5 0.800840 0.316689 0.128168
Si Si6 0.093743 0.749207 0.249292
Si Si7 0.395675 0.113798 0.996740
Si Si8 0.500000 0.500000 0.484225
O O1 0.682724 0.848501 0.283463
O O2 0.621323 0.672241 0.360827
O O3 0.689050 0.760972 0.502388
O O4 0.622523 0.949515 0.451696
O O5 0.750000 0.750000 0.138357
O O6 0.788806 0.489405 0.119022
O O7 0.850791 0.684062 0.074130
O O8 0.044557 0.806416 0.737999
O O9 0.053319 0.620518 0.572632
O O10 0.958308 0.683484 0.696107
O O11 0.999903 0.852784 0.556226
O O12 0.092437 0.929489 0.236219
O O13 0.046705 0.007015 0.404938
O O14 0.750000 0.250000 0.178037
O O15 0.853701 0.300092 0.193431
O O16 0.096057 0.701587 0.379967
#
# Coordination Sequence:
#
# PCOD9355782 Si02
#       8
#     8   8   8   8   8   8   8   4
#     4  11  25  48  71 105 144 188 239 302 368 446
#     4  11  25  48  76 104 144 190 243 306 370 446
#     4  12  22  42  72 104 145 194 238 298 367 440
#     4  12  23  39  71 104 139 190 240 295 358 434
#     4  11  27  47  70 105 143 183 243 306 366 441
#     4  12  24  44  74 108 146 191 245 305 365 447
#     4  11  25  48  73 105 152 191 241 305 375 451
#     4  12  20  40  62 104 146 178 238 288 336 428
#
# _framework density 10.288066000000001
#
# number of rings (size 3 to 8) (size 9 to 14) (size 15 to 20)
#    0.000    0.533    6.667    1.200    1.867    1.600 
#    0.000   14.667    0.000    0.000    0.000    0.000 
#    0.000    0.000    0.000    0.000    0.000    0.000 
#
# Total GULP energy -167318.670881 kJ/mol
# GULP energy per Si atom -5577.289029 kJ/mol
# Density = 1.026465 g / cm^3
# Si number density = 10.288066 Si / 1000 Ang^3
#
#
#
# Elastic Constant Matrix: (Units=GPa)
#
#
# Indices 1 2 3 4 5 6 
#
# 1 165.5860 45.0460 49.3503 0.0000 0.0000 0.0000
# 2 45.0460 74.0664 10.4027 0.0000 0.0000 0.0000
# 3 49.3503 10.4027 120.6425 0.0000 0.0000 0.0000
# 4 0.0000 0.0000 0.0000 44.3242 0.0000 0.0000
# 5 0.0000 0.0000 0.0000 0.0000 39.0758 0.0000
# 6 0.0000 0.0000 0.0000 0.0000 0.0000 41.0816
#
#
#
# Elastic Compliance Matrix: (Units=1/GPa)
#
#
# Indices 1 2 3 4 5 6 
#
# 1 0.008153 -0.004545 -0.002943 0.000000 0.000000 0.000000
# 2 -0.004545 0.016201 0.000462 0.000000 0.000000 0.000000
# 3 -0.002943 0.000462 0.009453 0.000000 0.000000 0.000000
# 4 0.000000 0.000000 0.000000 0.022561 0.000000 0.000000
# 5 0.000000 0.000000 0.000000 0.000000 0.025591 0.000000
# 6 0.000000 0.000000 0.000000 0.000000 0.000000 0.024342
#
#
# Mechanical properties :
#
#
# Convention : Reuss Voigt Hill
#
# Bulk Modulus (GPa) = 50.62073 63.32143 56.97108
# Shear Modulus (GPa) = 39.38959 41.92937 40.65948
#
# Velocity S-wave (km/s) = 4.38006 4.51906 4.45010
# Velocity P-wave (km/s) = 7.08766 7.62038 7.35884
#
# Compressibility (1/GPa) = 0.01975475
#
# Stress axis : x y z
#
# Youngs Moduli (GPa) = 122.65862 61.72580 105.78669
#
# Poissons Ratio (x) = 0.28054 0.31134
# Poissons Ratio (y) = 0.55748 -0.04890
# Poissons Ratio (z) = 0.36099 -0.02853
#
# Static dielectric constant tensor:
#      x y z
#    x 1.794730 0.000000 0.000000 
#    y 0.000000 1.748080 0.000000 
#    z 0.000000 0.000000 1.755580 
# 
# From -- ./inp_files/9083.got.cif
#   From: 2010.05.17/outbox.ucp.g08.bks.cvg/sg37_5_cif.got.tgz:9083.got - 2010.06.11 10:38:43.
