data_PCOD9355735
_publ_section_title
;
Structure prediction by ZEFSAII (Michael W. Deem and Ramdas Pophale) SiO2 
 PCOD9355735
Probable space group: C C C 2
;
_chemical_formula_sum "Si O2"
_cell_formula_units_Z 40
_cell_length_a 11.008100
_cell_length_b 11.105386
_cell_length_c 14.605715
_cell_angle_alpha 90.000000
_cell_angle_beta 90.000000
_cell_angle_gamma 90.000000
_cell_volume 1785.536969
_symmetry_space_group_name_H-M "C C C 2"
_symmetry_group_IT_number 37
_symmetry_cell_setting 'orthorhombic'
loop_
_space_group_symop_operation_xyz
x,y,z
-x,-y,z
-x,y,1/2+z
x,-y,1/2+z
1/2+x,1/2+y,z
1/2-x,1/2-y,z
1/2-x,1/2+y,1/2+z
1/2+x,1/2-y,1/2+z
loop_
_atom_site_type_symbol
_atom_site_label
_atom_site_fract_x
_atom_site_fract_y
_atom_site_fract_z
Si Si1 0.702983 0.883738 0.044800
Si Si2 0.930675 0.677584 0.484896
Si Si3 0.000000 0.500000 0.828794
Si Si4 0.132622 0.054820 0.415567
Si Si5 0.250000 0.250000 0.637262
Si Si6 0.755751 0.519178 0.731494
O O1 0.750000 0.750000 0.028362
O O2 0.728572 0.928574 0.147108
O O3 0.560862 0.865233 0.024173
O O4 0.775014 0.975933 0.978208
O O5 0.891345 0.809520 0.448778
O O6 0.842929 0.675704 0.573205
O O7 0.932378 0.596972 0.393283
O O8 0.890392 0.553264 0.768860
O O9 0.180338 0.041611 0.312622
O O10 0.000000 0.000000 0.423839
O O11 0.306641 0.356154 0.698557
#
# Coordination Sequence:
#
# PCOD9355735 Si02
#       6
#     8   8   4   8   4   8
#     4  12  26  50  77 109 158 209 262 329 407 476
#     4  12  25  50  79 105 155 209 266 328 403 478
#     4  12  26  46  80 108 152 204 260 328 408 478
#     4  12  27  48  76 113 156 209 266 330 400 475
#     4  12  26  46  76 110 156 202 268 330 394 484
#     4  12  28  46  75 118 153 202 267 326 397 476
#
# _framework density 22.402224
#
# number of rings (size 3 to 8) (size 9 to 14) (size 15 to 20)
#    0.000    0.000    6.000    3.600    7.000    2.400 
#    0.000    0.000    0.000    0.000    0.000    0.000 
#    0.000    0.000    0.000    0.000    0.000    0.000 
#
# Total GULP energy -111699.008554 kJ/mol
# GULP energy per Si atom -5584.950428 kJ/mol
# Density = 2.235124 g / cm^3
# Si number density = 22.402224 Si / 1000 Ang^3
#
#
#
# Elastic Constant Matrix: (Units=GPa)
#
#
# Indices 1 2 3 4 5 6 
#
# 1 125.5836 31.3795 44.0117 0.0000 0.0000 0.0000
# 2 31.3795 141.5918 58.3674 0.0000 0.0000 0.0000
# 3 44.0117 58.3674 143.8477 0.0000 0.0000 0.0000
# 4 0.0000 0.0000 0.0000 102.0463 0.0000 0.0000
# 5 0.0000 0.0000 0.0000 0.0000 36.3587 0.0000
# 6 0.0000 0.0000 0.0000 0.0000 0.0000 29.4491
#
#
#
# Elastic Compliance Matrix: (Units=1/GPa)
#
#
# Indices 1 2 3 4 5 6 
#
# 1 0.009044 -0.001037 -0.002346 0.000000 0.000000 0.000000
# 2 -0.001037 0.008600 -0.003172 0.000000 0.000000 0.000000
# 3 -0.002346 -0.003172 0.008957 0.000000 0.000000 0.000000
# 4 0.000000 0.000000 0.000000 0.009799 0.000000 0.000000
# 5 0.000000 0.000000 0.000000 0.000000 0.027504 0.000000
# 6 0.000000 0.000000 0.000000 0.000000 0.000000 0.033957
#
#
# Mechanical properties :
#
#
# Convention : Reuss Voigt Hill
#
# Bulk Modulus (GPa) = 74.13055 75.39338 74.76196
# Shear Modulus (GPa) = 43.30152 52.05511 47.67832
#
# Velocity S-wave (km/s) = 4.40126 4.82566 4.61834
# Velocity P-wave (km/s) = 7.68054 8.04841 7.86662
#
# Compressibility (1/GPa) = 0.01348971
#
# Stress axis : x y z
#
# Youngs Moduli (GPa) = 110.56712 116.27813 111.64651
#
# Poissons Ratio (x) = 0.12060 0.26196
# Poissons Ratio (y) = 0.11468 0.35417
# Poissons Ratio (z) = 0.25943 0.36886
#
# Static dielectric constant tensor:
#      x y z
#    x 1.850410 0.000000 0.000000 
#    y 0.000000 1.845690 0.000000 
#    z 0.000000 0.000000 1.821780 
# 
# From -- ./inp_files/11365.got.cif
#   From: 2010.05.17/outbox.cif.g08.bks.cpg/sg37_6_cif.got.tgz:11365.got - 2010.06.03 17:53:42.
