data_PCOD9355641
_publ_section_title
;
Structure prediction by ZEFSAII (Michael W. Deem and Ramdas Pophale) SiO2 
 PCOD9355641
Probable space group: C C C 2
;
_chemical_formula_sum "Si O2"
_cell_formula_units_Z 24
_cell_length_a 9.451266
_cell_length_b 9.451230
_cell_length_c 11.157627
_cell_angle_alpha 90.000000
_cell_angle_beta 90.000000
_cell_angle_gamma 90.000000
_cell_volume 996.667180
_symmetry_space_group_name_H-M "C C C 2"
_symmetry_group_IT_number 37
_symmetry_cell_setting 'orthorhombic'
loop_
_space_group_symop_operation_xyz
x,y,z
-x,-y,z
-x,y,1/2+z
x,-y,1/2+z
1/2+x,1/2+y,z
1/2-x,1/2-y,z
1/2-x,1/2+y,1/2+z
1/2+x,1/2-y,1/2+z
loop_
_atom_site_type_symbol
_atom_site_label
_atom_site_fract_x
_atom_site_fract_y
_atom_site_fract_z
Si Si1 0.750000 0.250000 0.188730
Si Si2 0.664181 0.043829 0.750926
Si Si3 0.956172 0.335818 0.980354
Si Si4 0.250000 0.750000 0.542549
O O1 0.751554 0.396315 0.262288
O O2 0.879773 0.269118 0.095390
O O3 0.730881 0.120227 0.635890
O O4 0.500000 0.000000 0.734868
O O5 0.646007 0.146009 0.865640
O O6 0.000000 0.500000 0.996413
O O7 0.103686 0.251553 0.968992
#
# Coordination Sequence:
#
# PCOD9355641 Si02
#       4
#     4   8   8   4
#     4  12  21  51  76 104 156 202 252 320 376 454
#     4  11  25  46  75 108 152 202 251 314 386 444
#     4  11  25  46  75 108 152 202 251 314 386 444
#     4  12  21  51  76 104 156 202 252 320 376 454
#
# _framework density 24.080255000000001
#
# number of rings (size 3 to 8) (size 9 to 14) (size 15 to 20)
#    0.000    0.667    6.667    1.000    0.000    6.667 
#    0.000    0.000   29.333    0.000    0.000    0.000 
#    0.000    0.000    0.000    0.000    0.000    0.000 
#
# Total GULP energy -66895.869648 kJ/mol
# GULP energy per Si atom -5574.655804 kJ/mol
# Density = 2.402545 g / cm^3
# Si number density = 24.080255 Si / 1000 Ang^3
#
#
#
# Elastic Constant Matrix: (Units=GPa)
#
#
# Indices 1 2 3 4 5 6 
#
# 1 123.0076 95.6404 47.2429 0.0000 0.0000 0.0000
# 2 95.6404 123.0009 47.2400 0.0000 0.0000 0.0000
# 3 47.2429 47.2400 126.9322 0.0000 0.0000 0.0000
# 4 0.0000 0.0000 0.0000 26.5783 0.0000 0.0000
# 5 0.0000 0.0000 0.0000 0.0000 26.5762 0.0000
# 6 0.0000 0.0000 0.0000 0.0000 0.0000 66.5340
#
#
#
# Elastic Compliance Matrix: (Units=1/GPa)
#
#
# Indices 1 2 3 4 5 6 
#
# 1 0.020997 -0.015547 -0.002029 0.000000 0.000000 0.000000
# 2 -0.015547 0.020998 -0.002028 0.000000 0.000000 0.000000
# 3 -0.002029 -0.002028 0.009388 0.000000 0.000000 0.000000
# 4 0.000000 0.000000 0.000000 0.037625 0.000000 0.000000
# 5 0.000000 0.000000 0.000000 0.000000 0.037628 0.000000
# 6 0.000000 0.000000 0.000000 0.000000 0.000000 0.015030
#
#
# Mechanical properties :
#
#
# Convention : Reuss Voigt Hill
#
# Bulk Modulus (GPa) = 82.13751 83.68748 82.91250
# Shear Modulus (GPa) = 27.03704 36.12555 31.58130
#
# Velocity S-wave (km/s) = 3.35444 3.87746 3.62539
# Velocity P-wave (km/s) = 7.01334 7.40779 7.21326
#
# Compressibility (1/GPa) = 0.01217471
#
# Stress axis : x y z
#
# Youngs Moduli (GPa) = 47.62597 47.62392 106.51774
#
# Poissons Ratio (x) = 0.74042 0.21609
# Poissons Ratio (y) = 0.74045 0.21604
# Poissons Ratio (z) = 0.09662 0.09659
#
# Static dielectric constant tensor:
#      x y z
#    x 2.005000 0.000000 0.000000 
#    y 0.000000 2.005000 0.000000 
#    z 0.000000 0.000000 2.205040 
# 
# From -- ./inp_files/6722.got.cif
#   From: 2010.05.17/outbox.cif.g08.bks.cpg/sg37_4_cif.got.tgz:6722.got - 2010.06.03 17:53:42.
