data_PCOD9355553
_publ_section_title
;
Structure prediction by ZEFSAII (Michael W. Deem and Ramdas Pophale) SiO2 
 PCOD9355553
Probable space group: C C C 2
;
_chemical_formula_sum "Si O2"
_cell_formula_units_Z 64
_cell_length_a 8.964107
_cell_length_b 13.127774
_cell_length_c 26.699327
_cell_angle_alpha 90.000000
_cell_angle_beta 90.000000
_cell_angle_gamma 90.000000
_cell_volume 3141.943983
_symmetry_space_group_name_H-M "C C C 2"
_symmetry_group_IT_number 37
_symmetry_cell_setting 'orthorhombic'
loop_
_space_group_symop_operation_xyz
x,y,z
-x,-y,z
-x,y,1/2+z
x,-y,1/2+z
1/2+x,1/2+y,z
1/2-x,1/2-y,z
1/2-x,1/2+y,1/2+z
1/2+x,1/2-y,1/2+z
loop_
_atom_site_type_symbol
_atom_site_label
_atom_site_fract_x
_atom_site_fract_y
_atom_site_fract_z
Si Si1 0.083576 0.263997 0.424870
Si Si2 0.583576 0.236003 0.647539
Si Si3 0.879367 0.925906 0.907956
Si Si4 0.590523 0.106898 0.229000
Si Si5 0.844516 0.457069 0.592168
Si Si6 0.909478 0.393102 0.343409
Si Si7 0.655484 0.042931 0.980241
Si Si8 0.379367 0.425906 0.664453
O O1 0.250000 0.250000 0.403974
O O2 0.124762 0.336665 0.472616
O O3 0.975221 0.166563 0.432897
O O4 0.998371 0.323169 0.381613
O O5 0.750000 0.250000 0.668435
O O6 0.498371 0.176831 0.690796
O O7 0.624763 0.163335 0.599793
O O8 0.475222 0.333437 0.639512
O O9 0.755672 0.897002 0.867314
O O10 0.789436 0.994145 0.948661
O O11 0.000000 0.000000 0.883532
O O12 0.595800 0.143402 0.286204
O O13 0.755672 0.102998 0.205095
O O14 0.500000 0.000000 0.229376
O O15 0.829483 0.500000 0.536204
O O16 0.710565 0.505856 0.623747
O O17 0.000000 0.500000 0.612850
O O18 0.000000 0.500000 0.343033
O O19 0.500000 0.000000 0.959558
O O20 0.500000 0.500000 0.688877
#
# Coordination Sequence:
#
# PCOD9355553 Si02
#       8
#     8   8   8   8   8   8   8   8
#     4  12  23  44  69  97 135 180 220 279 343 398
#     4  12  23  44  69  97 135 180 220 279 343 398
#     4  12  23  43  69  96 139 177 223 280 338 402
#     4  11  23  43  70  98 134 177 226 281 341 407
#     4  11  24  47  66  98 137 171 228 282 333 405
#     4  11  23  43  70  98 134 177 226 281 341 407
#     4  11  24  47  66  98 137 171 228 282 333 405
#     4  12  23  43  69  96 139 177 223 280 338 402
#
# _framework density 20.369555999999999
#
# number of rings (size 3 to 8) (size 9 to 14) (size 15 to 20)
#    0.000    0.500    7.500    0.750    0.000    3.500 
#    9.000    0.000    0.000    0.000    0.000    0.000 
#    0.000    0.000    0.000    0.000    0.000    0.000 
#
# Total GULP energy -178243.890079 kJ/mol
# GULP energy per Si atom -5570.121565 kJ/mol
# Density = 2.032319 g / cm^3
# Si number density = 20.369556 Si / 1000 Ang^3
#
#
#
# Elastic Constant Matrix: (Units=GPa)
#
#
# Indices 1 2 3 4 5 6 
#
# 1 171.4602 53.2756 37.5301 0.0000 0.0000 0.0000
# 2 53.2756 98.8690 25.7299 0.0000 0.0000 0.0000
# 3 37.5301 25.7299 109.0816 0.0000 0.0000 0.0000
# 4 0.0000 0.0000 0.0000 -115.3836 0.0000 0.0000
# 5 0.0000 0.0000 0.0000 0.0000 50.9311 0.0000
# 6 0.0000 0.0000 0.0000 0.0000 0.0000 58.1007
#
#
#
# Elastic Compliance Matrix: (Units=1/GPa)
#
#
# Indices 1 2 3 4 5 6 
#
# 1 0.007284 -0.003487 -0.001684 0.000000 0.000000 0.000000
# 2 -0.003487 0.012445 -0.001736 0.000000 0.000000 0.000000
# 3 -0.001684 -0.001736 0.010156 0.000000 0.000000 0.000000
# 4 0.000000 0.000000 0.000000 -0.008667 0.000000 0.000000
# 5 0.000000 0.000000 0.000000 0.000000 0.019634 0.000000
# 6 0.000000 0.000000 0.000000 0.000000 0.000000 0.017211
#
#
# Mechanical properties :
#
#
# Convention : Reuss Voigt Hill
#
# Bulk Modulus (GPa) = 62.21775 68.05357 65.13566
# Shear Modulus (GPa) = 64.73747 16.25467 40.49607
#
# Velocity S-wave (km/s) = 5.64362 2.82793 4.46361
# Velocity P-wave (km/s) = 8.54857 6.64416 7.65582
#
# Compressibility (1/GPa) = 0.01607258
#
# Stress axis : x y z
#
# Youngs Moduli (GPa) = 137.28250 80.35307 98.46234
#
# Poissons Ratio (x) = 0.28019 0.16578
# Poissons Ratio (y) = 0.47870 0.17091
# Poissons Ratio (z) = 0.23114 0.13948
#
# Static dielectric constant tensor:
#      x y z
#    x 1.612970 0.000000 0.000000 
#    y 0.000000 1.855630 0.000000 
#    z 0.000000 0.000000 1.692410 
# 
# From -- ./inp_files/20404.got.cif
#   From: 2010.05.17/outbox.cif.g08.bks.cpg/sg37_11_cif.got.tgz:20404.got - 2010.06.03 17:53:42.
