data_PCOD9355337
_publ_section_title
;
Structure prediction by ZEFSAII (Michael W. Deem and Ramdas Pophale) SiO2 
 PCOD9355337
Probable space group: C C C 2
;
_chemical_formula_sum "Si O2"
_cell_formula_units_Z 36
_cell_length_a 22.007880
_cell_length_b 6.862866
_cell_length_c 8.594642
_cell_angle_alpha 90.000000
_cell_angle_beta 90.000000
_cell_angle_gamma 90.000000
_cell_volume 1298.110073
_symmetry_space_group_name_H-M "C C C 2"
_symmetry_group_IT_number 37
_symmetry_cell_setting 'orthorhombic'
loop_
_space_group_symop_operation_xyz
x,y,z
-x,-y,z
-x,y,1/2+z
x,-y,1/2+z
1/2+x,1/2+y,z
1/2-x,1/2-y,z
1/2-x,1/2+y,1/2+z
1/2+x,1/2-y,1/2+z
loop_
_atom_site_type_symbol
_atom_site_label
_atom_site_fract_x
_atom_site_fract_y
_atom_site_fract_z
Si Si1 0.076694 0.882345 0.035300
Si Si2 0.530598 0.181982 0.341185
Si Si3 0.250000 0.250000 0.815261
Si Si4 0.866498 0.693070 0.030181
Si Si5 0.191861 0.837578 0.827702
O O1 0.065241 0.807216 0.209924
O O2 0.089855 0.113966 0.044239
O O3 0.139792 0.835113 0.953907
O O4 0.021875 0.805891 0.927101
O O5 0.579878 0.071078 0.452457
O O6 0.500000 0.000000 0.254598
O O7 0.282521 0.455602 0.755759
O O8 0.191288 0.314181 0.916381
O O9 0.833621 0.696453 0.194122
O O10 0.250000 0.750000 0.909598
#
# Coordination Sequence:
#
# PCOD9355337 Si02
#       5
#     8   8   4   8   8
#     4  11  25  48  77 110 156 210 262 324 414 471
#     4  12  27  49  79 120 159 208 272 343 400 496
#     4  10  24  48  76 120 154 206 270 324 402 492
#     4  11  24  51  79 111 160 211 263 331 406 491
#     4  11  25  50  81 114 161 210 258 335 401 488
#
# _framework density 27.732626
#
# number of rings (size 3 to 8) (size 9 to 14) (size 15 to 20)
#    0.000    0.889    1.111    5.333    3.111    1.778 
#   22.000    1.111    0.000    0.000    0.000    0.000 
#    0.000    0.000    0.000    0.000    0.000    0.000 
#
# Total GULP energy -100417.060753 kJ/mol
# GULP energy per Si atom -5578.725597 kJ/mol
# Density = 2.766951 g / cm^3
# Si number density = 27.732626 Si / 1000 Ang^3
#
#
#
# Elastic Constant Matrix: (Units=GPa)
#
#
# Indices 1 2 3 4 5 6 
#
# 1 237.5317 45.4596 68.5299 0.0000 0.0000 0.0000
# 2 45.4596 94.4057 22.8320 0.0000 0.0000 0.0000
# 3 68.5299 22.8320 100.4039 0.0000 0.0000 0.0000
# 4 0.0000 0.0000 0.0000 13.4121 0.0000 0.0000
# 5 0.0000 0.0000 0.0000 0.0000 -222.7148 0.0000
# 6 0.0000 0.0000 0.0000 0.0000 0.0000 38.9359
#
#
#
# Elastic Compliance Matrix: (Units=1/GPa)
#
#
# Indices 1 2 3 4 5 6 
#
# 1 0.005532 -0.001853 -0.003355 0.000000 0.000000 0.000000
# 2 -0.001853 0.011829 -0.001425 0.000000 0.000000 0.000000
# 3 -0.003355 -0.001425 0.012574 0.000000 0.000000 0.000000
# 4 0.000000 0.000000 0.000000 0.074559 0.000000 0.000000
# 5 0.000000 0.000000 0.000000 0.000000 -0.004490 0.000000
# 6 0.000000 0.000000 0.000000 0.000000 0.000000 0.025683
#
#
# Mechanical properties :
#
#
# Convention : Reuss Voigt Hill
#
# Bulk Modulus (GPa) = 59.98931 78.44268 69.21600
# Shear Modulus (GPa) = 34.59950 -14.37202 10.11374
#
# Velocity S-wave (km/s) = 3.53598 -2.27895 1.91175
# Velocity P-wave (km/s) = 6.19267 4.62838 5.46677
#
# Compressibility (1/GPa) = 0.01666964
#
# Stress axis : x y z
#
# Youngs Moduli (GPa) = 180.75235 84.53461 79.53089
#
# Poissons Ratio (x) = 0.15662 0.26681
# Poissons Ratio (y) = 0.33488 0.11337
# Poissons Ratio (z) = 0.60639 0.12050
#
# Static dielectric constant tensor:
#      x y z
#    x 3.324830 0.000000 0.000000 
#    y 0.000000 2.502460 0.000000 
#    z 0.000000 0.000000 2.241030 
# 
# From -- ./inp_files/4258.got.cif
#   From: 2010.05.17/outbox.cif.g08.bks.cpg/sg37_3_cif.got.tgz:4258.got - 2010.06.03 17:53:42.
