data_PCOD9355518
_publ_section_title
;
Structure prediction by ZEFSAII (Michael W. Deem and Ramdas Pophale) SiO2 
 PCOD9355518
Probable space group: C C C 2
;
_chemical_formula_sum "Si O2"
_cell_formula_units_Z 64
_cell_length_a 23.072567
_cell_length_b 14.782831
_cell_length_c 7.099118
_cell_angle_alpha 90.000000
_cell_angle_beta 90.000000
_cell_angle_gamma 90.000000
_cell_volume 2421.351966
_symmetry_space_group_name_H-M "C C C 2"
_symmetry_group_IT_number 37
_symmetry_cell_setting 'orthorhombic'
loop_
_space_group_symop_operation_xyz
x,y,z
-x,-y,z
-x,y,1/2+z
x,-y,1/2+z
1/2+x,1/2+y,z
1/2-x,1/2-y,z
1/2-x,1/2+y,1/2+z
1/2+x,1/2-y,1/2+z
loop_
_atom_site_type_symbol
_atom_site_label
_atom_site_fract_x
_atom_site_fract_y
_atom_site_fract_z
Si Si1 0.069356 0.662784 0.707590
Si Si2 0.646747 0.389872 0.553257
Si Si3 0.446181 0.854973 0.274841
Si Si4 0.258296 0.004064 0.953954
Si Si5 0.577232 0.307588 0.016331
Si Si6 0.066841 0.002677 0.339468
Si Si7 0.803119 0.814353 0.393958
Si Si8 0.348204 0.001794 0.211502
O O1 0.068761 0.672298 0.485415
O O2 0.124755 0.600905 0.749965
O O3 0.011478 0.607366 0.766428
O O4 0.064780 0.756409 0.819039
O O5 0.707827 0.421408 0.468604
O O6 0.593661 0.406164 0.407399
O O7 0.618181 0.456633 0.710667
O O8 0.668064 0.308031 0.685180
O O9 0.450160 0.761811 0.159764
O O10 0.397505 0.923789 0.197636
O O11 0.275746 0.990420 0.206091
O O12 0.224287 0.910858 0.931270
O O13 0.331269 0.015668 0.962233
O O14 0.563042 0.413137 0.993039
O O15 0.646186 0.298426 0.041627
O O16 0.000000 0.000000 0.276808
O O17 0.750000 0.750000 0.411454
#
# Coordination Sequence:
#
# PCOD9355518 Si02
#       8
#     8   8   8   8   8   8   8   8
#     4  12  26  46  70 107 151 199 249 312 368 444
#     4  11  22  45  70 107 136 184 241 301 369 445
#     4  12  26  46  71 107 153 196 251 311 371 442
#     4  12  22  42  70 100 147 181 246 297 355 445
#     4  11  26  48  69 109 149 193 251 316 376 438
#     4  11  25  49  77 105 142 194 245 313 385 451
#     4  11  23  43  70  99 149 195 234 311 380 437
#     4  12  24  41  73 104 141 201 248 290 372 450
#
# _framework density 26.431515000000001
#
# number of rings (size 3 to 8) (size 9 to 14) (size 15 to 20)
#    0.000    0.500    6.250    3.000    0.000    4.000 
#    4.500    0.000    0.000    3.750    0.000    0.000 
#    0.000    0.000    0.000    0.000    0.000    0.000 
#
# Total GULP energy -178534.409714 kJ/mol
# GULP energy per Si atom -5579.200304 kJ/mol
# Density = 2.637136 g / cm^3
# Si number density = 26.431515 Si / 1000 Ang^3
#
#
#
# Elastic Constant Matrix: (Units=GPa)
#
#
# Indices 1 2 3 4 5 6 
#
# 1 195.4428 31.7504 24.5651 0.0000 0.0000 0.0000
# 2 31.7504 64.7756 -9.6250 0.0000 0.0000 0.0000
# 3 24.5651 -9.6250 90.9959 0.0000 0.0000 0.0000
# 4 0.0000 0.0000 0.0000 119.5443 0.0000 0.0000
# 5 0.0000 0.0000 0.0000 0.0000 59.8977 0.0000
# 6 0.0000 0.0000 0.0000 0.0000 0.0000 37.1338
#
#
#
# Elastic Compliance Matrix: (Units=1/GPa)
#
#
# Indices 1 2 3 4 5 6 
#
# 1 0.005872 -0.003163 -0.001920 0.000000 0.000000 0.000000
# 2 -0.003163 0.017389 0.002693 0.000000 0.000000 0.000000
# 3 -0.001920 0.002693 0.011793 0.000000 0.000000 0.000000
# 4 0.000000 0.000000 0.000000 0.008365 0.000000 0.000000
# 5 0.000000 0.000000 0.000000 0.000000 0.016695 0.000000
# 6 0.000000 0.000000 0.000000 0.000000 0.000000 0.026930
#
#
# Mechanical properties :
#
#
# Convention : Reuss Voigt Hill
#
# Bulk Modulus (GPa) = 33.03239 49.39951 41.21595
# Shear Modulus (GPa) = 49.06109 63.61674 56.33891
#
# Velocity S-wave (km/s) = 4.31299 4.91129 4.62183
# Velocity P-wave (km/s) = 6.10958 7.13381 6.64147
#
# Compressibility (1/GPa) = 0.03027332
#
# Stress axis : x y z
#
# Youngs Moduli (GPa) = 170.30616 57.50879 84.79877
#
# Poissons Ratio (x) = 0.18192 0.16279
# Poissons Ratio (y) = 0.53874 -0.22838
# Poissons Ratio (z) = 0.32694 -0.15488
#
# Static dielectric constant tensor:
#      x y z
#    x 1.868350 0.000000 0.000000 
#    y 0.000000 0.523450 0.000000 
#    z 0.000000 0.000000 2.947270 
# 
# From -- ./inp_files/4667.got.cif
#   From: 2010.05.17/outbox.cif.g08.bks.cpg/sg37_3_cif.got.tgz:4667.got - 2010.06.03 17:53:42.
