data_PCOD9355309
_publ_section_title
;
Structure prediction by ZEFSAII (Michael W. Deem and Ramdas Pophale) SiO2 
 PCOD9355309
Probable space group: C C C 2
;
_chemical_formula_sum "Si O2"
_cell_formula_units_Z 40
_cell_length_a 12.111517
_cell_length_b 11.055932
_cell_length_c 12.390248
_cell_angle_alpha 90.000000
_cell_angle_beta 90.000000
_cell_angle_gamma 90.000000
_cell_volume 1659.105111
_symmetry_space_group_name_H-M "C C C 2"
_symmetry_group_IT_number 37
_symmetry_cell_setting 'orthorhombic'
loop_
_space_group_symop_operation_xyz
x,y,z
-x,-y,z
-x,y,1/2+z
x,-y,1/2+z
1/2+x,1/2+y,z
1/2-x,1/2-y,z
1/2-x,1/2+y,1/2+z
1/2+x,1/2-y,1/2+z
loop_
_atom_site_type_symbol
_atom_site_label
_atom_site_fract_x
_atom_site_fract_y
_atom_site_fract_z
Si Si1 0.500000 0.000000 0.783370
Si Si2 0.191249 0.867044 0.639698
Si Si3 0.398568 0.564420 0.308340
Si Si4 0.474750 0.238893 0.644979
Si Si5 0.790126 0.514347 0.940226
Si Si6 0.750000 0.250000 0.005280
O O1 0.504931 0.113134 0.701803
O O2 0.398287 0.012812 0.867195
O O3 0.250000 0.750000 0.691182
O O4 0.278708 0.933405 0.560883
O O5 0.079215 0.806655 0.589629
O O6 0.149096 0.968913 0.721177
O O7 0.500000 0.500000 0.368461
O O8 0.444664 0.676588 0.245106
O O9 0.297815 0.598563 0.381329
O O10 0.364166 0.234162 0.572763
O O11 0.743851 0.376826 0.942627
#
# Coordination Sequence:
#
# PCOD9355309 Si02
#       6
#     4   8   8   8   8   4
#     4  12  30  48  76 114 160 196 254 320 400 444
#     4  11  26  47  75 103 148 199 252 305 388 448
#     4  10  24  46  74 104 143 195 252 307 374 455
#     4  11  26  50  75 102 154 203 245 316 387 464
#     4  12  29  45  75 112 147 197 255 317 370 463
#     4  12  28  44  76 108 148 194 264 302 386 454
#
# _framework density 24.109380999999999
#
# number of rings (size 3 to 8) (size 9 to 14) (size 15 to 20)
#    0.000    0.800    2.000    2.400   18.200    0.000 
#    0.000    0.000    0.000    0.000    0.000    0.000 
#    0.000    0.000    0.000    0.000    0.000    0.000 
#
# Total GULP energy -111778.610665 kJ/mol
# GULP energy per Si atom -5588.930533 kJ/mol
# Density = 2.405451 g / cm^3
# Si number density = 24.109381 Si / 1000 Ang^3
#
#
#
# Elastic Constant Matrix: (Units=GPa)
#
#
# Indices 1 2 3 4 5 6 
#
# 1 144.1599 14.6300 44.5507 0.0000 0.0000 0.0000
# 2 14.6300 137.1043 28.0682 0.0000 0.0000 0.0000
# 3 44.5507 28.0682 51.9867 0.0000 0.0000 0.0000
# 4 0.0000 0.0000 0.0000 28.0301 0.0000 0.0000
# 5 0.0000 0.0000 0.0000 0.0000 9.7489 0.0000
# 6 0.0000 0.0000 0.0000 0.0000 0.0000 33.7587
#
#
#
# Elastic Compliance Matrix: (Units=1/GPa)
#
#
# Indices 1 2 3 4 5 6 
#
# 1 0.009501 0.000734 -0.008538 0.000000 0.000000 0.000000
# 2 0.000734 0.008257 -0.005087 0.000000 0.000000 0.000000
# 3 -0.008538 -0.005087 0.029299 0.000000 0.000000 0.000000
# 4 0.000000 0.000000 0.000000 0.035676 0.000000 0.000000
# 5 0.000000 0.000000 0.000000 0.000000 0.102576 0.000000
# 6 0.000000 0.000000 0.000000 0.000000 0.000000 0.029622
#
#
# Mechanical properties :
#
#
# Convention : Reuss Voigt Hill
#
# Bulk Modulus (GPa) = 47.00458 56.41653 51.71056
# Shear Modulus (GPa) = 20.17719 30.70768 25.44243
#
# Velocity S-wave (km/s) = 2.89606 3.57274 3.25205
# Velocity P-wave (km/s) = 5.54271 6.36163 5.96624
#
# Compressibility (1/GPa) = 0.02127452
#
# Stress axis : x y z
#
# Youngs Moduli (GPa) = 105.25347 121.11210 34.13055
#
# Poissons Ratio (x) = -0.08892 0.29142
# Poissons Ratio (y) = -0.07727 0.17363
# Poissons Ratio (z) = 0.89868 0.61611
#
# Static dielectric constant tensor:
#      x y z
#    x 2.370620 0.000000 0.000000 
#    y 0.000000 1.997280 0.000000 
#    z 0.000000 0.000000 1.922810 
# 
# From -- ./inp_files/11359.got.cif
#   From: 2010.05.17/outbox.cif.g08.bks.cpg/sg37_6_cif.got.tgz:11359.got - 2010.06.03 17:53:42.
