data_PCOD9355121
_publ_section_title
;
Structure prediction by ZEFSAII (Michael W. Deem and Ramdas Pophale) SiO2 
 PCOD9355121
Probable space group: C C C 2
;
_chemical_formula_sum "Si O2"
_cell_formula_units_Z 56
_cell_length_a 21.868448
_cell_length_b 9.138134
_cell_length_c 13.687942
_cell_angle_alpha 90.000000
_cell_angle_beta 90.000000
_cell_angle_gamma 90.000000
_cell_volume 2735.354640
_symmetry_space_group_name_H-M "C C C 2"
_symmetry_group_IT_number 37
_symmetry_cell_setting 'orthorhombic'
loop_
_space_group_symop_operation_xyz
x,y,z
-x,-y,z
-x,y,1/2+z
x,-y,1/2+z
1/2+x,1/2+y,z
1/2-x,1/2-y,z
1/2-x,1/2+y,1/2+z
1/2+x,1/2-y,1/2+z
loop_
_atom_site_type_symbol
_atom_site_label
_atom_site_fract_x
_atom_site_fract_y
_atom_site_fract_z
Si Si1 0.185907 0.831691 0.119240
Si Si2 0.529912 0.661662 0.114541
Si Si3 0.571887 0.830313 0.715764
Si Si4 0.748436 0.405301 0.728203
Si Si5 0.111612 0.353535 0.251250
Si Si6 0.445577 0.386612 0.888960
Si Si7 0.346948 0.626208 0.895894
O O1 0.250000 0.750000 0.108302
O O2 0.136703 0.737556 0.179764
O O3 0.206539 0.979314 0.173346
O O4 0.161034 0.861588 0.011157
O O5 0.500000 0.500000 0.137976
O O6 0.476004 0.776465 0.134764
O O7 0.586566 0.724790 0.178963
O O8 0.548679 0.657471 0.001831
O O9 0.553035 0.746995 0.814866
O O10 0.571533 0.002681 0.735736
O O11 0.750000 0.250000 0.673290
O O12 0.820808 0.425739 0.737804
O O13 0.715415 0.383395 0.833130
O O14 0.116838 0.267238 0.353583
O O15 0.500000 0.500000 0.867974
O O16 0.384392 0.479771 0.874368
#
# Coordination Sequence:
#
# PCOD9355121 Si02
#       7
#     8   8   8   8   8   8   8
#     4  12  23  43  66 104 140 187 235 291 359 429
#     4  11  25  44  70 100 134 183 241 290 361 430
#     4  12  24  43  72  99 144 181 232 298 359 429
#     4  10  23  43  66  98 140 183 230 287 354 419
#     4  11  24  45  67 101 140 182 227 302 358 419
#     4  11  24  43  69 102 131 181 237 284 344 427
#     4  11  24  42  70  98 143 186 237 291 348 431
#
# _framework density 20.472666
#
# number of rings (size 3 to 8) (size 9 to 14) (size 15 to 20)
#    0.000    0.857    2.857    5.571    6.000    1.143 
#    2.571    5.000    0.000    0.000    0.000    0.000 
#    0.000    0.000    0.000    0.000    0.000    0.000 
#
# Total GULP energy -156250.864702 kJ/mol
# GULP energy per Si atom -5580.388025 kJ/mol
# Density = 2.042607 g / cm^3
# Si number density = 20.472666 Si / 1000 Ang^3
#
#
#
# Elastic Constant Matrix: (Units=GPa)
#
#
# Indices 1 2 3 4 5 6 
#
# 1 77.4436 9.9568 6.7299 0.0000 0.0000 0.0000
# 2 9.9568 114.7631 44.5334 0.0000 0.0000 0.0000
# 3 6.7299 44.5334 106.1189 0.0000 0.0000 0.0000
# 4 0.0000 0.0000 0.0000 6.1772 0.0000 0.0000
# 5 0.0000 0.0000 0.0000 0.0000 23.5830 0.0000
# 6 0.0000 0.0000 0.0000 0.0000 0.0000 35.6047
#
#
#
# Elastic Compliance Matrix: (Units=1/GPa)
#
#
# Indices 1 2 3 4 5 6 
#
# 1 0.013074 -0.000971 -0.000422 0.000000 0.000000 0.000000
# 2 -0.000971 0.010481 -0.004337 0.000000 0.000000 0.000000
# 3 -0.000422 -0.004337 0.011270 0.000000 0.000000 0.000000
# 4 0.000000 0.000000 0.000000 0.161885 0.000000 0.000000
# 5 0.000000 0.000000 0.000000 0.000000 0.042403 0.000000
# 6 0.000000 0.000000 0.000000 0.000000 0.000000 0.028086
#
#
# Mechanical properties :
#
#
# Convention : Reuss Voigt Hill
#
# Bulk Modulus (GPa) = 42.79630 46.75176 44.77403
# Shear Modulus (GPa) = 17.45528 28.88001 23.16765
#
# Velocity S-wave (km/s) = 2.92312 3.75995 3.36763
# Velocity P-wave (km/s) = 5.68703 6.46030 6.08596
#
# Compressibility (1/GPa) = 0.02336651
#
# Stress axis : x y z
#
# Youngs Moduli (GPa) = 76.48726 95.41381 88.73063
#
# Poissons Ratio (x) = 0.09261 0.03743
# Poissons Ratio (y) = 0.07424 0.38480
# Poissons Ratio (z) = 0.03226 0.41378
#
# Static dielectric constant tensor:
#      x y z
#    x 1.863360 0.000000 0.000000 
#    y 0.000000 1.769700 0.000000 
#    z 0.000000 0.000000 1.719370 
# 
# From -- ./inp_files/12950.got.cif
#   From: 2010.05.17/outbox.cif.g08.bks.cpg/sg37_7_cif.got.tgz:12950.got - 2010.06.03 17:53:42.
