data_PCOD9355322
_publ_section_title
;
Structure prediction by ZEFSAII (Michael W. Deem and Ramdas Pophale) SiO2 
 PCOD9355322
Probable space group: C C C 2
;
_chemical_formula_sum "Si O2"
_cell_formula_units_Z 52
_cell_length_a 21.079176
_cell_length_b 6.629444
_cell_length_c 17.696872
_cell_angle_alpha 90.000000
_cell_angle_beta 90.000000
_cell_angle_gamma 90.000000
_cell_volume 2473.017822
_symmetry_space_group_name_H-M "C C C 2"
_symmetry_group_IT_number 37
_symmetry_cell_setting 'orthorhombic'
loop_
_space_group_symop_operation_xyz
x,y,z
-x,-y,z
-x,y,1/2+z
x,-y,1/2+z
1/2+x,1/2+y,z
1/2-x,1/2-y,z
1/2-x,1/2+y,1/2+z
1/2+x,1/2-y,1/2+z
loop_
_atom_site_type_symbol
_atom_site_label
_atom_site_fract_x
_atom_site_fract_y
_atom_site_fract_z
Si Si1 0.578972 0.667425 0.153540
Si Si2 0.250000 0.250000 0.491984
Si Si3 0.800217 0.411273 0.377919
Si Si4 0.893480 0.182357 0.034334
Si Si5 0.000000 0.000000 0.287918
Si Si6 0.000000 0.500000 0.563265
Si Si7 0.325266 0.749071 0.770854
Si Si8 0.110808 0.071252 0.884836
O O1 0.587543 0.464487 0.104120
O O2 0.540954 0.631601 0.231033
O O3 0.539800 0.832859 0.108906
O O4 0.645656 0.740112 0.187583
O O5 0.235111 0.440711 0.436673
O O6 0.183035 0.225234 0.536315
O O7 0.750000 0.250000 0.344754
O O8 0.837016 0.544646 0.316539
O O9 0.851879 0.264978 0.414235
O O10 0.942018 0.369711 0.027925
O O11 0.903244 0.063021 0.956777
O O12 0.046904 0.874702 0.340775
O O13 0.250000 0.750000 0.766073
O O14 0.349501 0.565791 0.824466
#
# Coordination Sequence:
#
# PCOD9355322 Si02
#       8
#     8   4   8   8   4   4   8   8
#     4  11  27  47  68  97 150 186 242 298 356 438
#     4  12  26  44  72 114 140 184 246 296 372 438
#     4  12  20  42  72 105 147 173 224 311 361 428
#     4  12  26  48  71 106 145 195 243 306 365 447
#     4  10  24  48  66 104 132 182 246 290 350 438
#     4  12  28  48  72  96 150 194 238 290 366 438
#     4  11  22  44  68 109 136 184 241 289 365 437
#     4  11  25  42  77  99 142 182 234 302 361 426
#
# _framework density 21.02694
#
# number of rings (size 3 to 8) (size 9 to 14) (size 15 to 20)
#    0.000    0.615    6.923    0.000    6.462    1.231 
#    0.000    0.000    0.000    0.000    0.000    0.000 
#    0.000    0.000    0.000    0.000    0.000    0.000 
#
# Total GULP energy -144994.445277 kJ/mol
# GULP energy per Si atom -5576.709434 kJ/mol
# Density = 2.097908 g / cm^3
# Si number density = 21.026940 Si / 1000 Ang^3
#
#
#
# Elastic Constant Matrix: (Units=GPa)
#
#
# Indices 1 2 3 4 5 6 
#
# 1 121.6204 56.8168 60.3701 0.0000 0.0000 0.0000
# 2 56.8168 115.0825 29.5656 0.0000 0.0000 0.0000
# 3 60.3701 29.5656 53.8085 0.0000 0.0000 0.0000
# 4 0.0000 0.0000 0.0000 24.6699 0.0000 0.0000
# 5 0.0000 0.0000 0.0000 0.0000 30.8839 0.0000
# 6 0.0000 0.0000 0.0000 0.0000 0.0000 33.1981
#
#
#
# Elastic Compliance Matrix: (Units=1/GPa)
#
#
# Indices 1 2 3 4 5 6 
#
# 1 0.020733 -0.004960 -0.020536 0.000000 0.000000 0.000000
# 2 -0.004960 0.011304 -0.000646 0.000000 0.000000 0.000000
# 3 -0.020536 -0.000646 0.041980 0.000000 0.000000 0.000000
# 4 0.000000 0.000000 0.000000 0.040535 0.000000 0.000000
# 5 0.000000 0.000000 0.000000 0.000000 0.032379 0.000000
# 6 0.000000 0.000000 0.000000 0.000000 0.000000 0.030122
#
#
# Mechanical properties :
#
#
# Convention : Reuss Voigt Hill
#
# Bulk Modulus (GPa) = 46.01428 64.89072 55.45250
# Shear Modulus (GPa) = 21.13421 27.33432 24.23427
#
# Velocity S-wave (km/s) = 3.17377 3.60942 3.39858
# Velocity P-wave (km/s) = 5.94655 6.94970 6.46760
#
# Compressibility (1/GPa) = 0.02173238
#
# Stress axis : x y z
#
# Youngs Moduli (GPa) = 48.23164 88.46177 23.82099
#
# Poissons Ratio (x) = 0.43879 0.48919
# Poissons Ratio (y) = 0.23924 0.01539
# Poissons Ratio (z) = 0.99049 0.05716
#
# Static dielectric constant tensor:
#      x y z
#    x 1.954470 0.000000 0.000000 
#    y 0.000000 1.723970 0.000000 
#    z 0.000000 0.000000 1.736140 
# 
# From -- ./inp_files/17485.got.cif
#   From: 2010.05.17/outbox.cif.g08.bks.cpg/sg37_9_cif.got.tgz:17485.got - 2010.06.03 17:53:42.
