data_PCOD9355585
_publ_section_title
;
Structure prediction by ZEFSAII (Michael W. Deem and Ramdas Pophale) SiO2 
 PCOD9355585
Probable space group: C C C 2
;
_chemical_formula_sum "Si O2"
_cell_formula_units_Z 52
_cell_length_a 9.072293
_cell_length_b 25.011820
_cell_length_c 11.364186
_cell_angle_alpha 90.000000
_cell_angle_beta 90.000000
_cell_angle_gamma 90.000000
_cell_volume 2578.699260
_symmetry_space_group_name_H-M "C C C 2"
_symmetry_group_IT_number 37
_symmetry_cell_setting 'orthorhombic'
loop_
_space_group_symop_operation_xyz
x,y,z
-x,-y,z
-x,y,1/2+z
x,-y,1/2+z
1/2+x,1/2+y,z
1/2-x,1/2-y,z
1/2-x,1/2+y,1/2+z
1/2+x,1/2-y,1/2+z
loop_
_atom_site_type_symbol
_atom_site_label
_atom_site_fract_x
_atom_site_fract_y
_atom_site_fract_z
Si Si1 0.174758 0.987103 0.806030
Si Si2 0.463680 0.186398 0.693340
Si Si3 0.921874 0.791246 0.085190
Si Si4 0.788070 0.847628 0.524090
Si Si5 0.750000 0.750000 0.867884
Si Si6 0.337865 0.527523 0.061707
Si Si7 0.753418 0.635225 0.261366
O O1 0.200560 0.925358 0.774258
O O2 0.232643 0.017847 0.690376
O O3 0.232661 0.995566 0.940035
O O4 0.000000 0.000000 0.815060
O O5 0.570898 0.233887 0.648410
O O6 0.365723 0.163903 0.587263
O O7 0.353314 0.212072 0.788900
O O8 0.572381 0.141008 0.740704
O O9 0.835316 0.835317 0.159086
O O10 0.090319 0.809152 0.077897
O O11 0.852634 0.784140 0.956222
O O12 0.840663 0.908729 0.543051
O O13 0.778484 0.837010 0.385852
O O14 0.500000 0.500000 0.068701
#
# Coordination Sequence:
#
# PCOD9355585 Si02
#       7
#     8   8   8   8   4   8   8
#     4   9  18  37  62  93 122 154 209 268 322 383
#     4  12  24  43  60  93 136 171 218 266 325 385
#     4  12  22  41  64  93 127 176 220 262 315 383
#     4  11  24  41  66  93 128 170 215 269 321 386
#     4  12  24  40  62  92 134 176 224 264 318 386
#     4   9  18  37  61  92 120 151 208 268 317 375
#     4  11  24  41  66  94 131 173 214 270 329 380
#
# _framework density 20.165205
#
# number of rings (size 3 to 8) (size 9 to 14) (size 15 to 20)
#    0.000    1.231    3.077    3.692    0.000    1.231 
#    2.769    0.769    0.000    3.692    0.000    0.000 
#    0.000    0.000    0.000    0.000    0.000    0.000 
#
# Total GULP energy -145090.645679 kJ/mol
# GULP energy per Si atom -5580.409449 kJ/mol
# Density = 2.011931 g / cm^3
# Si number density = 20.165205 Si / 1000 Ang^3
#
#
#
# Elastic Constant Matrix: (Units=GPa)
#
#
# Indices 1 2 3 4 5 6 
#
# 1 56.7735 1.9372 -12.1354 0.0000 0.0000 0.0000
# 2 1.9372 31.5824 -7.4598 0.0000 0.0000 0.0000
# 3 -12.1354 -7.4598 98.8142 0.0000 0.0000 0.0000
# 4 0.0000 0.0000 0.0000 33.8084 0.0000 0.0000
# 5 0.0000 0.0000 0.0000 0.0000 46.2618 0.0000
# 6 0.0000 0.0000 0.0000 0.0000 0.0000 12.8966
#
#
#
# Elastic Compliance Matrix: (Units=1/GPa)
#
#
# Indices 1 2 3 4 5 6 
#
# 1 0.018100 -0.000596 0.002178 0.000000 0.000000 0.000000
# 2 -0.000596 0.032258 0.002362 0.000000 0.000000 0.000000
# 3 0.002178 0.002362 0.010566 0.000000 0.000000 0.000000
# 4 0.000000 0.000000 0.000000 0.029578 0.000000 0.000000
# 5 0.000000 0.000000 0.000000 0.000000 0.021616 0.000000
# 6 0.000000 0.000000 0.000000 0.000000 0.000000 0.077540
#
#
# Mechanical properties :
#
#
# Convention : Reuss Voigt Hill
#
# Bulk Modulus (GPa) = 14.53247 16.87267 15.70257
# Shear Modulus (GPa) = 24.42524 32.24859 28.33691
#
# Velocity S-wave (km/s) = 3.48409 4.00336 3.75272
# Velocity P-wave (km/s) = 4.83813 5.45478 5.15568
#
# Compressibility (1/GPa) = 0.06881143
#
# Stress axis : x y z
#
# Youngs Moduli (GPa) = 55.24951 31.00042 94.64509
#
# Poissons Ratio (x) = 0.01847 -0.20612
# Poissons Ratio (y) = 0.03292 -0.22356
# Poissons Ratio (z) = -0.12033 -0.07323
#
# Static dielectric constant tensor:
#      x y z
#    x 1.702520 0.000000 0.000000 
#    y 0.000000 1.754690 0.000000 
#    z 0.000000 0.000000 1.757810 
# 
# From -- ./inp_files/6505.got.cif
#   From: 2010.05.17/outbox.cif.g08.bks.cpg/sg37_4_cif.got.tgz:6505.got - 2010.06.03 17:53:42.
