data_PCOD9355245
_publ_section_title
;
Structure prediction by ZEFSAII (Michael W. Deem and Ramdas Pophale) SiO2 
 PCOD9355245
Probable space group: C C C 2
;
_chemical_formula_sum "Si O2"
_cell_formula_units_Z 40
_cell_length_a 6.564903
_cell_length_b 12.124668
_cell_length_c 19.125254
_cell_angle_alpha 90.000000
_cell_angle_beta 90.000000
_cell_angle_gamma 90.000000
_cell_volume 1522.317994
_symmetry_space_group_name_H-M "C C C 2"
_symmetry_group_IT_number 37
_symmetry_cell_setting 'orthorhombic'
loop_
_space_group_symop_operation_xyz
x,y,z
-x,-y,z
-x,y,1/2+z
x,-y,1/2+z
1/2+x,1/2+y,z
1/2-x,1/2-y,z
1/2-x,1/2+y,1/2+z
1/2+x,1/2-y,1/2+z
loop_
_atom_site_type_symbol
_atom_site_label
_atom_site_fract_x
_atom_site_fract_y
_atom_site_fract_z
Si Si1 0.133134 0.864258 0.331640
Si Si2 0.500000 0.500000 0.456595
Si Si3 0.312618 0.917694 0.192192
Si Si4 0.619980 0.884770 0.496805
Si Si5 0.989673 0.230163 0.626746
Si Si6 0.250000 0.750000 0.868292
O O1 0.250000 0.750000 0.335576
O O2 0.223849 0.936357 0.268946
O O3 0.112150 0.884044 0.144481
O O4 0.140379 0.928782 0.404816
O O5 0.356272 0.421250 0.499901
O O6 0.441850 0.800502 0.057899
O O7 0.435416 0.803416 0.191802
O O8 0.500000 0.000000 0.171411
O O9 0.612874 0.823098 0.422019
O O10 0.500000 0.000000 0.501983
O O11 0.750000 0.250000 0.624919
O O12 0.895945 0.170401 0.825277
#
# Coordination Sequence:
#
# PCOD9355245 Si02
#       6
#     8   4   8   8   8   4
#     4  11  23  45  72 108 155 200 254 315 396 483
#     4  10  26  46  76 112 150 204 256 326 408 482
#     4  11  26  48  72 109 154 206 266 322 401 483
#     4  11  24  46  73 108 147 197 264 329 403 479
#     4  11  26  48  75 108 151 207 267 334 403 479
#     4  10  24  42  74 108 152 196 250 328 408 480
#
# _framework density 26.275721999999998
#
# number of rings (size 3 to 8) (size 9 to 14) (size 15 to 20)
#    0.000    1.200    2.000    3.000    1.400   13.600 
#    0.000    1.000    0.000    0.000    0.000    0.000 
#    0.000    0.000    0.000    0.000    0.000    0.000 
#
# Total GULP energy -111640.239112 kJ/mol
# GULP energy per Si atom -5582.011956 kJ/mol
# Density = 2.621592 g / cm^3
# Si number density = 26.275722 Si / 1000 Ang^3
#
#
#
# Elastic Constant Matrix: (Units=GPa)
#
#
# Indices 1 2 3 4 5 6 
#
# 1 207.0295 71.7906 78.9191 0.0000 0.0000 0.0000
# 2 71.7906 163.3072 54.1983 0.0000 0.0000 0.0000
# 3 78.9191 54.1983 130.9826 0.0000 0.0000 0.0000
# 4 0.0000 0.0000 0.0000 12.3467 0.0000 0.0000
# 5 0.0000 0.0000 0.0000 0.0000 11.8889 0.0000
# 6 0.0000 0.0000 0.0000 0.0000 0.0000 77.2582
#
#
#
# Elastic Compliance Matrix: (Units=1/GPa)
#
#
# Indices 1 2 3 4 5 6 
#
# 1 0.006729 -0.001869 -0.003281 0.000000 0.000000 0.000000
# 2 -0.001869 0.007617 -0.002026 0.000000 0.000000 0.000000
# 3 -0.003281 -0.002026 0.010450 0.000000 0.000000 0.000000
# 4 0.000000 0.000000 0.000000 0.080993 0.000000 0.000000
# 5 0.000000 0.000000 0.000000 0.000000 0.084112 0.000000
# 6 0.000000 0.000000 0.000000 0.000000 0.000000 0.012944
#
#
# Mechanical properties :
#
#
# Convention : Reuss Voigt Hill
#
# Bulk Modulus (GPa) = 95.74531 101.23726 98.49128
# Shear Modulus (GPa) = 22.65743 40.05952 31.35847
#
# Velocity S-wave (km/s) = 2.93967 3.90883 3.45837
# Velocity P-wave (km/s) = 6.93109 7.68013 7.31520
#
# Compressibility (1/GPa) = 0.01044438
#
# Stress axis : x y z
#
# Youngs Moduli (GPa) = 148.60820 131.27734 95.69741
#
# Poissons Ratio (x) = 0.24539 0.31398
# Poissons Ratio (y) = 0.27779 0.19385
# Poissons Ratio (z) = 0.48757 0.26593
#
# Static dielectric constant tensor:
#      x y z
#    x 2.210500 0.000000 0.000000 
#    y 0.000000 2.117820 0.000000 
#    z 0.000000 0.000000 2.067590 
# 
# From -- ./inp_files/14369.got.cif
#   From: 2010.05.17/outbox.cif.g08.bks.cpg/sg37_8_cif.got.tgz:14369.got - 2010.06.03 17:53:42.
