data_PCOD9355581
_publ_section_title
;
Structure prediction by ZEFSAII (Michael W. Deem and Ramdas Pophale) SiO2 
 PCOD9355581
Probable space group: C C C 2
;
_chemical_formula_sum "Si O2"
_cell_formula_units_Z 64
_cell_length_a 10.211634
_cell_length_b 11.297540
_cell_length_c 24.545526
_cell_angle_alpha 90.000000
_cell_angle_beta 90.000000
_cell_angle_gamma 90.000000
_cell_volume 2831.727586
_symmetry_space_group_name_H-M "C C C 2"
_symmetry_group_IT_number 37
_symmetry_cell_setting 'orthorhombic'
loop_
_space_group_symop_operation_xyz
x,y,z
-x,-y,z
-x,y,1/2+z
x,-y,1/2+z
1/2+x,1/2+y,z
1/2-x,1/2-y,z
1/2-x,1/2+y,1/2+z
1/2+x,1/2-y,1/2+z
loop_
_atom_site_type_symbol
_atom_site_label
_atom_site_fract_x
_atom_site_fract_y
_atom_site_fract_z
Si Si1 0.809621 0.554482 0.947150
Si Si2 0.553460 0.314214 0.834367
Si Si3 0.330786 0.928860 0.833022
Si Si4 0.200919 0.883387 0.269211
Si Si5 0.957182 0.807279 0.950180
Si Si6 0.184613 0.438780 0.068894
Si Si7 0.311652 0.619858 0.146962
Si Si8 0.039008 0.799001 0.570534
O O1 0.840027 0.471614 0.895882
O O2 0.889835 0.678067 0.943826
O O3 0.658555 0.596247 0.945073
O O4 0.836255 0.508112 0.008271
O O5 0.566620 0.174702 0.821939
O O6 0.689096 0.373453 0.818781
O O7 0.427107 0.374258 0.807706
O O8 0.549568 0.325241 0.899509
O O9 0.319402 0.042947 0.795355
O O10 0.250000 0.750000 0.265435
O O11 0.167094 0.925248 0.208334
O O12 0.019627 0.811931 0.009787
O O13 0.212232 0.535874 0.114228
O O14 0.074554 0.339135 0.080697
O O15 0.321521 0.365506 0.066865
O O16 0.250000 0.750000 0.149066
O O17 0.446075 0.639119 0.113900
#
# Coordination Sequence:
#
# PCOD9355581 Si02
#       8
#     8   8   8   8   8   8   8   8
#     4   9  18  35  60  89 123 160 197 244 303 367
#     4  11  24  39  60  92 123 156 201 257 317 372
#     4  11  24  39  60  92 123 156 201 257 317 372
#     4  11  25  45  63  83 119 167 211 256 307 364
#     4   9  18  35  60  89 123 160 197 244 303 367
#     4   9  20  39  63  91 122 161 206 252 308 371
#     4  11  25  41  61  89 123 163 207 258 309 362
#     4   9  20  39  63  91 122 161 206 252 308 371
#
# _framework density 22.601044000000002
#
# number of rings (size 3 to 8) (size 9 to 14) (size 15 to 20)
#    0.000    2.000    1.250    3.000    1.750    6.500 
#    0.000    7.500    0.000    0.000    0.000    0.000 
#    0.000    0.000    0.000    0.000    0.000    0.000 
#
# Total GULP energy -178903.361366 kJ/mol
# GULP energy per Si atom -5590.730043 kJ/mol
# Density = 2.254960 g / cm^3
# Si number density = 22.601044 Si / 1000 Ang^3
#
#
#
# Elastic Constant Matrix: (Units=GPa)
#
#
# Indices 1 2 3 4 5 6 
#
# 1 57.3615 7.5177 16.9753 0.0000 0.0000 0.0000
# 2 7.5177 97.2669 44.2001 0.0000 0.0000 0.0000
# 3 16.9753 44.2001 126.0909 0.0000 0.0000 0.0000
# 4 0.0000 0.0000 0.0000 28.5871 0.0000 0.0000
# 5 0.0000 0.0000 0.0000 0.0000 -167.4662 0.0000
# 6 0.0000 0.0000 0.0000 0.0000 0.0000 27.2982
#
#
#
# Elastic Compliance Matrix: (Units=1/GPa)
#
#
# Indices 1 2 3 4 5 6 
#
# 1 0.018167 -0.000348 -0.002324 0.000000 0.000000 0.000000
# 2 -0.000348 0.012236 -0.004242 0.000000 0.000000 0.000000
# 3 -0.002324 -0.004242 0.009731 0.000000 0.000000 0.000000
# 4 0.000000 0.000000 0.000000 0.034981 0.000000 0.000000
# 5 0.000000 0.000000 0.000000 0.000000 -0.005971 0.000000
# 6 0.000000 0.000000 0.000000 0.000000 0.000000 0.036632
#
#
# Mechanical properties :
#
#
# Convention : Reuss Voigt Hill
#
# Bulk Modulus (GPa) = 38.01589 46.45617 42.23603
# Shear Modulus (GPa) = 38.94950 -8.18112 15.38419
#
# Velocity S-wave (km/s) = 4.15583 -1.90464 2.61182
# Velocity P-wave (km/s) = 6.31544 3.97022 5.27482
#
# Compressibility (1/GPa) = 0.02630479
#
# Stress axis : x y z
#
# Youngs Moduli (GPa) = 55.04612 81.72837 102.76759
#
# Poissons Ratio (x) = 0.02845 0.23880
# Poissons Ratio (y) = 0.01917 0.43596
# Poissons Ratio (z) = 0.12791 0.34671
#
# Static dielectric constant tensor:
#      x y z
#    x 1.845000 0.000000 0.000000 
#    y 0.000000 1.892580 0.000000 
#    z 0.000000 0.000000 1.819900 
# 
# From -- ./inp_files/18771.got.cif
#   From: 2010.05.17/outbox.cif.g08.bks.cpg/sg37_10_cif.got.tgz:18771.got - 2010.06.03 17:53:42.
