data_PCOD9355734
_publ_section_title
;
Structure prediction by ZEFSAII (Michael W. Deem and Ramdas Pophale) SiO2 
 PCOD9355734
Probable space group: C C C 2
;
_chemical_formula_sum "Si O2"
_cell_formula_units_Z 32
_cell_length_a 11.209517
_cell_length_b 12.071352
_cell_length_c 9.565010
_cell_angle_alpha 90.000000
_cell_angle_beta 90.000000
_cell_angle_gamma 90.000000
_cell_volume 1294.280007
_symmetry_space_group_name_H-M "C C C 2"
_symmetry_group_IT_number 37
_symmetry_cell_setting 'orthorhombic'
loop_
_space_group_symop_operation_xyz
x,y,z
-x,-y,z
-x,y,1/2+z
x,-y,1/2+z
1/2+x,1/2+y,z
1/2-x,1/2-y,z
1/2-x,1/2+y,1/2+z
1/2+x,1/2-y,1/2+z
loop_
_atom_site_type_symbol
_atom_site_label
_atom_site_fract_x
_atom_site_fract_y
_atom_site_fract_z
Si Si1 0.880614 0.191694 0.033190
Si Si2 0.366438 0.026265 0.766067
Si Si3 0.218605 0.034467 0.009601
Si Si4 0.411445 0.273440 0.841103
O O1 0.750000 0.250000 0.030830
O O2 0.932018 0.172385 0.189999
O O3 0.869778 0.066103 0.980009
O O4 0.971422 0.253959 0.930837
O O5 0.356323 0.159248 0.780270
O O6 0.500000 0.000000 0.722210
O O7 0.267091 0.970551 0.667463
O O8 0.336302 0.996575 0.924308
O O9 0.162846 0.146917 0.946866
#
# Coordination Sequence:
#
# PCOD9355734 Si02
#       4
#     8   8   8   8
#     4  12  26  52  77 120 166 213 278 351 425 512
#     4  12  27  50  79 121 166 225 286 351 430 505
#     4  12  25  49  81 112 171 216 283 356 420 514
#     4  12  28  51  81 116 166 218 278 355 424 508
#
# _framework density 24.724171999999999
#
# number of rings (size 3 to 8) (size 9 to 14) (size 15 to 20)
#    0.000    0.000    5.000    3.750    7.000    2.000 
#    0.000    0.000    0.000    0.000    0.000    0.000 
#    0.000    0.000    0.000    0.000    0.000    0.000 
#
# Total GULP energy -89252.454498 kJ/mol
# GULP energy per Si atom -5578.278406 kJ/mol
# Density = 2.466790 g / cm^3
# Si number density = 24.724172 Si / 1000 Ang^3
#
#
#
# Elastic Constant Matrix: (Units=GPa)
#
#
# Indices 1 2 3 4 5 6 
#
# 1 111.0423 21.2987 51.1788 0.0000 0.0000 0.0000
# 2 21.2987 118.6598 17.5244 0.0000 0.0000 0.0000
# 3 51.1788 17.5244 109.8860 0.0000 0.0000 0.0000
# 4 0.0000 0.0000 0.0000 19.2107 0.0000 0.0000
# 5 0.0000 0.0000 0.0000 0.0000 44.6193 0.0000
# 6 0.0000 0.0000 0.0000 0.0000 0.0000 40.3851
#
#
#
# Elastic Compliance Matrix: (Units=1/GPa)
#
#
# Indices 1 2 3 4 5 6 
#
# 1 0.011666 -0.001323 -0.005223 0.000000 0.000000 0.000000
# 2 -0.001323 0.008781 -0.000784 0.000000 0.000000 0.000000
# 3 -0.005223 -0.000784 0.011658 0.000000 0.000000 0.000000
# 4 0.000000 0.000000 0.000000 0.052054 0.000000 0.000000
# 5 0.000000 0.000000 0.000000 0.000000 0.022412 0.000000
# 6 0.000000 0.000000 0.000000 0.000000 0.000000 0.024762
#
#
# Mechanical properties :
#
#
# Convention : Reuss Voigt Hill
#
# Bulk Modulus (GPa) = 57.32083 57.73243 57.52663
# Shear Modulus (GPa) = 32.93654 37.48210 35.20932
#
# Velocity S-wave (km/s) = 3.65384 3.89782 3.77780
# Velocity P-wave (km/s) = 6.40587 6.60747 6.50745
#
# Compressibility (1/GPa) = 0.01744567
#
# Stress axis : x y z
#
# Youngs Moduli (GPa) = 85.71666 113.88610 85.77948
#
# Poissons Ratio (x) = 0.15064 0.44799
# Poissons Ratio (y) = 0.11338 0.06727
# Poissons Ratio (z) = 0.44766 0.08932
#
# Static dielectric constant tensor:
#      x y z
#    x 2.088570 0.000000 0.000000 
#    y 0.000000 2.038920 0.000000 
#    z 0.000000 0.000000 1.972150 
# 
# From -- ./inp_files/2627.got.cif
#   From: 2010.05.17/outbox.cif.g08.bks.cpg/sg37_2_cif.got.tgz:2627.got - 2010.06.03 17:53:42.
