data_PCOD9355823
_publ_section_title
;
Structure prediction by ZEFSAII (Michael W. Deem and Ramdas Pophale) SiO2 
 PCOD9355823
Probable space group: A M M 2
;
_chemical_formula_sum "Si O2"
_cell_formula_units_Z 34
_cell_length_a 11.345326
_cell_length_b 18.013216
_cell_length_c 7.866088
_cell_angle_alpha 90.000000
_cell_angle_beta 90.000000
_cell_angle_gamma 90.000000
_cell_volume 1607.559429
_symmetry_space_group_name_H-M "A M M 2"
_symmetry_group_IT_number 38
_symmetry_cell_setting 'orthorhombic'
loop_
_space_group_symop_operation_xyz
x,y,z
-x,-y,z
-x,y,z
x,-y,z
x,1/2+y,1/2+z
-x,1/2-y,1/2+z
-x,1/2+y,1/2+z
x,1/2-y,1/2+z
loop_
_atom_site_type_symbol
_atom_site_label
_atom_site_fract_x
_atom_site_fract_y
_atom_site_fract_z
Si Si1 0.258715 0.584593 0.309770
Si Si2 0.000000 0.763392 0.053041
Si Si3 0.363106 0.910391 0.457521
Si Si4 0.000000 0.000000 0.165342
Si Si5 0.000000 0.628863 0.228708
Si Si6 0.805421 0.134790 0.162251
O O1 0.295416 0.500000 0.342998
O O2 0.265727 0.628229 0.485398
O O3 0.120429 0.584856 0.253468
O O4 0.330607 0.613395 0.148907
O O5 0.000000 0.674596 0.053204
O O6 0.883546 0.791449 0.150424
O O7 0.000000 0.809926 0.879427
O O8 0.500000 0.897491 0.421444
O O9 0.278360 0.871638 0.322909
O O10 0.341763 0.000000 0.448952
O O11 0.897009 0.065518 0.163024
#
# Coordination Sequence:
#
# PCOD9355823 Si02
#       6
#     8   4   8   2   4   8
#     4  10  20  34  56  83 112 144 178 228 276 329
#     4   9  22  33  53  84 109 144 180 220 282 341
#     4  10  21  35  53  82 111 146 190 227 272 323
#     4  10  16  30  54  78 106 136 176 210 274 330
#     4  10  21  35  53  84 114 141 177 224 280 343
#     4  10  19  35  54  78 114 144 178 226 271 331
#
# _framework density 21.150072999999999
#
# number of rings (size 3 to 8) (size 9 to 14) (size 15 to 20)
#    0.000    2.118    2.353    1.059    3.294    1.882 
#    0.000    2.353    0.000    1.412    0.000    0.000 
#    0.000    0.000    0.000    0.000    0.000    0.000 
#
# Total GULP energy -94721.107934 kJ/mol
# GULP energy per Si atom -5571.829878 kJ/mol
# Density = 2.110193 g / cm^3
# Si number density = 21.150073 Si / 1000 Ang^3
#
#
#
# Elastic Constant Matrix: (Units=GPa)
#
#
# Indices 1 2 3 4 5 6 
#
# 1 60.9212 -3.4704 51.0656 0.0000 0.0000 0.0000
# 2 -3.4704 32.7798 16.1491 0.0000 0.0000 0.0000
# 3 51.0656 16.1491 114.8675 0.0000 0.0000 0.0000
# 4 0.0000 0.0000 0.0000 22.8683 0.0000 0.0000
# 5 0.0000 0.0000 0.0000 0.0000 17.6903 0.0000
# 6 0.0000 0.0000 0.0000 0.0000 0.0000 12.2379
#
#
#
# Elastic Compliance Matrix: (Units=1/GPa)
#
#
# Indices 1 2 3 4 5 6 
#
# 1 0.028984 0.010117 -0.014307 0.000000 0.000000 0.000000
# 2 0.010117 0.036308 -0.009602 0.000000 0.000000 0.000000
# 3 -0.014307 -0.009602 0.016416 0.000000 0.000000 0.000000
# 4 0.000000 0.000000 0.000000 0.043729 0.000000 0.000000
# 5 0.000000 0.000000 0.000000 0.000000 0.056528 0.000000
# 6 0.000000 0.000000 0.000000 0.000000 0.000000 0.081713
#
#
# Mechanical properties :
#
#
# Convention : Reuss Voigt Hill
#
# Bulk Modulus (GPa) = 18.47632 37.33968 27.90800
# Shear Modulus (GPa) = 16.16528 20.21424 18.18976
#
# Velocity S-wave (km/s) = 2.76762 3.09488 2.93581
# Velocity P-wave (km/s) = 4.35520 5.51942 4.97151
#
# Compressibility (1/GPa) = 0.05412333
#
# Stress axis : x y z
#
# Youngs Moduli (GPa) = 34.50192 27.54189 60.91537
#
# Poissons Ratio (x) = -0.27865 0.87155
# Poissons Ratio (y) = -0.34906 0.58493
# Poissons Ratio (z) = 0.49364 0.26447
#
# Static dielectric constant tensor:
#      x y z
#    x 1.718310 0.000000 0.000000 
#    y 0.000000 1.732700 0.000000 
#    z 0.000000 0.000000 1.829880 
# 
# From -- ./inp_files/3171.got.cif
#   From: 2010.05.17/outbox.cif.g08.bks.cpg/sg38_2_cif.got.tgz:3171.got - 2010.06.03 18:07:57.
