data_PCOD9355850
_publ_section_title
;
Structure prediction by ZEFSAII (Michael W. Deem and Ramdas Pophale) SiO2 
 PCOD9355850
Probable space group: A M M 2
;
_chemical_formula_sum "Si O2"
_cell_formula_units_Z 64
_cell_length_a 14.775016
_cell_length_b 7.412364
_cell_length_c 32.662585
_cell_angle_alpha 90.000000
_cell_angle_beta 90.000000
_cell_angle_gamma 90.000000
_cell_volume 3577.134344
_symmetry_space_group_name_H-M "A M M 2"
_symmetry_group_IT_number 38
_symmetry_cell_setting 'orthorhombic'
loop_
_space_group_symop_operation_xyz
x,y,z
-x,-y,z
-x,y,z
x,-y,z
x,1/2+y,1/2+z
-x,1/2-y,1/2+z
-x,1/2+y,1/2+z
x,1/2-y,1/2+z
loop_
_atom_site_type_symbol
_atom_site_label
_atom_site_fract_x
_atom_site_fract_y
_atom_site_fract_z
Si Si1 0.105383 0.220919 0.774880
Si Si2 0.794744 0.711748 0.355443
Si Si3 0.216982 0.287936 0.018737
Si Si4 0.895591 0.218160 0.936922
Si Si5 0.399518 0.717123 0.885227
Si Si6 0.104930 0.778609 0.596032
Si Si7 0.398786 0.279758 0.979767
Si Si8 0.109889 0.289581 0.185620
O O1 0.163753 0.284205 0.813371
O O2 0.137227 0.285020 0.729926
O O3 0.000000 0.270115 0.780727
O O4 0.107631 0.000000 0.773438
O O5 0.817243 0.500000 0.355245
O O6 0.841245 0.784683 0.396890
O O7 0.686999 0.728595 0.359134
O O8 0.229776 0.500000 0.026749
O O9 0.166237 0.214929 0.058566
O O10 0.154347 0.271762 0.978595
O O11 0.315551 0.214055 0.006907
O O12 0.000000 0.277456 0.936116
O O13 0.895280 0.000000 0.936208
O O14 0.500000 0.778319 0.872249
O O15 0.401002 0.500000 0.885649
O O16 0.385264 0.776062 0.932412
O O17 0.136415 0.716228 0.641145
O O18 0.000000 0.726271 0.589854
O O19 0.105098 0.000000 0.596580
O O20 0.500000 0.225618 0.992414
O O21 0.396972 0.500000 0.979659
O O22 0.136525 0.500000 0.185474
O O23 0.000000 0.283480 0.185791
#
# Coordination Sequence:
#
# PCOD9355850 Si02
#       8
#     8   8   8   8   8   8   8   8
#     4   8  13  22  37  56  79 109 139 162 191 235
#     4  10  18  27  41  61  81 103 135 170 197 226
#     4  10  17  26  42  60  77 102 137 169 195 229
#     4  10  20  30  37  51  82 115 134 154 190 234
#     4   9  17  30  45  58  76 104 135 167 203 241
#     4   8  13  20  32  55  82 101 124 164 202 227
#     4   8  14  25  40  56  74  98 129 164 199 231
#     4   7  10  18  32  51  77 104 128 159 198 233
#
# _framework density 17.891417000000001
#
# number of rings (size 3 to 8) (size 9 to 14) (size 15 to 20)
#    0.000    3.250    1.250    3.000    0.000    2.500 
#    0.000    0.000    0.000    1.500    0.000    1.750 
#    0.000    8.000    0.000    0.000    0.000    0.125 
#
# Total GULP energy -178320.875842 kJ/mol
# GULP energy per Si atom -5572.527370 kJ/mol
# Density = 1.785070 g / cm^3
# Si number density = 17.891417 Si / 1000 Ang^3
#
#
#
# Elastic Constant Matrix: (Units=GPa)
#
#
# Indices 1 2 3 4 5 6 
#
# 1 119.4984 -3.9399 88.9763 0.0000 0.0000 0.0000
# 2 -3.9399 55.3399 3.0993 0.0000 0.0000 0.0000
# 3 88.9763 3.0993 176.9955 0.0000 0.0000 0.0000
# 4 0.0000 0.0000 0.0000 3.4329 0.0000 0.0000
# 5 0.0000 0.0000 0.0000 0.0000 10.5619 0.0000
# 6 0.0000 0.0000 0.0000 0.0000 0.0000 11.6087
#
#
#
# Elastic Compliance Matrix: (Units=1/GPa)
#
#
# Indices 1 2 3 4 5 6 
#
# 1 0.013473 0.001340 -0.006796 0.000000 0.000000 0.000000
# 2 0.001340 0.018221 -0.000993 0.000000 0.000000 0.000000
# 3 -0.006796 -0.000993 0.009084 0.000000 0.000000 0.000000
# 4 0.000000 0.000000 0.000000 0.291300 0.000000 0.000000
# 5 0.000000 0.000000 0.000000 0.000000 0.094680 0.000000
# 6 0.000000 0.000000 0.000000 0.000000 0.000000 0.086142
#
#
# Mechanical properties :
#
#
# Convention : Reuss Voigt Hill
#
# Bulk Modulus (GPa) = 35.86853 58.67834 47.27344
# Shear Modulus (GPa) = 9.34420 22.70058 16.02239
#
# Velocity S-wave (km/s) = 2.28781 3.56588 2.99580
# Velocity P-wave (km/s) = 5.20290 7.05848 6.20050
#
# Compressibility (1/GPa) = 0.02787959
#
# Stress axis : x y z
#
# Youngs Moduli (GPa) = 74.22294 54.88137 110.08621
#
# Poissons Ratio (x) = -0.07353 0.74818
# Poissons Ratio (y) = -0.09945 0.10927
# Poissons Ratio (z) = 0.50444 0.05448
#
# Static dielectric constant tensor:
#      x y z
#    x 1.595020 0.000000 0.000000 
#    y 0.000000 1.725720 0.000000 
#    z 0.000000 0.000000 1.626490 
# 
# From -- ./inp_files/25077.got.cif
#   From: 2010.05.17/outbox.cif.g08.bks.cpg/sg38_13_cif.got.tgz:25077.got - 2010.06.03 18:07:57.
