data_PCOD9355395
_publ_section_title
;
Structure prediction by ZEFSAII (Michael W. Deem and Ramdas Pophale) SiO2 
 PCOD9355395
Probable space group: C C C 2
;
_chemical_formula_sum "Si O2"
_cell_formula_units_Z 40
_cell_length_a 20.167180
_cell_length_b 8.213497
_cell_length_c 10.399302
_cell_angle_alpha 90.000000
_cell_angle_beta 90.000000
_cell_angle_gamma 90.000000
_cell_volume 1722.572334
_symmetry_space_group_name_H-M "C C C 2"
_symmetry_group_IT_number 37
_symmetry_cell_setting 'orthorhombic'
loop_
_space_group_symop_operation_xyz
x,y,z
-x,-y,z
-x,y,1/2+z
x,-y,1/2+z
1/2+x,1/2+y,z
1/2-x,1/2-y,z
1/2-x,1/2+y,1/2+z
1/2+x,1/2-y,1/2+z
loop_
_atom_site_type_symbol
_atom_site_label
_atom_site_fract_x
_atom_site_fract_y
_atom_site_fract_z
Si Si1 0.954216 0.354032 0.121590
Si Si2 0.426865 0.652936 0.531484
Si Si3 0.106035 0.940382 0.271600
Si Si4 0.664357 0.043892 0.495669
Si Si5 0.745104 0.054157 0.749330
O O1 0.920367 0.236036 0.225773
O O2 0.896506 0.427725 0.033856
O O3 0.000000 0.500000 0.178802
O O4 0.005837 0.253543 0.035648
O O5 0.420769 0.530081 0.413857
O O6 0.421179 0.566323 0.667634
O O7 0.365319 0.775496 0.511546
O O8 0.184891 0.965539 0.269869
O O9 0.719512 0.020333 0.605657
O O10 0.693722 0.009202 0.356216
O O11 0.750000 0.250000 0.765456
#
# Coordination Sequence:
#
# PCOD9355395 Si02
#       5
#     8   8   8   8   8
#     4  10  26  47  75 108 148 196 250 314 382 453
#     4  11  26  49  72 109 149 195 255 311 376 457
#     4  12  26  46  77 107 149 197 251 313 381 444
#     4  11  26  49  75 109 150 195 251 311 384 457
#     4  12  27  47  77 111 154 194 257 313 381 465
#
# _framework density 23.221084999999999
#
# number of rings (size 3 to 8) (size 9 to 14) (size 15 to 20)
#    0.000    0.800    2.000    3.000    5.600   10.400 
#    0.000    0.000    0.000    0.000    0.000    0.000 
#    0.000    0.000    0.000    0.000    0.000    0.000 
#
# Total GULP energy -112102.883736 kJ/mol
# GULP energy per Si atom -5605.144187 kJ/mol
# Density = 2.316823 g / cm^3
# Si number density = 23.221085 Si / 1000 Ang^3
#
#
#
# Elastic Constant Matrix: (Units=GPa)
#
#
# Indices 1 2 3 4 5 6 
#
# 1 118.5047 39.9157 -1.0291 0.0000 0.0000 0.0000
# 2 39.9157 72.0990 9.3797 0.0000 0.0000 0.0000
# 3 -1.0291 9.3797 74.9499 0.0000 0.0000 0.0000
# 4 0.0000 0.0000 0.0000 31.7501 0.0000 0.0000
# 5 0.0000 0.0000 0.0000 0.0000 14.0469 0.0000
# 6 0.0000 0.0000 0.0000 0.0000 0.0000 53.7215
#
#
#
# Elastic Compliance Matrix: (Units=1/GPa)
#
#
# Indices 1 2 3 4 5 6 
#
# 1 0.010430 -0.005889 0.000880 0.000000 0.000000 0.000000
# 2 -0.005889 0.017424 -0.002261 0.000000 0.000000 0.000000
# 3 0.000880 -0.002261 0.013637 0.000000 0.000000 0.000000
# 4 0.000000 0.000000 0.000000 0.031496 0.000000 0.000000
# 5 0.000000 0.000000 0.000000 0.000000 0.071190 0.000000
# 6 0.000000 0.000000 0.000000 0.000000 0.000000 0.018615
#
#
# Mechanical properties :
#
#
# Convention : Reuss Voigt Hill
#
# Bulk Modulus (GPa) = 37.10398 40.23182 38.66790
# Shear Modulus (GPa) = 26.83627 34.38951 30.61289
#
# Velocity S-wave (km/s) = 3.40323 3.85250 3.63481
# Velocity P-wave (km/s) = 5.60855 6.09526 5.85696
#
# Compressibility (1/GPa) = 0.02695129
#
# Stress axis : x y z
#
# Youngs Moduli (GPa) = 95.88145 57.39194 73.32810
#
# Poissons Ratio (x) = 0.33795 -0.06454
# Poissons Ratio (y) = 0.56460 0.16582
# Poissons Ratio (z) = -0.08439 0.12979
#
# Static dielectric constant tensor:
#      x y z
#    x 1.867240 0.000000 0.000000 
#    y 0.000000 1.909870 0.000000 
#    z 0.000000 0.000000 1.820520 
# 
# From -- ./inp_files/6134.got.cif
#   From: 2010.05.17/outbox.cif.g08.bks.cpg/sg37_4_cif.got.tgz:6134.got - 2010.06.03 17:53:42.
