data_PCOD9355472
_publ_section_title
;
Structure prediction by ZEFSAII (Michael W. Deem and Ramdas Pophale) SiO2 
 PCOD9355472
Probable space group: C C C 2
;
_chemical_formula_sum "Si O2"
_cell_formula_units_Z 60
_cell_length_a 16.246608
_cell_length_b 11.338049
_cell_length_c 16.821880
_cell_angle_alpha 90.000000
_cell_angle_beta 90.000000
_cell_angle_gamma 90.000000
_cell_volume 3098.671673
_symmetry_space_group_name_H-M "C C C 2"
_symmetry_group_IT_number 37
_symmetry_cell_setting 'orthorhombic'
loop_
_space_group_symop_operation_xyz
x,y,z
-x,-y,z
-x,y,1/2+z
x,-y,1/2+z
1/2+x,1/2+y,z
1/2-x,1/2-y,z
1/2-x,1/2+y,1/2+z
1/2+x,1/2-y,1/2+z
loop_
_atom_site_type_symbol
_atom_site_label
_atom_site_fract_x
_atom_site_fract_y
_atom_site_fract_z
Si Si1 0.562616 0.667013 0.238640
Si Si2 0.403761 0.026891 0.960981
Si Si3 0.615983 0.587732 0.777584
Si Si4 0.684468 0.353906 0.604220
Si Si5 0.250000 0.250000 0.694385
Si Si6 0.678830 0.969175 0.631733
Si Si7 0.342396 0.286195 0.929835
Si Si8 0.412275 0.932530 0.790569
O O1 0.466809 0.634411 0.235470
O O2 0.610951 0.554026 0.275346
O O3 0.602716 0.674965 0.151877
O O4 0.575930 0.791916 0.281745
O O5 0.389321 0.164872 0.945695
O O6 0.500000 0.000000 0.969192
O O7 0.374595 0.964298 0.877848
O O8 0.361970 0.997074 0.046036
O O9 0.695218 0.656445 0.743508
O O10 0.611914 0.634000 0.867043
O O11 0.750000 0.250000 0.620575
O O12 0.730862 0.472069 0.628564
O O13 0.668224 0.354680 0.511515
O O14 0.311737 0.169937 0.643721
O O15 0.634927 0.021504 0.711168
O O16 0.250000 0.250000 0.903754
O O17 0.500000 0.000000 0.789346
#
# Coordination Sequence:
#
# PCOD9355472 Si02
#       8
#     8   8   8   8   4   8   8   8
#     4  11  23  44  64  98 131 170 219 272 331 401
#     4  11  23  40  65 100 131 167 226 282 325 391
#     4  11  24  41  68  95 131 174 222 270 332 401
#     4  11  21  42  68  93 128 173 225 261 328 406
#     4  12  24  40  64  96 130 172 220 272 336 394
#     4  12  23  41  65  96 129 176 218 272 333 398
#     4  11  21  41  69  92 128 179 225 263 329 418
#     4  11  23  41  68  96 131 170 218 273 339 393
#
# _framework density 19.363136000000001
#
# number of rings (size 3 to 8) (size 9 to 14) (size 15 to 20)
#    0.000    0.800    6.000    3.600    0.000    1.067 
#    2.400    2.667    0.000    0.000    0.000    0.000 
#    0.000    0.000    0.000    0.000    0.000    0.000 
#
# Total GULP energy -167369.643385 kJ/mol
# GULP energy per Si atom -5578.988113 kJ/mol
# Density = 1.931906 g / cm^3
# Si number density = 19.363136 Si / 1000 Ang^3
#
#
#
# Elastic Constant Matrix: (Units=GPa)
#
#
# Indices 1 2 3 4 5 6 
#
# 1 73.9382 20.8260 37.1498 0.0000 0.0000 0.0000
# 2 20.8260 128.0653 52.5798 0.0000 0.0000 0.0000
# 3 37.1498 52.5798 123.6842 0.0000 0.0000 0.0000
# 4 0.0000 0.0000 0.0000 22.6691 0.0000 0.0000
# 5 0.0000 0.0000 0.0000 0.0000 30.5066 0.0000
# 6 0.0000 0.0000 0.0000 0.0000 0.0000 33.0133
#
#
#
# Elastic Compliance Matrix: (Units=1/GPa)
#
#
# Indices 1 2 3 4 5 6 
#
# 1 0.015990 -0.000761 -0.004479 0.000000 0.000000 0.000000
# 2 -0.000761 0.009496 -0.003808 0.000000 0.000000 0.000000
# 3 -0.004479 -0.003808 0.011049 0.000000 0.000000 0.000000
# 4 0.000000 0.000000 0.000000 0.044113 0.000000 0.000000
# 5 0.000000 0.000000 0.000000 0.000000 0.032780 0.000000
# 6 0.000000 0.000000 0.000000 0.000000 0.000000 0.030291
#
#
# Mechanical properties :
#
#
# Convention : Reuss Voigt Hill
#
# Bulk Modulus (GPa) = 54.23604 60.75543 57.49573
# Shear Modulus (GPa) = 29.76875 31.57994 30.67434
#
# Velocity S-wave (km/s) = 3.92521 4.04286 3.98447
# Velocity P-wave (km/s) = 6.97236 7.29643 7.13624
#
# Compressibility (1/GPa) = 0.01843792
#
# Stress axis : x y z
#
# Youngs Moduli (GPa) = 62.54023 105.30942 90.50329
#
# Poissons Ratio (x) = 0.08017 0.40537
# Poissons Ratio (y) = 0.04761 0.34465
# Poissons Ratio (z) = 0.28012 0.40103
#
# Static dielectric constant tensor:
#      x y z
#    x 1.696440 0.000000 0.000000 
#    y 0.000000 1.695110 0.000000 
#    z 0.000000 0.000000 1.693290 
# 
# From -- ./inp_files/12666.got.cif
#   From: 2010.05.17/outbox.cif.g08.bks.cpg/sg37_7_cif.got.tgz:12666.got - 2010.06.03 17:53:42.
