data_PCOD9355195
_publ_section_title
;
Structure prediction by ZEFSAII (Michael W. Deem and Ramdas Pophale) SiO2 
 PCOD9355195
Probable space group: C C C 2
;
_chemical_formula_sum "Si O2"
_cell_formula_units_Z 40
_cell_length_a 7.614265
_cell_length_b 26.523407
_cell_length_c 9.748869
_cell_angle_alpha 90.000000
_cell_angle_beta 90.000000
_cell_angle_gamma 90.000000
_cell_volume 1968.845021
_symmetry_space_group_name_H-M "C C C 2"
_symmetry_group_IT_number 37
_symmetry_cell_setting 'orthorhombic'
loop_
_space_group_symop_operation_xyz
x,y,z
-x,-y,z
-x,y,1/2+z
x,-y,1/2+z
1/2+x,1/2+y,z
1/2-x,1/2-y,z
1/2-x,1/2+y,1/2+z
1/2+x,1/2-y,1/2+z
loop_
_atom_site_type_symbol
_atom_site_label
_atom_site_fract_x
_atom_site_fract_y
_atom_site_fract_z
Si Si1 0.820232 0.939258 0.908150
Si Si2 0.678075 0.806002 0.242278
Si Si3 0.535019 0.144912 0.467173
Si Si4 0.706483 0.988802 0.180589
Si Si5 0.695194 0.397970 0.880062
O O1 0.678457 0.894669 0.914890
O O2 0.012212 0.917344 0.935436
O O3 0.807515 0.967638 0.763080
O O4 0.770986 0.978955 0.027008
O O5 0.750000 0.750000 0.233876
O O6 0.522238 0.814518 0.352718
O O7 0.824584 0.844818 0.300214
O O8 0.606259 0.827548 0.100169
O O9 0.353408 0.112987 0.486605
O O10 0.735790 0.937844 0.268049
O O11 0.500000 0.000000 0.179916
#
# Coordination Sequence:
#
# PCOD9355195 Si02
#       5
#     8   8   8   8   8
#     4  12  25  45  71 102 143 193 233 292 351 425
#     4  10  23  48  75 105 137 184 237 290 362 421
#     4  10  23  48  73  97 148 183 227 302 353 417
#     4  12  24  44  68 100 144 191 237 287 353 420
#     4  10  25  44  68 103 140 184 243 287 350 424
#
# _framework density 20.316481
#
# number of rings (size 3 to 8) (size 9 to 14) (size 15 to 20)
#    1.200    0.000    4.000    1.200    0.000    6.400 
#    0.000    1.000    0.000    0.000    0.000    0.000 
#    0.000    0.000    0.000    0.000    0.000    0.000 
#
# Total GULP energy -111750.582176 kJ/mol
# GULP energy per Si atom -5587.529109 kJ/mol
# Density = 2.027024 g / cm^3
# Si number density = 20.316481 Si / 1000 Ang^3
#
#
#
# Elastic Constant Matrix: (Units=GPa)
#
#
# Indices 1 2 3 4 5 6 
#
# 1 131.4273 66.4947 18.1913 0.0000 0.0000 0.0000
# 2 66.4947 108.9039 35.1425 0.0000 0.0000 0.0000
# 3 18.1913 35.1425 76.2704 0.0000 0.0000 0.0000
# 4 0.0000 0.0000 0.0000 20.9713 0.0000 0.0000
# 5 0.0000 0.0000 0.0000 0.0000 12.2313 0.0000
# 6 0.0000 0.0000 0.0000 0.0000 0.0000 31.9045
#
#
#
# Elastic Compliance Matrix: (Units=1/GPa)
#
#
# Indices 1 2 3 4 5 6 
#
# 1 0.011030 -0.006914 0.000555 0.000000 0.000000 0.000000
# 2 -0.006914 0.015120 -0.005318 0.000000 0.000000 0.000000
# 3 0.000555 -0.005318 0.015429 0.000000 0.000000 0.000000
# 4 0.000000 0.000000 0.000000 0.047684 0.000000 0.000000
# 5 0.000000 0.000000 0.000000 0.000000 0.081758 0.000000
# 6 0.000000 0.000000 0.000000 0.000000 0.000000 0.031344
#
#
# Mechanical properties :
#
#
# Convention : Reuss Voigt Hill
#
# Bulk Modulus (GPa) = 54.86744 61.80650 58.33697
# Shear Modulus (GPa) = 21.57103 26.13962 23.85532
#
# Velocity S-wave (km/s) = 3.26199 3.59084 3.43036
# Velocity P-wave (km/s) = 6.42280 6.90508 6.66830
#
# Compressibility (1/GPa) = 0.01822575
#
# Stress axis : x y z
#
# Youngs Moduli (GPa) = 90.66264 66.13879 64.81271
#
# Poissons Ratio (x) = 0.45726 -0.03596
# Poissons Ratio (y) = 0.62681 0.34465
# Poissons Ratio (z) = -0.05030 0.35170
#
# Static dielectric constant tensor:
#      x y z
#    x 1.708260 0.000000 0.000000 
#    y 0.000000 1.711690 0.000000 
#    z 0.000000 0.000000 1.724590 
# 
# From -- ./inp_files/2290.got.cif
#   From: 2010.05.17/outbox.cif.g08.bks.cpg/sg37_2_cif.got.tgz:2290.got - 2010.06.03 17:53:42.
