data_PCOD9355217
_publ_section_title
;
Structure prediction by ZEFSAII (Michael W. Deem and Ramdas Pophale) SiO2 
 PCOD9355217
Probable space group: C C C 2
;
_chemical_formula_sum "Si O2"
_cell_formula_units_Z 48
_cell_length_a 14.445711
_cell_length_b 6.104563
_cell_length_c 24.971151
_cell_angle_alpha 90.000000
_cell_angle_beta 90.000000
_cell_angle_gamma 90.000000
_cell_volume 2202.074780
_symmetry_space_group_name_H-M "C C C 2"
_symmetry_group_IT_number 37
_symmetry_cell_setting 'orthorhombic'
loop_
_space_group_symop_operation_xyz
x,y,z
-x,-y,z
-x,y,1/2+z
x,-y,1/2+z
1/2+x,1/2+y,z
1/2-x,1/2-y,z
1/2-x,1/2+y,1/2+z
1/2+x,1/2-y,1/2+z
loop_
_atom_site_type_symbol
_atom_site_label
_atom_site_fract_x
_atom_site_fract_y
_atom_site_fract_z
Si Si1 0.750000 0.750000 0.687431
Si Si2 0.042304 0.746145 0.819039
Si Si3 0.848072 0.139013 0.715872
Si Si4 0.750000 0.250000 0.437350
Si Si5 0.896161 0.093335 0.924053
Si Si6 0.606767 0.042085 0.002025
Si Si7 0.394860 0.059747 0.127795
O O1 0.674289 0.615991 0.720866
O O2 0.813182 0.587725 0.652705
O O3 0.085743 0.767823 0.760473
O O4 0.101534 0.741502 0.874035
O O5 0.000000 0.500000 0.819302
O O6 0.000000 0.000000 0.824428
O O7 0.750000 0.250000 0.726261
O O8 0.878425 0.203488 0.655501
O O9 0.680122 0.413937 0.408089
O O10 0.820744 0.387614 0.473109
O O11 0.871370 0.214892 0.979774
O O12 0.000000 0.000000 0.932526
O O13 0.500000 0.000000 0.985094
O O14 0.611270 0.982102 0.064555
O O15 0.500000 0.000000 0.143460
#
# Coordination Sequence:
#
# PCOD9355217 Si02
#       7
#     4   8   8   4   8   8   8
#     4  10  24  41  66 102 146 181 242 312 358 456
#     4  11  27  47  80 106 147 201 246 317 379 451
#     4  10  24  43  67 103 145 186 251 304 368 458
#     4  12  26  41  78 102 146 197 240 312 384 444
#     4  11  25  48  71 108 150 192 254 313 376 461
#     4  11  24  45  71 104 148 191 252 306 377 455
#     4  10  24  42  67  99 140 193 240 305 375 439
#
# _framework density 21.797626000000001
#
# number of rings (size 3 to 8) (size 9 to 14) (size 15 to 20)
#    0.000    1.333    1.667    1.500   15.167    2.000 
#    0.000    0.000    0.000    0.000    0.000    0.000 
#    0.000    0.000    0.000    0.000    0.000    0.000 
#
# Total GULP energy -133627.484822 kJ/mol
# GULP energy per Si atom -5567.811868 kJ/mol
# Density = 2.174801 g / cm^3
# Si number density = 21.797626 Si / 1000 Ang^3
#
#
#
# Elastic Constant Matrix: (Units=GPa)
#
#
# Indices 1 2 3 4 5 6 
#
# 1 102.5864 50.8077 23.0325 0.0000 0.0000 0.0000
# 2 50.8077 121.7199 48.4696 0.0000 0.0000 0.0000
# 3 23.0325 48.4696 105.9457 0.0000 0.0000 0.0000
# 4 0.0000 0.0000 0.0000 -4.1727 0.0000 0.0000
# 5 0.0000 0.0000 0.0000 0.0000 6.6638 0.0000
# 6 0.0000 0.0000 0.0000 0.0000 0.0000 45.5207
#
#
#
# Elastic Compliance Matrix: (Units=1/GPa)
#
#
# Indices 1 2 3 4 5 6 
#
# 1 0.012302 -0.004977 -0.000398 0.000000 0.000000 0.000000
# 2 -0.004977 0.012059 -0.004435 0.000000 0.000000 0.000000
# 3 -0.000398 -0.004435 0.011554 0.000000 0.000000 0.000000
# 4 0.000000 0.000000 0.000000 -0.239653 0.000000 0.000000
# 5 0.000000 0.000000 0.000000 0.000000 0.150064 0.000000
# 6 0.000000 0.000000 0.000000 0.000000 0.000000 0.021968
#
#
# Mechanical properties :
#
#
# Convention : Reuss Voigt Hill
#
# Bulk Modulus (GPa) = 61.36272 63.87464 62.61868
# Shear Modulus (GPa) = -751.28184 23.46516 -363.90834
#
# Velocity S-wave (km/s) = -18.58522 3.28457 -12.93488
# Velocity P-wave (km/s) = 20.79267 6.61450 13.93886
#
# Compressibility (1/GPa) = 0.01629654
#
# Stress axis : x y z
#
# Youngs Moduli (GPa) = 81.28802 82.92585 86.54837
#
# Poissons Ratio (x) = 0.41269 0.03441
# Poissons Ratio (y) = 0.40454 0.38384
# Poissons Ratio (z) = 0.03232 0.36778
#
# Static dielectric constant tensor:
#      x y z
#    x 1.810170 0.000000 0.000000 
#    y 0.000000 1.977130 0.000000 
#    z 0.000000 0.000000 1.785810 
# 
# From -- ./inp_files/19360.got.cif
#   From: 2010.05.17/outbox.cif.g08.bks.cpg/sg37_10_cif.got.tgz:19360.got - 2010.06.03 17:53:42.
