data_PCOD9355052
_publ_section_title
;
Structure prediction by ZEFSAII (Michael W. Deem and Ramdas Pophale) SiO2 
 PCOD9355052
Probable space group: C C C 2
;
_chemical_formula_sum "Si O2"
_cell_formula_units_Z 48
_cell_length_a 13.661722
_cell_length_b 14.874000
_cell_length_c 10.037262
_cell_angle_alpha 90.000000
_cell_angle_beta 90.000000
_cell_angle_gamma 90.000000
_cell_volume 2039.616335
_symmetry_space_group_name_H-M "C C C 2"
_symmetry_group_IT_number 37
_symmetry_cell_setting 'orthorhombic'
loop_
_space_group_symop_operation_xyz
x,y,z
-x,-y,z
-x,y,1/2+z
x,-y,1/2+z
1/2+x,1/2+y,z
1/2-x,1/2-y,z
1/2-x,1/2+y,1/2+z
1/2+x,1/2-y,1/2+z
loop_
_atom_site_type_symbol
_atom_site_label
_atom_site_fract_x
_atom_site_fract_y
_atom_site_fract_z
Si Si1 0.381344 0.853384 0.370290
Si Si2 0.858217 0.269907 0.090799
Si Si3 0.427936 0.284610 0.106638
Si Si4 0.763646 0.994014 0.331785
Si Si5 0.596409 0.141492 0.830453
Si Si6 0.884496 0.011383 0.580983
O O1 0.345685 0.800219 0.241394
O O2 0.396499 0.785629 0.492223
O O3 0.485552 0.893450 0.320556
O O4 0.304758 0.930873 0.398206
O O5 0.750000 0.250000 0.038452
O O6 0.953419 0.204927 0.092330
O O7 0.891143 0.346735 0.988565
O O8 0.405995 0.235407 0.247746
O O9 0.375335 0.379475 0.087881
O O10 0.687247 0.918090 0.285547
O O11 0.823152 0.027656 0.203966
O O12 0.842580 0.970268 0.444636
O O13 0.000000 0.000000 0.594897
#
# Coordination Sequence:
#
# PCOD9355052 Si02
#       6
#     8   8   8   8   8   8
#     4  10  23  44  71 105 134 174 234 297 351 413
#     4  10  23  38  69 100 133 175 229 279 344 416
#     4  10  25  47  69 100 144 184 231 295 343 424
#     4  12  26  44  72  98 138 186 228 294 356 416
#     4  10  23  44  71 105 134 174 234 297 351 413
#     4  12  30  47  65 102 146 192 234 281 352 425
#
# _framework density 23.533837999999999
#
# number of rings (size 3 to 8) (size 9 to 14) (size 15 to 20)
#    0.000    1.333    0.000    3.000    9.333    6.667 
#    0.000    6.667    0.000    0.000    0.000    0.000 
#    0.000    0.000    0.000    0.000    0.000    0.000 
#
# Total GULP energy -134117.190863 kJ/mol
# GULP energy per Si atom -5588.216286 kJ/mol
# Density = 2.348027 g / cm^3
# Si number density = 23.533838 Si / 1000 Ang^3
#
#
#
# Elastic Constant Matrix: (Units=GPa)
#
#
# Indices 1 2 3 4 5 6 
#
# 1 144.1836 27.4289 4.4323 0.0000 0.0000 0.0000
# 2 27.4289 63.6841 -9.3863 0.0000 0.0000 0.0000
# 3 4.4323 -9.3863 73.2488 0.0000 0.0000 0.0000
# 4 0.0000 0.0000 0.0000 20.6544 0.0000 0.0000
# 5 0.0000 0.0000 0.0000 0.0000 42.7709 0.0000
# 6 0.0000 0.0000 0.0000 0.0000 0.0000 33.6575
#
#
#
# Elastic Compliance Matrix: (Units=1/GPa)
#
#
# Indices 1 2 3 4 5 6 
#
# 1 0.007612 -0.003411 -0.000898 0.000000 0.000000 0.000000
# 2 -0.003411 0.017533 0.002453 0.000000 0.000000 0.000000
# 3 -0.000898 0.002453 0.014021 0.000000 0.000000 0.000000
# 4 0.000000 0.000000 0.000000 0.048416 0.000000 0.000000
# 5 0.000000 0.000000 0.000000 0.000000 0.023380 0.000000
# 6 0.000000 0.000000 0.000000 0.000000 0.000000 0.029711
#
#
# Mechanical properties :
#
#
# Convention : Reuss Voigt Hill
#
# Bulk Modulus (GPa) = 28.20461 36.22960 32.21710
# Shear Modulus (GPa) = 32.00976 36.65934 34.33455
#
# Velocity S-wave (km/s) = 3.69203 3.95109 3.82376
# Velocity P-wave (km/s) = 5.49414 6.02021 5.76318
#
# Compressibility (1/GPa) = 0.03545520
#
# Stress axis : x y z
#
# Youngs Moduli (GPa) = 131.37041 57.03483 71.32274
#
# Poissons Ratio (x) = 0.19454 0.06403
# Poissons Ratio (y) = 0.44808 -0.17497
# Poissons Ratio (z) = 0.11793 -0.13991
#
# Static dielectric constant tensor:
#      x y z
#    x 1.975490 0.000000 0.000000 
#    y 0.000000 1.960030 0.000000 
#    z 0.000000 0.000000 1.856710 
# 
# From -- ./inp_files/3488.got.cif
#   From: 2010.05.17/outbox.cif.g08.bks.cpg/sg37_2_cif.got.tgz:3488.got - 2010.06.03 17:53:42.
