data_PCOD9355392
_publ_section_title
;
Structure prediction by ZEFSAII (Michael W. Deem and Ramdas Pophale) SiO2 
 PCOD9355392
Probable space group: C C C 2
;
_chemical_formula_sum "Si O2"
_cell_formula_units_Z 44
_cell_length_a 23.887158
_cell_length_b 5.048126
_cell_length_c 16.759157
_cell_angle_alpha 90.000000
_cell_angle_beta 90.000000
_cell_angle_gamma 90.000000
_cell_volume 2020.909372
_symmetry_space_group_name_H-M "C C C 2"
_symmetry_group_IT_number 37
_symmetry_cell_setting 'orthorhombic'
loop_
_space_group_symop_operation_xyz
x,y,z
-x,-y,z
-x,y,1/2+z
x,-y,1/2+z
1/2+x,1/2+y,z
1/2-x,1/2-y,z
1/2-x,1/2+y,1/2+z
1/2+x,1/2-y,1/2+z
loop_
_atom_site_type_symbol
_atom_site_label
_atom_site_fract_x
_atom_site_fract_y
_atom_site_fract_z
Si Si1 0.334474 0.513951 0.006330
Si Si2 0.500000 0.500000 0.936625
Si Si3 0.500000 0.000000 0.553510
Si Si4 0.129117 0.514826 0.601237
Si Si5 0.600842 0.488913 0.847479
Si Si6 0.750000 0.250000 0.396942
Si Si7 0.652718 0.028763 0.281285
O O1 0.349677 0.304788 0.074971
O O2 0.346132 0.806219 0.037760
O O3 0.377683 0.450656 0.936167
O O4 0.277314 0.458930 0.958615
O O5 0.542004 0.374281 0.871316
O O6 0.508759 0.743979 0.997307
O O7 0.439370 0.015661 0.599880
O O8 0.157117 0.455321 0.686484
O O9 0.603332 0.764783 0.802230
O O10 0.638240 0.270561 0.804853
O O11 0.704025 0.123897 0.337238
#
# Coordination Sequence:
#
# PCOD9355392 Si02
#       7
#     8   4   4   8   8   4   8
#     4  11  23  43  68  96 129 179 238 274 327 412
#     4  12  22  38  72  98 134 180 234 268 334 404
#     4  12  22  40  68 104 140 178 218 288 336 408
#     4  12  24  43  68 104 138 177 222 283 348 407
#     4  11  22  42  65  98 132 180 224 279 330 410
#     4  10  26  46  70  98 136 188 234 288 336 390
#     4  11  26  43  66  99 144 171 225 289 346 396
#
# _framework density 21.772378
#
# number of rings (size 3 to 8) (size 9 to 14) (size 15 to 20)
#    0.000    0.727    3.636    4.364    0.000    9.455 
#    0.000    0.000    0.000    0.000    0.000    0.000 
#    0.000    0.000    0.000    0.000    0.000    0.000 
#
# Total GULP energy -122606.879267 kJ/mol
# GULP energy per Si atom -5573.039967 kJ/mol
# Density = 2.172282 g / cm^3
# Si number density = 21.772378 Si / 1000 Ang^3
#
#
#
# Elastic Constant Matrix: (Units=GPa)
#
#
# Indices 1 2 3 4 5 6 
#
# 1 85.2918 5.5809 21.4714 0.0000 0.0000 0.0000
# 2 5.5809 77.1805 -11.5987 0.0000 0.0000 0.0000
# 3 21.4714 -11.5987 70.1421 0.0000 0.0000 0.0000
# 4 0.0000 0.0000 0.0000 33.5870 0.0000 0.0000
# 5 0.0000 0.0000 0.0000 0.0000 29.1727 0.0000
# 6 0.0000 0.0000 0.0000 0.0000 0.0000 10.4634
#
#
#
# Elastic Compliance Matrix: (Units=1/GPa)
#
#
# Indices 1 2 3 4 5 6 
#
# 1 0.012885 -0.001563 -0.004203 0.000000 0.000000 0.000000
# 2 -0.001563 0.013476 0.002707 0.000000 0.000000 0.000000
# 3 -0.004203 0.002707 0.015991 0.000000 0.000000 0.000000
# 4 0.000000 0.000000 0.000000 0.029773 0.000000 0.000000
# 5 0.000000 0.000000 0.000000 0.000000 0.034279 0.000000
# 6 0.000000 0.000000 0.000000 0.000000 0.000000 0.095571
#
#
# Mechanical properties :
#
#
# Convention : Reuss Voigt Hill
#
# Bulk Modulus (GPa) = 27.59819 29.28017 28.43918
# Shear Modulus (GPa) = 22.70963 29.12202 25.91582
#
# Velocity S-wave (km/s) = 3.23313 3.66124 3.45383
# Velocity P-wave (km/s) = 5.16147 5.59915 5.38476
#
# Compressibility (1/GPa) = 0.03623425
#
# Stress axis : x y z
#
# Youngs Moduli (GPa) = 77.61125 74.20326 62.53551
#
# Poissons Ratio (x) = 0.11600 0.26282
# Poissons Ratio (y) = 0.12133 -0.16928
# Poissons Ratio (z) = 0.32618 -0.20087
#
# Static dielectric constant tensor:
#      x y z
#    x 2.113830 0.000000 0.000000 
#    y 0.000000 1.791470 0.000000 
#    z 0.000000 0.000000 1.743320 
# 
# From -- ./inp_files/9726.got.cif
#   From: 2010.05.17/outbox.cif.g08.bks.cpg/sg37_5_cif.got.tgz:9726.got - 2010.06.03 17:53:42.
