data_PCOD9355538
_publ_section_title
;
Structure prediction by ZEFSAII (Michael W. Deem and Ramdas Pophale) SiO2 
 PCOD9355538
Probable space group: C C C 2
;
_chemical_formula_sum "Si O2"
_cell_formula_units_Z 24
_cell_length_a 4.827081
_cell_length_b 15.813078
_cell_length_c 13.549761
_cell_angle_alpha 90.000000
_cell_angle_beta 90.000000
_cell_angle_gamma 90.000000
_cell_volume 1034.266920
_symmetry_space_group_name_H-M "C C C 2"
_symmetry_group_IT_number 37
_symmetry_cell_setting 'orthorhombic'
loop_
_space_group_symop_operation_xyz
x,y,z
-x,-y,z
-x,y,1/2+z
x,-y,1/2+z
1/2+x,1/2+y,z
1/2-x,1/2-y,z
1/2-x,1/2+y,1/2+z
1/2+x,1/2-y,1/2+z
loop_
_atom_site_type_symbol
_atom_site_label
_atom_site_fract_x
_atom_site_fract_y
_atom_site_fract_z
Si Si1 0.953501 0.898786 0.274210
Si Si2 0.071399 0.333340 0.663368
Si Si3 0.256773 0.941209 0.976596
O O1 0.745511 0.850136 0.198470
O O2 0.849624 0.886011 0.385330
O O3 0.256603 0.862449 0.258604
O O4 0.000000 0.000000 0.257654
O O5 0.250000 0.250000 0.634801
O O6 0.122690 0.393776 0.570384
O O7 0.500000 0.000000 0.935107
O O8 0.000000 0.000000 0.007840
#
# Coordination Sequence:
#
# PCOD9355538 Si02
#       3
#     8   8   8
#     4  11  23  43  66  90 123 168 217 260 308 377
#     4  12  25  40  63  95 131 165 202 262 329 382
#     4  11  23  41  66  91 119 163 215 260 306 373
#
# _framework density 23.204841999999999
#
# number of rings (size 3 to 8) (size 9 to 14) (size 15 to 20)
#    0.000    0.667    0.000   11.000    0.000    2.667 
#    0.000    0.000    0.000    0.000    0.000    0.000 
#    0.000    0.000    0.000    0.000    0.000    0.000 
#
# Total GULP energy -66960.103039 kJ/mol
# GULP energy per Si atom -5580.008587 kJ/mol
# Density = 2.315203 g / cm^3
# Si number density = 23.204842 Si / 1000 Ang^3
#
#
#
# Elastic Constant Matrix: (Units=GPa)
#
#
# Indices 1 2 3 4 5 6 
#
# 1 117.9143 1.3487 5.6399 0.0000 0.0000 0.0000
# 2 1.3487 40.1919 -5.8765 0.0000 0.0000 0.0000
# 3 5.6399 -5.8765 114.6865 0.0000 0.0000 0.0000
# 4 0.0000 0.0000 0.0000 -11.9446 0.0000 0.0000
# 5 0.0000 0.0000 0.0000 0.0000 37.0048 0.0000
# 6 0.0000 0.0000 0.0000 0.0000 0.0000 35.8818
#
#
#
# Elastic Compliance Matrix: (Units=1/GPa)
#
#
# Indices 1 2 3 4 5 6 
#
# 1 0.008506 -0.000349 -0.000436 0.000000 0.000000 0.000000
# 2 -0.000349 0.025083 0.001302 0.000000 0.000000 0.000000
# 3 -0.000436 0.001302 0.008808 0.000000 0.000000 0.000000
# 4 0.000000 0.000000 0.000000 -0.083720 0.000000 0.000000
# 5 0.000000 0.000000 0.000000 0.000000 0.027024 0.000000
# 6 0.000000 0.000000 0.000000 0.000000 0.000000 0.027869
#
#
# Mechanical properties :
#
#
# Convention : Reuss Voigt Hill
#
# Bulk Modulus (GPa) = 23.02551 30.55743 26.79147
# Shear Modulus (GPa) = 185.10717 30.30043 107.70380
#
# Velocity S-wave (km/s) = 8.94115 3.61748 6.82020
# Velocity P-wave (km/s) = 10.79520 5.53582 8.57851
#
# Compressibility (1/GPa) = 0.04343008
#
# Stress axis : x y z
#
# Youngs Moduli (GPa) = 117.56971 39.86796 113.53822
#
# Poissons Ratio (x) = 0.01392 0.04952
# Poissons Ratio (y) = 0.04105 -0.14787
# Poissons Ratio (z) = 0.05128 -0.05192
#
# Static dielectric constant tensor:
#      x y z
#    x 1.943090 0.000000 0.000000 
#    y 0.000000 1.990190 0.000000 
#    z 0.000000 0.000000 1.823050 
# 
# From -- ./inp_files/5170.got.cif
#   From: 2010.05.17/outbox.cif.g08.bks.cpg/sg37_3_cif.got.tgz:5170.got - 2010.06.03 17:53:42.
