data_PCOD9355446
_publ_section_title
;
Structure prediction by ZEFSAII (Michael W. Deem and Ramdas Pophale) SiO2 
 PCOD9355446
Probable space group: C C C 2
;
_chemical_formula_sum "Si O2"
_cell_formula_units_Z 48
_cell_length_a 9.646567
_cell_length_b 16.161147
_cell_length_c 14.606859
_cell_angle_alpha 90.000000
_cell_angle_beta 90.000000
_cell_angle_gamma 90.000000
_cell_volume 2277.203290
_symmetry_space_group_name_H-M "C C C 2"
_symmetry_group_IT_number 37
_symmetry_cell_setting 'orthorhombic'
loop_
_space_group_symop_operation_xyz
x,y,z
-x,-y,z
-x,y,1/2+z
x,-y,1/2+z
1/2+x,1/2+y,z
1/2-x,1/2-y,z
1/2-x,1/2+y,1/2+z
1/2+x,1/2-y,1/2+z
loop_
_atom_site_type_symbol
_atom_site_label
_atom_site_fract_x
_atom_site_fract_y
_atom_site_fract_z
Si Si1 0.753351 0.607418 0.502230
Si Si2 0.659946 0.480693 0.358698
Si Si3 0.162925 0.985797 0.648728
Si Si4 0.524877 0.248137 0.980101
Si Si5 0.881964 0.798409 0.799558
Si Si6 0.869876 0.804000 0.154540
O O1 0.749218 0.532850 0.429359
O O2 0.740789 0.559826 0.598428
O O3 0.623496 0.669839 0.485806
O O4 0.883709 0.666727 0.493274
O O5 0.500000 0.500000 0.383262
O O6 0.686229 0.512997 0.256744
O O7 0.670371 0.382497 0.347985
O O8 0.189774 0.891754 0.620651
O O9 0.000000 0.000000 0.630035
O O10 0.421854 0.256560 0.065046
O O11 0.451518 0.247688 0.881982
O O12 0.750000 0.750000 0.759360
O O13 0.999670 0.817112 0.723331
O O14 0.750000 0.750000 0.201665
#
# Coordination Sequence:
#
# PCOD9355446 Si02
#       6
#     8   8   8   8   8   8
#     4  11  22  38  72 100 132 168 227 274 320 399
#     4  11  20  39  65  97 129 174 227 269 317 392
#     4  11  20  39  65  97 129 174 227 269 317 392
#     4  11  24  41  66 103 137 174 214 276 343 382
#     4  12  26  43  69  98 137 176 224 276 331 392
#     4  12  26  43  69  98 137 176 224 276 331 392
#
# _framework density 21.078486999999999
#
# number of rings (size 3 to 8) (size 9 to 14) (size 15 to 20)
#    0.000    0.667    6.667    2.000    9.333    0.000 
#    0.000    3.333    0.000    0.000    0.000    0.000 
#    0.000    0.000    0.000    0.000    0.000    0.000 
#
# Total GULP energy -134187.629476 kJ/mol
# GULP energy per Si atom -5591.151228 kJ/mol
# Density = 2.103051 g / cm^3
# Si number density = 21.078487 Si / 1000 Ang^3
#
#
#
# Elastic Constant Matrix: (Units=GPa)
#
#
# Indices 1 2 3 4 5 6 
#
# 1 46.3533 35.4257 6.9213 0.0000 0.0000 0.0000
# 2 35.4257 98.3133 -4.0529 0.0000 0.0000 0.0000
# 3 6.9213 -4.0529 54.9910 0.0000 0.0000 0.0000
# 4 0.0000 0.0000 0.0000 26.5427 0.0000 0.0000
# 5 0.0000 0.0000 0.0000 0.0000 -4.8506 0.0000
# 6 0.0000 0.0000 0.0000 0.0000 0.0000 49.9965
#
#
#
# Elastic Compliance Matrix: (Units=1/GPa)
#
#
# Indices 1 2 3 4 5 6 
#
# 1 0.030953 -0.011349 -0.004732 0.000000 0.000000 0.000000
# 2 -0.011349 0.014363 0.002487 0.000000 0.000000 0.000000
# 3 -0.004732 0.002487 0.018964 0.000000 0.000000 0.000000
# 4 0.000000 0.000000 0.000000 0.037675 0.000000 0.000000
# 5 0.000000 0.000000 0.000000 0.000000 -0.206162 0.000000
# 6 0.000000 0.000000 0.000000 0.000000 0.000000 0.020001
#
#
# Mechanical properties :
#
#
# Convention : Reuss Voigt Hill
#
# Bulk Modulus (GPa) = 26.95962 30.69397 28.82680
# Shear Modulus (GPa) = -111.97373 25.09531 -43.43921
#
# Velocity S-wave (km/s) = -7.29641 3.45420 -4.54456
# Velocity P-wave (km/s) = 7.62664 5.52286 3.71911
#
# Compressibility (1/GPa) = 0.03709251
#
# Stress axis : x y z
#
# Youngs Moduli (GPa) = 32.30679 69.62152 52.73229
#
# Poissons Ratio (x) = 0.79011 0.24954
# Poissons Ratio (y) = 0.36664 -0.13114
# Poissons Ratio (z) = 0.15288 -0.17315
#
# Static dielectric constant tensor:
#      x y z
#    x 1.788670 0.000000 0.000000 
#    y 0.000000 1.776050 0.000000 
#    z 0.000000 0.000000 1.756310 
# 
# From -- ./inp_files/14469.got.cif
#   From: 2010.05.17/outbox.cif.g08.bks.cpg/sg37_8_cif.got.tgz:14469.got - 2010.06.03 17:53:42.
