data_PCOD9355187
_publ_section_title
;
Structure prediction by ZEFSAII (Michael W. Deem and Ramdas Pophale) SiO2 
 PCOD9355187
Probable space group: C C C 2
;
_chemical_formula_sum "Si O2"
_cell_formula_units_Z 56
_cell_length_a 21.170945
_cell_length_b 4.753589
_cell_length_c 20.875899
_cell_angle_alpha 90.000000
_cell_angle_beta 90.000000
_cell_angle_gamma 90.000000
_cell_volume 2100.908124
_symmetry_space_group_name_H-M "C C C 2"
_symmetry_group_IT_number 37
_symmetry_cell_setting 'orthorhombic'
loop_
_space_group_symop_operation_xyz
x,y,z
-x,-y,z
-x,y,1/2+z
x,-y,1/2+z
1/2+x,1/2+y,z
1/2-x,1/2-y,z
1/2-x,1/2+y,1/2+z
1/2+x,1/2-y,1/2+z
loop_
_atom_site_type_symbol
_atom_site_label
_atom_site_fract_x
_atom_site_fract_y
_atom_site_fract_z
Si Si1 0.689237 0.601307 0.677960
Si Si2 0.250000 0.250000 0.290304
Si Si3 0.056074 0.257959 0.684446
Si Si4 0.892663 0.835802 0.084742
Si Si5 0.000000 0.500000 0.405767
Si Si6 0.400847 0.829307 0.996825
Si Si7 0.432143 0.625988 0.330166
Si Si8 0.817789 0.356327 0.392362
O O1 0.750000 0.750000 0.651319
O O2 0.709404 0.454950 0.744160
O O3 0.631723 0.829435 0.682990
O O4 0.668421 0.363593 0.628232
O O5 0.203863 0.443676 0.333233
O O6 0.059377 0.009600 0.630918
O O7 0.060556 0.111547 0.754648
O O8 0.000000 0.500000 0.683473
O O9 0.882144 0.029105 0.022878
O O10 0.911843 0.534845 0.057998
O O11 0.034643 0.302686 0.457531
O O12 0.055834 0.556466 0.355132
O O13 0.351237 0.977234 0.950024
O O14 0.500000 0.500000 0.354119
O O15 0.364424 0.604544 0.365216
O O16 0.750000 0.250000 0.416442
#
# Coordination Sequence:
#
# PCOD9355187 Si02
#       8
#     8   4   8   8   4   8   8   8
#     4  10  25  46  80 113 159 213 261 342 423 486
#     4  12  24  48  82 114 166 208 272 348 422 500
#     4  10  23  47  75 117 157 200 269 338 405 486
#     4  10  28  48  78 111 162 210 274 325 410 486
#     4  10  26  44  74 104 156 212 252 328 408 474
#     4  11  27  51  75 112 158 217 272 326 396 498
#     4  11  24  46  77 116 158 201 265 335 419 487
#     4  11  28  48  80 116 157 211 270 336 407 489
#
# _framework density 26.655138999999998
#
# number of rings (size 3 to 8) (size 9 to 14) (size 15 to 20)
#    0.857    0.571    0.714    2.143    9.000    5.714 
#    5.143    0.000    0.000    0.000    0.000    0.000 
#    0.000    0.000    0.000    0.000    0.000    0.000 
#
# Total GULP energy -155979.996493 kJ/mol
# GULP energy per Si atom -5570.714160 kJ/mol
# Density = 2.659447 g / cm^3
# Si number density = 26.655139 Si / 1000 Ang^3
#
#
#
# Elastic Constant Matrix: (Units=GPa)
#
#
# Indices 1 2 3 4 5 6 
#
# 1 162.5460 30.0792 22.8300 0.0000 0.0000 0.0000
# 2 30.0792 84.9829 26.5638 0.0000 0.0000 0.0000
# 3 22.8300 26.5638 133.1870 0.0000 0.0000 0.0000
# 4 0.0000 0.0000 0.0000 36.3998 0.0000 0.0000
# 5 0.0000 0.0000 0.0000 0.0000 282.0233 0.0000
# 6 0.0000 0.0000 0.0000 0.0000 0.0000 46.8493
#
#
#
# Elastic Compliance Matrix: (Units=1/GPa)
#
#
# Indices 1 2 3 4 5 6 
#
# 1 0.006646 -0.002129 -0.000715 0.000000 0.000000 0.000000
# 2 -0.002129 0.013231 -0.002274 0.000000 0.000000 0.000000
# 3 -0.000715 -0.002274 0.008084 0.000000 0.000000 0.000000
# 4 0.000000 0.000000 0.000000 0.027473 0.000000 0.000000
# 5 0.000000 0.000000 0.000000 0.000000 0.003546 0.000000
# 6 0.000000 0.000000 0.000000 0.000000 0.000000 0.021345
#
#
# Mechanical properties :
#
#
# Convention : Reuss Voigt Hill
#
# Bulk Modulus (GPa) = 56.41213 59.96243 58.18728
# Shear Modulus (GPa) = 51.82948 93.13733 72.48341
#
# Velocity S-wave (km/s) = 4.41437 5.91756 5.22035
# Velocity P-wave (km/s) = 6.86963 8.32072 7.62975
#
# Compressibility (1/GPa) = 0.01772668
#
# Stress axis : x y z
#
# Youngs Moduli (GPa) = 150.45584 75.57738 123.69672
#
# Poissons Ratio (x) = 0.16091 0.08840
# Poissons Ratio (y) = 0.32034 0.28129
# Poissons Ratio (z) = 0.10752 0.17187
#
# Static dielectric constant tensor:
#      x y z
#    x 1.683580 0.000000 0.000000 
#    y 0.000000 2.909130 0.000000 
#    z 0.000000 0.000000 2.071840 
# 
# From -- ./inp_files/17563.got.cif
#   From: 2010.05.17/outbox.cif.g08.bks.cpg/sg37_9_cif.got.tgz:17563.got - 2010.06.03 17:53:42.
