data_PCOD9355512
_publ_section_title
;
Structure prediction by ZEFSAII (Michael W. Deem and Ramdas Pophale) SiO2 
 PCOD9355512
Probable space group: C C C 2
;
_chemical_formula_sum "Si O2"
_cell_formula_units_Z 56
_cell_length_a 8.240568
_cell_length_b 21.486963
_cell_length_c 14.463187
_cell_angle_alpha 90.000000
_cell_angle_beta 90.000000
_cell_angle_gamma 90.000000
_cell_volume 2560.921020
_symmetry_space_group_name_H-M "C C C 2"
_symmetry_group_IT_number 37
_symmetry_cell_setting 'orthorhombic'
loop_
_space_group_symop_operation_xyz
x,y,z
-x,-y,z
-x,y,1/2+z
x,-y,1/2+z
1/2+x,1/2+y,z
1/2-x,1/2-y,z
1/2-x,1/2+y,1/2+z
1/2+x,1/2-y,1/2+z
loop_
_atom_site_type_symbol
_atom_site_label
_atom_site_fract_x
_atom_site_fract_y
_atom_site_fract_z
Si Si1 0.045723 0.824854 0.625000
Si Si2 0.143947 0.381777 0.038629
Si Si3 0.000000 0.500000 0.127647
Si Si4 0.441008 0.732062 0.303746
Si Si5 0.000000 0.000000 0.027933
Si Si6 0.114477 0.902018 0.381762
Si Si7 0.433440 0.771284 0.986712
Si Si8 0.806056 0.064221 0.181634
O O1 0.214393 0.861447 0.611304
O O2 0.030774 0.774236 0.706383
O O3 0.033993 0.785250 0.531575
O O4 0.892985 0.871523 0.645491
O O5 0.222009 0.383824 0.936272
O O6 0.995410 0.333374 0.036432
O O7 0.085393 0.449751 0.062841
O O8 0.882960 0.454029 0.186215
O O9 0.250000 0.750000 0.293038
O O10 0.458807 0.662757 0.346793
O O11 0.525569 0.775963 0.378459
O O12 0.136956 0.982975 0.102000
O O13 0.977447 0.941645 0.959790
O O14 0.134633 0.940892 0.287330
O O15 0.250000 0.750000 0.001499
#
# Coordination Sequence:
#
# PCOD9355512 Si02
#       8
#     8   8   4   8   4   8   8   8
#     4  11  23  44  72 101 132 188 231 293 356 425
#     4  12  24  46  72  97 146 187 239 291 363 421
#     4  12  26  44  68 106 142 192 232 304 348 432
#     4  11  22  43  72 106 140 178 233 293 356 421
#     4  12  20  44  72  96 138 186 238 288 342 430
#     4  11  23  41  72  99 135 192 229 293 357 414
#     4  12  24  43  69 105 141 181 230 289 358 436
#     4  11  23  41  66 101 140 176 239 284 355 421
#
# _framework density 21.867132000000002
#
# number of rings (size 3 to 8) (size 9 to 14) (size 15 to 20)
#    0.000    0.571    5.714    2.143    0.000    4.000 
#    2.571    0.000    0.000    0.000    0.000    0.000 
#    0.000    0.000    0.000    0.000    0.000    0.000 
#
# Total GULP energy -156066.827491 kJ/mol
# GULP energy per Si atom -5573.815268 kJ/mol
# Density = 2.181736 g / cm^3
# Si number density = 21.867132 Si / 1000 Ang^3
#
#
#
# Elastic Constant Matrix: (Units=GPa)
#
#
# Indices 1 2 3 4 5 6 
#
# 1 53.0668 38.0025 11.8891 0.0000 0.0000 0.0000
# 2 38.0025 84.1093 15.7910 0.0000 0.0000 0.0000
# 3 11.8891 15.7910 127.1092 0.0000 0.0000 0.0000
# 4 0.0000 0.0000 0.0000 1620.1764 0.0000 0.0000
# 5 0.0000 0.0000 0.0000 0.0000 -5.9870 0.0000
# 6 0.0000 0.0000 0.0000 0.0000 0.0000 40.6748
#
#
#
# Elastic Compliance Matrix: (Units=1/GPa)
#
#
# Indices 1 2 3 4 5 6 
#
# 1 0.028000 -0.012450 -0.001072 0.000000 0.000000 0.000000
# 2 -0.012450 0.017709 -0.001036 0.000000 0.000000 0.000000
# 3 -0.001072 -0.001036 0.008096 0.000000 0.000000 0.000000
# 4 0.000000 0.000000 0.000000 0.000617 0.000000 0.000000
# 5 0.000000 0.000000 0.000000 0.000000 -0.167028 0.000000
# 6 0.000000 0.000000 0.000000 0.000000 0.000000 0.024585
#
#
# Mechanical properties :
#
#
# Convention : Reuss Voigt Hill
#
# Bulk Modulus (GPa) = 40.50243 43.96114 42.23178
# Shear Modulus (GPa) = -98.66756 344.21301 122.77273
#
# Velocity S-wave (km/s) = -6.72453 12.55997 7.50112
# Velocity P-wave (km/s) = 6.45989 15.18172 9.71479
#
# Compressibility (1/GPa) = 0.02468988
#
# Stress axis : x y z
#
# Youngs Moduli (GPa) = 35.71427 56.46918 123.51481
#
# Poissons Ratio (x) = 0.70303 0.13245
# Poissons Ratio (y) = 0.44463 0.12790
# Poissons Ratio (z) = 0.03830 0.05847
#
# Static dielectric constant tensor:
#      x y z
#    x 1.966010 0.000000 0.000000 
#    y 0.000000 1.472970 0.000000 
#    z 0.000000 0.000000 1.813310 
# 
# From -- ./inp_files/10857.got.cif
#   From: 2010.05.17/outbox.cif.g08.bks.cpg/sg37_6_cif.got.tgz:10857.got - 2010.06.03 17:53:42.
