data_PCOD9355545
_publ_section_title
;
Structure prediction by ZEFSAII (Michael W. Deem and Ramdas Pophale) SiO2 
 PCOD9355545
Probable space group: C C C 2
;
_chemical_formula_sum "Si O2"
_cell_formula_units_Z 60
_cell_length_a 6.513583
_cell_length_b 17.831968
_cell_length_c 24.858990
_cell_angle_alpha 90.000000
_cell_angle_beta 90.000000
_cell_angle_gamma 90.000000
_cell_volume 2887.371779
_symmetry_space_group_name_H-M "C C C 2"
_symmetry_group_IT_number 37
_symmetry_cell_setting 'orthorhombic'
loop_
_space_group_symop_operation_xyz
x,y,z
-x,-y,z
-x,y,1/2+z
x,-y,1/2+z
1/2+x,1/2+y,z
1/2-x,1/2-y,z
1/2-x,1/2+y,1/2+z
1/2+x,1/2-y,1/2+z
loop_
_atom_site_type_symbol
_atom_site_label
_atom_site_fract_x
_atom_site_fract_y
_atom_site_fract_z
Si Si1 0.294349 0.668290 0.828140
Si Si2 0.358440 0.075897 0.658168
Si Si3 0.605372 0.678222 0.924858
Si Si4 0.620945 0.571837 0.762880
Si Si5 0.000000 0.000000 0.089350
Si Si6 0.401921 0.072832 0.863667
Si Si7 0.972584 0.283504 0.085466
Si Si8 0.832447 0.146950 0.542390
O O1 0.250000 0.750000 0.805261
O O2 0.414524 0.679364 0.884606
O O3 0.449649 0.626333 0.787875
O O4 0.083153 0.625619 0.841183
O O5 0.268585 0.100097 0.715925
O O6 0.456461 0.150438 0.630479
O O7 0.165183 0.047678 0.623014
O O8 0.500000 0.000000 0.663218
O O9 0.750000 0.750000 0.917283
O O10 0.750752 0.611262 0.905236
O O11 0.555220 0.667952 0.987239
O O12 0.500000 0.500000 0.741128
O O13 0.764088 0.548490 0.812775
O O14 0.126950 0.061509 0.055962
O O15 0.500000 0.000000 0.889210
O O16 0.750000 0.250000 0.073764
O O17 0.091610 0.203076 0.090008
O O18 0.094445 0.328119 0.038411
#
# Coordination Sequence:
#
# PCOD9355545 Si02
#       8
#     8   8   8   8   4   8   8   8
#     4  11  24  44  67  99 136 177 221 285 335 411
#     4  12  25  44  70  98 131 183 230 280 346 411
#     4  11  23  42  69 100 136 182 227 270 343 410
#     4  11  24  43  71  96 132 177 224 277 346 409
#     4  12  24  46  68 100 140 176 232 292 334 408
#     4  11  23  43  67  98 134 173 222 278 336 411
#     4  11  23  43  67  97 136 180 223 279 336 399
#     4  11  25  45  68 100 142 181 229 287 342 408
#
# _framework density 20.780142999999999
#
# number of rings (size 3 to 8) (size 9 to 14) (size 15 to 20)
#    0.000    0.800    7.333    0.400    0.000    2.667 
#    4.800    0.000    0.000    0.000    0.000    0.000 
#    0.000    0.000    0.000    0.000    0.000    0.000 
#
# Total GULP energy -167288.038941 kJ/mol
# GULP energy per Si atom -5576.267965 kJ/mol
# Density = 2.073285 g / cm^3
# Si number density = 20.780143 Si / 1000 Ang^3
#
#
#
# Elastic Constant Matrix: (Units=GPa)
#
#
# Indices 1 2 3 4 5 6 
#
# 1 65.0592 19.8683 4.8146 0.0000 0.0000 0.0000
# 2 19.8683 111.9872 23.6265 0.0000 0.0000 0.0000
# 3 4.8146 23.6265 70.8591 0.0000 0.0000 0.0000
# 4 0.0000 0.0000 0.0000 35.1072 0.0000 0.0000
# 5 0.0000 0.0000 0.0000 0.0000 -143.7853 0.0000
# 6 0.0000 0.0000 0.0000 0.0000 0.0000 44.7164
#
#
#
# Elastic Compliance Matrix: (Units=1/GPa)
#
#
# Indices 1 2 3 4 5 6 
#
# 1 0.016253 -0.002851 -0.000154 0.000000 0.000000 0.000000
# 2 -0.002851 0.010105 -0.003176 0.000000 0.000000 0.000000
# 3 -0.000154 -0.003176 0.015182 0.000000 0.000000 0.000000
# 4 0.000000 0.000000 0.000000 0.028484 0.000000 0.000000
# 5 0.000000 0.000000 0.000000 0.000000 -0.006955 0.000000
# 6 0.000000 0.000000 0.000000 0.000000 0.000000 0.022363
#
#
# Mechanical properties :
#
#
# Convention : Reuss Voigt Hill
#
# Bulk Modulus (GPa) = 34.27123 38.28048 36.27586
# Shear Modulus (GPa) = 46.50311 0.51408 23.50859
#
# Velocity S-wave (km/s) = 4.73574 0.49792 3.36713
# Velocity P-wave (km/s) = 6.81403 4.33500 5.71066
#
# Compressibility (1/GPa) = 0.02917900
#
# Stress axis : x y z
#
# Youngs Moduli (GPa) = 61.52837 98.95687 65.86817
#
# Poissons Ratio (x) = 0.28213 0.01012
# Poissons Ratio (y) = 0.17542 0.20918
# Poissons Ratio (z) = 0.00946 0.31426
#
# Static dielectric constant tensor:
#      x y z
#    x 1.905740 0.000000 0.000000 
#    y 0.000000 1.650780 0.000000 
#    z 0.000000 0.000000 1.725170 
# 
# From -- ./inp_files/19493.got.cif
#   From: 2010.05.17/outbox.cif.g08.bks.cpg/sg37_10_cif.got.tgz:19493.got - 2010.06.03 17:53:42.
