data_PCOD9355659
_publ_section_title
;
Structure prediction by ZEFSAII (Michael W. Deem and Ramdas Pophale) SiO2 
 PCOD9355659
Probable space group: C C C 2
;
_chemical_formula_sum "Si O2"
_cell_formula_units_Z 60
_cell_length_a 27.273008
_cell_length_b 7.849210
_cell_length_c 12.253157
_cell_angle_alpha 90.000000
_cell_angle_beta 90.000000
_cell_angle_gamma 90.000000
_cell_volume 2623.052521
_symmetry_space_group_name_H-M "C C C 2"
_symmetry_group_IT_number 37
_symmetry_cell_setting 'orthorhombic'
loop_
_space_group_symop_operation_xyz
x,y,z
-x,-y,z
-x,y,1/2+z
x,-y,1/2+z
1/2+x,1/2+y,z
1/2-x,1/2-y,z
1/2-x,1/2+y,1/2+z
1/2+x,1/2-y,1/2+z
loop_
_atom_site_type_symbol
_atom_site_label
_atom_site_fract_x
_atom_site_fract_y
_atom_site_fract_z
Si Si1 0.840734 0.814870 0.051410
Si Si2 0.805464 0.816974 0.597766
Si Si3 0.936131 0.363326 0.555863
Si Si4 0.883688 0.672596 0.448759
Si Si5 0.198987 0.664903 0.768124
Si Si6 0.485659 0.692382 0.905730
Si Si7 0.000000 0.500000 0.237936
Si Si8 0.197093 0.278538 0.830163
O O1 0.896357 0.779079 0.087444
O O2 0.809506 0.721024 0.144259
O O3 0.819395 0.004153 0.043766
O O4 0.838513 0.739587 0.930052
O O5 0.750000 0.750000 0.578310
O O6 0.846622 0.690833 0.550695
O O7 0.811558 0.843629 0.727835
O O8 0.913038 0.495921 0.468274
O O9 0.953312 0.477105 0.658182
O O10 0.982556 0.265868 0.506159
O O11 0.847424 0.700736 0.346318
O O12 0.928308 0.803624 0.436888
O O13 0.250000 0.750000 0.807247
O O14 0.201176 0.462211 0.775563
O O15 0.500000 0.500000 0.877698
O O16 0.497785 0.829632 0.810866
O O17 0.250000 0.250000 0.882139
#
# Coordination Sequence:
#
# PCOD9355659 Si02
#       8
#     8   8   8   8   8   8   4   8
#     4  12  27  47  76 111 150 207 264 316 396 474
#     4  11  27  47  74 111 161 207 264 322 388 468
#     4  12  25  50  77 112 152 202 258 322 404 477
#     4  12  24  49  77 109 155 208 256 324 398 469
#     4  12  26  47  76 106 151 199 258 317 392 464
#     4  12  27  51  79 115 152 203 268 327 398 485
#     4  12  24  52  80 110 162 196 258 338 408 474
#     4  11  26  45  71 106 149 198 256 316 377 461
#
# _framework density 22.874113999999999
#
# number of rings (size 3 to 8) (size 9 to 14) (size 15 to 20)
#    0.000    0.267    4.000    4.800    5.600    1.600 
#    7.200    0.000    0.000    0.000    0.000    0.000 
#    0.000    0.000    0.000    0.000    0.000    0.000 
#
# Total GULP energy -167708.582576 kJ/mol
# GULP energy per Si atom -5590.286086 kJ/mol
# Density = 2.282205 g / cm^3
# Si number density = 22.874114 Si / 1000 Ang^3
#
#
#
# Elastic Constant Matrix: (Units=GPa)
#
#
# Indices 1 2 3 4 5 6 
#
# 1 158.4184 36.0607 37.6700 0.0000 0.0000 0.0000
# 2 36.0607 98.2986 15.0961 0.0000 0.0000 0.0000
# 3 37.6700 15.0961 91.6638 0.0000 0.0000 0.0000
# 4 0.0000 0.0000 0.0000 25.0777 0.0000 0.0000
# 5 0.0000 0.0000 0.0000 0.0000 25.5760 0.0000
# 6 0.0000 0.0000 0.0000 0.0000 0.0000 40.1018
#
#
#
# Elastic Compliance Matrix: (Units=1/GPa)
#
#
# Indices 1 2 3 4 5 6 
#
# 1 0.007483 -0.002332 -0.002691 0.000000 0.000000 0.000000
# 2 -0.002332 0.011164 -0.000880 0.000000 0.000000 0.000000
# 3 -0.002691 -0.000880 0.012160 0.000000 0.000000 0.000000
# 4 0.000000 0.000000 0.000000 0.039876 0.000000 0.000000
# 5 0.000000 0.000000 0.000000 0.000000 0.039099 0.000000
# 6 0.000000 0.000000 0.000000 0.000000 0.000000 0.024937
#
#
# Mechanical properties :
#
#
# Convention : Reuss Voigt Hill
#
# Bulk Modulus (GPa) = 52.63007 58.44826 55.53916
# Shear Modulus (GPa) = 32.70985 35.45470 34.08227
#
# Velocity S-wave (km/s) = 3.78563 3.94127 3.86423
# Velocity P-wave (km/s) = 6.49357 6.80581 6.65152
#
# Compressibility (1/GPa) = 0.01900055
#
# Stress axis : x y z
#
# Youngs Moduli (GPa) = 133.63363 89.57586 82.23426
#
# Poissons Ratio (x) = 0.20888 0.22131
# Poissons Ratio (y) = 0.31162 0.07239
# Poissons Ratio (z) = 0.35964 0.07885
#
# Static dielectric constant tensor:
#      x y z
#    x 1.878040 0.000000 0.000000 
#    y 0.000000 1.877490 0.000000 
#    z 0.000000 0.000000 1.853870 
# 
# From -- ./inp_files/9071.got.cif
#   From: 2010.05.17/outbox.cif.g08.bks.cpg/sg37_5_cif.got.tgz:9071.got - 2010.06.03 17:53:42.
