data_PCOD9355940
_publ_section_title
;
Structure prediction by ZEFSAII (Michael W. Deem and Ramdas Pophale) SiO2 
 PCOD9355940
Probable space group: A M M 2
;
_chemical_formula_sum "Si O2"
_cell_formula_units_Z 58
_cell_length_a 14.450265
_cell_length_b 12.626393
_cell_length_c 13.501331
_cell_angle_alpha 90.000000
_cell_angle_beta 90.000000
_cell_angle_gamma 90.000000
_cell_volume 2463.381633
_symmetry_space_group_name_H-M "A M M 2"
_symmetry_group_IT_number 38
_symmetry_cell_setting 'orthorhombic'
loop_
_space_group_symop_operation_xyz
x,y,z
-x,-y,z
-x,y,z
x,-y,z
x,1/2+y,1/2+z
-x,1/2-y,1/2+z
-x,1/2+y,1/2+z
x,1/2-y,1/2+z
loop_
_atom_site_type_symbol
_atom_site_label
_atom_site_fract_x
_atom_site_fract_y
_atom_site_fract_z
Si Si1 0.400205 0.655635 0.133910
Si Si2 0.606006 0.618565 0.897532
Si Si3 0.858744 0.843016 0.193192
Si Si4 0.338875 0.615391 0.613739
Si Si5 0.197657 0.114901 0.719602
Si Si6 0.106097 0.879415 0.425496
Si Si7 0.747310 0.793124 0.919041
Si Si8 0.000000 0.000000 0.105246
O O1 0.500000 0.618563 0.173438
O O2 0.398905 0.782940 0.138509
O O3 0.304096 0.619294 0.181861
O O4 0.395017 0.624045 0.017873
O O5 0.500000 0.632169 0.864603
O O6 0.637367 0.500000 0.868812
O O7 0.671129 0.715851 0.868519
O O8 0.753175 0.878351 0.179867
O O9 0.858445 0.716293 0.181615
O O10 0.890747 0.871147 0.304801
O O11 0.920100 0.907663 0.116978
O O12 0.381971 0.500000 0.621140
O O13 0.301155 0.638814 0.503104
O O14 0.204858 0.134859 0.837236
O O15 0.158213 0.000000 0.696158
O O16 0.178267 0.791163 0.461041
O O17 0.000000 0.861235 0.455786
O O18 0.133094 0.000000 0.451966
#
# Coordination Sequence:
#
# PCOD9355940 Si02
#       8
#     8   8   8   8   8   8   8   2
#     4   9  19  34  56  81 101 137 191 231 268 318
#     4   9  17  32  52  75 103 137 182 234 277 318
#     4  10  19  33  60  82 100 134 186 234 274 319
#     4  10  19  35  53  79 109 142 176 226 279 329
#     4  10  21  36  53  78 114 149 178 218 272 331
#     4  10  17  32  53  76 101 134 180 233 279 321
#     4  10  21  32  50  77 112 147 179 214 269 338
#     4  12  16  36  62  88  98 128 188 244 276 316
#
# _framework density 23.54487
#
# number of rings (size 3 to 8) (size 9 to 14) (size 15 to 20)
#    0.000    2.207    2.069    1.241    0.000    1.655 
#    1.241    1.034    0.000    3.310    0.000    0.000 
#    0.000    0.000    0.000    0.000    0.000    0.000 
#
# Total GULP energy -161893.833434 kJ/mol
# GULP energy per Si atom -5582.545980 kJ/mol
# Density = 2.349128 g / cm^3
# Si number density = 23.544870 Si / 1000 Ang^3
#
#
#
# Elastic Constant Matrix: (Units=GPa)
#
#
# Indices 1 2 3 4 5 6 
#
# 1 77.0630 32.1577 -2.9873 0.0000 0.0000 0.0000
# 2 32.1577 214.0335 2.4608 0.0000 0.0000 0.0000
# 3 -2.9873 2.4608 61.8200 0.0000 0.0000 0.0000
# 4 0.0000 0.0000 0.0000 9.6197 0.0000 0.0000
# 5 0.0000 0.0000 0.0000 0.0000 11.8339 0.0000
# 6 0.0000 0.0000 0.0000 0.0000 0.0000 7.7006
#
#
#
# Elastic Compliance Matrix: (Units=1/GPa)
#
#
# Indices 1 2 3 4 5 6 
#
# 1 0.013879 -0.002094 0.000754 0.000000 0.000000 0.000000
# 2 -0.002094 0.004990 -0.000300 0.000000 0.000000 0.000000
# 3 0.000754 -0.000300 0.016224 0.000000 0.000000 0.000000
# 4 0.000000 0.000000 0.000000 0.103953 0.000000 0.000000
# 5 0.000000 0.000000 0.000000 0.000000 0.084503 0.000000
# 6 0.000000 0.000000 0.000000 0.000000 0.000000 0.129860
#
#
# Mechanical properties :
#
#
# Convention : Reuss Voigt Hill
#
# Bulk Modulus (GPa) = 31.43223 46.24208 38.83716
# Shear Modulus (GPa) = 13.61303 27.24987 20.43145
#
# Velocity S-wave (km/s) = 2.40713 3.40569 2.94898
# Velocity P-wave (km/s) = 4.59398 5.92854 5.30340
#
# Compressibility (1/GPa) = 0.03181447
#
# Stress axis : x y z
#
# Youngs Moduli (GPa) = 72.04909 200.39164 61.63568
#
# Poissons Ratio (x) = 0.41962 -0.04648
# Poissons Ratio (y) = 0.15087 0.01848
# Poissons Ratio (z) = -0.05433 0.06008
#
# Static dielectric constant tensor:
#      x y z
#    x 1.866080 0.000000 0.000000 
#    y 0.000000 1.879800 0.000000 
#    z 0.000000 0.000000 1.928570 
# 
# From -- ./inp_files/18418.got.cif
#   From: 2010.05.17/outbox.cif.g08.bks.cpg/sg38_10_cif.got.tgz:18418.got - 2010.06.03 18:07:57.
