data_PCOD9355610
_publ_section_title
;
Structure prediction by ZEFSAII (Michael W. Deem and Ramdas Pophale) SiO2 
 PCOD9355610
Probable space group: C C C 2
;
_chemical_formula_sum "Si O2"
_cell_formula_units_Z 40
_cell_length_a 14.139887
_cell_length_b 12.469661
_cell_length_c 10.335843
_cell_angle_alpha 90.000000
_cell_angle_beta 90.000000
_cell_angle_gamma 90.000000
_cell_volume 1822.411677
_symmetry_space_group_name_H-M "C C C 2"
_symmetry_group_IT_number 37
_symmetry_cell_setting 'orthorhombic'
loop_
_space_group_symop_operation_xyz
x,y,z
-x,-y,z
-x,y,1/2+z
x,-y,1/2+z
1/2+x,1/2+y,z
1/2-x,1/2-y,z
1/2-x,1/2+y,1/2+z
1/2+x,1/2-y,1/2+z
loop_
_atom_site_type_symbol
_atom_site_label
_atom_site_fract_x
_atom_site_fract_y
_atom_site_fract_z
Si Si1 0.453833 0.387656 0.410750
Si Si2 0.757488 0.124556 0.784174
Si Si3 0.170811 0.686329 0.534089
Si Si4 0.900583 0.443303 0.303070
Si Si5 0.523107 0.255708 0.167517
O O1 0.500000 0.500000 0.446506
O O2 0.355156 0.413559 0.342029
O O3 0.514424 0.322586 0.302027
O O4 0.441330 0.319742 0.541916
O O5 0.750000 0.250000 0.829066
O O6 0.747644 0.132535 0.629309
O O7 0.677067 0.036898 0.808404
O O8 0.250000 0.750000 0.449653
O O9 0.112203 0.613809 0.439287
O O10 0.086988 0.729758 0.628499
O O11 0.911197 0.348095 0.196464
O O12 0.000000 0.500000 0.292661
#
# Coordination Sequence:
#
# PCOD9355610 Si02
#       5
#     8   8   8   8   8
#     4  12  27  49  78 110 158 211 253 329 405 462
#     4  11  25  48  70 107 152 200 254 329 390 467
#     4  11  24  45  74 104 154 201 259 330 381 456
#     4  12  26  43  81 114 148 204 263 326 388 461
#     4  12  25  49  75 110 154 201 269 318 385 478
#
# _framework density 21.948938999999999
#
# number of rings (size 3 to 8) (size 9 to 14) (size 15 to 20)
#    0.000    0.400    8.000    0.600    5.600    1.600 
#    0.000    1.000    0.000    0.000    0.000    0.000 
#    0.000    0.000    0.000    0.000    0.000    0.000 
#
# Total GULP energy -111414.185388 kJ/mol
# GULP energy per Si atom -5570.709269 kJ/mol
# Density = 2.189898 g / cm^3
# Si number density = 21.948939 Si / 1000 Ang^3
#
#
#
# Elastic Constant Matrix: (Units=GPa)
#
#
# Indices 1 2 3 4 5 6 
#
# 1 71.1246 37.2816 18.5211 0.0000 0.0000 0.0000
# 2 37.2816 120.0213 51.0444 0.0000 0.0000 0.0000
# 3 18.5211 51.0444 89.3137 0.0000 0.0000 0.0000
# 4 0.0000 0.0000 0.0000 21.2182 0.0000 0.0000
# 5 0.0000 0.0000 0.0000 0.0000 175.4783 0.0000
# 6 0.0000 0.0000 0.0000 0.0000 0.0000 35.8556
#
#
#
# Elastic Compliance Matrix: (Units=1/GPa)
#
#
# Indices 1 2 3 4 5 6 
#
# 1 0.016824 -0.004944 -0.000663 0.000000 0.000000 0.000000
# 2 -0.004944 0.012460 -0.006096 0.000000 0.000000 0.000000
# 3 -0.000663 -0.006096 0.014818 0.000000 0.000000 0.000000
# 4 0.000000 0.000000 0.000000 0.047129 0.000000 0.000000
# 5 0.000000 0.000000 0.000000 0.000000 0.005699 0.000000
# 6 0.000000 0.000000 0.000000 0.000000 0.000000 0.027890
#
#
# Mechanical properties :
#
#
# Convention : Reuss Voigt Hill
#
# Bulk Modulus (GPa) = 48.31889 54.90599 51.61244
# Shear Modulus (GPa) = 32.23214 58.08459 45.15836
#
# Velocity S-wave (km/s) = 3.83627 5.14985 4.54081
# Velocity P-wave (km/s) = 6.45636 7.77373 7.14547
#
# Compressibility (1/GPa) = 0.02069584
#
# Stress axis : x y z
#
# Youngs Moduli (GPa) = 59.43888 80.25604 67.48553
#
# Poissons Ratio (x) = 0.39677 0.04476
# Poissons Ratio (y) = 0.29386 0.41139
# Poissons Ratio (z) = 0.03943 0.48924
#
# Static dielectric constant tensor:
#      x y z
#    x 1.745870 0.000000 0.000000 
#    y 0.000000 1.959080 0.000000 
#    z 0.000000 0.000000 1.826720 
# 
# From -- ./inp_files/7654.got.cif
#   From: 2010.05.17/outbox.cif.g08.bks.cpg/sg37_4_cif.got.tgz:7654.got - 2010.06.03 17:53:42.
