data_PCOD9355738
_publ_section_title
;
Structure prediction by ZEFSAII (Michael W. Deem and Ramdas Pophale) SiO2 
 PCOD9355738
Probable space group: C C C 2
;
_chemical_formula_sum "Si O2"
_cell_formula_units_Z 32
_cell_length_a 11.335437
_cell_length_b 9.578835
_cell_length_c 12.126883
_cell_angle_alpha 90.000000
_cell_angle_beta 90.000000
_cell_angle_gamma 90.000000
_cell_volume 1316.740360
_symmetry_space_group_name_H-M "C C C 2"
_symmetry_group_IT_number 37
_symmetry_cell_setting 'orthorhombic'
loop_
_space_group_symop_operation_xyz
x,y,z
-x,-y,z
-x,y,1/2+z
x,-y,1/2+z
1/2+x,1/2+y,z
1/2-x,1/2-y,z
1/2-x,1/2+y,1/2+z
1/2+x,1/2-y,1/2+z
loop_
_atom_site_type_symbol
_atom_site_label
_atom_site_fract_x
_atom_site_fract_y
_atom_site_fract_z
Si Si1 0.100018 0.094933 0.007770
Si Si2 0.750000 0.750000 0.842512
Si Si3 0.804560 0.383868 0.966714
Si Si4 0.932413 0.765167 0.670415
Si Si5 0.000000 0.500000 0.813466
O O1 0.038613 0.144196 0.120638
O O2 0.146576 0.223619 0.935655
O O3 0.000000 0.000000 0.949100
O O4 0.208718 0.988621 0.017067
O O5 0.828674 0.832170 0.746404
O O6 0.750000 0.250000 0.904209
O O7 0.885342 0.473985 0.887101
O O8 0.877193 0.308631 0.062668
O O9 0.979941 0.637152 0.742246
#
# Coordination Sequence:
#
# PCOD9355738 Si02
#       5
#     8   4   8   8   4
#     4  12  27  49  78 113 163 205 267 334 395 483
#     4  12  26  50  80 114 158 210 268 328 400 480
#     4  12  26  50  76 113 158 206 269 334 393 488
#     4  12  26  48  76 113 155 211 263 326 407 471
#     4  12  28  48  78 116 160 208 272 328 404 482
#
# _framework density 24.302437000000001
#
# number of rings (size 3 to 8) (size 9 to 14) (size 15 to 20)
#    0.000    0.000    6.250    2.250    3.500    5.000 
#    0.000    0.000    0.000    0.000    0.000    0.000 
#    0.000    0.000    0.000    0.000    0.000    0.000 
#
# Total GULP energy -89096.265457 kJ/mol
# GULP energy per Si atom -5568.516591 kJ/mol
# Density = 2.424712 g / cm^3
# Si number density = 24.302437 Si / 1000 Ang^3
#
#
#
# Elastic Constant Matrix: (Units=GPa)
#
#
# Indices 1 2 3 4 5 6 
#
# 1 136.5937 63.5798 55.7490 0.0000 0.0000 0.0000
# 2 63.5798 143.0325 48.1747 0.0000 0.0000 0.0000
# 3 55.7490 48.1747 96.7870 0.0000 0.0000 0.0000
# 4 0.0000 0.0000 0.0000 46.1976 0.0000 0.0000
# 5 0.0000 0.0000 0.0000 0.0000 52.1993 0.0000
# 6 0.0000 0.0000 0.0000 0.0000 0.0000 62.2610
#
#
#
# Elastic Compliance Matrix: (Units=1/GPa)
#
#
# Indices 1 2 3 4 5 6 
#
# 1 0.010673 -0.003212 -0.004549 0.000000 0.000000 0.000000
# 2 -0.003212 0.009366 -0.002812 0.000000 0.000000 0.000000
# 3 -0.004549 -0.002812 0.014351 0.000000 0.000000 0.000000
# 4 0.000000 0.000000 0.000000 0.021646 0.000000 0.000000
# 5 0.000000 0.000000 0.000000 0.000000 0.019157 0.000000
# 6 0.000000 0.000000 0.000000 0.000000 0.000000 0.016061
#
#
# Mechanical properties :
#
#
# Convention : Reuss Voigt Hill
#
# Bulk Modulus (GPa) = 75.49810 79.04667 77.27239
# Shear Modulus (GPa) = 42.80263 46.05890 44.43077
#
# Velocity S-wave (km/s) = 4.20128 4.35816 4.28043
# Velocity P-wave (km/s) = 7.39377 7.61062 7.50298
#
# Compressibility (1/GPa) = 0.01324537
#
# Stress axis : x y z
#
# Youngs Moduli (GPa) = 93.69846 106.76598 69.67924
#
# Poissons Ratio (x) = 0.34294 0.31694
# Poissons Ratio (y) = 0.30097 0.19593
# Poissons Ratio (z) = 0.42619 0.30021
#
# Static dielectric constant tensor:
#      x y z
#    x 2.011400 0.000000 0.000000 
#    y 0.000000 1.710220 0.000000 
#    z 0.000000 0.000000 1.889090 
# 
# From -- ./inp_files/6839.got.cif
#   From: 2010.05.17/outbox.cif.g08.bks.cpg/sg37_4_cif.got.tgz:6839.got - 2010.06.03 17:53:42.
