data_PCOD9355773
_publ_section_title
;
Structure prediction by ZEFSAII (Michael W. Deem and Ramdas Pophale) SiO2 
 PCOD9355773
Probable space group: C C C 2
;
_chemical_formula_sum "Si O2"
_cell_formula_units_Z 30
_cell_length_a 12.000000
_cell_length_b 12.000000
_cell_length_c 21.000000
_cell_angle_alpha 90.000000
_cell_angle_beta 90.000000
_cell_angle_gamma 90.000000
_cell_volume 3024.000000
_symmetry_space_group_name_H-M "C C C 2"
_symmetry_group_IT_number 37
_symmetry_cell_setting 'orthorhombic'
loop_
_space_group_symop_operation_xyz
x,y,z
-x,-y,z
-x,y,1/2+z
x,-y,1/2+z
1/2+x,1/2+y,z
1/2-x,1/2-y,z
1/2-x,1/2+y,1/2+z
1/2+x,1/2-y,1/2+z
loop_
_atom_site_type_symbol
_atom_site_label
_atom_site_fract_x
_atom_site_fract_y
_atom_site_fract_z
Si Si1 0.000000 0.500000 0.588610
Si Si2 0.985207 0.870854 0.354966
Si Si3 0.444025 0.126789 0.298060
Si Si4 0.628421 0.194291 0.658452
Si Si5 0.763677 0.407379 0.905536
Si Si6 0.139597 0.703908 0.029661
Si Si7 0.466186 0.374884 0.071997
Si Si8 0.314970 0.364956 0.955568
O O1 0.092415 0.579825 0.622775
O O2 0.073235 0.403901 0.554865
O O3 0.999960 0.747810 0.320451
O O4 0.860113 0.874281 0.382950
O O5 0.077094 0.868301 0.410409
O O6 0.000000 0.000000 0.325166
O O7 0.395285 0.161954 0.230428
O O8 0.344748 0.105023 0.346641
O O9 0.500000 0.000000 0.293345
O O10 0.750000 0.250000 0.650738
O O11 0.550310 0.293418 0.631608
O O12 0.759238 0.532853 0.932197
O O13 0.816548 0.336705 0.962049
O O14 0.250000 0.750000 0.065918
O O15 0.057990 0.809753 0.029979
O O16 0.500000 0.500000 0.088144
O O17 0.356773 0.380048 0.027776
O O18 0.250000 0.250000 0.950084
#
# Coordination Sequence:
#
# PCOD9355773 Si02
#       8
#     4   8   8   8   8   8   8   8
#     4  10  26  44  64 102 132 172 238 282 336 416
#     4  10  22  41  63  96 135 170 221 279 347 425
#     4  12  24  43  69  96 133 176 236 283 343 419
#     4  11  25  45  68  90 130 182 226 283 338 418
#     4  11  23  38  67  99 131 176 218 278 353 416
#     4  11  23  39  67  97 137 170 212 286 347 407
#     4  11  24  40  63  96 129 173 225 277 346 424
#     4  11  22  37  62 100 136 168 216 283 355 417
#
# _framework density 9.9206350000000008
#
# number of rings (size 3 to 8) (size 9 to 14) (size 15 to 20)
#    0.000    1.067    0.667    6.800    8.400    0.533 
#    0.000    0.000    0.000    0.000    0.000    0.000 
#    0.000    0.000    0.000    0.000    0.000    0.000 
#
# Total GULP energy -167071.443240 kJ/mol
# GULP energy per Si atom -5569.048108 kJ/mol
# Density = 0.989806 g / cm^3
# Si number density = 9.920635 Si / 1000 Ang^3
#
#
#
# Elastic Constant Matrix: (Units=GPa)
#
#
# Indices 1 2 3 4 5 6 
#
# 1 85.2060 53.9405 43.8531 0.0000 0.0000 0.0000
# 2 53.9405 204.1634 53.1069 0.0000 0.0000 0.0000
# 3 43.8531 53.1069 69.3567 0.0000 0.0000 0.0000
# 4 0.0000 0.0000 0.0000 24.0629 0.0000 0.0000
# 5 0.0000 0.0000 0.0000 0.0000 20.1141 0.0000
# 6 0.0000 0.0000 0.0000 0.0000 0.0000 48.2186
#
#
#
# Elastic Compliance Matrix: (Units=1/GPa)
#
#
# Indices 1 2 3 4 5 6 
#
# 1 0.018201 -0.002267 -0.009772 0.000000 0.000000 0.000000
# 2 -0.002267 0.006399 -0.003466 0.000000 0.000000 0.000000
# 3 -0.009772 -0.003466 0.023251 0.000000 0.000000 0.000000
# 4 0.000000 0.000000 0.000000 0.041558 0.000000 0.000000
# 5 0.000000 0.000000 0.000000 0.000000 0.049716 0.000000
# 6 0.000000 0.000000 0.000000 0.000000 0.000000 0.020739
#
#
# Mechanical properties :
#
#
# Convention : Reuss Voigt Hill
#
# Bulk Modulus (GPa) = 59.38272 73.39189 66.38731
# Shear Modulus (GPa) = 25.44689 32.33415 28.89052
#
# Velocity S-wave (km/s) = 3.58512 4.04126 3.82000
# Velocity P-wave (km/s) = 6.86522 7.67108 7.27931
#
# Compressibility (1/GPa) = 0.01683992
#
# Stress axis : x y z
#
# Youngs Moduli (GPa) = 54.94258 156.28583 43.00840
#
# Poissons Ratio (x) = 0.35425 0.42030
# Poissons Ratio (y) = 0.12454 0.14908
# Poissons Ratio (z) = 0.53692 0.54172
#
# Static dielectric constant tensor:
#      x y z
#    x 1.739200 0.000000 0.000000 
#    y 0.000000 1.741930 0.000000 
#    z 0.000000 0.000000 1.723750 
# 
# From -- ./inp_files/16924.got.cif
#   From: 2010.05.17/outbox.ucp.g08.bks.cvg/sg37_9_cif.got.tgz:16924.got - 2010.06.11 10:38:43.
