data_PCOD9355242
_publ_section_title
;
Structure prediction by ZEFSAII (Michael W. Deem and Ramdas Pophale) SiO2 
 PCOD9355242
Probable space group: C C C 2
;
_chemical_formula_sum "Si O2"
_cell_formula_units_Z 64
_cell_length_a 14.059688
_cell_length_b 23.235490
_cell_length_c 8.781049
_cell_angle_alpha 90.000000
_cell_angle_beta 90.000000
_cell_angle_gamma 90.000000
_cell_volume 2868.625928
_symmetry_space_group_name_H-M "C C C 2"
_symmetry_group_IT_number 37
_symmetry_cell_setting 'orthorhombic'
loop_
_space_group_symop_operation_xyz
x,y,z
-x,-y,z
-x,y,1/2+z
x,-y,1/2+z
1/2+x,1/2+y,z
1/2-x,1/2-y,z
1/2-x,1/2+y,1/2+z
1/2+x,1/2-y,1/2+z
loop_
_atom_site_type_symbol
_atom_site_label
_atom_site_fract_x
_atom_site_fract_y
_atom_site_fract_z
Si Si1 0.573716 0.885201 0.066950
Si Si2 0.082523 0.953151 0.697169
Si Si3 0.857515 0.420214 0.046068
Si Si4 0.587141 0.697695 0.670523
Si Si5 0.003632 0.693935 0.838728
Si Si6 0.477362 0.622994 0.425816
Si Si7 0.298959 0.976994 0.729168
Si Si8 0.803324 0.711185 0.512756
O O1 0.471317 0.914242 0.037052
O O2 0.556078 0.846372 0.216515
O O3 0.653028 0.931616 0.110213
O O4 0.580136 0.841816 0.923461
O O5 0.071545 0.923174 0.533958
O O6 0.186260 0.978323 0.712291
O O7 0.061293 0.906401 0.828304
O O8 0.000000 0.000000 0.711278
O O9 0.836853 0.459794 0.191230
O O10 0.823841 0.453970 0.896123
O O11 0.805946 0.357888 0.047762
O O12 0.538544 0.751132 0.755261
O O13 0.523740 0.669663 0.538562
O O14 0.593878 0.649977 0.802597
O O15 0.687032 0.721249 0.605255
O O16 0.084187 0.711601 0.958572
O O17 0.750000 0.750000 0.378252
#
# Coordination Sequence:
#
# PCOD9355242 Si02
#       8
#     8   8   8   8   8   8   8   8
#     4  11  22  44  70 101 145 186 236 286 356 432
#     4  11  27  49  72 102 143 187 243 310 360 428
#     4  11  27  45  69 108 141 193 241 292 366 433
#     4  11  20  41  69 100 134 186 228 288 361 423
#     4  11  20  41  70  99 140 191 231 287 358 425
#     4  10  24  42  74 100 137 180 242 292 363 424
#     4  12  28  45  75 105 143 192 239 298 369 435
#     4  11  24  41  69  99 141 183 238 294 355 426
#
# _framework density 22.310333
#
# number of rings (size 3 to 8) (size 9 to 14) (size 15 to 20)
#    0.000    1.000    6.250    0.750    7.000    2.000 
#    2.250    0.000    0.000    0.000    0.000    0.000 
#    0.000    0.000    0.000    0.000    0.000    0.000 
#
# Total GULP energy -178521.750524 kJ/mol
# GULP energy per Si atom -5578.804704 kJ/mol
# Density = 2.225955 g / cm^3
# Si number density = 22.310333 Si / 1000 Ang^3
#
#
#
# Elastic Constant Matrix: (Units=GPa)
#
#
# Indices 1 2 3 4 5 6 
#
# 1 100.5453 35.9997 18.0313 0.0000 0.0000 0.0000
# 2 35.9997 119.7632 47.5832 0.0000 0.0000 0.0000
# 3 18.0313 47.5832 93.6362 0.0000 0.0000 0.0000
# 4 0.0000 0.0000 0.0000 26.3968 0.0000 0.0000
# 5 0.0000 0.0000 0.0000 0.0000 8.3471 0.0000
# 6 0.0000 0.0000 0.0000 0.0000 0.0000 40.1717
#
#
#
# Elastic Compliance Matrix: (Units=1/GPa)
#
#
# Indices 1 2 3 4 5 6 
#
# 1 0.011168 -0.003136 -0.000557 0.000000 0.000000 0.000000
# 2 -0.003136 0.011343 -0.005160 0.000000 0.000000 0.000000
# 3 -0.000557 -0.005160 0.013409 0.000000 0.000000 0.000000
# 4 0.000000 0.000000 0.000000 0.037883 0.000000 0.000000
# 5 0.000000 0.000000 0.000000 0.000000 0.119802 0.000000
# 6 0.000000 0.000000 0.000000 0.000000 0.000000 0.024893
#
#
# Mechanical properties :
#
#
# Convention : Reuss Voigt Hill
#
# Bulk Modulus (GPa) = 54.90269 57.46366 56.18317
# Shear Modulus (GPa) = 20.63761 29.13848 24.88804
#
# Velocity S-wave (km/s) = 3.04472 3.61786 3.34359
# Velocity P-wave (km/s) = 6.08461 6.57756 6.33588
#
# Compressibility (1/GPa) = 0.01821405
#
# Stress axis : x y z
#
# Youngs Moduli (GPa) = 89.53811 88.16355 74.57595
#
# Poissons Ratio (x) = 0.27646 0.04155
# Poissons Ratio (y) = 0.28077 0.38482
# Poissons Ratio (z) = 0.04989 0.45493
#
# Static dielectric constant tensor:
#      x y z
#    x 1.839490 0.000000 0.000000 
#    y 0.000000 1.903100 0.000000 
#    z 0.000000 0.000000 1.866220 
# 
# From -- ./inp_files/3772.got.cif
#   From: 2010.05.17/outbox.cif.g08.bks.cpg/sg37_2_cif.got.tgz:3772.got - 2010.06.03 17:53:42.
