data_PCOD9355413
_publ_section_title
;
Structure prediction by ZEFSAII (Michael W. Deem and Ramdas Pophale) SiO2 
 PCOD9355413
Probable space group: C C C 2
;
_chemical_formula_sum "Si O2"
_cell_formula_units_Z 32
_cell_length_a 15.350906
_cell_length_b 10.134060
_cell_length_c 8.004438
_cell_angle_alpha 90.000000
_cell_angle_beta 90.000000
_cell_angle_gamma 90.000000
_cell_volume 1245.226426
_symmetry_space_group_name_H-M "C C C 2"
_symmetry_group_IT_number 37
_symmetry_cell_setting 'orthorhombic'
loop_
_space_group_symop_operation_xyz
x,y,z
-x,-y,z
-x,y,1/2+z
x,-y,1/2+z
1/2+x,1/2+y,z
1/2-x,1/2-y,z
1/2-x,1/2+y,1/2+z
1/2+x,1/2-y,1/2+z
loop_
_atom_site_type_symbol
_atom_site_label
_atom_site_fract_x
_atom_site_fract_y
_atom_site_fract_z
Si Si1 0.261485 0.611022 0.397320
Si Si2 0.855820 0.486661 0.660327
Si Si3 0.066872 0.876546 0.607663
Si Si4 0.430594 0.801411 0.915340
O O1 0.250000 0.750000 0.307080
O O2 0.178974 0.613683 0.522409
O O3 0.231963 0.502549 0.268147
O O4 0.351405 0.587609 0.490409
O O5 0.926573 0.421508 0.781041
O O6 0.881874 0.622862 0.568836
O O7 0.096914 0.816375 0.786957
O O8 0.012431 0.765010 0.506195
O O9 0.000000 0.000000 0.633103
#
# Coordination Sequence:
#
# PCOD9355413 Si02
#       4
#     8   8   8   8
#     4  11  25  50  74 115 151 203 262 319 390 471
#     4  10  26  51  83 106 155 206 266 327 386 467
#     4  12  29  48  78 117 166 204 260 324 403 478
#     4  11  27  51  77 117 152 209 263 325 398 471
#
# _framework density 25.698138
#
# number of rings (size 3 to 8) (size 9 to 14) (size 15 to 20)
#    0.000    1.000    2.500    0.750   10.500    3.000 
#    4.500    0.000    0.000    0.000    0.000    0.000 
#    0.000    0.000    0.000    0.000    0.000    0.000 
#
# Total GULP energy -89150.945459 kJ/mol
# GULP energy per Si atom -5571.934091 kJ/mol
# Density = 2.563965 g / cm^3
# Si number density = 25.698138 Si / 1000 Ang^3
#
#
#
# Elastic Constant Matrix: (Units=GPa)
#
#
# Indices 1 2 3 4 5 6 
#
# 1 122.1027 89.2872 51.7006 0.0000 0.0000 0.0000
# 2 89.2872 118.3385 63.1095 0.0000 0.0000 0.0000
# 3 51.7006 63.1095 124.2921 0.0000 0.0000 0.0000
# 4 0.0000 0.0000 0.0000 25.2033 0.0000 0.0000
# 5 0.0000 0.0000 0.0000 0.0000 28.0753 0.0000
# 6 0.0000 0.0000 0.0000 0.0000 0.0000 43.0648
#
#
#
# Elastic Compliance Matrix: (Units=1/GPa)
#
#
# Indices 1 2 3 4 5 6 
#
# 1 0.018331 -0.013391 -0.000826 0.000000 0.000000 0.000000
# 2 -0.013391 0.021370 -0.005281 0.000000 0.000000 0.000000
# 3 -0.000826 -0.005281 0.011070 0.000000 0.000000 0.000000
# 4 0.000000 0.000000 0.000000 0.039677 0.000000 0.000000
# 5 0.000000 0.000000 0.000000 0.000000 0.035618 0.000000
# 6 0.000000 0.000000 0.000000 0.000000 0.000000 0.023221
#
#
# Mechanical properties :
#
#
# Convention : Reuss Voigt Hill
#
# Bulk Modulus (GPa) = 84.91056 85.88089 85.39573
# Shear Modulus (GPa) = 26.01342 29.97777 27.99560
#
# Velocity S-wave (km/s) = 3.18507 3.41916 3.30419
# Velocity P-wave (km/s) = 6.82931 7.00566 6.91804
#
# Compressibility (1/GPa) = 0.01177710
#
# Stress axis : x y z
#
# Youngs Moduli (GPa) = 54.55096 46.79502 90.33131
#
# Poissons Ratio (x) = 0.62662 0.07462
# Poissons Ratio (y) = 0.73048 0.47700
# Poissons Ratio (z) = 0.04506 0.24710
#
# Static dielectric constant tensor:
#      x y z
#    x 2.072860 0.000000 0.000000 
#    y 0.000000 2.141900 0.000000 
#    z 0.000000 0.000000 2.043860 
# 
# From -- ./inp_files/3229.got.cif
#   From: 2010.05.17/outbox.cif.g08.bks.cpg/sg37_2_cif.got.tgz:3229.got - 2010.06.03 17:53:42.
