data_PCOD9355464
_publ_section_title
;
Structure prediction by ZEFSAII (Michael W. Deem and Ramdas Pophale) SiO2 
 PCOD9355464
Probable space group: C C C 2
;
_chemical_formula_sum "Si O2"
_cell_formula_units_Z 48
_cell_length_a 25.652215
_cell_length_b 9.031644
_cell_length_c 9.812872
_cell_angle_alpha 90.000000
_cell_angle_beta 90.000000
_cell_angle_gamma 90.000000
_cell_volume 2273.462609
_symmetry_space_group_name_H-M "C C C 2"
_symmetry_group_IT_number 37
_symmetry_cell_setting 'orthorhombic'
loop_
_space_group_symop_operation_xyz
x,y,z
-x,-y,z
-x,y,1/2+z
x,-y,1/2+z
1/2+x,1/2+y,z
1/2-x,1/2-y,z
1/2-x,1/2+y,1/2+z
1/2+x,1/2-y,1/2+z
loop_
_atom_site_type_symbol
_atom_site_label
_atom_site_fract_x
_atom_site_fract_y
_atom_site_fract_z
Si Si1 0.248871 0.578775 0.205970
Si Si2 0.533664 0.846489 0.674416
Si Si3 0.387335 0.808171 0.562380
Si Si4 0.631966 0.992208 0.802710
Si Si5 0.005961 0.823172 0.441406
Si Si6 0.208972 0.118261 0.969564
O O1 0.250000 0.750000 0.167348
O O2 0.192016 0.538214 0.265155
O O3 0.263869 0.486906 0.075799
O O4 0.292609 0.546910 0.320841
O O5 0.590834 0.881930 0.731202
O O6 0.536857 0.761926 0.531576
O O7 0.500000 0.000000 0.662804
O O8 0.507997 0.741691 0.789316
O O9 0.377063 0.952210 0.462647
O O10 0.441814 0.735329 0.518579
O O11 0.343518 0.689813 0.522897
O O12 0.382274 0.857256 0.720206
O O13 0.000000 0.000000 0.443394
O O14 0.250000 0.250000 0.948418
#
# Coordination Sequence:
#
# PCOD9355464 Si02
#       6
#     8   8   8   8   8   8
#     4  11  22  41  63  93 131 170 213 270 324 385
#     4  11  23  41  68  95 125 170 224 270 322 398
#     4  11  23  43  67  95 131 174 217 270 327 393
#     4  11  21  39  68  94 124 171 219 266 316 389
#     4  11  25  44  64  95 136 168 214 279 336 387
#     4  11  22  42  64  92 133 167 215 269 322 383
#
# _framework density 21.11317
#
# number of rings (size 3 to 8) (size 9 to 14) (size 15 to 20)
#    0.000    1.000    6.667    1.000    2.333    2.000 
#    6.000    0.000    0.000    0.000    0.000    0.000 
#    0.000    0.000    0.000    0.000    0.000    0.000 
#
# Total GULP energy -133965.711690 kJ/mol
# GULP energy per Si atom -5581.904654 kJ/mol
# Density = 2.106512 g / cm^3
# Si number density = 21.113170 Si / 1000 Ang^3
#
#
#
# Elastic Constant Matrix: (Units=GPa)
#
#
# Indices 1 2 3 4 5 6 
#
# 1 53.1436 10.8827 -5.8992 0.0000 0.0000 0.0000
# 2 10.8827 98.7411 45.3408 0.0000 0.0000 0.0000
# 3 -5.8992 45.3408 92.1550 0.0000 0.0000 0.0000
# 4 0.0000 0.0000 0.0000 30.4553 0.0000 0.0000
# 5 0.0000 0.0000 0.0000 0.0000 36.6747 0.0000
# 6 0.0000 0.0000 0.0000 0.0000 0.0000 31.2038
#
#
#
# Elastic Compliance Matrix: (Units=1/GPa)
#
#
# Indices 1 2 3 4 5 6 
#
# 1 0.019889 -0.003587 0.003038 0.000000 0.000000 0.000000
# 2 -0.003587 0.013730 -0.006985 0.000000 0.000000 0.000000
# 3 0.003038 -0.006985 0.014482 0.000000 0.000000 0.000000
# 4 0.000000 0.000000 0.000000 0.032835 0.000000 0.000000
# 5 0.000000 0.000000 0.000000 0.000000 0.027267 0.000000
# 6 0.000000 0.000000 0.000000 0.000000 0.000000 0.032047
#
#
# Mechanical properties :
#
#
# Convention : Reuss Voigt Hill
#
# Bulk Modulus (GPa) = 30.27244 38.29870 34.28557
# Shear Modulus (GPa) = 30.06077 32.58112 31.32094
#
# Velocity S-wave (km/s) = 3.77741 3.93258 3.85577
# Velocity P-wave (km/s) = 5.77879 6.22891 6.00807
#
# Compressibility (1/GPa) = 0.03303334
#
# Stress axis : x y z
#
# Youngs Moduli (GPa) = 50.27973 72.83175 69.04919
#
# Poissons Ratio (x) = 0.26125 -0.20977
# Poissons Ratio (y) = 0.18036 0.48231
# Poissons Ratio (z) = -0.15275 0.50873
#
# Static dielectric constant tensor:
#      x y z
#    x 1.750390 0.000000 0.000000 
#    y 0.000000 1.755930 0.000000 
#    z 0.000000 0.000000 1.790680 
# 
# From -- ./inp_files/2426.got.cif
#   From: 2010.05.17/outbox.cif.g08.bks.cpg/sg37_2_cif.got.tgz:2426.got - 2010.06.03 17:53:42.
