data_PCOD9355417
_publ_section_title
;
Structure prediction by ZEFSAII (Michael W. Deem and Ramdas Pophale) SiO2 
 PCOD9355417
Probable space group: C C C 2
;
_chemical_formula_sum "Si O2"
_cell_formula_units_Z 40
_cell_length_a 4.811105
_cell_length_b 14.323530
_cell_length_c 24.911696
_cell_angle_alpha 90.000000
_cell_angle_beta 90.000000
_cell_angle_gamma 90.000000
_cell_volume 1716.714964
_symmetry_space_group_name_H-M "C C C 2"
_symmetry_group_IT_number 37
_symmetry_cell_setting 'orthorhombic'
loop_
_space_group_symop_operation_xyz
x,y,z
-x,-y,z
-x,y,1/2+z
x,-y,1/2+z
1/2+x,1/2+y,z
1/2-x,1/2-y,z
1/2-x,1/2+y,1/2+z
1/2+x,1/2-y,1/2+z
loop_
_atom_site_type_symbol
_atom_site_label
_atom_site_fract_x
_atom_site_fract_y
_atom_site_fract_z
Si Si1 0.500000 0.000000 0.719671
Si Si2 0.896914 0.903986 0.808211
Si Si3 0.250000 0.750000 0.174141
Si Si4 0.872033 0.907520 0.126389
Si Si5 0.250000 0.750000 0.974211
Si Si6 0.250000 0.250000 0.052367
Si Si7 0.750000 0.750000 0.251896
Si Si8 0.250000 0.750000 0.393148
O O1 0.699064 0.940570 0.759964
O O2 0.291404 0.947088 0.678267
O O3 0.142452 0.838515 0.785032
O O4 0.773670 0.837783 0.853358
O O5 0.000000 0.000000 0.833761
O O6 0.498726 0.776041 0.213526
O O7 0.684878 0.840098 0.089399
O O8 0.119999 0.837467 0.143164
O O9 0.000000 0.000000 0.099365
O O10 0.487385 0.777377 0.930321
O O11 0.484406 0.716432 0.017733
#
# Coordination Sequence:
#
# PCOD9355417 Si02
#       8
#     4   8   4   8   4   4   4   4
#     4  12  30  52  74 130 188 212 270 312 398 514
#     4  12  30  48  78 121 169 219 264 324 394 514
#     4  12  28  46  73 107 168 234 272 310 382 468
#     4  12  30  48  78 121 169 219 264 324 394 514
#     4  10  26  58  84 116 140 204 284 378 392 468
#     4  11  27  54  88 108 159 205 280 342 426 450
#     4  12  28  46  73 107 168 234 272 310 382 468
#     4  11  27  54  88 108 159 205 280 342 426 450
#
# _framework density 23.300314
#
# number of rings (size 3 to 8) (size 9 to 14) (size 15 to 20)
#    0.000    0.400    0.000    5.400   28.000    0.000 
#    0.000    6.000    0.000    0.000    0.000    0.000 
#    0.000    0.000    0.000    0.000    0.000    0.000 
#
# Total GULP energy -111578.413099 kJ/mol
# GULP energy per Si atom -5578.920655 kJ/mol
# Density = 2.324728 g / cm^3
# Si number density = 23.300314 Si / 1000 Ang^3
#
#
#
# Elastic Constant Matrix: (Units=GPa)
#
#
# Indices 1 2 3 4 5 6 
#
# 1 153.8391 42.7558 50.3493 0.0000 0.0000 0.0000
# 2 42.7558 194.8485 59.5788 0.0000 0.0000 0.0000
# 3 50.3493 59.5788 134.2886 0.0000 0.0000 0.0000
# 4 0.0000 0.0000 0.0000 -42.3276 0.0000 0.0000
# 5 0.0000 0.0000 0.0000 0.0000 46.1798 0.0000
# 6 0.0000 0.0000 0.0000 0.0000 0.0000 53.6206
#
#
#
# Elastic Compliance Matrix: (Units=1/GPa)
#
#
# Indices 1 2 3 4 5 6 
#
# 1 0.007548 -0.000915 -0.002424 0.000000 0.000000 0.000000
# 2 -0.000915 0.006049 -0.002340 0.000000 0.000000 0.000000
# 3 -0.002424 -0.002340 0.009394 0.000000 0.000000 0.000000
# 4 0.000000 0.000000 0.000000 -0.023625 0.000000 0.000000
# 5 0.000000 0.000000 0.000000 0.000000 0.021654 0.000000
# 6 0.000000 0.000000 0.000000 0.000000 0.000000 0.018650
#
#
# Mechanical properties :
#
#
# Convention : Reuss Voigt Hill
#
# Bulk Modulus (GPa) = 85.97424 87.59378 86.78401
# Shear Modulus (GPa) = 91.06569 33.51405 62.28987
#
# Velocity S-wave (km/s) = 6.25846 3.79668 5.17605
# Velocity P-wave (km/s) = 9.44473 7.54285 8.54686
#
# Compressibility (1/GPa) = 0.01163139
#
# Stress axis : x y z
#
# Youngs Moduli (GPa) = 132.48617 165.32674 106.45249
#
# Poissons Ratio (x) = 0.15129 0.25804
# Poissons Ratio (y) = 0.12123 0.24915
# Poissons Ratio (z) = 0.32115 0.38694
#
# Static dielectric constant tensor:
#      x y z
#    x 1.946690 0.000000 0.000000 
#    y 0.000000 2.013180 0.000000 
#    z 0.000000 0.000000 1.904770 
# 
# From -- ./inp_files/19253.got.cif
#   From: 2010.05.17/outbox.cif.g08.bks.cpg/sg37_10_cif.got.tgz:19253.got - 2010.06.03 17:53:42.
