data_PCOD9355801
_publ_section_title
;
Structure prediction by ZEFSAII (Michael W. Deem and Ramdas Pophale) SiO2 
 PCOD9355801
Probable space group: A M M 2
;
_chemical_formula_sum "Si O2"
_cell_formula_units_Z 56
_cell_length_a 14.630010
_cell_length_b 7.436246
_cell_length_c 30.323458
_cell_angle_alpha 90.000000
_cell_angle_beta 90.000000
_cell_angle_gamma 90.000000
_cell_volume 3298.960357
_symmetry_space_group_name_H-M "A M M 2"
_symmetry_group_IT_number 38
_symmetry_cell_setting 'orthorhombic'
loop_
_space_group_symop_operation_xyz
x,y,z
-x,-y,z
-x,y,z
x,-y,z
x,1/2+y,1/2+z
-x,1/2-y,1/2+z
-x,1/2+y,1/2+z
x,1/2-y,1/2+z
loop_
_atom_site_type_symbol
_atom_site_label
_atom_site_fract_x
_atom_site_fract_y
_atom_site_fract_z
Si Si1 0.105518 0.205365 0.613120
Si Si2 0.788232 0.717772 0.524232
Si Si3 0.205560 0.217091 0.846287
Si Si4 0.110765 0.500000 0.784424
Si Si5 0.397549 0.281450 0.381353
Si Si6 0.889501 0.000000 0.182655
Si Si7 0.397814 0.719102 0.483405
Si Si8 0.895759 0.718451 0.437232
O O1 0.166889 0.223739 0.569766
O O2 0.137728 0.329835 0.653067
O O3 0.000000 0.256653 0.601679
O O4 0.104950 0.000000 0.627553
O O5 0.789106 0.500000 0.524443
O O6 0.684646 0.777301 0.514527
O O7 0.847678 0.778320 0.482162
O O8 0.152495 0.326804 0.809138
O O9 0.312158 0.270195 0.851225
O O10 0.159555 0.264616 0.893321
O O11 0.198979 0.000000 0.840463
O O12 0.139808 0.500000 0.733187
O O13 0.000000 0.500000 0.787590
O O14 0.500000 0.223083 0.368636
O O15 0.397716 0.500000 0.381739
O O16 0.381467 0.226996 0.432397
O O17 0.000000 0.000000 0.184515
O O18 0.500000 0.776536 0.495964
O O19 0.397237 0.500000 0.483272
O O20 0.896398 0.500000 0.438664
O O21 0.000000 0.780234 0.434557
#
# Coordination Sequence:
#
# PCOD9355801 Si02
#       8
#     8   8   8   4   8   4   8   8
#     4  10  20  34  53  77 102 129 168 216 264 313
#     4  10  16  26  46  71 101 140 174 207 251 301
#     4  10  19  34  52  75 107 141 177 216 257 311
#     4  11  24  38  55  79 103 137 182 222 270 322
#     4   8  13  25  47  73 103 141 181 218 256 301
#     4   9  20  40  58  73  99 131 169 226 275 310
#     4   8  13  22  40  69 102 138 180 214 245 296
#     4   9  16  25  40  64  99 143 177 198 238 299
#
# _framework density 16.975044
#
# number of rings (size 3 to 8) (size 9 to 14) (size 15 to 20)
#    0.000    2.714    2.143    1.714    0.000    2.000 
#    1.286    1.786    0.000    0.429    0.000    2.000 
#    0.000    0.000    0.000    0.000    0.000    0.000 
#
# Total GULP energy -156162.283790 kJ/mol
# GULP energy per Si atom -5577.224421 kJ/mol
# Density = 1.693641 g / cm^3
# Si number density = 16.975044 Si / 1000 Ang^3
#
#
#
# Elastic Constant Matrix: (Units=GPa)
#
#
# Indices 1 2 3 4 5 6 
#
# 1 129.5541 28.9255 64.1884 0.0000 0.0000 0.0000
# 2 28.9255 73.2388 40.3143 0.0000 0.0000 0.0000
# 3 64.1884 40.3143 130.7124 0.0000 0.0000 0.0000
# 4 0.0000 0.0000 0.0000 66.3469 0.0000 0.0000
# 5 0.0000 0.0000 0.0000 0.0000 9.3609 0.0000
# 6 0.0000 0.0000 0.0000 0.0000 0.0000 3.1259
#
#
#
# Elastic Compliance Matrix: (Units=1/GPa)
#
#
# Indices 1 2 3 4 5 6 
#
# 1 0.010345 -0.001553 -0.004601 0.000000 0.000000 0.000000
# 2 -0.001553 0.016679 -0.004382 0.000000 0.000000 0.000000
# 3 -0.004601 -0.004382 0.011261 0.000000 0.000000 0.000000
# 4 0.000000 0.000000 0.000000 0.015072 0.000000 0.000000
# 5 0.000000 0.000000 0.000000 0.000000 0.106827 0.000000
# 6 0.000000 0.000000 0.000000 0.000000 0.000000 0.319907
#
#
# Mechanical properties :
#
#
# Convention : Reuss Voigt Hill
#
# Bulk Modulus (GPa) = 58.09221 66.70686 62.39953
# Shear Modulus (GPa) = 9.86385 29.10523 19.48454
#
# Velocity S-wave (km/s) = 2.41317 4.14525 3.39165
# Velocity P-wave (km/s) = 6.48544 7.89260 7.22337
#
# Compressibility (1/GPa) = 0.01721401
#
# Stress axis : x y z
#
# Youngs Moduli (GPa) = 96.66289 59.95510 88.80040
#
# Poissons Ratio (x) = 0.09312 0.40859
# Poissons Ratio (y) = 0.15013 0.38908
# Poissons Ratio (z) = 0.44476 0.26269
#
# Static dielectric constant tensor:
#      x y z
#    x 1.591620 0.000000 0.000000 
#    y 0.000000 1.639910 0.000000 
#    z 0.000000 0.000000 1.522430 
# 
# From -- ./inp_files/25009.got.cif
#   From: 2010.05.17/outbox.cif.g08.bks.cpg/sg38_13_cif.got.tgz:25009.got - 2010.06.03 18:07:57.
