data_PCOD9355402
_publ_section_title
;
Structure prediction by ZEFSAII (Michael W. Deem and Ramdas Pophale) SiO2 
 PCOD9355402
Probable space group: C C C 2
;
_chemical_formula_sum "Si O2"
_cell_formula_units_Z 24
_cell_length_a 8.506676
_cell_length_b 4.925589
_cell_length_c 23.461022
_cell_angle_alpha 90.000000
_cell_angle_beta 90.000000
_cell_angle_gamma 90.000000
_cell_volume 983.025965
_symmetry_space_group_name_H-M "C C C 2"
_symmetry_group_IT_number 37
_symmetry_cell_setting 'orthorhombic'
loop_
_space_group_symop_operation_xyz
x,y,z
-x,-y,z
-x,y,1/2+z
x,-y,1/2+z
1/2+x,1/2+y,z
1/2-x,1/2-y,z
1/2-x,1/2+y,1/2+z
1/2+x,1/2-y,1/2+z
loop_
_atom_site_type_symbol
_atom_site_label
_atom_site_fract_x
_atom_site_fract_y
_atom_site_fract_z
Si Si1 0.000000 0.000000 0.274990
Si Si2 0.750000 0.250000 0.607643
Si Si3 0.250000 0.750000 0.942340
Si Si4 0.750000 0.250000 0.359697
Si Si5 0.000000 0.000000 0.024025
Si Si6 0.750000 0.750000 0.686196
O O1 0.093485 0.810968 0.322041
O O2 0.131327 0.917466 0.226762
O O3 0.611931 0.337582 0.566030
O O4 0.806475 0.505726 0.645626
O O5 0.219498 0.501387 0.900488
O O6 0.395439 0.685394 0.983074
#
# Coordination Sequence:
#
# PCOD9355402 Si02
#       6
#     4   4   4   4   4   4
#     4  10  26  48  76 112 152 200 254 314 380 454
#     4  12  29  51  79 114 155 203 257 318 384 458
#     4  12  29  51  79 114 155 203 257 318 384 458
#     4  11  27  48  77 110 153 200 255 313 382 454
#     4  12  30  52  80 116 156 204 258 318 384 458
#     4  11  27  48  77 110 153 200 255 313 382 454
#
# _framework density 24.41441
#
# number of rings (size 3 to 8) (size 9 to 14) (size 15 to 20)
#    0.000    0.667    0.000    4.000    0.000   33.333 
#    0.000    0.000    0.000    0.000    0.000    0.000 
#    0.000    0.000    0.000    0.000    0.000    0.000 
#
# Total GULP energy -66876.355343 kJ/mol
# GULP energy per Si atom -5573.029612 kJ/mol
# Density = 2.435884 g / cm^3
# Si number density = 24.414410 Si / 1000 Ang^3
#
#
#
# Elastic Constant Matrix: (Units=GPa)
#
#
# Indices 1 2 3 4 5 6 
#
# 1 143.3627 55.4028 75.1500 0.0000 0.0000 0.0000
# 2 55.4028 152.2773 90.5238 0.0000 0.0000 0.0000
# 3 75.1500 90.5238 202.1311 0.0000 0.0000 0.0000
# 4 0.0000 0.0000 0.0000 -74.1143 0.0000 0.0000
# 5 0.0000 0.0000 0.0000 0.0000 7.2652 0.0000
# 6 0.0000 0.0000 0.0000 0.0000 0.0000 38.8812
#
#
#
# Elastic Compliance Matrix: (Units=1/GPa)
#
#
# Indices 1 2 3 4 5 6 
#
# 1 0.008994 -0.001750 -0.002560 0.000000 0.000000 0.000000
# 2 -0.001750 0.009290 -0.003510 0.000000 0.000000 0.000000
# 3 -0.002560 -0.003510 0.007471 0.000000 0.000000 0.000000
# 4 0.000000 0.000000 0.000000 -0.013493 0.000000 0.000000
# 5 0.000000 0.000000 0.000000 0.000000 0.137642 0.000000
# 6 0.000000 0.000000 0.000000 0.000000 0.000000 0.025719
#
#
# Mechanical properties :
#
#
# Convention : Reuss Voigt Hill
#
# Bulk Modulus (GPa) = 98.86654 104.43601 101.65127
# Shear Modulus (GPa) = 25.68908 12.85272 19.27090
#
# Velocity S-wave (km/s) = 3.24730 2.29692 2.81254
# Velocity P-wave (km/s) = 7.39209 7.06425 7.23003
#
# Compressibility (1/GPa) = 0.01011465
#
# Stress axis : x y z
#
# Youngs Moduli (GPa) = 111.19022 107.63908 133.85331
#
# Poissons Ratio (x) = 0.18841 0.34264
# Poissons Ratio (y) = 0.19463 0.46981
# Poissons Ratio (z) = 0.28462 0.37780
#
# Static dielectric constant tensor:
#      x y z
#    x 1.881950 0.000000 0.000000 
#    y 0.000000 1.907900 0.000000 
#    z 0.000000 0.000000 1.897950 
# 
# From -- ./inp_files/17700.got.cif
#   From: 2010.05.17/outbox.cif.g08.bks.cpg/sg37_9_cif.got.tgz:17700.got - 2010.06.03 17:53:42.
