data_PCOD9355573
_publ_section_title
;
Structure prediction by ZEFSAII (Michael W. Deem and Ramdas Pophale) SiO2 
 PCOD9355573
Probable space group: C C C 2
;
_chemical_formula_sum "Si O2"
_cell_formula_units_Z 48
_cell_length_a 6.934436
_cell_length_b 17.388135
_cell_length_c 18.407714
_cell_angle_alpha 90.000000
_cell_angle_beta 90.000000
_cell_angle_gamma 90.000000
_cell_volume 2219.545262
_symmetry_space_group_name_H-M "C C C 2"
_symmetry_group_IT_number 37
_symmetry_cell_setting 'orthorhombic'
loop_
_space_group_symop_operation_xyz
x,y,z
-x,-y,z
-x,y,1/2+z
x,-y,1/2+z
1/2+x,1/2+y,z
1/2-x,1/2-y,z
1/2-x,1/2+y,1/2+z
1/2+x,1/2-y,1/2+z
loop_
_atom_site_type_symbol
_atom_site_label
_atom_site_fract_x
_atom_site_fract_y
_atom_site_fract_z
Si Si1 0.514972 0.586935 0.292290
Si Si2 0.740108 0.832511 0.538162
Si Si3 0.436734 0.589045 0.631269
Si Si4 0.595387 0.820974 0.154316
Si Si5 0.132433 0.671653 0.306408
Si Si6 0.876365 0.579998 0.402385
O O1 0.500000 0.500000 0.269678
O O2 0.539956 0.625029 0.213205
O O3 0.304446 0.611044 0.316070
O O4 0.683664 0.586849 0.351863
O O5 0.750000 0.750000 0.497762
O O6 0.935783 0.861491 0.576137
O O7 0.585645 0.814002 0.600979
O O8 0.677351 0.900680 0.484569
O O9 0.500000 0.500000 0.623436
O O10 0.210081 0.604278 0.624110
O O11 0.750000 0.750000 0.151197
O O12 0.501309 0.833385 0.234321
O O13 0.250000 0.750000 0.305453
O O14 0.999377 0.652491 0.373991
O O15 0.000000 0.500000 0.393878
#
# Coordination Sequence:
#
# PCOD9355573 Si02
#       6
#     8   8   8   8   8   8
#     4  11  23  47  74 105 143 186 243 302 360 432
#     4  12  28  48  70 108 148 193 245 298 362 441
#     4  11  25  44  76 108 139 188 242 303 364 430
#     4  12  24  46  76 107 146 191 246 308 363 431
#     4  12  26  44  77 109 140 190 250 304 365 433
#     4  12  29  48  72 107 153 195 238 302 372 443
#
# _framework density 21.626049999999999
#
# number of rings (size 3 to 8) (size 9 to 14) (size 15 to 20)
#    0.000    0.333    6.667    1.500    4.667    2.667 
#    0.000    0.000    0.000    0.000    0.000    0.000 
#    0.000    0.000    0.000    0.000    0.000    0.000 
#
# Total GULP energy -133713.855193 kJ/mol
# GULP energy per Si atom -5571.410633 kJ/mol
# Density = 2.157683 g / cm^3
# Si number density = 21.626050 Si / 1000 Ang^3
#
#
#
# Elastic Constant Matrix: (Units=GPa)
#
#
# Indices 1 2 3 4 5 6 
#
# 1 110.6029 36.9672 36.8762 0.0000 0.0000 0.0000
# 2 36.9672 92.5429 20.2529 0.0000 0.0000 0.0000
# 3 36.8762 20.2529 90.9236 0.0000 0.0000 0.0000
# 4 0.0000 0.0000 0.0000 21.4264 0.0000 0.0000
# 5 0.0000 0.0000 0.0000 0.0000 25.1626 0.0000
# 6 0.0000 0.0000 0.0000 0.0000 0.0000 41.6367
#
#
#
# Elastic Compliance Matrix: (Units=1/GPa)
#
#
# Indices 1 2 3 4 5 6 
#
# 1 0.011593 -0.003787 -0.003859 0.000000 0.000000 0.000000
# 2 -0.003787 0.012596 -0.001270 0.000000 0.000000 0.000000
# 3 -0.003859 -0.001270 0.012846 0.000000 0.000000 0.000000
# 4 0.000000 0.000000 0.000000 0.046671 0.000000 0.000000
# 5 0.000000 0.000000 0.000000 0.000000 0.039742 0.000000
# 6 0.000000 0.000000 0.000000 0.000000 0.000000 0.024017
#
#
# Mechanical properties :
#
#
# Convention : Reuss Voigt Hill
#
# Bulk Modulus (GPa) = 52.06863 53.58466 52.82665
# Shear Modulus (GPa) = 29.12081 30.97665 30.04873
#
# Velocity S-wave (km/s) = 3.67353 3.78878 3.73160
# Velocity P-wave (km/s) = 6.49016 6.63110 6.56101
#
# Compressibility (1/GPa) = 0.01920542
#
# Stress axis : x y z
#
# Youngs Moduli (GPa) = 86.25542 79.38788 77.84495
#
# Poissons Ratio (x) = 0.30062 0.30037
# Poissons Ratio (y) = 0.32662 0.09886
# Poissons Ratio (z) = 0.33282 0.10082
#
# Static dielectric constant tensor:
#      x y z
#    x 1.956120 0.000000 0.000000 
#    y 0.000000 1.881180 0.000000 
#    z 0.000000 0.000000 1.825630 
# 
# From -- ./inp_files/15782.got.cif
#   From: 2010.05.17/outbox.cif.g08.bks.cpg/sg37_8_cif.got.tgz:15782.got - 2010.06.03 17:53:42.
