data_PCOD9355680
_publ_section_title
;
Structure prediction by ZEFSAII (Michael W. Deem and Ramdas Pophale) SiO2 
 PCOD9355680
Probable space group: C C C 2
;
_chemical_formula_sum "Si O2"
_cell_formula_units_Z 60
_cell_length_a 17.512220
_cell_length_b 19.212009
_cell_length_c 9.987540
_cell_angle_alpha 90.000000
_cell_angle_beta 90.000000
_cell_angle_gamma 90.000000
_cell_volume 3360.257179
_symmetry_space_group_name_H-M "C C C 2"
_symmetry_group_IT_number 37
_symmetry_cell_setting 'orthorhombic'
loop_
_space_group_symop_operation_xyz
x,y,z
-x,-y,z
-x,y,1/2+z
x,-y,1/2+z
1/2+x,1/2+y,z
1/2-x,1/2-y,z
1/2-x,1/2+y,1/2+z
1/2+x,1/2-y,1/2+z
loop_
_atom_site_type_symbol
_atom_site_label
_atom_site_fract_x
_atom_site_fract_y
_atom_site_fract_z
Si Si1 0.211208 0.138269 0.324610
Si Si2 0.860292 0.725862 0.338700
Si Si3 0.634000 0.783621 0.021650
Si Si4 0.206490 0.853303 0.501580
Si Si5 0.482240 0.869603 0.970200
Si Si6 0.500000 0.000000 0.784250
Si Si7 0.738743 0.984838 0.874139
Si Si8 0.865892 0.468756 0.118131
O O1 0.148240 0.193034 0.377989
O O2 0.288269 0.177011 0.375120
O O3 0.206788 0.136383 0.162444
O O4 0.217936 0.058433 0.364602
O O5 0.854975 0.726052 0.179321
O O6 0.934090 0.686801 0.388174
O O7 0.708544 0.824056 0.969063
O O8 0.643781 0.705154 0.965042
O O9 0.557596 0.827943 0.011069
O O10 0.204180 0.925883 0.425941
O O11 0.420514 0.903540 0.074958
O O12 0.509914 0.933735 0.878760
O O13 0.571726 0.017555 0.690178
O O14 0.698265 0.962123 0.734285
O O15 0.673115 0.998796 0.986882
#
# Coordination Sequence:
#
# PCOD9355680 Si02
#       8
#     8   8   8   8   8   4   8   8
#     4   9  17  34  57  81 105 149 195 236 276 342
#     4   9  18  33  55  78 110 149 194 230 287 348
#     4   9  20  35  55  78 109 153 195 230 284 344
#     4   9  19  36  57  78 105 149 198 238 274 345
#     4  12  22  35  56  83 119 152 189 234 290 348
#     4  12  24  34  48  84 122 154 180 222 282 354
#     4  12  21  36  59  83 116 151 197 233 288 331
#     4  12  24  33  52  90 118 152 181 235 283 346
#
# _framework density 17.855777
#
# number of rings (size 3 to 8) (size 9 to 14) (size 15 to 20)
#    0.000    1.600    4.000    3.600    3.733    0.000 
#    0.000    0.000   14.667    0.800    0.000    3.733 
#    0.000    0.000    0.000    0.000    0.000    0.000 
#
# Total GULP energy -167056.673398 kJ/mol
# GULP energy per Si atom -5568.555780 kJ/mol
# Density = 1.781514 g / cm^3
# Si number density = 17.855777 Si / 1000 Ang^3
#
#
#
# Elastic Constant Matrix: (Units=GPa)
#
#
# Indices 1 2 3 4 5 6 
#
# 1 35.0942 41.3577 10.0090 0.0000 0.0000 0.0000
# 2 41.3577 166.4360 33.7616 0.0000 0.0000 0.0000
# 3 10.0090 33.7616 50.2832 0.0000 0.0000 0.0000
# 4 0.0000 0.0000 0.0000 24.5873 0.0000 0.0000
# 5 0.0000 0.0000 0.0000 0.0000 10.8164 0.0000
# 6 0.0000 0.0000 0.0000 0.0000 0.0000 34.1573
#
#
#
# Elastic Compliance Matrix: (Units=1/GPa)
#
#
# Indices 1 2 3 4 5 6 
#
# 1 0.040393 -0.009732 -0.001506 0.000000 0.000000 0.000000
# 2 -0.009732 0.009300 -0.004307 0.000000 0.000000 0.000000
# 3 -0.001506 -0.004307 0.023079 0.000000 0.000000 0.000000
# 4 0.000000 0.000000 0.000000 0.040671 0.000000 0.000000
# 5 0.000000 0.000000 0.000000 0.000000 0.092452 0.000000
# 6 0.000000 0.000000 0.000000 0.000000 0.000000 0.029276
#
#
# Mechanical properties :
#
#
# Convention : Reuss Voigt Hill
#
# Bulk Modulus (GPa) = 23.99117 46.89667 35.44392
# Shear Modulus (GPa) = 17.84712 25.02453 21.43583
#
# Velocity S-wave (km/s) = 3.16494 3.74770 3.46858
# Velocity P-wave (km/s) = 5.17890 6.71179 5.99455
#
# Compressibility (1/GPa) = 0.04168200
#
# Stress axis : x y z
#
# Youngs Moduli (GPa) = 24.75679 107.52332 43.32890
#
# Poissons Ratio (x) = 1.04639 0.06526
# Poissons Ratio (y) = 0.24093 0.18663
# Poissons Ratio (z) = 0.03729 0.46314
#
# Static dielectric constant tensor:
#      x y z
#    x 1.668080 0.000000 0.000000 
#    y 0.000000 1.662150 0.000000 
#    z 0.000000 0.000000 1.643560 
# 
# From -- ./inp_files/7965.got.cif
#   From: 2010.05.17/outbox.cif.g08.bks.cpg/sg37_4_cif.got.tgz:7965.got - 2010.06.03 17:53:42.
