data_PCOD9355476
_publ_section_title
;
Structure prediction by ZEFSAII (Michael W. Deem and Ramdas Pophale) SiO2 
 PCOD9355476
Probable space group: C C C 2
;
_chemical_formula_sum "Si O2"
_cell_formula_units_Z 60
_cell_length_a 14.232864
_cell_length_b 14.147730
_cell_length_c 13.772415
_cell_angle_alpha 90.000000
_cell_angle_beta 90.000000
_cell_angle_gamma 90.000000
_cell_volume 2773.250904
_symmetry_space_group_name_H-M "C C C 2"
_symmetry_group_IT_number 37
_symmetry_cell_setting 'orthorhombic'
loop_
_space_group_symop_operation_xyz
x,y,z
-x,-y,z
-x,y,1/2+z
x,-y,1/2+z
1/2+x,1/2+y,z
1/2-x,1/2-y,z
1/2-x,1/2+y,1/2+z
1/2+x,1/2-y,1/2+z
loop_
_atom_site_type_symbol
_atom_site_label
_atom_site_fract_x
_atom_site_fract_y
_atom_site_fract_z
Si Si1 0.278075 0.576834 0.700350
Si Si2 0.130536 0.044234 0.537714
Si Si3 0.349151 0.806220 0.944962
Si Si4 0.168872 0.671522 0.531076
Si Si5 0.705691 0.008243 0.901669
Si Si6 0.559518 0.309709 0.783066
Si Si7 0.027329 0.238930 0.590589
Si Si8 0.000000 0.000000 0.875231
O O1 0.346498 0.516519 0.631373
O O2 0.194947 0.615190 0.631303
O O3 0.250953 0.514901 0.794670
O O4 0.338990 0.666006 0.736335
O O5 0.934865 0.866936 0.563836
O O6 0.084089 0.984578 0.450914
O O7 0.229430 0.062443 0.483821
O O8 0.250000 0.750000 0.934350
O O9 0.369422 0.908248 0.897819
O O10 0.420560 0.741264 0.883049
O O11 0.386995 0.803321 0.054480
O O12 0.250000 0.750000 0.516956
O O13 0.177106 0.591877 0.446235
O O14 0.069221 0.724308 0.541123
O O15 0.495666 0.259285 0.704288
O O16 0.516234 0.410178 0.810053
#
# Coordination Sequence:
#
# PCOD9355476 Si02
#       8
#     8   8   8   8   8   8   8   4
#     4  11  21  42  72 103 140 187 243 294 367 446
#     4  11  23  38  66 102 149 178 231 304 372 422
#     4  12  23  46  72 100 139 197 245 291 369 453
#     4  11  26  44  72 105 145 186 235 304 381 445
#     4  11  24  45  72 100 138 195 242 297 356 453
#     4  12  23  36  70 106 138 183 236 299 360 448
#     4  12  24  42  69 105 140 189 240 303 361 440
#     4  12  20  38  60 112 150 176 228 312 382 428
#
# _framework density 21.635258
#
# number of rings (size 3 to 8) (size 9 to 14) (size 15 to 20)
#    0.000    0.533    6.667    2.400    1.867    0.533 
#    0.000    2.667    0.000    4.800    0.000    0.000 
#    0.000    0.000    0.000    0.000    0.000    0.000 
#
# Total GULP energy -167305.696266 kJ/mol
# GULP energy per Si atom -5576.856542 kJ/mol
# Density = 2.158601 g / cm^3
# Si number density = 21.635258 Si / 1000 Ang^3
#
#
#
# Elastic Constant Matrix: (Units=GPa)
#
#
# Indices 1 2 3 4 5 6 
#
# 1 62.9721 29.1331 23.6753 0.0000 0.0000 0.0000
# 2 29.1331 98.0937 25.8437 0.0000 0.0000 0.0000
# 3 23.6753 25.8437 116.2837 0.0000 0.0000 0.0000
# 4 0.0000 0.0000 0.0000 95.2680 0.0000 0.0000
# 5 0.0000 0.0000 0.0000 0.0000 35.0301 0.0000
# 6 0.0000 0.0000 0.0000 0.0000 0.0000 21.6918
#
#
#
# Elastic Compliance Matrix: (Units=1/GPa)
#
#
# Indices 1 2 3 4 5 6 
#
# 1 0.019238 -0.004973 -0.002812 0.000000 0.000000 0.000000
# 2 -0.004973 0.012114 -0.001680 0.000000 0.000000 0.000000
# 3 -0.002812 -0.001680 0.009545 0.000000 0.000000 0.000000
# 4 0.000000 0.000000 0.000000 0.010497 0.000000 0.000000
# 5 0.000000 0.000000 0.000000 0.000000 0.028547 0.000000
# 6 0.000000 0.000000 0.000000 0.000000 0.000000 0.046100
#
#
# Mechanical properties :
#
#
# Convention : Reuss Voigt Hill
#
# Bulk Modulus (GPa) = 45.51948 48.29485 46.90716
# Shear Modulus (GPa) = 32.83170 43.64447 38.23809
#
# Velocity S-wave (km/s) = 3.89975 4.49629 4.20860
# Velocity P-wave (km/s) = 6.43137 7.02327 6.73383
#
# Compressibility (1/GPa) = 0.02196862
#
# Stress axis : x y z
#
# Youngs Moduli (GPa) = 51.98139 82.55086 104.76212
#
# Poissons Ratio (x) = 0.41050 0.29455
# Poissons Ratio (y) = 0.25849 0.17598
# Poissons Ratio (z) = 0.14615 0.13867
#
# Static dielectric constant tensor:
#      x y z
#    x 2.183390 0.000000 0.000000 
#    y 0.000000 2.012580 0.000000 
#    z 0.000000 0.000000 1.791150 
# 
# From -- ./inp_files/12265.got.cif
#   From: 2010.05.17/outbox.cif.g08.bks.cpg/sg37_7_cif.got.tgz:12265.got - 2010.06.03 17:53:42.
