data_PCOD9355517
_publ_section_title
;
Structure prediction by ZEFSAII (Michael W. Deem and Ramdas Pophale) SiO2 
 PCOD9355517
Probable space group: C C C 2
;
_chemical_formula_sum "Si O2"
_cell_formula_units_Z 40
_cell_length_a 14.275252
_cell_length_b 7.901803
_cell_length_c 14.057047
_cell_angle_alpha 90.000000
_cell_angle_beta 90.000000
_cell_angle_gamma 90.000000
_cell_volume 1585.638122
_symmetry_space_group_name_H-M "C C C 2"
_symmetry_group_IT_number 37
_symmetry_cell_setting 'orthorhombic'
loop_
_space_group_symop_operation_xyz
x,y,z
-x,-y,z
-x,y,1/2+z
x,-y,1/2+z
1/2+x,1/2+y,z
1/2-x,1/2-y,z
1/2-x,1/2+y,1/2+z
1/2+x,1/2-y,1/2+z
loop_
_atom_site_type_symbol
_atom_site_label
_atom_site_fract_x
_atom_site_fract_y
_atom_site_fract_z
Si Si1 0.388900 0.887469 0.631600
Si Si2 0.357137 0.248990 0.701975
Si Si3 0.750000 0.750000 0.271802
Si Si4 0.250000 0.250000 0.994538
Si Si5 0.635295 0.511292 0.863212
Si Si6 0.545739 0.672787 0.528498
O O1 0.344243 0.758235 0.708189
O O2 0.302081 0.892065 0.557854
O O3 0.474552 0.817110 0.567430
O O4 0.397192 0.058955 0.693345
O O5 0.250000 0.250000 0.732915
O O6 0.404638 0.382005 0.773848
O O7 0.363179 0.306890 0.592872
O O8 0.730194 0.585656 0.333275
O O9 0.331122 0.344110 0.936398
O O10 0.573421 0.370281 0.919777
O O11 0.500000 0.500000 0.562593
#
# Coordination Sequence:
#
# PCOD9355517 Si02
#       6
#     8   8   4   4   8   8
#     4  11  24  48  75 110 158 218 263 338 420 500
#     4  12  25  50  78 108 162 222 275 336 422 515
#     4  11  24  46  79 114 154 218 279 320 417 508
#     4  11  22  44  75 110 150 208 277 324 417 500
#     4  12  25  45  77 117 154 213 283 347 404 504
#     4  12  27  47  75 118 162 208 267 354 427 483
#
# _framework density 25.226438999999999
#
# number of rings (size 3 to 8) (size 9 to 14) (size 15 to 20)
#    0.000    0.400    5.000    3.000    4.200    2.400 
#    0.000    0.000    0.000    0.000    0.000    0.000 
#    0.000    0.000    0.000    0.000    0.000    0.000 
#
# Total GULP energy -111482.126795 kJ/mol
# GULP energy per Si atom -5574.106340 kJ/mol
# Density = 2.516902 g / cm^3
# Si number density = 25.226439 Si / 1000 Ang^3
#
#
#
# Elastic Constant Matrix: (Units=GPa)
#
#
# Indices 1 2 3 4 5 6 
#
# 1 97.1027 40.3398 45.6721 0.0000 0.0000 0.0000
# 2 40.3398 145.4528 53.1568 0.0000 0.0000 0.0000
# 3 45.6721 53.1568 121.4081 0.0000 0.0000 0.0000
# 4 0.0000 0.0000 0.0000 53.5211 0.0000 0.0000
# 5 0.0000 0.0000 0.0000 0.0000 2.6444 0.0000
# 6 0.0000 0.0000 0.0000 0.0000 0.0000 45.8853
#
#
#
# Elastic Compliance Matrix: (Units=1/GPa)
#
#
# Indices 1 2 3 4 5 6 
#
# 1 0.013066 -0.002176 -0.003963 0.000000 0.000000 0.000000
# 2 -0.002176 0.008547 -0.002924 0.000000 0.000000 0.000000
# 3 -0.003963 -0.002924 0.011008 0.000000 0.000000 0.000000
# 4 0.000000 0.000000 0.000000 0.018684 0.000000 0.000000
# 5 0.000000 0.000000 0.000000 0.000000 0.378158 0.000000
# 6 0.000000 0.000000 0.000000 0.000000 0.000000 0.021793
#
#
# Mechanical properties :
#
#
# Convention : Reuss Voigt Hill
#
# Bulk Modulus (GPa) = 68.98228 71.36679 70.17453
# Shear Modulus (GPa) = 10.54379 35.39648 22.97013
#
# Velocity S-wave (km/s) = 2.04664 3.74993 3.02082
# Velocity P-wave (km/s) = 5.74365 6.86303 6.32814
#
# Compressibility (1/GPa) = 0.01449648
#
# Stress axis : x y z
#
# Youngs Moduli (GPa) = 76.53432 117.00076 90.84681
#
# Poissons Ratio (x) = 0.25454 0.36000
# Poissons Ratio (y) = 0.16650 0.26561
# Poissons Ratio (z) = 0.30329 0.34208
#
# Static dielectric constant tensor:
#      x y z
#    x 2.111760 0.000000 0.000000 
#    y 0.000000 1.992020 0.000000 
#    z 0.000000 0.000000 2.024000 
# 
# From -- ./inp_files/12006.got.cif
#   From: 2010.05.17/outbox.cif.g08.bks.cpg/sg37_7_cif.got.tgz:12006.got - 2010.06.03 17:53:42.
