data_PCOD9355466
_publ_section_title
;
Structure prediction by ZEFSAII (Michael W. Deem and Ramdas Pophale) SiO2 
 PCOD9355466
Probable space group: C C C 2
;
_chemical_formula_sum "Si O2"
_cell_formula_units_Z 48
_cell_length_a 5.041768
_cell_length_b 28.289002
_cell_length_c 16.885287
_cell_angle_alpha 90.000000
_cell_angle_beta 90.000000
_cell_angle_gamma 90.000000
_cell_volume 2408.290822
_symmetry_space_group_name_H-M "C C C 2"
_symmetry_group_IT_number 37
_symmetry_cell_setting 'orthorhombic'
loop_
_space_group_symop_operation_xyz
x,y,z
-x,-y,z
-x,y,1/2+z
x,-y,1/2+z
1/2+x,1/2+y,z
1/2-x,1/2-y,z
1/2-x,1/2+y,1/2+z
1/2+x,1/2-y,1/2+z
loop_
_atom_site_type_symbol
_atom_site_label
_atom_site_fract_x
_atom_site_fract_y
_atom_site_fract_z
Si Si1 0.753253 0.467379 0.433460
Si Si2 0.250000 0.750000 0.200597
Si Si3 0.154855 0.644585 0.146838
Si Si4 0.750000 0.750000 0.315749
Si Si5 0.429342 0.657173 0.897217
Si Si6 0.363770 0.381527 0.052577
Si Si7 0.433127 0.111872 0.822927
O O1 0.500000 0.500000 0.421509
O O2 0.693473 0.428758 0.501916
O O3 0.826086 0.438341 0.353836
O O4 0.000000 0.500000 0.456345
O O5 0.240961 0.699776 0.154762
O O6 0.502452 0.752967 0.257450
O O7 0.414830 0.615211 0.120615
O O8 0.050769 0.623554 0.230440
O O9 0.912049 0.638153 0.086041
O O10 0.701628 0.705418 0.370727
O O11 0.709337 0.648351 0.854298
O O12 0.213530 0.619149 0.867021
O O13 0.495785 0.652842 0.988954
#
# Coordination Sequence:
#
# PCOD9355466 Si02
#       7
#     8   4   8   4   8   8   8
#     4  11  23  45  70  94 123 171 228 281 337 406
#     4  12  24  39  66  99 136 184 222 266 320 381
#     4  12  23  43  64 101 139 178 213 267 333 395
#     4  12  20  39  64  97 126 178 240 272 294 383
#     4  11  21  40  64  94 127 176 226 266 317 384
#     4  11  25  41  65  96 138 175 210 276 346 390
#     4  11  22  41  68  95 128 168 222 271 330 396
#
# _framework density 19.931149000000001
#
# number of rings (size 3 to 8) (size 9 to 14) (size 15 to 20)
#    0.000    0.667    3.333    7.000    0.000    0.667 
#    0.000    8.333    0.000    0.000    0.000    0.000 
#    0.000    0.000    0.000    0.000    0.000    0.000 
#
# Total GULP energy -134094.719597 kJ/mol
# GULP energy per Si atom -5587.279983 kJ/mol
# Density = 1.988578 g / cm^3
# Si number density = 19.931149 Si / 1000 Ang^3
#
#
#
# Elastic Constant Matrix: (Units=GPa)
#
#
# Indices 1 2 3 4 5 6 
#
# 1 122.5833 23.4801 31.1238 0.0000 0.0000 0.0000
# 2 23.4801 100.6815 46.9928 0.0000 0.0000 0.0000
# 3 31.1238 46.9928 82.8286 0.0000 0.0000 0.0000
# 4 0.0000 0.0000 0.0000 3.2430 0.0000 0.0000
# 5 0.0000 0.0000 0.0000 0.0000 44.0542 0.0000
# 6 0.0000 0.0000 0.0000 0.0000 0.0000 38.0988
#
#
#
# Elastic Compliance Matrix: (Units=1/GPa)
#
#
# Indices 1 2 3 4 5 6 
#
# 1 0.009055 -0.000712 -0.002999 0.000000 0.000000 0.000000
# 2 -0.000712 0.013566 -0.007429 0.000000 0.000000 0.000000
# 3 -0.002999 -0.007429 0.017415 0.000000 0.000000 0.000000
# 4 0.000000 0.000000 0.000000 0.308352 0.000000 0.000000
# 5 0.000000 0.000000 0.000000 0.000000 0.022699 0.000000
# 6 0.000000 0.000000 0.000000 0.000000 0.000000 0.026248
#
#
# Mechanical properties :
#
#
# Convention : Reuss Voigt Hill
#
# Bulk Modulus (GPa) = 56.31765 56.58743 56.45254
# Shear Modulus (GPa) = 11.74995 30.71232 21.23114
#
# Velocity S-wave (km/s) = 2.43065 3.92971 3.26732
# Velocity P-wave (km/s) = 6.01622 7.00309 6.52833
#
# Compressibility (1/GPa) = 0.01775642
#
# Stress axis : x y z
#
# Youngs Moduli (GPa) = 110.43027 73.71450 57.42273
#
# Poissons Ratio (x) = 0.05250 0.17219
# Poissons Ratio (y) = 0.07865 0.42659
# Poissons Ratio (z) = 0.33114 0.54762
#
# Static dielectric constant tensor:
#      x y z
#    x 1.703270 0.000000 0.000000 
#    y 0.000000 1.731570 0.000000 
#    z 0.000000 0.000000 1.725160 
# 
# From -- ./inp_files/9787.got.cif
#   From: 2010.05.17/outbox.cif.g08.bks.cpg/sg37_5_cif.got.tgz:9787.got - 2010.06.03 17:53:42.
