data_PCOD9355483
_publ_section_title
;
Structure prediction by ZEFSAII (Michael W. Deem and Ramdas Pophale) SiO2 
 PCOD9355483
Probable space group: C C C 2
;
_chemical_formula_sum "Si O2"
_cell_formula_units_Z 60
_cell_length_a 6.125771
_cell_length_b 17.103598
_cell_length_c 27.133857
_cell_angle_alpha 90.000000
_cell_angle_beta 90.000000
_cell_angle_gamma 90.000000
_cell_volume 2842.888127
_symmetry_space_group_name_H-M "C C C 2"
_symmetry_group_IT_number 37
_symmetry_cell_setting 'orthorhombic'
loop_
_space_group_symop_operation_xyz
x,y,z
-x,-y,z
-x,y,1/2+z
x,-y,1/2+z
1/2+x,1/2+y,z
1/2-x,1/2-y,z
1/2-x,1/2+y,1/2+z
1/2+x,1/2-y,1/2+z
loop_
_atom_site_type_symbol
_atom_site_label
_atom_site_fract_x
_atom_site_fract_y
_atom_site_fract_z
Si Si1 0.499531 0.709008 0.384130
Si Si2 0.228361 0.833224 0.555826
Si Si3 0.913675 0.822251 0.646101
Si Si4 0.160499 0.072727 0.320780
Si Si5 0.365981 0.420075 0.959099
Si Si6 0.973281 0.590761 0.635690
Si Si7 0.500000 0.000000 0.897979
Si Si8 0.740451 0.840156 0.226133
O O1 0.750000 0.750000 0.385451
O O2 0.522512 0.647536 0.339221
O O3 0.479320 0.652194 0.431308
O O4 0.250000 0.750000 0.380653
O O5 0.250000 0.750000 0.528160
O O6 0.155516 0.895672 0.515665
O O7 0.422908 0.873077 0.586464
O O8 0.070205 0.807893 0.600416
O O9 0.750000 0.750000 0.651011
O O10 0.781161 0.897452 0.631351
O O11 0.034922 0.843158 0.695938
O O12 0.333247 0.046581 0.362441
O O13 0.276746 0.100663 0.270965
O O14 0.000000 0.000000 0.312411
O O15 0.500000 0.500000 0.953614
O O16 0.136413 0.440041 0.932109
O O17 0.067033 0.637684 0.683337
O O18 0.000000 0.500000 0.642407
O O19 0.750000 0.750000 0.243480
#
# Coordination Sequence:
#
# PCOD9355483 Si02
#       8
#     8   8   8   8   8   8   4   8
#     4  12  26  50  79 111 150 196 256 326 390 466
#     4  11  25  44  68 107 140 185 248 292 371 454
#     4  11  21  45  73  94 149 189 225 306 367 443
#     4  12  27  47  73 106 142 198 250 318 386 460
#     4  12  27  47  73 106 142 198 250 318 386 460
#     4  11  25  43  67 105 139 191 233 293 362 440
#     4  12  24  52  72  94 152 198 254 330 394 452
#     4  11  25  44  68 107 140 185 248 292 371 454
#
# _framework density 21.105297
#
# number of rings (size 3 to 8) (size 9 to 14) (size 15 to 20)
#    0.000    0.533    5.333    2.400    5.600    2.133 
#    0.000    0.000    0.000    0.000    0.000    0.000 
#    0.000    0.000    0.000    0.000    0.000    0.000 
#
# Total GULP energy -167195.529537 kJ/mol
# GULP energy per Si atom -5573.184318 kJ/mol
# Density = 2.105726 g / cm^3
# Si number density = 21.105297 Si / 1000 Ang^3
#
#
#
# Elastic Constant Matrix: (Units=GPa)
#
#
# Indices 1 2 3 4 5 6 
#
# 1 81.1279 46.0296 10.0665 0.0000 0.0000 0.0000
# 2 46.0296 119.9660 21.4164 0.0000 0.0000 0.0000
# 3 10.0665 21.4164 78.0702 0.0000 0.0000 0.0000
# 4 0.0000 0.0000 0.0000 71.9427 0.0000 0.0000
# 5 0.0000 0.0000 0.0000 0.0000 -3.9723 0.0000
# 6 0.0000 0.0000 0.0000 0.0000 0.0000 37.0037
#
#
#
# Elastic Compliance Matrix: (Units=1/GPa)
#
#
# Indices 1 2 3 4 5 6 
#
# 1 0.015768 -0.005980 -0.000393 0.000000 0.000000 0.000000
# 2 -0.005980 0.011033 -0.002255 0.000000 0.000000 0.000000
# 3 -0.000393 -0.002255 0.013478 0.000000 0.000000 0.000000
# 4 0.000000 0.000000 0.000000 0.013900 0.000000 0.000000
# 5 0.000000 0.000000 0.000000 0.000000 -0.251743 0.000000
# 6 0.000000 0.000000 0.000000 0.000000 0.000000 0.027024
#
#
# Mechanical properties :
#
#
# Convention : Reuss Voigt Hill
#
# Bulk Modulus (GPa) = 43.43519 48.24321 45.83920
# Shear Modulus (GPa) = -34.33831 34.43826 0.04998
#
# Velocity S-wave (km/s) = -4.03798 4.04386 0.15405
# Velocity P-wave (km/s) = 1.05618 6.68668 4.66884
#
# Compressibility (1/GPa) = 0.02302281
#
# Stress axis : x y z
#
# Youngs Moduli (GPa) = 63.42076 90.63947 74.19311
#
# Poissons Ratio (x) = 0.54200 0.02914
# Poissons Ratio (y) = 0.37924 0.16734
# Poissons Ratio (z) = 0.02491 0.20443
#
# Static dielectric constant tensor:
#      x y z
#    x 1.825510 0.000000 0.000000 
#    y 0.000000 1.660650 0.000000 
#    z 0.000000 0.000000 1.786070 
# 
# From -- ./inp_files/19498.got.cif
#   From: 2010.05.17/outbox.cif.g08.bks.cpg/sg37_10_cif.got.tgz:19498.got - 2010.06.03 17:53:42.
