data_PCOD9355718
_publ_section_title
;
Structure prediction by ZEFSAII (Michael W. Deem and Ramdas Pophale) SiO2 
 PCOD9355718
Probable space group: C C C 2
;
_chemical_formula_sum "Si O2"
_cell_formula_units_Z 40
_cell_length_a 7.996538
_cell_length_b 16.965564
_cell_length_c 11.892478
_cell_angle_alpha 90.000000
_cell_angle_beta 90.000000
_cell_angle_gamma 90.000000
_cell_volume 1613.402271
_symmetry_space_group_name_H-M "C C C 2"
_symmetry_group_IT_number 37
_symmetry_cell_setting 'orthorhombic'
loop_
_space_group_symop_operation_xyz
x,y,z
-x,-y,z
-x,y,1/2+z
x,-y,1/2+z
1/2+x,1/2+y,z
1/2-x,1/2-y,z
1/2-x,1/2+y,1/2+z
1/2+x,1/2-y,1/2+z
loop_
_atom_site_type_symbol
_atom_site_label
_atom_site_fract_x
_atom_site_fract_y
_atom_site_fract_z
Si Si1 0.036306 0.650989 0.208950
Si Si2 0.759516 0.054985 0.076690
Si Si3 0.250000 0.750000 0.367731
Si Si4 0.500000 0.500000 0.899740
Si Si5 0.028936 0.807148 0.567384
Si Si6 0.702049 0.415533 0.738261
O O1 0.078992 0.589690 0.107912
O O2 0.184766 0.676958 0.292462
O O3 0.002402 0.732377 0.145511
O O4 0.881789 0.614692 0.279381
O O5 0.871640 0.133740 0.062348
O O6 0.790787 0.002869 0.187334
O O7 0.833690 0.998742 0.978398
O O8 0.100768 0.777904 0.449530
O O9 0.551293 0.424211 0.825700
O O10 0.163376 0.857513 0.636543
#
# Coordination Sequence:
#
# PCOD9355718 Si02
#       6
#     8   8   4   4   8   8
#     4  12  28  50  77 117 163 202 275 336 402 492
#     4  12  26  49  73 108 158 203 266 327 396 487
#     4  12  28  46  84 114 166 214 270 336 426 478
#     4  12  26  44  86 108 160 214 268 324 434 458
#     4  12  24  50  74 110 158 202 262 330 396 489
#     4  12  26  50  76 115 153 208 267 338 395 498
#
# _framework density 24.79233
#
# number of rings (size 3 to 8) (size 9 to 14) (size 15 to 20)
#    0.000    0.000    8.000    0.600    8.400    0.000 
#    0.000    2.000    0.000    0.000    0.000    0.000 
#    0.000    0.000    0.000    0.000    0.000    0.000 
#
# Total GULP energy -111609.650245 kJ/mol
# GULP energy per Si atom -5580.482512 kJ/mol
# Density = 2.473590 g / cm^3
# Si number density = 24.792330 Si / 1000 Ang^3
#
#
#
# Elastic Constant Matrix: (Units=GPa)
#
#
# Indices 1 2 3 4 5 6 
#
# 1 84.4221 34.7710 26.1531 0.0000 0.0000 0.0000
# 2 34.7710 115.1422 44.5209 0.0000 0.0000 0.0000
# 3 26.1531 44.5209 76.7795 0.0000 0.0000 0.0000
# 4 0.0000 0.0000 0.0000 38.8961 0.0000 0.0000
# 5 0.0000 0.0000 0.0000 0.0000 38.7286 0.0000
# 6 0.0000 0.0000 0.0000 0.0000 0.0000 24.9638
#
#
#
# Elastic Compliance Matrix: (Units=1/GPa)
#
#
# Indices 1 2 3 4 5 6 
#
# 1 0.014043 -0.003082 -0.002996 0.000000 0.000000 0.000000
# 2 -0.003082 0.011871 -0.005834 0.000000 0.000000 0.000000
# 3 -0.002996 -0.005834 0.017428 0.000000 0.000000 0.000000
# 4 0.000000 0.000000 0.000000 0.025710 0.000000 0.000000
# 5 0.000000 0.000000 0.000000 0.000000 0.025821 0.000000
# 6 0.000000 0.000000 0.000000 0.000000 0.000000 0.040058
#
#
# Mechanical properties :
#
#
# Convention : Reuss Voigt Hill
#
# Bulk Modulus (GPa) = 51.23578 54.13708 52.68643
# Shear Modulus (GPa) = 30.25529 31.91095 31.08312
#
# Velocity S-wave (km/s) = 3.49714 3.59155 3.54466
# Velocity P-wave (km/s) = 6.08420 6.25161 6.16847
#
# Compressibility (1/GPa) = 0.01951761
#
# Stress axis : x y z
#
# Youngs Moduli (GPa) = 71.21040 84.23611 57.38015
#
# Poissons Ratio (x) = 0.25964 0.17192
# Poissons Ratio (y) = 0.21949 0.33474
# Poissons Ratio (z) = 0.21336 0.49142
#
# Static dielectric constant tensor:
#      x y z
#    x 2.019160 0.000000 0.000000 
#    y 0.000000 1.945250 0.000000 
#    z 0.000000 0.000000 2.004170 
# 
# From -- ./inp_files/6149.got.cif
#   From: 2010.05.17/outbox.cif.g08.bks.cpg/sg37_4_cif.got.tgz:6149.got - 2010.06.03 17:53:42.
