data_PCOD9355784
_publ_section_title
;
Structure prediction by ZEFSAII (Michael W. Deem and Ramdas Pophale) SiO2 
 PCOD9355784
Probable space group: A M M 2
;
_chemical_formula_sum "Si O2"
_cell_formula_units_Z 52
_cell_length_a 31.136513
_cell_length_b 14.312171
_cell_length_c 5.238166
_cell_angle_alpha 90.000000
_cell_angle_beta 90.000000
_cell_angle_gamma 90.000000
_cell_volume 2334.289668
_symmetry_space_group_name_H-M "A M M 2"
_symmetry_group_IT_number 38
_symmetry_cell_setting 'orthorhombic'
loop_
_space_group_symop_operation_xyz
x,y,z
-x,-y,z
-x,y,z
x,-y,z
x,1/2+y,1/2+z
-x,1/2-y,1/2+z
-x,1/2+y,1/2+z
x,1/2-y,1/2+z
loop_
_atom_site_type_symbol
_atom_site_label
_atom_site_fract_x
_atom_site_fract_y
_atom_site_fract_z
Si Si1 0.408655 0.888174 0.112180
Si Si2 0.641351 0.113671 0.612121
Si Si3 0.264606 0.848953 0.441918
Si Si4 0.046552 0.314090 0.488262
Si Si5 0.862320 0.813746 0.085517
Si Si6 0.770391 0.862127 0.942452
Si Si7 0.500000 0.804180 0.971654
O O1 0.392632 0.859611 0.392176
O O2 0.456281 0.856266 0.044133
O O3 0.408213 0.000000 0.109168
O O4 0.376009 0.857953 0.888767
O O5 0.686999 0.156784 0.539221
O O6 0.646286 0.000000 0.608052
O O7 0.260877 0.895427 0.165872
O O8 0.242569 0.747543 0.406143
O O9 0.238161 0.899736 0.662884
O O10 0.047284 0.266429 0.208469
O O11 0.091984 0.364074 0.537336
O O12 0.000000 0.362454 0.515503
O O13 0.861158 0.767916 0.367144
O O14 0.819082 0.870641 0.034882
O O15 0.500000 0.717336 0.170327
#
# Coordination Sequence:
#
# PCOD9355784 Si02
#       7
#     8   8   8   8   8   8   4
#     4  10  22  43  65  82 107 148 179 199 243 312
#     4  10  21  38  58  79 100 132 176 207 234 281
#     4  10  18  30  44  67  94 119 154 195 230 276
#     4   8  14  20  29  45  65  98 143 185 225 262
#     4  10  14  23  36  49  78 110 148 189 218 282
#     4  10  17  28  41  65  92 122 158 181 240 299
#     4  12  25  44  61  94 122 136 166 218 259 292
#
# _framework density 22.276582999999999
#
# number of rings (size 3 to 8) (size 9 to 14) (size 15 to 20)
#    0.000    2.154    3.077    2.077    0.000    0.000 
#   16.615    3.077    0.000    0.000    0.000    0.000 
#    0.000    0.000    0.000    0.000    0.000    8.462 
#
# Total GULP energy -145080.681658 kJ/mol
# GULP energy per Si atom -5580.026218 kJ/mol
# Density = 2.222588 g / cm^3
# Si number density = 22.276583 Si / 1000 Ang^3
#
#
#
# Elastic Constant Matrix: (Units=GPa)
#
#
# Indices 1 2 3 4 5 6 
#
# 1 113.8031 -1.4298 -30.9187 0.0000 0.0000 0.0000
# 2 -1.4298 62.2175 -4.5931 0.0000 0.0000 0.0000
# 3 -30.9187 -4.5931 104.8660 0.0000 0.0000 0.0000
# 4 0.0000 0.0000 0.0000 -202.5862 0.0000 0.0000
# 5 0.0000 0.0000 0.0000 0.0000 36.3267 0.0000
# 6 0.0000 0.0000 0.0000 0.0000 0.0000 -55.1084
#
#
#
# Elastic Compliance Matrix: (Units=1/GPa)
#
#
# Indices 1 2 3 4 5 6 
#
# 1 0.009564 0.000429 0.002839 0.000000 0.000000 0.000000
# 2 0.000429 0.016144 0.000834 0.000000 0.000000 0.000000
# 3 0.002839 0.000834 0.010409 0.000000 0.000000 0.000000
# 4 0.000000 0.000000 0.000000 -0.004936 0.000000 0.000000
# 5 0.000000 0.000000 0.000000 0.000000 0.027528 0.000000
# 6 0.000000 0.000000 0.000000 0.000000 0.000000 -0.018146
#
#
# Mechanical properties :
#
#
# Convention : Reuss Voigt Hill
#
# Bulk Modulus (GPa) = 22.56300 23.00039 22.78169
# Shear Modulus (GPa) = 106.08221 -23.08505 41.49858
#
# Velocity S-wave (km/s) = 6.90825 -3.22264 4.32079
# Velocity P-wave (km/s) = 8.58967 1.87080 5.92801
#
# Compressibility (1/GPa) = 0.04432035
#
# Stress axis : x y z
#
# Youngs Moduli (GPa) = 104.56207 61.94224 96.06688
#
# Poissons Ratio (x) = -0.02659 -0.27269
# Poissons Ratio (y) = -0.04489 -0.08009
# Poissons Ratio (z) = -0.29681 -0.05164
#
# Static dielectric constant tensor:
#      x y z
#    x 1.838670 0.000000 0.000000 
#    y 0.000000 4.260710 0.000000 
#    z 0.000000 0.000000 1.866600 
# 
# From -- ./inp_files/2219.got.cif
#   From: 2010.05.17/outbox.cif.g08.bks.cpg/sg38_2_cif.got.tgz:2219.got - 2010.06.03 18:07:57.
