data_PCOD9355196
_publ_section_title
;
Structure prediction by ZEFSAII (Michael W. Deem and Ramdas Pophale) SiO2 
 PCOD9355196
Probable space group: C C C 2
;
_chemical_formula_sum "Si O2"
_cell_formula_units_Z 48
_cell_length_a 5.169237
_cell_length_b 13.897092
_cell_length_c 28.831902
_cell_angle_alpha 90.000000
_cell_angle_beta 90.000000
_cell_angle_gamma 90.000000
_cell_volume 2071.207786
_symmetry_space_group_name_H-M "C C C 2"
_symmetry_group_IT_number 37
_symmetry_cell_setting 'orthorhombic'
loop_
_space_group_symop_operation_xyz
x,y,z
-x,-y,z
-x,y,1/2+z
x,-y,1/2+z
1/2+x,1/2+y,z
1/2-x,1/2-y,z
1/2-x,1/2+y,1/2+z
1/2+x,1/2-y,1/2+z
loop_
_atom_site_type_symbol
_atom_site_label
_atom_site_fract_x
_atom_site_fract_y
_atom_site_fract_z
Si Si1 0.250000 0.250000 0.677620
Si Si2 0.628537 0.401868 0.801522
Si Si3 0.514010 0.109015 0.604255
Si Si4 0.250000 0.750000 0.342208
Si Si5 0.750000 0.250000 0.975537
Si Si6 0.088703 0.398155 0.398450
Si Si7 0.250000 0.250000 0.237348
Si Si8 0.017092 0.111461 0.541849
O O1 0.400963 0.176260 0.644040
O O2 0.495097 0.282793 0.708684
O O3 0.500000 0.500000 0.784288
O O4 0.434105 0.314401 0.811084
O O5 0.739050 0.422026 0.852977
O O6 0.821797 0.347590 0.766553
O O7 0.303159 0.116093 0.563559
O O8 0.796531 0.125435 0.581376
O O9 0.500000 0.000000 0.621973
O O10 0.382568 0.827118 0.375486
O O11 0.806833 0.337606 0.940918
O O12 0.974995 0.200775 0.006509
O O13 0.000000 0.500000 0.416858
O O14 0.000000 0.000000 0.523936
#
# Coordination Sequence:
#
# PCOD9355196 Si02
#       8
#     4   8   8   4   4   8   4   8
#     4  12  26  44  76 111 146 181 238 302 371 441
#     4  12  25  45  71 100 142 201 243 295 365 435
#     4  10  23  48  74 102 143 190 236 287 367 450
#     4  12  21  44  72  92 134 190 250 292 350 433
#     4  12  26  44  66 111 148 186 251 312 360 410
#     4  12  26  43  70 101 140 198 248 301 358 426
#     4  12  27  44  70 114 148 183 243 308 367 436
#     4  10  24  45  75 105 143 193 241 295 362 436
#
# _framework density 23.174883000000001
#
# number of rings (size 3 to 8) (size 9 to 14) (size 15 to 20)
#    0.000    0.667    5.000    2.000    0.000    8.667 
#    0.000    1.667    0.000    0.000    0.000    0.000 
#    0.000    0.000    0.000    0.000    0.000    0.000 
#
# Total GULP energy -133984.144804 kJ/mol
# GULP energy per Si atom -5582.672700 kJ/mol
# Density = 2.312214 g / cm^3
# Si number density = 23.174883 Si / 1000 Ang^3
#
#
#
# Elastic Constant Matrix: (Units=GPa)
#
#
# Indices 1 2 3 4 5 6 
#
# 1 82.2025 37.4195 12.7340 0.0000 0.0000 0.0000
# 2 37.4195 183.5523 59.1589 0.0000 0.0000 0.0000
# 3 12.7340 59.1589 76.9473 0.0000 0.0000 0.0000
# 4 0.0000 0.0000 0.0000 9.3607 0.0000 0.0000
# 5 0.0000 0.0000 0.0000 0.0000 29.8623 0.0000
# 6 0.0000 0.0000 0.0000 0.0000 0.0000 46.4582
#
#
#
# Elastic Compliance Matrix: (Units=1/GPa)
#
#
# Indices 1 2 3 4 5 6 
#
# 1 0.013411 -0.002684 -0.000156 0.000000 0.000000 0.000000
# 2 -0.002684 0.007780 -0.005537 0.000000 0.000000 0.000000
# 3 -0.000156 -0.005537 0.017279 0.000000 0.000000 0.000000
# 4 0.000000 0.000000 0.000000 0.106830 0.000000 0.000000
# 5 0.000000 0.000000 0.000000 0.000000 0.033487 0.000000
# 6 0.000000 0.000000 0.000000 0.000000 0.000000 0.021525
#
#
# Mechanical properties :
#
#
# Convention : Reuss Voigt Hill
#
# Bulk Modulus (GPa) = 46.04971 62.36965 54.20968
# Shear Modulus (GPa) = 22.29125 32.69556 27.49340
#
# Velocity S-wave (km/s) = 3.10477 3.76016 3.44807
# Velocity P-wave (km/s) = 5.72420 6.76925 6.26854
#
# Compressibility (1/GPa) = 0.02171566
#
# Stress axis : x y z
#
# Youngs Moduli (GPa) = 74.56620 128.53868 57.87436
#
# Poissons Ratio (x) = 0.34496 0.00903
# Poissons Ratio (y) = 0.20011 0.32046
# Poissons Ratio (z) = 0.01164 0.71174
#
# Static dielectric constant tensor:
#      x y z
#    x 1.948970 0.000000 0.000000 
#    y 0.000000 1.824070 0.000000 
#    z 0.000000 0.000000 2.052470 
# 
# From -- ./inp_files/19459.got.cif
#   From: 2010.05.17/outbox.cif.g08.bks.cpg/sg37_10_cif.got.tgz:19459.got - 2010.06.03 17:53:42.
