data_PCOD9355590
_publ_section_title
;
Structure prediction by ZEFSAII (Michael W. Deem and Ramdas Pophale) SiO2 
 PCOD9355590
Probable space group: C C C 2
;
_chemical_formula_sum "Si O2"
_cell_formula_units_Z 56
_cell_length_a 16.102986
_cell_length_b 12.561157
_cell_length_c 11.942317
_cell_angle_alpha 90.000000
_cell_angle_beta 90.000000
_cell_angle_gamma 90.000000
_cell_volume 2415.597960
_symmetry_space_group_name_H-M "C C C 2"
_symmetry_group_IT_number 37
_symmetry_cell_setting 'orthorhombic'
loop_
_space_group_symop_operation_xyz
x,y,z
-x,-y,z
-x,y,1/2+z
x,-y,1/2+z
1/2+x,1/2+y,z
1/2-x,1/2-y,z
1/2-x,1/2+y,1/2+z
1/2+x,1/2-y,1/2+z
loop_
_atom_site_type_symbol
_atom_site_label
_atom_site_fract_x
_atom_site_fract_y
_atom_site_fract_z
Si Si1 0.000000 0.000000 0.173391
Si Si2 0.180908 0.671100 0.169295
Si Si3 0.912480 0.475696 0.784287
Si Si4 0.600704 0.145559 0.560403
Si Si5 0.141798 0.915919 0.830515
Si Si6 0.792845 0.538754 0.455470
Si Si7 0.455345 0.702504 0.026069
Si Si8 0.250000 0.250000 0.188817
O O1 0.080177 0.019112 0.251526
O O2 0.990281 0.102729 0.095576
O O3 0.250000 0.750000 0.220505
O O4 0.139708 0.580343 0.246647
O O5 0.109199 0.738572 0.108432
O O6 0.223156 0.608375 0.065206
O O7 0.935168 0.412832 0.670857
O O8 0.852763 0.406079 0.863401
O O9 0.000000 0.500000 0.840983
O O10 0.530346 0.215705 0.502786
O O11 0.675880 0.212791 0.609730
O O12 0.647160 0.057329 0.488180
O O13 0.204612 0.988977 0.902429
O O14 0.204588 0.841202 0.761086
O O15 0.088620 0.843662 0.915776
#
# Coordination Sequence:
#
# PCOD9355590 Si02
#       8
#     4   8   8   8   8   8   8   4
#     4  12  30  46  72 102 150 190 246 298 362 434
#     4  11  24  44  69 100 140 190 232 295 360 434
#     4  11  24  42  69 106 142 179 233 300 363 420
#     4  11  26  45  72 105 144 187 236 302 357 429
#     4  12  26  46  75 105 144 195 245 298 367 437
#     4  11  26  42  73 109 141 184 242 298 362 431
#     4  12  26  47  71 104 145 189 240 296 367 433
#     4  12  24  48  72 104 146 196 242 290 370 436
#
# _framework density 23.182666000000001
#
# number of rings (size 3 to 8) (size 9 to 14) (size 15 to 20)
#    0.000    0.571    5.714    1.286    6.000    2.286 
#    1.286    0.000    0.000    0.000    0.000    0.000 
#    0.000    0.000    0.000    0.000    0.000    0.000 
#
# Total GULP energy -156693.782654 kJ/mol
# GULP energy per Si atom -5596.206523 kJ/mol
# Density = 2.312990 g / cm^3
# Si number density = 23.182666 Si / 1000 Ang^3
#
#
#
# Elastic Constant Matrix: (Units=GPa)
#
#
# Indices 1 2 3 4 5 6 
#
# 1 131.4553 23.1997 0.6241 0.0000 0.0000 0.0000
# 2 23.1997 59.0019 -7.4696 0.0000 0.0000 0.0000
# 3 0.6241 -7.4696 37.8089 0.0000 0.0000 0.0000
# 4 0.0000 0.0000 0.0000 15.4052 0.0000 0.0000
# 5 0.0000 0.0000 0.0000 0.0000 37.6530 0.0000
# 6 0.0000 0.0000 0.0000 0.0000 0.0000 51.1427
#
#
#
# Elastic Compliance Matrix: (Units=1/GPa)
#
#
# Indices 1 2 3 4 5 6 
#
# 1 0.008197 -0.003324 -0.000792 0.000000 0.000000 0.000000
# 2 -0.003324 0.018731 0.003755 0.000000 0.000000 0.000000
# 3 -0.000792 0.003755 0.027204 0.000000 0.000000 0.000000
# 4 0.000000 0.000000 0.000000 0.064913 0.000000 0.000000
# 5 0.000000 0.000000 0.000000 0.000000 0.026558 0.000000
# 6 0.000000 0.000000 0.000000 0.000000 0.000000 0.019553
#
#
# Mechanical properties :
#
#
# Convention : Reuss Voigt Hill
#
# Bulk Modulus (GPa) = 18.72239 28.99715 23.85977
# Shear Modulus (GPa) = 27.22116 34.96766 31.09441
#
# Velocity S-wave (km/s) = 3.43038 3.88797 3.66632
# Velocity P-wave (km/s) = 4.87684 5.71754 5.31385
#
# Compressibility (1/GPa) = 0.05341200
#
# Stress axis : x y z
#
# Youngs Moduli (GPa) = 121.98911 53.38790 36.75956
#
# Poissons Ratio (x) = 0.17744 0.02911
# Poissons Ratio (y) = 0.40543 -0.13805
# Poissons Ratio (z) = 0.09661 -0.20049
#
# Static dielectric constant tensor:
#      x y z
#    x 1.779110 0.000000 0.000000 
#    y 0.000000 1.917570 0.000000 
#    z 0.000000 0.000000 1.978630 
# 
# From -- ./inp_files/7878.got.cif
#   From: 2010.05.17/outbox.cif.g08.bks.cpg/sg37_4_cif.got.tgz:7878.got - 2010.06.03 17:53:42.
