data_PCOD9355112
_publ_section_title
;
Structure prediction by ZEFSAII (Michael W. Deem and Ramdas Pophale) SiO2 
 PCOD9355112
Probable space group: C C C 2
;
_chemical_formula_sum "Si O2"
_cell_formula_units_Z 56
_cell_length_a 14.375588
_cell_length_b 5.602774
_cell_length_c 32.553928
_cell_angle_alpha 90.000000
_cell_angle_beta 90.000000
_cell_angle_gamma 90.000000
_cell_volume 2621.996579
_symmetry_space_group_name_H-M "C C C 2"
_symmetry_group_IT_number 37
_symmetry_cell_setting 'orthorhombic'
loop_
_space_group_symop_operation_xyz
x,y,z
-x,-y,z
-x,y,1/2+z
x,-y,1/2+z
1/2+x,1/2+y,z
1/2-x,1/2-y,z
1/2-x,1/2+y,1/2+z
1/2+x,1/2-y,1/2+z
loop_
_atom_site_type_symbol
_atom_site_label
_atom_site_fract_x
_atom_site_fract_y
_atom_site_fract_z
Si Si1 0.400555 0.371680 0.284830
Si Si2 0.147118 0.138697 0.704626
Si Si3 0.000000 0.500000 0.239229
Si Si4 0.000000 0.500000 0.997588
Si Si5 0.691296 0.496476 0.618408
Si Si6 0.701003 0.500000 0.868408
Si Si7 0.099445 0.128320 0.951987
Si Si8 0.852882 0.861303 0.532191
O O1 0.500000 0.500000 0.287115
O O2 0.349706 0.478932 0.245364
O O3 0.353166 0.412527 0.327987
O O4 0.423410 0.106052 0.270431
O O5 0.250000 0.250000 0.702712
O O6 0.059423 0.315575 0.711881
O O7 0.135556 0.003836 0.661287
O O8 0.076590 0.393948 0.966385
O O9 0.059423 0.684425 0.024936
O O10 0.750000 0.750000 0.618408
O O11 0.635556 0.503836 0.575530
O O12 0.750000 0.250000 0.618408
O O13 0.750000 0.250000 0.881431
O O14 0.646834 0.587473 0.908829
O O15 0.750000 0.750000 0.855386
O O16 0.000000 0.000000 0.949702
O O17 0.150294 0.021068 0.991453
O O18 0.750000 0.750000 0.534105
#
# Coordination Sequence:
#
# PCOD9355112 Si02
#       8
#     8   8   4   4   8   8   8   8
#     4  10  24  45  67 100 139 182 232 287 351 411
#     4  10  23  42  71  99 140 186 234 293 352 421
#     4  10  24  43  71 102 136 192 232 289 359 418
#     4  10  24  43  71 102 136 192 232 289 359 418
#     4  10  24  41  69 107 138 185 235 291 355 416
#     4  12  29  44  73 108 134 182 236 285 352 423
#     4  10  24  45  67 100 139 182 232 287 351 411
#     4  10  23  42  71  99 140 186 234 293 352 421
#
# _framework density 21.357766999999999
#
# number of rings (size 3 to 8) (size 9 to 14) (size 15 to 20)
#    0.000    1.714    0.000    1.286   20.000    0.571 
#    0.000    6.429    0.000    0.000    0.000    0.000 
#    0.000    0.000    0.000    0.000    0.000    0.000 
#
# Total GULP energy -156038.145552 kJ/mol
# GULP energy per Si atom -5572.790913 kJ/mol
# Density = 2.130916 g / cm^3
# Si number density = 21.357767 Si / 1000 Ang^3
#
#
#
# Elastic Constant Matrix: (Units=GPa)
#
#
# Indices 1 2 3 4 5 6 
#
# 1 64.9190 31.0038 61.1538 0.0000 0.0000 0.0000
# 2 31.0038 100.9757 57.9212 0.0000 0.0000 0.0000
# 3 61.1538 57.9212 229.5884 0.0000 0.0000 0.0000
# 4 0.0000 0.0000 0.0000 -120.0945 0.0000 0.0000
# 5 0.0000 0.0000 0.0000 0.0000 37.0097 0.0000
# 6 0.0000 0.0000 0.0000 0.0000 0.0000 21.4814
#
#
#
# Elastic Compliance Matrix: (Units=1/GPa)
#
#
# Indices 1 2 3 4 5 6 
#
# 1 0.021824 -0.003936 -0.004820 0.000000 0.000000 0.000000
# 2 -0.003936 0.012289 -0.002052 0.000000 0.000000 0.000000
# 3 -0.004820 -0.002052 0.006157 0.000000 0.000000 0.000000
# 4 0.000000 0.000000 0.000000 -0.008327 0.000000 0.000000
# 5 0.000000 0.000000 0.000000 0.000000 0.027020 0.000000
# 6 0.000000 0.000000 0.000000 0.000000 0.000000 0.046552
#
#
# Mechanical properties :
#
#
# Convention : Reuss Voigt Hill
#
# Bulk Modulus (GPa) = 53.60744 77.29341 65.45042
# Shear Modulus (GPa) = 37.49549 4.03961 20.76755
#
# Velocity S-wave (km/s) = 4.19452 1.37677 3.12166
# Velocity P-wave (km/s) = 6.97230 6.22862 6.61093
#
# Compressibility (1/GPa) = 0.01865413
#
# Stress axis : x y z
#
# Youngs Moduli (GPa) = 45.82085 81.37441 162.41208
#
# Poissons Ratio (x) = 0.32029 0.78285
# Poissons Ratio (y) = 0.18035 0.33325
# Poissons Ratio (z) = 0.22086 0.16697
#
# Static dielectric constant tensor:
#      x y z
#    x 1.723590 0.000000 0.000000 
#    y 0.000000 1.939970 0.000000 
#    z 0.000000 0.000000 1.760860 
# 
# From -- ./inp_files/20578.got.cif
#   From: 2010.05.17/outbox.cif.g08.bks.cpg/sg37_11_cif.got.tgz:20578.got - 2010.06.03 17:53:42.
