data_PCOD9355786
_publ_section_title
;
Structure prediction by ZEFSAII (Michael W. Deem and Ramdas Pophale) SiO2 
 PCOD9355786
Probable space group: A M M 2
;
_chemical_formula_sum "Si O2"
_cell_formula_units_Z 48
_cell_length_a 21.559508
_cell_length_b 26.945956
_cell_length_c 5.441851
_cell_angle_alpha 90.000000
_cell_angle_beta 90.000000
_cell_angle_gamma 90.000000
_cell_volume 3161.397376
_symmetry_space_group_name_H-M "A M M 2"
_symmetry_group_IT_number 38
_symmetry_cell_setting 'orthorhombic'
loop_
_space_group_symop_operation_xyz
x,y,z
-x,-y,z
-x,y,z
x,-y,z
x,1/2+y,1/2+z
-x,1/2-y,1/2+z
-x,1/2+y,1/2+z
x,1/2-y,1/2+z
loop_
_atom_site_type_symbol
_atom_site_label
_atom_site_fract_x
_atom_site_fract_y
_atom_site_fract_z
Si Si1 0.927885 0.106490 0.605500
Si Si2 0.753154 0.300719 0.106288
Si Si3 0.100530 0.778728 0.606006
Si Si4 0.702707 0.311248 0.606292
Si Si5 0.569240 0.717220 0.606055
Si Si6 0.924354 0.941760 0.105504
O O1 0.924938 0.165722 0.605754
O O2 0.900929 0.084637 0.353281
O O3 0.000000 0.091136 0.605444
O O4 0.900922 0.084577 0.857581
O O5 0.824762 0.285168 0.106048
O O6 0.734819 0.328509 0.355614
O O7 0.715060 0.248728 0.106379
O O8 0.734744 0.328524 0.857089
O O9 0.082809 0.749970 0.356088
O O10 0.629008 0.318065 0.606086
O O11 0.500000 0.694721 0.606055
O O12 0.573696 0.749999 0.356055
O O13 0.000000 0.937231 0.105454
O O14 0.910018 0.000000 0.105685
#
# Coordination Sequence:
#
# PCOD9355786 Si02
#       6
#     8   8   8   8   8   8
#     4  10  21  33  46  67  87 105 133 165 204 252
#     4  10  16  25  37  49  62  94 135 164 187 217
#     4  12  21  31  43  58  83 115 145 169 195 233
#     4  10  14  25  36  46  63  87 130 167 195 230
#     4  10  16  20  29  45  62  80 105 155 217 241
#     4   9  17  33  54  70  83  99 122 160 210 258
#
# _framework density 15.183159
#
# number of rings (size 3 to 8) (size 9 to 14) (size 15 to 20)
#    0.000    1.833    6.667    1.500    0.000    2.667 
#    0.000    0.000    0.000    0.000    0.000    0.000 
#    0.000    0.000    0.000    0.000    0.000    0.000 
#
# Total GULP energy -133633.269421 kJ/mol
# GULP energy per Si atom -5568.052893 kJ/mol
# Density = 1.514860 g / cm^3
# Si number density = 15.183159 Si / 1000 Ang^3
#
#
#
# Elastic Constant Matrix: (Units=GPa)
#
#
# Indices 1 2 3 4 5 6 
#
# 1 26.2867 -13.6822 4.8837 0.0000 0.0000 0.0000
# 2 -13.6822 46.9147 48.5139 0.0000 0.0000 0.0000
# 3 4.8837 48.5139 189.5590 0.0000 0.0000 0.0000
# 4 0.0000 0.0000 0.0000 17.5921 0.0000 0.0000
# 5 0.0000 0.0000 0.0000 0.0000 -2.9738 0.0000
# 6 0.0000 0.0000 0.0000 0.0000 0.0000 -1.3597
#
#
#
# Elastic Compliance Matrix: (Units=1/GPa)
#
#
# Indices 1 2 3 4 5 6 
#
# 1 0.050767 0.021974 -0.006932 0.000000 0.000000 0.000000
# 2 0.021974 0.038498 -0.010419 0.000000 0.000000 0.000000
# 3 -0.006932 -0.010419 0.008120 0.000000 0.000000 0.000000
# 4 0.000000 0.000000 0.000000 0.056844 0.000000 0.000000
# 5 0.000000 0.000000 0.000000 0.000000 -0.336273 0.000000
# 6 0.000000 0.000000 0.000000 0.000000 0.000000 -0.735436
#
#
# Mechanical properties :
#
#
# Convention : Reuss Voigt Hill
#
# Bulk Modulus (GPa) = 9.37806 38.02125 23.69966
# Shear Modulus (GPa) = -5.61053 17.52138 5.95543
#
# Velocity S-wave (km/s) = -1.92438 3.40074 1.98265
# Velocity P-wave (km/s) = 1.11909 6.36523 4.56993
#
# Compressibility (1/GPa) = 0.10663182
#
# Stress axis : x y z
#
# Youngs Moduli (GPa) = 19.69776 25.97555 123.14525
#
# Poissons Ratio (x) = -0.57078 0.85361
# Poissons Ratio (y) = -0.43283 1.28303
# Poissons Ratio (z) = 0.13654 0.27064
#
# Static dielectric constant tensor:
#      x y z
#    x 1.534840 0.000000 0.000000 
#    y 0.000000 1.458100 0.000000 
#    z 0.000000 0.000000 1.599980 
# 
# From -- ./inp_files/1929.got.cif
#   From: 2010.05.17/outbox.cif.g08.bks.cpg/sg38_1_cif.got.tgz:1929.got - 2010.06.03 18:07:57.
