data_PCOD9355342
_publ_section_title
;
Structure prediction by ZEFSAII (Michael W. Deem and Ramdas Pophale) SiO2 
 PCOD9355342
Probable space group: C C C 2
;
_chemical_formula_sum "Si O2"
_cell_formula_units_Z 60
_cell_length_a 24.455846
_cell_length_b 12.046402
_cell_length_c 8.873517
_cell_angle_alpha 90.000000
_cell_angle_beta 90.000000
_cell_angle_gamma 90.000000
_cell_volume 2614.182051
_symmetry_space_group_name_H-M "C C C 2"
_symmetry_group_IT_number 37
_symmetry_cell_setting 'orthorhombic'
loop_
_space_group_symop_operation_xyz
x,y,z
-x,-y,z
-x,y,1/2+z
x,-y,1/2+z
1/2+x,1/2+y,z
1/2-x,1/2-y,z
1/2-x,1/2+y,1/2+z
1/2+x,1/2-y,1/2+z
loop_
_atom_site_type_symbol
_atom_site_label
_atom_site_fract_x
_atom_site_fract_y
_atom_site_fract_z
Si Si1 0.389464 0.152441 0.333730
Si Si2 0.986021 0.268510 0.287982
Si Si3 0.145411 0.938099 0.517850
Si Si4 0.973171 0.888813 0.050302
Si Si5 0.311400 0.249429 0.806310
Si Si6 0.610521 0.922380 0.680952
Si Si7 0.683534 0.371353 0.815645
Si Si8 0.250000 0.750000 0.010606
O O1 0.451684 0.195459 0.316162
O O2 0.381693 0.106901 0.504577
O O3 0.347687 0.253441 0.303006
O O4 0.385254 0.051829 0.215970
O O5 0.964725 0.215406 0.441200
O O6 0.947647 0.366612 0.227813
O O7 0.988051 0.162742 0.176642
O O8 0.087251 0.923913 0.598900
O O9 0.155836 0.842209 0.395073
O O10 0.188635 0.926192 0.652543
O O11 0.149046 0.050275 0.425254
O O12 0.000000 0.000000 0.982838
O O13 0.250000 0.250000 0.873368
O O14 0.345327 0.137113 0.790836
O O15 0.298883 0.270693 0.628784
O O16 0.741703 0.352023 0.897111
#
# Coordination Sequence:
#
# PCOD9355342 Si02
#       8
#     8   8   8   8   8   8   8   4
#     4  12  27  47  70 107 145 196 250 305 373 452
#     4  12  25  45  69 103 155 195 251 303 372 454
#     4  12  27  46  80 108 158 198 254 321 393 451
#     4  12  26  42  73 112 151 205 250 306 384 463
#     4  10  24  50  76 106 145 196 250 313 384 446
#     4  12  27  46  75  99 151 192 251 309 369 451
#     4  12  27  48  75 114 149 193 257 317 388 464
#     4  10  24  50  74 106 146 188 246 314 384 460
#
# _framework density 22.951730000000001
#
# number of rings (size 3 to 8) (size 9 to 14) (size 15 to 20)
#    0.400    0.000    5.333    2.400    6.533    2.133 
#    0.000    0.000    0.000    0.000    0.000    0.000 
#    0.000    0.000    0.000    0.000    0.000    0.000 
#
# Total GULP energy -167487.812350 kJ/mol
# GULP energy per Si atom -5582.927078 kJ/mol
# Density = 2.289949 g / cm^3
# Si number density = 22.951730 Si / 1000 Ang^3
#
#
#
# Elastic Constant Matrix: (Units=GPa)
#
#
# Indices 1 2 3 4 5 6 
#
# 1 71.8181 20.5588 0.0748 0.0000 0.0000 0.0000
# 2 20.5588 119.0014 25.4355 0.0000 0.0000 0.0000
# 3 0.0748 25.4355 79.5622 0.0000 0.0000 0.0000
# 4 0.0000 0.0000 0.0000 46.0807 0.0000 0.0000
# 5 0.0000 0.0000 0.0000 0.0000 22.2044 0.0000
# 6 0.0000 0.0000 0.0000 0.0000 0.0000 26.4237
#
#
#
# Elastic Compliance Matrix: (Units=1/GPa)
#
#
# Indices 1 2 3 4 5 6 
#
# 1 0.014703 -0.002723 0.000857 0.000000 0.000000 0.000000
# 2 -0.002723 0.009524 -0.003042 0.000000 0.000000 0.000000
# 3 0.000857 -0.003042 0.013541 0.000000 0.000000 0.000000
# 4 0.000000 0.000000 0.000000 0.021701 0.000000 0.000000
# 5 0.000000 0.000000 0.000000 0.000000 0.045036 0.000000
# 6 0.000000 0.000000 0.000000 0.000000 0.000000 0.037845
#
#
# Mechanical properties :
#
#
# Convention : Reuss Voigt Hill
#
# Bulk Modulus (GPa) = 35.77817 40.27999 38.02908
# Shear Modulus (GPa) = 30.96298 33.89592 32.42945
#
# Velocity S-wave (km/s) = 3.67692 3.84713 3.76299
# Velocity P-wave (km/s) = 5.80074 6.10916 5.95695
#
# Compressibility (1/GPa) = 0.02795000
#
# Stress axis : x y z
#
# Youngs Moduli (GPa) = 68.01468 104.99834 73.85226
#
# Poissons Ratio (x) = 0.28593 -0.06327
# Poissons Ratio (y) = 0.18522 0.22467
# Poissons Ratio (z) = -0.05827 0.31942
#
# Static dielectric constant tensor:
#      x y z
#    x 1.896220 0.000000 0.000000 
#    y 0.000000 1.821100 0.000000 
#    z 0.000000 0.000000 1.870380 
# 
# From -- ./inp_files/4795.got.cif
#   From: 2010.05.17/outbox.cif.g08.bks.cpg/sg37_3_cif.got.tgz:4795.got - 2010.06.03 17:53:42.
