data_PCOD9355314
_publ_section_title
;
Structure prediction by ZEFSAII (Michael W. Deem and Ramdas Pophale) SiO2 
 PCOD9355314
Probable space group: C C C 2
;
_chemical_formula_sum "Si O2"
_cell_formula_units_Z 48
_cell_length_a 12.011899
_cell_length_b 17.219498
_cell_length_c 9.343111
_cell_angle_alpha 90.000000
_cell_angle_beta 90.000000
_cell_angle_gamma 90.000000
_cell_volume 1932.518529
_symmetry_space_group_name_H-M "C C C 2"
_symmetry_group_IT_number 37
_symmetry_cell_setting 'orthorhombic'
loop_
_space_group_symop_operation_xyz
x,y,z
-x,-y,z
-x,y,1/2+z
x,-y,1/2+z
1/2+x,1/2+y,z
1/2-x,1/2-y,z
1/2-x,1/2+y,1/2+z
1/2+x,1/2-y,1/2+z
loop_
_atom_site_type_symbol
_atom_site_label
_atom_site_fract_x
_atom_site_fract_y
_atom_site_fract_z
Si Si1 0.951775 0.080885 0.315730
Si Si2 0.332147 0.589924 0.966787
Si Si3 0.740870 0.010024 0.243527
Si Si4 0.538787 0.828164 0.456096
Si Si5 0.884170 0.750053 0.748505
Si Si6 0.750000 0.750000 0.414486
Si Si7 0.500000 0.000000 0.358600
O O1 0.821831 0.063744 0.341699
O O2 0.944433 0.165062 0.244434
O O3 0.035790 0.085532 0.448239
O O4 0.000000 0.000000 0.244443
O O5 0.278610 0.535293 0.086264
O O6 0.281495 0.571764 0.809184
O O7 0.299836 0.677306 0.999894
O O8 0.571809 0.209994 0.394229
O O9 0.610976 0.017542 0.268067
O O10 0.637748 0.790470 0.355700
O O11 0.528684 0.921046 0.443942
O O12 0.750000 0.750000 0.756877
O O13 0.928647 0.698167 0.615632
#
# Coordination Sequence:
#
# PCOD9355314 Si02
#       7
#     8   8   8   8   8   4   4
#     4  10  24  46  79 117 158 213 279 350 417 502
#     4  11  25  49  80 113 159 221 276 346 422 508
#     4  11  26  47  78 120 164 210 274 347 430 507
#     4  12  28  49  85 114 169 219 282 350 438 516
#     4  12  27  54  82 120 164 229 278 355 436 526
#     4  12  22  52  80 108 160 226 268 346 432 500
#     4  12  28  50  80 130 166 222 282 362 438 538
#
# _framework density 24.838052999999999
#
# number of rings (size 3 to 8) (size 9 to 14) (size 15 to 20)
#    0.000    0.667    4.167    2.000    2.333    8.667 
#    1.500    0.000    3.667    1.000    0.000    0.000 
#    0.000    0.000    0.000    0.000    0.000    0.000 
#
# Total GULP energy -133845.377091 kJ/mol
# GULP energy per Si atom -5576.890712 kJ/mol
# Density = 2.478152 g / cm^3
# Si number density = 24.838053 Si / 1000 Ang^3
#
#
#
# Elastic Constant Matrix: (Units=GPa)
#
#
# Indices 1 2 3 4 5 6 
#
# 1 210.5437 54.7392 75.1094 0.0000 0.0000 0.0000
# 2 54.7392 198.6057 69.8353 0.0000 0.0000 0.0000
# 3 75.1094 69.8353 102.5117 0.0000 0.0000 0.0000
# 4 0.0000 0.0000 0.0000 26.7309 0.0000 0.0000
# 5 0.0000 0.0000 0.0000 0.0000 41.0459 0.0000
# 6 0.0000 0.0000 0.0000 0.0000 0.0000 51.3322
#
#
#
# Elastic Compliance Matrix: (Units=1/GPa)
#
#
# Indices 1 2 3 4 5 6 
#
# 1 0.006434 -0.000152 -0.004610 0.000000 0.000000 0.000000
# 2 -0.000152 0.006625 -0.004402 0.000000 0.000000 0.000000
# 3 -0.004610 -0.004402 0.016132 0.000000 0.000000 0.000000
# 4 0.000000 0.000000 0.000000 0.037410 0.000000 0.000000
# 5 0.000000 0.000000 0.000000 0.000000 0.024363 0.000000
# 6 0.000000 0.000000 0.000000 0.000000 0.000000 0.019481
#
#
# Mechanical properties :
#
#
# Convention : Reuss Voigt Hill
#
# Bulk Modulus (GPa) = 92.06491 101.22543 96.64517
# Shear Modulus (GPa) = 37.76641 44.62030 41.19335
#
# Velocity S-wave (km/s) = 3.90360 4.24305 4.07686
# Velocity P-wave (km/s) = 7.58050 8.05278 7.82021
#
# Compressibility (1/GPa) = 0.01086190
#
# Stress axis : x y z
#
# Youngs Moduli (GPa) = 155.42735 150.94898 61.99048
#
# Poissons Ratio (x) = 0.02297 0.28580
# Poissons Ratio (y) = 0.02365 0.27286
# Poissons Ratio (z) = 0.71658 0.66441
#
# Static dielectric constant tensor:
#      x y z
#    x 2.026950 0.000000 0.000000 
#    y 0.000000 2.064690 0.000000 
#    z 0.000000 0.000000 2.036090 
# 
# From -- ./inp_files/7226.got.cif
#   From: 2010.05.17/outbox.cif.g08.bks.cpg/sg37_4_cif.got.tgz:7226.got - 2010.06.03 17:53:42.
