data_PCOD9355381
_publ_section_title
;
Structure prediction by ZEFSAII (Michael W. Deem and Ramdas Pophale) SiO2 
 PCOD9355381
Probable space group: C C C 2
;
_chemical_formula_sum "Si O2"
_cell_formula_units_Z 36
_cell_length_a 9.624615
_cell_length_b 20.650555
_cell_length_c 9.211371
_cell_angle_alpha 90.000000
_cell_angle_beta 90.000000
_cell_angle_gamma 90.000000
_cell_volume 1830.793529
_symmetry_space_group_name_H-M "C C C 2"
_symmetry_group_IT_number 37
_symmetry_cell_setting 'orthorhombic'
loop_
_space_group_symop_operation_xyz
x,y,z
-x,-y,z
-x,y,1/2+z
x,-y,1/2+z
1/2+x,1/2+y,z
1/2-x,1/2-y,z
1/2-x,1/2+y,1/2+z
1/2+x,1/2-y,1/2+z
loop_
_atom_site_type_symbol
_atom_site_label
_atom_site_fract_x
_atom_site_fract_y
_atom_site_fract_z
Si Si1 0.168356 0.690731 0.630670
Si Si2 0.000000 0.500000 0.952089
Si Si3 0.926890 0.593522 0.703553
Si Si4 0.674030 0.315355 0.138327
Si Si5 0.068798 0.806853 0.454743
O O1 0.250000 0.750000 0.716055
O O2 0.075493 0.733295 0.518303
O O3 0.294863 0.662478 0.533137
O O4 0.931550 0.637830 0.202683
O O5 0.080257 0.452227 0.843516
O O6 0.076596 0.547926 0.062114
O O7 0.794746 0.638194 0.689552
O O8 0.750000 0.250000 0.092460
O O9 0.583201 0.303452 0.283330
O O10 0.571220 0.338422 0.012793
#
# Coordination Sequence:
#
# PCOD9355381 Si02
#       5
#     8   4   8   8   8
#     4   8  17  36  60  95 126 152 188 275 326 377
#     4  10  26  40  60  94 116 190 218 254 292 374
#     4  11  22  42  67  86 132 162 227 254 307 392
#     4  12  20  38  61  94 124 163 191 272 326 378
#     4   9  21  33  56 100 127 147 193 240 360 365
#
# _framework density 19.663606000000001
#
# number of rings (size 3 to 8) (size 9 to 14) (size 15 to 20)
#    1.333    0.444    4.444    1.333    0.000    1.778 
#    4.000    0.000    0.000   22.667    0.000    0.000 
#    0.000    0.000    0.000    0.000    0.000    0.000 
#
# Total GULP energy -100219.310153 kJ/mol
# GULP energy per Si atom -5567.739453 kJ/mol
# Density = 1.961885 g / cm^3
# Si number density = 19.663606 Si / 1000 Ang^3
#
#
#
# Elastic Constant Matrix: (Units=GPa)
#
#
# Indices 1 2 3 4 5 6 
#
# 1 91.6258 22.5802 25.6658 0.0000 0.0000 0.0000
# 2 22.5802 73.4359 20.4227 0.0000 0.0000 0.0000
# 3 25.6658 20.4227 83.2516 0.0000 0.0000 0.0000
# 4 0.0000 0.0000 0.0000 -71.0896 0.0000 0.0000
# 5 0.0000 0.0000 0.0000 0.0000 0.5895 0.0000
# 6 0.0000 0.0000 0.0000 0.0000 0.0000 11.7580
#
#
#
# Elastic Compliance Matrix: (Units=1/GPa)
#
#
# Indices 1 2 3 4 5 6 
#
# 1 0.012525 -0.002981 -0.003130 0.000000 0.000000 0.000000
# 2 -0.002981 0.015324 -0.002840 0.000000 0.000000 0.000000
# 3 -0.003130 -0.002840 0.013674 0.000000 0.000000 0.000000
# 4 0.000000 0.000000 0.000000 -0.014067 0.000000 0.000000
# 5 0.000000 0.000000 0.000000 0.000000 1.696481 0.000000
# 6 0.000000 0.000000 0.000000 0.000000 0.000000 0.085048
#
#
# Mechanical properties :
#
#
# Convention : Reuss Voigt Hill
#
# Bulk Modulus (GPa) = 42.33657 42.85007 42.59332
# Shear Modulus (GPa) = 2.72515 0.22789 1.47652
#
# Velocity S-wave (km/s) = 1.17851 0.34080 0.86748
# Velocity P-wave (km/s) = 4.84035 4.68975 4.76565
#
# Compressibility (1/GPa) = 0.02362024
#
# Stress axis : x y z
#
# Youngs Moduli (GPa) = 79.83792 65.25838 73.13401
#
# Poissons Ratio (x) = 0.19452 0.22893
# Poissons Ratio (y) = 0.23798 0.20771
# Poissons Ratio (z) = 0.24991 0.18534
#
# Static dielectric constant tensor:
#      x y z
#    x 1.739640 0.000000 0.000000 
#    y 0.000000 1.727190 0.000000 
#    z 0.000000 0.000000 1.715820 
# 
# From -- ./inp_files/2145.got.cif
#   From: 2010.05.17/outbox.cif.g08.bks.cpg/sg37_2_cif.got.tgz:2145.got - 2010.06.03 17:53:42.
