data_PCOD9355928
_publ_section_title
;
Structure prediction by ZEFSAII (Michael W. Deem and Ramdas Pophale) SiO2 
 PCOD9355928
Probable space group: A M M 2
;
_chemical_formula_sum "Si O2"
_cell_formula_units_Z 48
_cell_length_a 7.511675
_cell_length_b 21.025697
_cell_length_c 15.088633
_cell_angle_alpha 90.000000
_cell_angle_beta 90.000000
_cell_angle_gamma 90.000000
_cell_volume 2383.071574
_symmetry_space_group_name_H-M "A M M 2"
_symmetry_group_IT_number 38
_symmetry_cell_setting 'orthorhombic'
loop_
_space_group_symop_operation_xyz
x,y,z
-x,-y,z
-x,y,z
x,-y,z
x,1/2+y,1/2+z
-x,1/2-y,1/2+z
-x,1/2+y,1/2+z
x,1/2-y,1/2+z
loop_
_atom_site_type_symbol
_atom_site_label
_atom_site_fract_x
_atom_site_fract_y
_atom_site_fract_z
Si Si1 0.217488 0.428213 0.246540
Si Si2 0.782343 0.225952 0.429844
Si Si3 0.785172 0.126406 0.935424
Si Si4 0.708641 0.570661 0.627025
Si Si5 0.791733 0.694799 0.736005
Si Si6 0.781906 0.185915 0.620481
O O1 0.274405 0.500000 0.227461
O O2 0.274810 0.406825 0.344851
O O3 0.274312 0.376045 0.174899
O O4 0.000000 0.427604 0.247127
O O5 0.728678 0.299955 0.436385
O O6 0.719848 0.198124 0.335927
O O7 0.723842 0.190188 0.518670
O O8 0.000000 0.224795 0.431024
O O9 0.000000 0.126582 0.934449
O O10 0.731136 0.090722 0.024635
O O11 0.500000 0.567883 0.645685
O O12 0.784911 0.500000 0.641241
O O13 0.779592 0.627165 0.688314
O O14 0.720365 0.750842 0.672878
O O15 0.000000 0.710214 0.745052
O O16 0.000000 0.186261 0.619988
#
# Coordination Sequence:
#
# PCOD9355928 Si02
#       6
#     8   8   8   8   8   8
#     4   9  16  25  42  73 108 136 161 195 248 308
#     4   9  16  27  49  80 104 126 165 214 256 293
#     4  10  17  30  54  80 104 131 167 210 255 307
#     4  11  24  38  50  71 106 141 173 215 265 309
#     4  10  18  32  55  77 100 133 173 213 253 304
#     4   9  15  26  46  72 105 134 159 201 252 299
#
# _framework density 20.142073
#
# number of rings (size 3 to 8) (size 9 to 14) (size 15 to 20)
#    0.000    2.333    3.333    1.000    0.000    2.000 
#    0.000    1.667    0.000    3.000    0.000    0.000 
#    0.000    0.000    0.000    0.000    0.000    0.000 
#
# Total GULP energy -133993.160244 kJ/mol
# GULP energy per Si atom -5583.048343 kJ/mol
# Density = 2.009623 g / cm^3
# Si number density = 20.142073 Si / 1000 Ang^3
#
#
#
# Elastic Constant Matrix: (Units=GPa)
#
#
# Indices 1 2 3 4 5 6 
#
# 1 46.8172 -10.2773 -1.3232 0.0000 0.0000 0.0000
# 2 -10.2773 150.6875 90.3842 0.0000 0.0000 0.0000
# 3 -1.3232 90.3842 178.6859 0.0000 0.0000 0.0000
# 4 0.0000 0.0000 0.0000 24.2633 0.0000 0.0000
# 5 0.0000 0.0000 0.0000 0.0000 -158.6675 0.0000
# 6 0.0000 0.0000 0.0000 0.0000 0.0000 41.2432
#
#
#
# Elastic Compliance Matrix: (Units=1/GPa)
#
#
# Indices 1 2 3 4 5 6 
#
# 1 0.021773 0.001993 -0.000847 0.000000 0.000000 0.000000
# 2 0.001993 0.009709 -0.004896 0.000000 0.000000 0.000000
# 3 -0.000847 -0.004896 0.008067 0.000000 0.000000 0.000000
# 4 0.000000 0.000000 0.000000 0.041214 0.000000 0.000000
# 5 0.000000 0.000000 0.000000 0.000000 -0.006302 0.000000
# 6 0.000000 0.000000 0.000000 0.000000 0.000000 0.024246
#
#
# Mechanical properties :
#
#
# Convention : Reuss Voigt Hill
#
# Bulk Modulus (GPa) = 31.20258 59.30644 45.25451
# Shear Modulus (GPa) = 42.77491 1.19493 21.98492
#
# Velocity S-wave (km/s) = 4.61332 0.77106 3.30736
# Velocity P-wave (km/s) = 6.62584 5.50461 6.09108
#
# Compressibility (1/GPa) = 0.03204863
#
# Stress axis : x y z
#
# Youngs Moduli (GPa) = 45.92796 102.99642 123.96408
#
# Poissons Ratio (x) = -0.20527 0.10498
# Poissons Ratio (y) = -0.09153 0.60697
# Poissons Ratio (z) = 0.03889 0.50431
#
# Static dielectric constant tensor:
#      x y z
#    x 1.786580 0.000000 0.000000 
#    y 0.000000 1.696130 0.000000 
#    z 0.000000 0.000000 1.690540 
# 
# From -- ./inp_files/12048.got.cif
#   From: 2010.05.17/outbox.cif.g08.bks.cpg/sg38_7_cif.got.tgz:12048.got - 2010.06.03 18:07:57.
