data_PCOD9355223
_publ_section_title
;
Structure prediction by ZEFSAII (Michael W. Deem and Ramdas Pophale) SiO2 
 PCOD9355223
Probable space group: C C C 2
;
_chemical_formula_sum "Si O2"
_cell_formula_units_Z 64
_cell_length_a 8.918675
_cell_length_b 28.324848
_cell_length_c 11.746547
_cell_angle_alpha 90.000000
_cell_angle_beta 90.000000
_cell_angle_gamma 90.000000
_cell_volume 2967.414039
_symmetry_space_group_name_H-M "C C C 2"
_symmetry_group_IT_number 37
_symmetry_cell_setting 'orthorhombic'
loop_
_space_group_symop_operation_xyz
x,y,z
-x,-y,z
-x,y,1/2+z
x,-y,1/2+z
1/2+x,1/2+y,z
1/2-x,1/2-y,z
1/2-x,1/2+y,1/2+z
1/2+x,1/2-y,1/2+z
loop_
_atom_site_type_symbol
_atom_site_label
_atom_site_fract_x
_atom_site_fract_y
_atom_site_fract_z
Si Si1 0.399750 0.340475 0.091490
Si Si2 0.942128 0.661989 0.484875
Si Si3 0.226583 0.393286 0.909747
Si Si4 0.216586 0.868443 0.162934
Si Si5 0.098138 0.759623 0.426064
Si Si6 0.166021 0.977312 0.093608
Si Si7 0.816880 0.997720 0.841476
Si Si8 0.808365 0.197402 0.815172
O O1 0.576476 0.340311 0.112384
O O2 0.321695 0.338785 0.212393
O O3 0.340058 0.381984 0.012193
O O4 0.354066 0.292741 0.029250
O O5 0.870712 0.647979 0.605177
O O6 0.799941 0.672105 0.404423
O O7 0.060160 0.622375 0.445517
O O8 0.028328 0.711636 0.474613
O O9 0.270924 0.363701 0.798024
O O10 0.251104 0.446585 0.872711
O O11 0.176482 0.922893 0.132922
O O12 0.250000 0.750000 0.356307
O O13 0.971610 0.789597 0.362811
O O14 0.231385 0.005375 0.207238
O O15 0.000000 0.000000 0.082607
O O16 0.224694 0.976027 0.961387
O O17 0.000000 0.000000 0.834747
O O18 0.750000 0.250000 0.783992
#
# Coordination Sequence:
#
# PCOD9355223 Si02
#       8
#     8   8   8   8   8   8   8   8
#     4  12  22  40  65  98 129 172 240 271 343 386
#     4  11  25  44  62  93 141 174 229 274 343 395
#     4  11  25  41  68 102 135 178 224 279 346 402
#     4  11  25  42  68  99 137 171 222 285 339 405
#     4  11  22  42  63  91 130 181 233 280 333 394
#     4   9  18  38  64  98 128 165 212 274 332 406
#     4   9  18  38  65  97 132 164 216 274 339 407
#     4  10  24  42  61  90 131 183 226 282 332 398
#
# _framework density 21.567599999999999
#
# number of rings (size 3 to 8) (size 9 to 14) (size 15 to 20)
#    0.000    1.500    2.500    2.625    1.750    1.000 
#    2.250    0.625    0.000    3.000    0.000    0.000 
#    0.000    0.000    0.000    0.000    0.000    0.000 
#
# Total GULP energy -178339.611503 kJ/mol
# GULP energy per Si atom -5573.112859 kJ/mol
# Density = 2.151851 g / cm^3
# Si number density = 21.567600 Si / 1000 Ang^3
#
#
#
# Elastic Constant Matrix: (Units=GPa)
#
#
# Indices 1 2 3 4 5 6 
#
# 1 86.5708 -12.6119 20.4363 0.0000 0.0000 0.0000
# 2 -12.6119 16.9940 -12.8838 0.0000 0.0000 0.0000
# 3 20.4363 -12.8838 100.2186 0.0000 0.0000 0.0000
# 4 0.0000 0.0000 0.0000 30.6706 0.0000 0.0000
# 5 0.0000 0.0000 0.0000 0.0000 19.6066 0.0000
# 6 0.0000 0.0000 0.0000 0.0000 0.0000 29.1245
#
#
#
# Elastic Compliance Matrix: (Units=1/GPa)
#
#
# Indices 1 2 3 4 5 6 
#
# 1 0.013175 0.008577 -0.001584 0.000000 0.000000 0.000000
# 2 0.008577 0.070782 0.007351 0.000000 0.000000 0.000000
# 3 -0.001584 0.007351 0.011246 0.000000 0.000000 0.000000
# 4 0.000000 0.000000 0.000000 0.032604 0.000000 0.000000
# 5 0.000000 0.000000 0.000000 0.000000 0.051003 0.000000
# 6 0.000000 0.000000 0.000000 0.000000 0.000000 0.034335
#
#
# Mechanical properties :
#
#
# Convention : Reuss Voigt Hill
#
# Bulk Modulus (GPa) = 8.07173 21.51828 14.79501
# Shear Modulus (GPa) = 22.14783 29.80321 25.97552
#
# Velocity S-wave (km/s) = 3.20801 3.72136 3.47418
# Velocity P-wave (km/s) = 4.18000 5.33512 4.79249
#
# Compressibility (1/GPa) = 0.12388918
#
# Stress axis : x y z
#
# Youngs Moduli (GPa) = 75.90358 14.12788 88.91930
#
# Poissons Ratio (x) = -0.12117 0.14084
# Poissons Ratio (y) = -0.65099 -0.65361
# Poissons Ratio (z) = 0.12023 -0.10385
#
# Static dielectric constant tensor:
#      x y z
#    x 1.804410 0.000000 0.000000 
#    y 0.000000 1.779230 0.000000 
#    z 0.000000 0.000000 1.846190 
# 
# From -- ./inp_files/6613.got.cif
#   From: 2010.05.17/outbox.cif.g08.bks.cpg/sg37_4_cif.got.tgz:6613.got - 2010.06.03 17:53:42.
