data_PCOD9355193
_publ_section_title
;
Structure prediction by ZEFSAII (Michael W. Deem and Ramdas Pophale) SiO2 
 PCOD9355193
Probable space group: C C C 2
;
_chemical_formula_sum "Si O2"
_cell_formula_units_Z 28
_cell_length_a 7.372674
_cell_length_b 15.889516
_cell_length_c 9.783758
_cell_angle_alpha 90.000000
_cell_angle_beta 90.000000
_cell_angle_gamma 90.000000
_cell_volume 1146.149849
_symmetry_space_group_name_H-M "C C C 2"
_symmetry_group_IT_number 37
_symmetry_cell_setting 'orthorhombic'
loop_
_space_group_symop_operation_xyz
x,y,z
-x,-y,z
-x,y,1/2+z
x,-y,1/2+z
1/2+x,1/2+y,z
1/2-x,1/2-y,z
1/2-x,1/2+y,1/2+z
1/2+x,1/2-y,1/2+z
loop_
_atom_site_type_symbol
_atom_site_label
_atom_site_fract_x
_atom_site_fract_y
_atom_site_fract_z
Si Si1 0.000000 0.500000 0.736970
Si Si2 0.969136 0.848671 0.352551
Si Si3 0.299239 0.583364 0.107040
Si Si4 0.568183 0.837092 0.394730
O O1 0.026113 0.419273 0.834670
O O2 0.819177 0.501634 0.643771
O O3 0.943471 0.908900 0.483942
O O4 0.758104 0.837794 0.310306
O O5 0.025176 0.752913 0.388010
O O6 0.094643 0.887019 0.238978
O O7 0.142326 0.646520 0.048607
#
# Coordination Sequence:
#
# PCOD9355193 Si02
#       4
#     4   8   8   8
#     4  12  24  42  74 108 152 178 246 322 374 420
#     4   9  22  46  74  97 145 191 258 278 370 444
#     4  10  23  48  70 108 143 197 237 309 359 444
#     4   9  23  43  69 107 136 192 238 304 359 439
#
# _framework density 24.429614999999998
#
# number of rings (size 3 to 8) (size 9 to 14) (size 15 to 20)
#    1.714    0.571    0.000    0.857    8.000    1.143 
#   15.429    0.000    0.000    1.714    0.000    0.000 
#    0.000    0.000    0.000    0.000    0.000    0.000 
#
# Total GULP energy -77971.335493 kJ/mol
# GULP energy per Si atom -5569.381107 kJ/mol
# Density = 2.437401 g / cm^3
# Si number density = 24.429615 Si / 1000 Ang^3
#
#
#
# Elastic Constant Matrix: (Units=GPa)
#
#
# Indices 1 2 3 4 5 6 
#
# 1 87.7624 32.2641 66.1234 0.0000 0.0000 0.0000
# 2 32.2641 120.0309 63.6307 0.0000 0.0000 0.0000
# 3 66.1234 63.6307 161.3628 0.0000 0.0000 0.0000
# 4 0.0000 0.0000 0.0000 31.9956 0.0000 0.0000
# 5 0.0000 0.0000 0.0000 0.0000 14.9623 0.0000
# 6 0.0000 0.0000 0.0000 0.0000 0.0000 31.4665
#
#
#
# Elastic Compliance Matrix: (Units=1/GPa)
#
#
# Indices 1 2 3 4 5 6 
#
# 1 0.016594 -0.001082 -0.006373 0.000000 0.000000 0.000000
# 2 -0.001082 0.010604 -0.003738 0.000000 0.000000 0.000000
# 3 -0.006373 -0.003738 0.010283 0.000000 0.000000 0.000000
# 4 0.000000 0.000000 0.000000 0.031254 0.000000 0.000000
# 5 0.000000 0.000000 0.000000 0.000000 0.066835 0.000000
# 6 0.000000 0.000000 0.000000 0.000000 0.000000 0.031780
#
#
# Mechanical properties :
#
#
# Convention : Reuss Voigt Hill
#
# Bulk Modulus (GPa) = 66.25083 77.02141 71.63612
# Shear Modulus (GPa) = 25.67171 29.49408 27.58289
#
# Velocity S-wave (km/s) = 3.24519 3.47840 3.36382
# Velocity P-wave (km/s) = 6.42025 6.90860 6.66890
#
# Compressibility (1/GPa) = 0.01509415
#
# Stress axis : x y z
#
# Youngs Moduli (GPa) = 60.26278 94.30772 97.24874
#
# Poissons Ratio (x) = 0.10202 0.61980
# Poissons Ratio (y) = 0.06519 0.36352
# Poissons Ratio (z) = 0.38407 0.35253
#
# Static dielectric constant tensor:
#      x y z
#    x 2.005610 0.000000 0.000000 
#    y 0.000000 2.026910 0.000000 
#    z 0.000000 0.000000 1.980470 
# 
# From -- ./inp_files/6049.got.cif
#   From: 2010.05.17/outbox.cif.g08.bks.cpg/sg37_4_cif.got.tgz:6049.got - 2010.06.03 17:53:42.
