data_PCOD9355682
_publ_section_title
;
Structure prediction by ZEFSAII (Michael W. Deem and Ramdas Pophale) SiO2 
 PCOD9355682
Probable space group: C C C 2
;
_chemical_formula_sum "Si O2"
_cell_formula_units_Z 56
_cell_length_a 20.595475
_cell_length_b 11.049774
_cell_length_c 10.786834
_cell_angle_alpha 90.000000
_cell_angle_beta 90.000000
_cell_angle_gamma 90.000000
_cell_volume 2454.817460
_symmetry_space_group_name_H-M "C C C 2"
_symmetry_group_IT_number 37
_symmetry_cell_setting 'orthorhombic'
loop_
_space_group_symop_operation_xyz
x,y,z
-x,-y,z
-x,y,1/2+z
x,-y,1/2+z
1/2+x,1/2+y,z
1/2-x,1/2-y,z
1/2-x,1/2+y,1/2+z
1/2+x,1/2-y,1/2+z
loop_
_atom_site_type_symbol
_atom_site_label
_atom_site_fract_x
_atom_site_fract_y
_atom_site_fract_z
Si Si1 0.120022 0.317494 0.464900
Si Si2 0.843576 0.019522 0.134828
Si Si3 0.000000 0.500000 0.786641
Si Si4 0.924147 0.040897 0.389175
Si Si5 0.250000 0.750000 0.106022
Si Si6 0.605933 0.948234 0.103792
Si Si7 0.179555 0.249798 0.216541
Si Si8 0.514634 0.779794 0.971544
O O1 0.186975 0.295849 0.535055
O O2 0.112191 0.461330 0.489200
O O3 0.128489 0.267600 0.326656
O O4 0.057162 0.249021 0.519682
O O5 0.824132 0.877404 0.146916
O O6 0.891866 0.032243 0.253578
O O7 0.785769 0.121310 0.154973
O O8 0.879320 0.019628 0.998340
O O9 0.932389 0.517455 0.711533
O O10 0.002431 0.620629 0.868598
O O11 0.936396 0.180205 0.423852
O O12 0.000000 0.000000 0.387451
O O13 0.669099 0.871044 0.135632
O O14 0.552514 0.846760 0.078179
O O15 0.250000 0.250000 0.276951
#
# Coordination Sequence:
#
# PCOD9355682 Si02
#       8
#     8   8   4   8   4   8   8   8
#     4  12  24  44  75 108 150 202 252 322 395 468
#     4  12  28  54  74 115 155 212 267 329 400 480
#     4  12  22  38  74 110 152 188 246 316 398 456
#     4  12  28  48  83 115 158 201 262 327 412 472
#     4  12  28  50  72 104 150 208 270 316 390 476
#     4  12  23  43  73 110 149 191 255 317 390 469
#     4  12  25  48  73 104 157 206 258 319 393 471
#     4  12  23  44  69 114 146 187 253 326 388 470
#
# _framework density 22.812284999999999
#
# number of rings (size 3 to 8) (size 9 to 14) (size 15 to 20)
#    0.000    0.000    6.429    3.857    2.000    1.143 
#    3.857    0.000    0.000    0.000    0.000    0.000 
#    0.000    0.000    0.000    0.000    0.000    0.000 
#
# Total GULP energy -155894.854905 kJ/mol
# GULP energy per Si atom -5567.673389 kJ/mol
# Density = 2.276036 g / cm^3
# Si number density = 22.812285 Si / 1000 Ang^3
#
#
#
# Elastic Constant Matrix: (Units=GPa)
#
#
# Indices 1 2 3 4 5 6 
#
# 1 108.7056 14.9978 26.7759 0.0000 0.0000 0.0000
# 2 14.9978 114.7198 21.2450 0.0000 0.0000 0.0000
# 3 26.7759 21.2450 83.7662 0.0000 0.0000 0.0000
# 4 0.0000 0.0000 0.0000 24.5809 0.0000 0.0000
# 5 0.0000 0.0000 0.0000 0.0000 37.6935 0.0000
# 6 0.0000 0.0000 0.0000 0.0000 0.0000 42.2413
#
#
#
# Elastic Compliance Matrix: (Units=1/GPa)
#
#
# Indices 1 2 3 4 5 6 
#
# 1 0.010047 -0.000754 -0.003020 0.000000 0.000000 0.000000
# 2 -0.000754 0.009203 -0.002093 0.000000 0.000000 0.000000
# 3 -0.003020 -0.002093 0.013434 0.000000 0.000000 0.000000
# 4 0.000000 0.000000 0.000000 0.040682 0.000000 0.000000
# 5 0.000000 0.000000 0.000000 0.000000 0.026530 0.000000
# 6 0.000000 0.000000 0.000000 0.000000 0.000000 0.023674
#
#
# Mechanical properties :
#
#
# Convention : Reuss Voigt Hill
#
# Bulk Modulus (GPa) = 47.73386 48.13656 47.93521
# Shear Modulus (GPa) = 35.13998 37.18133 36.16066
#
# Velocity S-wave (km/s) = 3.92905 4.04156 3.98570
# Velocity P-wave (km/s) = 6.44618 6.55179 6.49920
#
# Compressibility (1/GPa) = 0.02094949
#
# Stress axis : x y z
#
# Youngs Moduli (GPa) = 99.53064 108.65902 74.43643
#
# Poissons Ratio (x) = 0.08195 0.22482
# Poissons Ratio (y) = 0.07506 0.15580
# Poissons Ratio (z) = 0.30061 0.22743
#
# Static dielectric constant tensor:
#      x y z
#    x 1.634950 0.000000 0.000000 
#    y 0.000000 2.044870 0.000000 
#    z 0.000000 0.000000 1.865740 
# 
# From -- ./inp_files/8613.got.cif
#   From: 2010.05.17/outbox.cif.g08.bks.cpg/sg37_5_cif.got.tgz:8613.got - 2010.06.03 17:53:42.
