data_PCOD9355855
_publ_section_title
;
Structure prediction by ZEFSAII (Michael W. Deem and Ramdas Pophale) SiO2 
 PCOD9355855
Probable space group: A M M 2
;
_chemical_formula_sum "Si O2"
_cell_formula_units_Z 64
_cell_length_a 15.026205
_cell_length_b 7.768005
_cell_length_c 32.090998
_cell_angle_alpha 90.000000
_cell_angle_beta 90.000000
_cell_angle_gamma 90.000000
_cell_volume 3745.777956
_symmetry_space_group_name_H-M "A M M 2"
_symmetry_group_IT_number 38
_symmetry_cell_setting 'orthorhombic'
loop_
_space_group_symop_operation_xyz
x,y,z
-x,-y,z
-x,y,z
x,-y,z
x,1/2+y,1/2+z
-x,1/2-y,1/2+z
-x,1/2+y,1/2+z
x,1/2-y,1/2+z
loop_
_atom_site_type_symbol
_atom_site_label
_atom_site_fract_x
_atom_site_fract_y
_atom_site_fract_z
Si Si1 0.901195 0.290385 0.848970
Si Si2 0.392178 0.801394 0.051699
Si Si3 0.398228 0.292724 0.461297
Si Si4 0.285580 0.292838 0.880498
Si Si5 0.397666 0.211073 0.300079
Si Si6 0.399161 0.299509 0.143547
Si Si7 0.901575 0.209786 0.251296
Si Si8 0.715601 0.703632 0.721232
O O1 0.902320 0.500000 0.850759
O O2 0.815711 0.229867 0.874727
O O3 0.888269 0.246709 0.800138
O O4 0.000000 0.231030 0.861761
O O5 0.500000 0.797171 0.049878
O O6 0.368272 0.718692 0.095703
O O7 0.363745 0.000000 0.054239
O O8 0.365378 0.727719 0.006653
O O9 0.500000 0.231289 0.453369
O O10 0.403063 0.500000 0.465140
O O11 0.333860 0.251568 0.423373
O O12 0.282703 0.500000 0.877780
O O13 0.344620 0.232954 0.841226
O O14 0.500000 0.266942 0.300703
O O15 0.346890 0.270938 0.258539
O O16 0.398157 0.000000 0.299999
O O17 0.500000 0.224360 0.146925
O O18 0.405710 0.500000 0.153023
O O19 0.331822 0.225233 0.177129
O O20 0.816018 0.272240 0.225794
O O21 0.000000 0.270777 0.238511
O O22 0.904106 0.000000 0.249295
O O23 0.722587 0.500000 0.729039
#
# Coordination Sequence:
#
# PCOD9355855 Si02
#       8
#     8   8   8   8   8   8   8   8
#     4   8  13  23  40  62  87 112 143 187 228 254
#     4   8  15  30  49  64  80 108 146 182 215 256
#     4   9  18  31  45  63  89 118 145 175 215 261
#     4  10  17  26  42  65  88 115 150 183 216 252
#     4   9  16  24  35  56  86 116 148 181 204 233
#     4  10  20  31  43  63  91 117 142 177 219 259
#     4   8  13  23  41  64  86 108 143 191 227 248
#     4  10  17  27  44  64  85 116 152 180 213 256
#
# _framework density 17.085903999999999
#
# number of rings (size 3 to 8) (size 9 to 14) (size 15 to 20)
#    0.000    3.000    1.250    2.625    0.000    2.500 
#    0.000    1.875    0.000    3.000    0.000    2.625 
#    0.000    1.000    0.000    0.000    0.000    0.000 
#
# Total GULP energy -178246.648457 kJ/mol
# GULP energy per Si atom -5570.207764 kJ/mol
# Density = 1.704702 g / cm^3
# Si number density = 17.085904 Si / 1000 Ang^3
#
#
#
# Elastic Constant Matrix: (Units=GPa)
#
#
# Indices 1 2 3 4 5 6 
#
# 1 150.5922 7.6505 83.2888 0.0000 0.0000 0.0000
# 2 7.6505 18.3885 -2.1959 0.0000 0.0000 0.0000
# 3 83.2888 -2.1959 120.2152 0.0000 0.0000 0.0000
# 4 0.0000 0.0000 0.0000 14.0943 0.0000 0.0000
# 5 0.0000 0.0000 0.0000 0.0000 9.0391 0.0000
# 6 0.0000 0.0000 0.0000 0.0000 0.0000 3.5391
#
#
#
# Elastic Compliance Matrix: (Units=1/GPa)
#
#
# Indices 1 2 3 4 5 6 
#
# 1 0.011325 -0.005661 -0.007950 0.000000 0.000000 0.000000
# 2 -0.005661 0.057330 0.004969 0.000000 0.000000 0.000000
# 3 -0.007950 0.004969 0.013917 0.000000 0.000000 0.000000
# 4 0.000000 0.000000 0.000000 0.070951 0.000000 0.000000
# 5 0.000000 0.000000 0.000000 0.000000 0.110630 0.000000
# 6 0.000000 0.000000 0.000000 0.000000 0.000000 0.282559
#
#
# Mechanical properties :
#
#
# Convention : Reuss Voigt Hill
#
# Bulk Modulus (GPa) = 15.31638 51.85364 33.58501
# Shear Modulus (GPa) = 8.53595 18.69800 13.61698
#
# Velocity S-wave (km/s) = 2.23758 3.31169 2.82613
# Velocity P-wave (km/s) = 3.95720 6.71101 5.50896
#
# Compressibility (1/GPa) = 0.06528959
#
# Stress axis : x y z
#
# Youngs Moduli (GPa) = 88.30238 17.44277 71.85527
#
# Poissons Ratio (x) = 0.09874 0.57122
# Poissons Ratio (y) = 0.49987 -0.35707
# Poissons Ratio (z) = 0.70196 -0.08668
#
# Static dielectric constant tensor:
#      x y z
#    x 1.594380 0.000000 0.000000 
#    y 0.000000 1.641640 0.000000 
#    z 0.000000 0.000000 1.568920 
# 
# From -- ./inp_files/25090.got.cif
#   From: 2010.05.17/outbox.cif.g08.bks.cpg/sg38_13_cif.got.tgz:25090.got - 2010.06.03 18:07:57.
