data_PCOD9355191
_publ_section_title
;
Structure prediction by ZEFSAII (Michael W. Deem and Ramdas Pophale) SiO2 
 PCOD9355191
Probable space group: C C C 2
;
_chemical_formula_sum "Si O2"
_cell_formula_units_Z 40
_cell_length_a 22.333653
_cell_length_b 7.530368
_cell_length_c 8.876881
_cell_angle_alpha 90.000000
_cell_angle_beta 90.000000
_cell_angle_gamma 90.000000
_cell_volume 1492.919402
_symmetry_space_group_name_H-M "C C C 2"
_symmetry_group_IT_number 37
_symmetry_cell_setting 'orthorhombic'
loop_
_space_group_symop_operation_xyz
x,y,z
-x,-y,z
-x,y,1/2+z
x,-y,1/2+z
1/2+x,1/2+y,z
1/2-x,1/2-y,z
1/2-x,1/2+y,1/2+z
1/2+x,1/2-y,1/2+z
loop_
_atom_site_type_symbol
_atom_site_label
_atom_site_fract_x
_atom_site_fract_y
_atom_site_fract_z
Si Si1 0.418289 0.309043 0.349090
Si Si2 0.471722 0.810568 0.528437
Si Si3 0.236866 0.459314 0.129273
Si Si4 0.136318 0.556921 0.347367
Si Si5 0.184214 0.080735 0.873941
O O1 0.474839 0.304420 0.459294
O O2 0.378102 0.480264 0.373912
O O3 0.375471 0.144656 0.393775
O O4 0.439112 0.273620 0.175101
O O5 0.429440 0.861965 0.385051
O O6 0.500000 0.000000 0.578888
O O7 0.250000 0.250000 0.167213
O O8 0.172725 0.525388 0.190904
O O9 0.289962 0.570625 0.208999
O O10 0.259587 0.500535 0.961759
O O11 0.172824 0.717850 0.425683
#
# Coordination Sequence:
#
# PCOD9355191 Si02
#       5
#     8   8   8   8   8
#     4  11  25  51  78 116 161 209 271 334 410 481
#     4  10  23  47  82 115 159 213 265 337 407 482
#     4  12  26  49  76 113 160 207 272 327 409 491
#     4  11  25  47  79 111 160 207 268 329 405 489
#     4  12  28  49  75 115 155 214 262 337 401 487
#
# _framework density 26.793143000000001
#
# number of rings (size 3 to 8) (size 9 to 14) (size 15 to 20)
#    0.000    0.800    2.000    4.800    2.800    7.200 
#    3.600    6.000    0.000    0.000    0.000    0.000 
#    0.000    0.000    0.000    0.000    0.000    0.000 
#
# Total GULP energy -111632.197495 kJ/mol
# GULP energy per Si atom -5581.609875 kJ/mol
# Density = 2.673216 g / cm^3
# Si number density = 26.793143 Si / 1000 Ang^3
#
#
#
# Elastic Constant Matrix: (Units=GPa)
#
#
# Indices 1 2 3 4 5 6 
#
# 1 146.8291 65.3712 89.9954 0.0000 0.0000 0.0000
# 2 65.3712 133.2203 59.8547 0.0000 0.0000 0.0000
# 3 89.9954 59.8547 106.7880 0.0000 0.0000 0.0000
# 4 0.0000 0.0000 0.0000 13.6481 0.0000 0.0000
# 5 0.0000 0.0000 0.0000 0.0000 44.0645 0.0000
# 6 0.0000 0.0000 0.0000 0.0000 0.0000 64.1235
#
#
#
# Elastic Compliance Matrix: (Units=1/GPa)
#
#
# Indices 1 2 3 4 5 6 
#
# 1 0.014546 -0.002179 -0.011037 0.000000 0.000000 0.000000
# 2 -0.002179 0.010359 -0.003970 0.000000 0.000000 0.000000
# 3 -0.011037 -0.003970 0.020891 0.000000 0.000000 0.000000
# 4 0.000000 0.000000 0.000000 0.073270 0.000000 0.000000
# 5 0.000000 0.000000 0.000000 0.000000 0.022694 0.000000
# 6 0.000000 0.000000 0.000000 0.000000 0.000000 0.015595
#
#
# Mechanical properties :
#
#
# Convention : Reuss Voigt Hill
#
# Bulk Modulus (GPa) = 87.53588 90.80888 89.17238
# Shear Modulus (GPa) = 25.57084 35.80829 30.68957
#
# Velocity S-wave (km/s) = 3.09266 3.65975 3.38809
# Velocity P-wave (km/s) = 6.74497 7.19892 6.97564
#
# Compressibility (1/GPa) = 0.01142389
#
# Stress axis : x y z
#
# Youngs Moduli (GPa) = 68.74958 96.53215 47.86700
#
# Poissons Ratio (x) = 0.21031 0.52831
# Poissons Ratio (y) = 0.14978 0.19005
# Poissons Ratio (z) = 0.75880 0.38326
#
# Static dielectric constant tensor:
#      x y z
#    x 2.052250 0.000000 0.000000 
#    y 0.000000 2.056300 0.000000 
#    z 0.000000 0.000000 2.092670 
# 
# From -- ./inp_files/4737.got.cif
#   From: 2010.05.17/outbox.cif.g08.bks.cpg/sg37_3_cif.got.tgz:4737.got - 2010.06.03 17:53:42.
