data_PCOD9355978
_publ_section_title
;
Structure prediction by ZEFSAII (Michael W. Deem and Ramdas Pophale) SiO2 
 PCOD9355978
Probable space group: A M M 2
;
_chemical_formula_sum "Si O2"
_cell_formula_units_Z 44
_cell_length_a 7.469522
_cell_length_b 13.708484
_cell_length_c 28.887751
_cell_angle_alpha 90.000000
_cell_angle_beta 90.000000
_cell_angle_gamma 90.000000
_cell_volume 2957.985033
_symmetry_space_group_name_H-M "A M M 2"
_symmetry_group_IT_number 38
_symmetry_cell_setting 'orthorhombic'
loop_
_space_group_symop_operation_xyz
x,y,z
-x,-y,z
-x,y,z
x,-y,z
x,1/2+y,1/2+z
-x,1/2-y,1/2+z
-x,1/2+y,1/2+z
x,1/2-y,1/2+z
loop_
_atom_site_type_symbol
_atom_site_label
_atom_site_fract_x
_atom_site_fract_y
_atom_site_fract_z
Si Si1 0.000000 0.305408 0.785630
Si Si2 0.288502 0.111353 0.217278
Si Si3 0.295400 0.881522 0.462811
Si Si4 0.713581 0.698565 0.161701
Si Si5 0.000000 0.111564 0.729855
Si Si6 0.000000 0.381868 0.888401
Si Si7 0.282238 0.612358 0.064474
O O1 0.829022 0.354847 0.760741
O O2 0.000000 0.192095 0.770490
O O3 0.000000 0.328460 0.839531
O O4 0.500000 0.116507 0.227913
O O5 0.252780 0.189806 0.176890
O O6 0.244856 0.000000 0.204911
O O7 0.500000 0.848886 0.456511
O O8 0.170225 0.855677 0.420156
O O9 0.226076 0.851136 0.513711
O O10 0.297035 0.000000 0.465203
O O11 0.500000 0.679642 0.166067
O O12 0.828474 0.634188 0.197281
O O13 0.768460 0.673895 0.109351
O O14 0.000000 0.000000 0.745175
O O15 0.000000 0.500000 0.881133
O O16 0.500000 0.610851 0.062574
O O17 0.223648 0.500000 0.070921
#
# Coordination Sequence:
#
# PCOD9355978 Si02
#       7
#     4   8   8   8   4   4   8
#     4  10  20  32  44  61  83 107 140 177 211 247
#     4   9  17  29  44  62  86 114 141 171 206 242
#     4   8  15  26  38  56  82 107 132 164 201 242
#     4   9  17  28  43  64  88 114 142 167 197 243
#     4  10  20  31  44  63  84 108 139 173 208 245
#     4  10  18  27  42  60  77 103 135 166 205 248
#     4   8  13  23  39  58  83 112 135 160 199 242
#
# _framework density 14.874992000000001
#
# number of rings (size 3 to 8) (size 9 to 14) (size 15 to 20)
#    0.000    3.091    0.000    2.455    0.000    2.545 
#    0.000    3.636    0.000    0.000    0.000    1.273 
#    0.000    1.455    0.000    0.000    0.000    0.000 
#
# Total GULP energy -122515.450353 kJ/mol
# GULP energy per Si atom -5568.884107 kJ/mol
# Density = 1.484114 g / cm^3
# Si number density = 14.874992 Si / 1000 Ang^3
#
#
#
# Elastic Constant Matrix: (Units=GPa)
#
#
# Indices 1 2 3 4 5 6 
#
# 1 61.3581 30.1505 48.9680 0.0000 0.0000 0.0000
# 2 30.1505 86.7312 57.8260 0.0000 0.0000 0.0000
# 3 48.9680 57.8260 159.0173 0.0000 0.0000 0.0000
# 4 0.0000 0.0000 0.0000 20.4594 0.0000 0.0000
# 5 0.0000 0.0000 0.0000 0.0000 19.9747 0.0000
# 6 0.0000 0.0000 0.0000 0.0000 0.0000 9.7731
#
#
#
# Elastic Compliance Matrix: (Units=1/GPa)
#
#
# Indices 1 2 3 4 5 6 
#
# 1 0.022748 -0.004274 -0.005451 0.000000 0.000000 0.000000
# 2 -0.004274 0.016023 -0.004511 0.000000 0.000000 0.000000
# 3 -0.005451 -0.004511 0.009607 0.000000 0.000000 0.000000
# 4 0.000000 0.000000 0.000000 0.048877 0.000000 0.000000
# 5 0.000000 0.000000 0.000000 0.000000 0.050063 0.000000
# 6 0.000000 0.000000 0.000000 0.000000 0.000000 0.102322
#
#
# Mechanical properties :
#
#
# Convention : Reuss Voigt Hill
#
# Bulk Modulus (GPa) = 50.23127 64.55508 57.39317
# Shear Modulus (GPa) = 17.55941 21.38558 19.47249
#
# Velocity S-wave (km/s) = 3.43952 3.79580 3.62204
# Velocity P-wave (km/s) = 7.04386 7.91855 7.49398
#
# Compressibility (1/GPa) = 0.01990792
#
# Stress axis : x y z
#
# Youngs Moduli (GPa) = 43.95990 62.41079 104.08564
#
# Poissons Ratio (x) = 0.26672 0.56737
# Poissons Ratio (y) = 0.18787 0.46949
# Poissons Ratio (z) = 0.23962 0.28151
#
# Static dielectric constant tensor:
#      x y z
#    x 1.539820 0.000000 0.000000 
#    y 0.000000 1.475890 0.000000 
#    z 0.000000 0.000000 1.481940 
# 
# From -- ./inp_files/23510.got.cif
#   From: 2010.05.17/outbox.cif.g08.bks.cpg/sg38_12_cif.got.tgz:23510.got - 2010.06.03 18:07:57.
