data_PCOD9355971
_publ_section_title
;
Structure prediction by ZEFSAII (Michael W. Deem and Ramdas Pophale) SiO2 
 PCOD9355971
Probable space group: A M M 2
;
_chemical_formula_sum "Si O2"
_cell_formula_units_Z 64
_cell_length_a 8.293789
_cell_length_b 19.054366
_cell_length_c 27.426590
_cell_angle_alpha 90.000000
_cell_angle_beta 90.000000
_cell_angle_gamma 90.000000
_cell_volume 4334.303312
_symmetry_space_group_name_H-M "A M M 2"
_symmetry_group_IT_number 38
_symmetry_cell_setting 'orthorhombic'
loop_
_space_group_symop_operation_xyz
x,y,z
-x,-y,z
-x,y,z
x,-y,z
x,1/2+y,1/2+z
-x,1/2-y,1/2+z
-x,1/2+y,1/2+z
x,1/2-y,1/2+z
loop_
_atom_site_type_symbol
_atom_site_label
_atom_site_fract_x
_atom_site_fract_y
_atom_site_fract_z
Si Si1 0.305687 0.080660 0.136930
Si Si2 0.808736 0.656282 0.432422
Si Si3 0.307847 0.080400 0.834568
Si Si4 0.695257 0.165074 0.231412
Si Si5 0.188280 0.285826 0.290598
Si Si6 0.312195 0.290020 0.885550
Si Si7 0.805474 0.081158 0.029996
Si Si8 0.303104 0.419935 0.828781
O O1 0.500000 0.079118 0.138807
O O2 0.250729 0.130029 0.181008
O O3 0.254216 0.104093 0.083107
O O4 0.248540 0.000000 0.143696
O O5 0.732819 0.612435 0.387799
O O6 0.773357 0.738350 0.423277
O O7 0.750126 0.627584 0.484372
O O8 0.000000 0.645156 0.429473
O O9 0.500000 0.082204 0.828365
O O10 0.228878 0.132340 0.794977
O O11 0.252204 0.000000 0.831667
O O12 0.500000 0.169445 0.231505
O O13 0.766020 0.241729 0.242952
O O14 0.742802 0.114605 0.276862
O O15 0.292346 0.250024 0.333714
O O16 0.000000 0.275720 0.301837
O O17 0.500000 0.293966 0.898291
O O18 0.249935 0.367663 0.872171
O O19 0.000000 0.082166 0.030596
O O20 0.753780 0.000000 0.022852
O O21 0.500000 0.419762 0.829604
O O22 0.248589 0.500000 0.832904
#
# Coordination Sequence:
#
# PCOD9355971 Si02
#       8
#     8   8   8   8   8   8   8   8
#     4   9  17  28  43  62  81 104 136 172 205 235
#     4  10  18  28  42  57  78 109 140 167 199 241
#     4  10  19  29  42  60  81 105 134 168 203 237
#     4   9  16  27  42  58  79 106 135 165 196 232
#     4  10  18  27  40  57  79 106 134 163 195 235
#     4   9  16  26  40  57  78 103 132 167 201 234
#     4   9  18  30  41  55  78 107 136 167 202 237
#     4   8  13  22  38  58  78 102 131 160 191 230
#
# _framework density 14.765924999999999
#
# number of rings (size 3 to 8) (size 9 to 14) (size 15 to 20)
#    0.000    2.750    0.000    5.250    0.000    4.500 
#    0.000    1.250    0.000   12.375    0.000    0.000 
#    0.000    1.000    0.000    5.500    0.000    3.750 
#
# Total GULP energy -178197.084294 kJ/mol
# GULP energy per Si atom -5568.658884 kJ/mol
# Density = 1.473232 g / cm^3
# Si number density = 14.765925 Si / 1000 Ang^3
#
#
#
# Elastic Constant Matrix: (Units=GPa)
#
#
# Indices 1 2 3 4 5 6 
#
# 1 15.3306 10.0512 8.9158 0.0000 0.0000 0.0000
# 2 10.0512 116.0416 61.0169 0.0000 0.0000 0.0000
# 3 8.9158 61.0169 94.1684 0.0000 0.0000 0.0000
# 4 0.0000 0.0000 0.0000 27.6909 0.0000 0.0000
# 5 0.0000 0.0000 0.0000 0.0000 23.5737 0.0000
# 6 0.0000 0.0000 0.0000 0.0000 0.0000 8.9244
#
#
#
# Elastic Compliance Matrix: (Units=1/GPa)
#
#
# Indices 1 2 3 4 5 6 
#
# 1 0.070187 -0.003921 -0.004105 0.000000 0.000000 0.000000
# 2 -0.003921 0.013290 -0.008240 0.000000 0.000000 0.000000
# 3 -0.004105 -0.008240 0.016347 0.000000 0.000000 0.000000
# 4 0.000000 0.000000 0.000000 0.036113 0.000000 0.000000
# 5 0.000000 0.000000 0.000000 0.000000 0.042420 0.000000
# 6 0.000000 0.000000 0.000000 0.000000 0.000000 0.112052
#
#
# Mechanical properties :
#
#
# Convention : Reuss Voigt Hill
#
# Bulk Modulus (GPa) = 14.86050 42.83428 28.84739
# Shear Modulus (GPa) = 14.47715 21.74157 18.10936
#
# Velocity S-wave (km/s) = 3.13460 3.84137 3.50584
# Velocity P-wave (km/s) = 4.81527 6.98188 5.99723
#
# Compressibility (1/GPa) = 0.06729249
#
# Stress axis : x y z
#
# Youngs Moduli (GPa) = 14.24767 75.24427 61.17286
#
# Poissons Ratio (x) = 0.29504 0.25109
# Poissons Ratio (y) = 0.05587 0.50407
# Poissons Ratio (z) = 0.05848 0.62002
#
# Static dielectric constant tensor:
#      x y z
#    x 1.506620 0.000000 0.000000 
#    y 0.000000 1.517460 0.000000 
#    z 0.000000 0.000000 1.475620 
# 
# From -- ./inp_files/23651.got.cif
#   From: 2010.05.17/outbox.cif.g08.bks.cpg/sg38_12_cif.got.tgz:23651.got - 2010.06.03 18:07:57.
