data_PCOD9355448
_publ_section_title
;
Structure prediction by ZEFSAII (Michael W. Deem and Ramdas Pophale) SiO2 
 PCOD9355448
Probable space group: C C C 2
;
_chemical_formula_sum "Si O2"
_cell_formula_units_Z 60
_cell_length_a 16.019339
_cell_length_b 16.525453
_cell_length_c 11.327944
_cell_angle_alpha 90.000000
_cell_angle_beta 90.000000
_cell_angle_gamma 90.000000
_cell_volume 2998.810748
_symmetry_space_group_name_H-M "C C C 2"
_symmetry_group_IT_number 37
_symmetry_cell_setting 'orthorhombic'
loop_
_space_group_symop_operation_xyz
x,y,z
-x,-y,z
-x,y,1/2+z
x,-y,1/2+z
1/2+x,1/2+y,z
1/2-x,1/2-y,z
1/2-x,1/2+y,1/2+z
1/2+x,1/2-y,1/2+z
loop_
_atom_site_type_symbol
_atom_site_label
_atom_site_fract_x
_atom_site_fract_y
_atom_site_fract_z
Si Si1 0.825573 0.611386 0.175950
Si Si2 0.580173 0.283390 0.681508
Si Si3 0.750000 0.750000 0.570276
Si Si4 0.834056 0.798018 0.950352
Si Si5 0.914946 0.527790 0.798208
Si Si6 0.313370 0.626487 0.875594
Si Si7 0.094145 0.708950 0.232252
Si Si8 0.243541 0.045715 0.939360
O O1 0.873791 0.696179 0.166044
O O2 0.891070 0.540595 0.203677
O O3 0.764321 0.626181 0.285532
O O4 0.768200 0.577907 0.069579
O O5 0.609697 0.325126 0.560460
O O6 0.612919 0.333532 0.795779
O O7 0.482811 0.263002 0.688026
O O8 0.709425 0.683091 0.485167
O O9 0.824165 0.716927 0.651827
O O10 0.750000 0.750000 0.987738
O O11 0.883374 0.739602 0.863272
O O12 0.803192 0.877746 0.881885
O O13 0.928900 0.615093 0.741418
O O14 0.833382 0.532635 0.879608
O O15 0.000000 0.500000 0.860936
O O16 0.312990 0.534079 0.923915
#
# Coordination Sequence:
#
# PCOD9355448 Si02
#       8
#     8   8   4   8   8   8   8   8
#     4  11  20  40  65  98 140 181 222 277 353 424
#     4  12  23  42  71 101 138 186 234 289 342 426
#     4  12  24  46  68 104 142 188 232 292 358 426
#     4  12  22  45  71  95 132 193 239 271 346 430
#     4  11  22  38  59 105 143 172 218 282 360 426
#     4  11  24  42  72 101 138 183 238 284 350 416
#     4  12  26  43  69 103 145 182 232 296 357 418
#     4  11  23  41  70  96 134 187 232 286 340 421
#
# _framework density 20.007932
#
# number of rings (size 3 to 8) (size 9 to 14) (size 15 to 20)
#    0.000    0.533    7.333    0.800    1.867    1.600 
#    7.200    0.667    0.000    0.000    0.000    0.000 
#    0.000    0.000    0.000    0.000    0.000    0.000 
#
# Total GULP energy -167420.502091 kJ/mol
# GULP energy per Si atom -5580.683403 kJ/mol
# Density = 1.996239 g / cm^3
# Si number density = 20.007932 Si / 1000 Ang^3
#
#
#
# Elastic Constant Matrix: (Units=GPa)
#
#
# Indices 1 2 3 4 5 6 
#
# 1 87.4455 24.6582 26.3621 0.0000 0.0000 0.0000
# 2 24.6582 112.8084 9.1807 0.0000 0.0000 0.0000
# 3 26.3621 9.1807 66.8949 0.0000 0.0000 0.0000
# 4 0.0000 0.0000 0.0000 20.8375 0.0000 0.0000
# 5 0.0000 0.0000 0.0000 0.0000 21.5587 0.0000
# 6 0.0000 0.0000 0.0000 0.0000 0.0000 29.2509
#
#
#
# Elastic Compliance Matrix: (Units=1/GPa)
#
#
# Indices 1 2 3 4 5 6 
#
# 1 0.013682 -0.002581 -0.005038 0.000000 0.000000 0.000000
# 2 -0.002581 0.009451 -0.000280 0.000000 0.000000 0.000000
# 3 -0.005038 -0.000280 0.016973 0.000000 0.000000 0.000000
# 4 0.000000 0.000000 0.000000 0.047990 0.000000 0.000000
# 5 0.000000 0.000000 0.000000 0.000000 0.046385 0.000000
# 6 0.000000 0.000000 0.000000 0.000000 0.000000 0.034187
#
#
# Mechanical properties :
#
#
# Convention : Reuss Voigt Hill
#
# Bulk Modulus (GPa) = 41.13689 43.06120 42.09905
# Shear Modulus (GPa) = 25.96478 28.12594 27.04536
#
# Velocity S-wave (km/s) = 3.60630 3.75339 3.68058
# Velocity P-wave (km/s) = 6.15999 6.35238 6.25692
#
# Compressibility (1/GPa) = 0.02430908
#
# Stress axis : x y z
#
# Youngs Moduli (GPa) = 73.08812 105.80342 58.91871
#
# Poissons Ratio (x) = 0.27305 0.29681
# Poissons Ratio (y) = 0.18862 0.01650
# Poissons Ratio (z) = 0.36820 0.02964
#
# Static dielectric constant tensor:
#      x y z
#    x 1.706620 0.000000 0.000000 
#    y 0.000000 1.750920 0.000000 
#    z 0.000000 0.000000 1.725340 
# 
# From -- ./inp_files/7953.got.cif
#   From: 2010.05.17/outbox.cif.g08.bks.cpg/sg37_4_cif.got.tgz:7953.got - 2010.06.03 17:53:42.
