data_PCOD9355409
_publ_section_title
;
Structure prediction by ZEFSAII (Michael W. Deem and Ramdas Pophale) SiO2 
 PCOD9355409
Probable space group: C C C 2
;
_chemical_formula_sum "Si O2"
_cell_formula_units_Z 36
_cell_length_a 16.136896
_cell_length_b 6.817056
_cell_length_c 10.922377
_cell_angle_alpha 90.000000
_cell_angle_beta 90.000000
_cell_angle_gamma 90.000000
_cell_volume 1201.528355
_symmetry_space_group_name_H-M "C C C 2"
_symmetry_group_IT_number 37
_symmetry_cell_setting 'orthorhombic'
loop_
_space_group_symop_operation_xyz
x,y,z
-x,-y,z
-x,y,1/2+z
x,-y,1/2+z
1/2+x,1/2+y,z
1/2-x,1/2-y,z
1/2-x,1/2+y,1/2+z
1/2+x,1/2-y,1/2+z
loop_
_atom_site_type_symbol
_atom_site_label
_atom_site_fract_x
_atom_site_fract_y
_atom_site_fract_z
Si Si1 0.846604 0.779059 0.372300
Si Si2 0.250000 0.250000 0.738451
Si Si3 0.099320 0.649576 0.417306
Si Si4 0.015265 0.726887 0.690034
Si Si5 0.371258 0.525374 0.603544
O O1 0.750000 0.750000 0.345248
O O2 0.881823 0.582166 0.434664
O O3 0.893701 0.825425 0.242669
O O4 0.854412 0.962184 0.459547
O O5 0.176259 0.309493 0.827304
O O6 0.284271 0.431803 0.657995
O O7 0.022389 0.711530 0.333870
O O8 0.089152 0.755290 0.549799
O O9 0.000000 0.500000 0.656623
O O10 0.943942 0.867259 0.635213
#
# Coordination Sequence:
#
# PCOD9355409 Si02
#       5
#     8   4   8   8   8
#     4  11  24  50  77 119 163 218 280 344 425 517
#     4  12  28  48  80 126 166 228 288 348 436 516
#     4  11  27  51  76 117 169 212 288 359 419 519
#     4  10  26  50  80 118 165 220 283 358 427 508
#     4  12  26  50  81 121 162 228 281 355 436 506
#
# _framework density 29.961839999999999
#
# number of rings (size 3 to 8) (size 9 to 14) (size 15 to 20)
#    0.000    0.889    1.111    4.000    0.000   13.333 
#   14.000    2.222    0.000    0.000    0.000    0.000 
#    0.000    0.000    0.000    0.000    0.000    0.000 
#
# Total GULP energy -100751.577900 kJ/mol
# GULP energy per Si atom -5597.309883 kJ/mol
# Density = 2.989365 g / cm^3
# Si number density = 29.961840 Si / 1000 Ang^3
#
#
#
# Elastic Constant Matrix: (Units=GPa)
#
#
# Indices 1 2 3 4 5 6 
#
# 1 224.2609 90.4371 95.4964 0.0000 0.0000 0.0000
# 2 90.4371 224.5595 125.4527 0.0000 0.0000 0.0000
# 3 95.4964 125.4527 234.7244 0.0000 0.0000 0.0000
# 4 0.0000 0.0000 0.0000 70.5003 0.0000 0.0000
# 5 0.0000 0.0000 0.0000 0.0000 60.0179 0.0000
# 6 0.0000 0.0000 0.0000 0.0000 0.0000 79.1424
#
#
#
# Elastic Compliance Matrix: (Units=1/GPa)
#
#
# Indices 1 2 3 4 5 6 
#
# 1 0.005696 -0.001425 -0.001556 0.000000 0.000000 0.000000
# 2 -0.001425 0.006705 -0.003004 0.000000 0.000000 0.000000
# 3 -0.001556 -0.003004 0.006499 0.000000 0.000000 0.000000
# 4 0.000000 0.000000 0.000000 0.014184 0.000000 0.000000
# 5 0.000000 0.000000 0.000000 0.000000 0.016662 0.000000
# 6 0.000000 0.000000 0.000000 0.000000 0.000000 0.012635
#
#
# Mechanical properties :
#
#
# Convention : Reuss Voigt Hill
#
# Bulk Modulus (GPa) = 144.28478 145.14634 144.71556
# Shear Modulus (GPa) = 65.22154 66.74269 65.98212
#
# Velocity S-wave (km/s) = 4.67070 4.72486 4.69786
# Velocity P-wave (km/s) = 8.79477 8.84955 8.82220
#
# Compressibility (1/GPa) = 0.00693074
#
# Stress axis : x y z
#
# Youngs Moduli (GPa) = 175.55432 149.13750 153.87140
#
# Poissons Ratio (x) = 0.21249 0.23942
# Poissons Ratio (y) = 0.25013 0.46224
# Poissons Ratio (z) = 0.27316 0.44802
#
# Static dielectric constant tensor:
#      x y z
#    x 2.410680 0.000000 0.000000 
#    y 0.000000 2.382230 0.000000 
#    z 0.000000 0.000000 2.490580 
# 
# From -- ./inp_files/7624.got.cif
#   From: 2010.05.17/outbox.cif.g08.bks.cpg/sg37_4_cif.got.tgz:7624.got - 2010.06.03 17:53:42.
