data_PCOD9355593
_publ_section_title
;
Structure prediction by ZEFSAII (Michael W. Deem and Ramdas Pophale) SiO2 
 PCOD9355593
Probable space group: C C C 2
;
_chemical_formula_sum "Si O2"
_cell_formula_units_Z 48
_cell_length_a 8.980565
_cell_length_b 25.856786
_cell_length_c 8.764048
_cell_angle_alpha 90.000000
_cell_angle_beta 90.000000
_cell_angle_gamma 90.000000
_cell_volume 2035.086855
_symmetry_space_group_name_H-M "C C C 2"
_symmetry_group_IT_number 37
_symmetry_cell_setting 'orthorhombic'
loop_
_space_group_symop_operation_xyz
x,y,z
-x,-y,z
-x,y,1/2+z
x,-y,1/2+z
1/2+x,1/2+y,z
1/2-x,1/2-y,z
1/2-x,1/2+y,1/2+z
1/2+x,1/2-y,1/2+z
loop_
_atom_site_type_symbol
_atom_site_label
_atom_site_fract_x
_atom_site_fract_y
_atom_site_fract_z
Si Si1 0.059856 0.556644 0.500000
Si Si2 0.833885 0.615591 0.300839
Si Si3 0.045631 0.875003 0.988716
Si Si4 0.919758 0.761745 0.007416
Si Si5 0.073628 0.302666 0.727742
Si Si6 0.715930 0.400927 0.280842
O O1 0.140940 0.580362 0.649221
O O2 0.161143 0.559686 0.345979
O O3 0.000000 0.500000 0.530626
O O4 0.919185 0.591237 0.447545
O O5 0.667911 0.627286 0.354011
O O6 0.921937 0.667163 0.262048
O O7 0.122811 0.906027 0.126248
O O8 0.985141 0.818355 0.036263
O O9 0.902079 0.900827 0.916588
O O10 0.750000 0.750000 0.065998
O O11 0.042809 0.720401 0.063137
O O12 0.909821 0.748031 0.829907
O O13 0.199759 0.345349 0.761230
#
# Coordination Sequence:
#
# PCOD9355593 Si02
#       6
#     8   8   8   8   8   8
#     4  11  24  48  78 109 141 181 245 302 376 476
#     4  11  24  43  73 106 142 195 238 305 380 434
#     4  12  25  42  69 105 153 198 247 308 365 423
#     4  12  26  41  65 102 146 202 256 298 346 420
#     4  11  24  43  63  97 146 197 255 292 347 435
#     4  11  24  45  68 106 146 195 245 302 380 431
#
# _framework density 23.586216
#
# number of rings (size 3 to 8) (size 9 to 14) (size 15 to 20)
#    0.000    0.667    1.667    7.500    4.667    1.333 
#    0.000    1.667    0.000    6.000    0.000    0.000 
#    0.000    0.000    0.000    0.000    0.000    0.000 
#
# Total GULP energy -134109.221318 kJ/mol
# GULP energy per Si atom -5587.884222 kJ/mol
# Density = 2.353253 g / cm^3
# Si number density = 23.586216 Si / 1000 Ang^3
#
#
#
# Elastic Constant Matrix: (Units=GPa)
#
#
# Indices 1 2 3 4 5 6 
#
# 1 133.9796 26.6140 37.6242 0.0000 0.0000 0.0000
# 2 26.6140 52.6270 33.7181 0.0000 0.0000 0.0000
# 3 37.6242 33.7181 119.7615 0.0000 0.0000 0.0000
# 4 0.0000 0.0000 0.0000 31.2654 0.0000 0.0000
# 5 0.0000 0.0000 0.0000 0.0000 41.6043 0.0000
# 6 0.0000 0.0000 0.0000 0.0000 0.0000 13.8305
#
#
#
# Elastic Compliance Matrix: (Units=1/GPa)
#
#
# Indices 1 2 3 4 5 6 
#
# 1 0.008605 -0.003196 -0.001804 0.000000 0.000000 0.000000
# 2 -0.003196 0.024371 -0.005857 0.000000 0.000000 0.000000
# 3 -0.001804 -0.005857 0.010566 0.000000 0.000000 0.000000
# 4 0.000000 0.000000 0.000000 0.031984 0.000000 0.000000
# 5 0.000000 0.000000 0.000000 0.000000 0.024036 0.000000
# 6 0.000000 0.000000 0.000000 0.000000 0.000000 0.072304
#
#
# Mechanical properties :
#
#
# Convention : Reuss Voigt Hill
#
# Bulk Modulus (GPa) = 45.81382 55.80896 50.81139
# Shear Modulus (GPa) = 24.89353 31.23419 28.06386
#
# Velocity S-wave (km/s) = 3.25226 3.64298 3.45315
# Velocity P-wave (km/s) = 5.79388 6.43491 6.12279
#
# Compressibility (1/GPa) = 0.02182748
#
# Stress axis : x y z
#
# Youngs Moduli (GPa) = 116.20885 41.03272 94.64671
#
# Poissons Ratio (x) = 0.13115 0.17070
# Poissons Ratio (y) = 0.37143 0.55438
# Poissons Ratio (z) = 0.20959 0.24034
#
# Static dielectric constant tensor:
#      x y z
#    x 1.940120 0.000000 0.000000 
#    y 0.000000 1.873170 0.000000 
#    z 0.000000 0.000000 1.932210 
# 
# From -- ./inp_files/2410.got.cif
#   From: 2010.05.17/outbox.cif.g08.bks.cpg/sg37_2_cif.got.tgz:2410.got - 2010.06.03 17:53:42.
