data_PCOD9355771
_publ_section_title
;
Structure prediction by ZEFSAII (Michael W. Deem and Ramdas Pophale) SiO2 
 PCOD9355771
Probable space group: C C C 2
;
_chemical_formula_sum "Si O2"
_cell_formula_units_Z 28
_cell_length_a 12.000000
_cell_length_b 15.000000
_cell_length_c 15.000000
_cell_angle_alpha 90.000000
_cell_angle_beta 90.000000
_cell_angle_gamma 90.000000
_cell_volume 2700.000000
_symmetry_space_group_name_H-M "C C C 2"
_symmetry_group_IT_number 37
_symmetry_cell_setting 'orthorhombic'
loop_
_space_group_symop_operation_xyz
x,y,z
-x,-y,z
-x,y,1/2+z
x,-y,1/2+z
1/2+x,1/2+y,z
1/2-x,1/2-y,z
1/2-x,1/2+y,1/2+z
1/2+x,1/2-y,1/2+z
loop_
_atom_site_type_symbol
_atom_site_label
_atom_site_fract_x
_atom_site_fract_y
_atom_site_fract_z
Si Si1 0.769036 0.355011 0.882790
Si Si2 0.416678 0.646189 0.761330
Si Si3 0.065909 0.411938 0.665896
Si Si4 0.615617 0.120998 0.515967
Si Si5 0.237215 0.958822 0.051582
Si Si6 0.250000 0.250000 0.137985
Si Si7 0.000000 0.000000 0.132222
Si Si8 0.513460 0.810624 0.839802
O O1 0.750000 0.250000 0.870771
O O2 0.682925 0.402474 0.815332
O O3 0.898313 0.364993 0.858522
O O4 0.734552 0.378453 0.982417
O O5 0.350423 0.714329 0.697546
O O6 0.487641 0.583825 0.698097
O O7 0.486295 0.705976 0.830033
O O8 0.191998 0.433828 0.638947
O O9 0.000000 0.500000 0.697162
O O10 0.996657 0.385778 0.576127
O O11 0.059726 0.341756 0.744880
O O12 0.702218 0.173200 0.577086
O O13 0.590273 0.167897 0.423377
O O14 0.678948 0.028042 0.502663
O O15 0.114005 0.992363 0.075567
#
# Coordination Sequence:
#
# PCOD9355771 Si02
#       8
#     8   8   8   8   8   4   4   8
#     4  10  22  41  67  98 133 178 232 282 349 423
#     4  11  23  45  71  94 133 192 235 280 355 431
#     4  10  22  37  67 101 132 169 224 292 349 401
#     4  11  23  42  70 103 132 177 231 292 353 414
#     4  11  25  43  64 100 141 179 226 292 356 418
#     4  12  20  46  74  92 144 180 230 278 354 428
#     4  12  28  46  66  96 144 198 230 282 370 442
#     4  11  22  41  71 103 132 177 233 296 349 413
#
# _framework density 10.370369999999999
#
# number of rings (size 3 to 8) (size 9 to 14) (size 15 to 20)
#    0.000    1.143    6.429    0.000    4.000    4.000 
#    5.143    0.000    0.000    0.000    0.000    0.000 
#    0.000    0.000    0.000    0.000    0.000    0.000 
#
# Total GULP energy -156236.097797 kJ/mol
# GULP energy per Si atom -5579.860636 kJ/mol
# Density = 1.034677 g / cm^3
# Si number density = 10.370370 Si / 1000 Ang^3
#
#
#
# Elastic Constant Matrix: (Units=GPa)
#
#
# Indices 1 2 3 4 5 6 
#
# 1 67.6928 -0.3664 32.2930 0.0000 0.0000 0.0000
# 2 -0.3664 35.5356 21.7310 0.0000 0.0000 0.0000
# 3 32.2930 21.7310 73.3406 0.0000 0.0000 0.0000
# 4 0.0000 0.0000 0.0000 27.5960 0.0000 0.0000
# 5 0.0000 0.0000 0.0000 0.0000 16.1160 0.0000
# 6 0.0000 0.0000 0.0000 0.0000 0.0000 22.9342
#
#
#
# Elastic Compliance Matrix: (Units=1/GPa)
#
#
# Indices 1 2 3 4 5 6 
#
# 1 0.019967 0.006818 -0.010812 0.000000 0.000000 0.000000
# 2 0.006818 0.036696 -0.013875 0.000000 0.000000 0.000000
# 3 -0.010812 -0.013875 0.022507 0.000000 0.000000 0.000000
# 4 0.000000 0.000000 0.000000 0.036237 0.000000 0.000000
# 5 0.000000 0.000000 0.000000 0.000000 0.062050 0.000000
# 6 0.000000 0.000000 0.000000 0.000000 0.000000 0.043603
#
#
# Mechanical properties :
#
#
# Convention : Reuss Voigt Hill
#
# Bulk Modulus (GPa) = 23.02469 31.54269 27.28369
# Shear Modulus (GPa) = 18.43136 21.52333 19.97735
#
# Velocity S-wave (km/s) = 2.98427 3.22488 3.10690
# Velocity P-wave (km/s) = 4.79580 5.39514 5.10428
#
# Compressibility (1/GPa) = 0.04343164
#
# Stress axis : x y z
#
# Youngs Moduli (GPa) = 50.08153 27.25084 44.43068
#
# Poissons Ratio (x) = -0.18579 0.48039
# Poissons Ratio (y) = -0.34144 0.61648
# Poissons Ratio (z) = 0.54149 0.37811
#
# Static dielectric constant tensor:
#      x y z
#    x 2.506530 0.000000 0.000000 
#    y 0.000000 1.722800 0.000000 
#    z 0.000000 0.000000 1.727300 
# 
# From -- ./inp_files/11631.got.cif
#   From: 2010.05.17/outbox.ucp.g08.bks.cvg/sg37_6_cif.got.tgz:11631.got - 2010.06.11 10:38:43.
