data_PCOD9355172
_publ_section_title
;
Structure prediction by ZEFSAII (Michael W. Deem and Ramdas Pophale) SiO2 
 PCOD9355172
Probable space group: C C C 2
;
_chemical_formula_sum "Si O2"
_cell_formula_units_Z 60
_cell_length_a 19.169929
_cell_length_b 16.040981
_cell_length_c 9.285119
_cell_angle_alpha 90.000000
_cell_angle_beta 90.000000
_cell_angle_gamma 90.000000
_cell_volume 2855.215568
_symmetry_space_group_name_H-M "C C C 2"
_symmetry_group_IT_number 37
_symmetry_cell_setting 'orthorhombic'
loop_
_space_group_symop_operation_xyz
x,y,z
-x,-y,z
-x,y,1/2+z
x,-y,1/2+z
1/2+x,1/2+y,z
1/2-x,1/2-y,z
1/2-x,1/2+y,1/2+z
1/2+x,1/2-y,1/2+z
loop_
_atom_site_type_symbol
_atom_site_label
_atom_site_fract_x
_atom_site_fract_y
_atom_site_fract_z
Si Si1 0.650143 0.631508 0.193720
Si Si2 0.968155 0.090175 0.482262
Si Si3 0.418292 0.150415 0.977265
Si Si4 0.153913 0.064766 0.749108
Si Si5 0.243781 0.660736 0.442389
Si Si6 0.000000 0.500000 0.563244
Si Si7 0.890793 0.185545 0.991434
Si Si8 0.540771 0.827249 0.666074
O O1 0.661691 0.532717 0.218449
O O2 0.650803 0.681535 0.342532
O O3 0.576189 0.629745 0.111192
O O4 0.538554 0.811867 0.111434
O O5 0.914108 0.078191 0.350874
O O6 0.034226 0.146628 0.449988
O O7 0.000000 0.000000 0.522758
O O8 0.292503 0.336365 0.082514
O O9 0.335976 0.148865 0.984571
O O10 0.442774 0.194114 0.830128
O O11 0.221559 0.093856 0.837619
O O12 0.142438 0.122152 0.608679
O O13 0.250000 0.750000 0.365771
O O14 0.956566 0.572048 0.645904
O O15 0.947020 0.444013 0.473078
O O16 0.907476 0.274381 0.064870
#
# Coordination Sequence:
#
# PCOD9355172 Si02
#       8
#     8   8   8   8   8   4   8   8
#     4  11  24  41  61 100 133 179 222 262 327 408
#     4  11  21  36  63  93 138 176 214 264 320 382
#     4  10  23  46  67  96 128 172 222 287 346 393
#     4  11  23  42  61  96 135 178 223 258 328 411
#     4  11  26  46  66  89 136 184 215 270 343 412
#     4   8  22  42  72  98 130 160 228 294 340 404
#     4  12  23  36  67 102 137 173 224 279 319 395
#     4  10  24  40  69 104 125 167 226 290 338 390
#
# _framework density 21.014177
#
# number of rings (size 3 to 8) (size 9 to 14) (size 15 to 20)
#    0.800    0.533    2.667    2.800    7.467    1.067 
#    0.000    3.333    0.000    0.000    0.000    0.000 
#    0.000    0.000    0.000    0.000    0.000    0.000 
#
# Total GULP energy -167494.057724 kJ/mol
# GULP energy per Si atom -5583.135257 kJ/mol
# Density = 2.096635 g / cm^3
# Si number density = 21.014177 Si / 1000 Ang^3
#
#
#
# Elastic Constant Matrix: (Units=GPa)
#
#
# Indices 1 2 3 4 5 6 
#
# 1 105.5588 2.8359 34.0482 0.0000 0.0000 0.0000
# 2 2.8359 90.1406 -4.4738 0.0000 0.0000 0.0000
# 3 34.0482 -4.4738 83.3460 0.0000 0.0000 0.0000
# 4 0.0000 0.0000 0.0000 27.1716 0.0000 0.0000
# 5 0.0000 0.0000 0.0000 0.0000 4.8405 0.0000
# 6 0.0000 0.0000 0.0000 0.0000 0.0000 13.1320
#
#
#
# Elastic Compliance Matrix: (Units=1/GPa)
#
#
# Indices 1 2 3 4 5 6 
#
# 1 0.010940 -0.000568 -0.004500 0.000000 0.000000 0.000000
# 2 -0.000568 0.011153 0.000830 0.000000 0.000000 0.000000
# 3 -0.004500 0.000830 0.013881 0.000000 0.000000 0.000000
# 4 0.000000 0.000000 0.000000 0.036803 0.000000 0.000000
# 5 0.000000 0.000000 0.000000 0.000000 0.206592 0.000000
# 6 0.000000 0.000000 0.000000 0.000000 0.000000 0.076150
#
#
# Mechanical properties :
#
#
# Convention : Reuss Voigt Hill
#
# Bulk Modulus (GPa) = 36.36298 38.20733 37.28515
# Shear Modulus (GPa) = 13.39912 25.47116 19.43514
#
# Velocity S-wave (km/s) = 2.52786 3.48529 3.04445
# Velocity P-wave (km/s) = 5.08544 5.86664 5.48995
#
# Compressibility (1/GPa) = 0.02750050
#
# Stress axis : x y z
#
# Youngs Moduli (GPa) = 91.40763 89.66320 72.04130
#
# Poissons Ratio (x) = 0.05088 0.32416
# Poissons Ratio (y) = 0.05187 -0.05983
# Poissons Ratio (z) = 0.41130 -0.07447
#
# Static dielectric constant tensor:
#      x y z
#    x 1.729670 0.000000 0.000000 
#    y 0.000000 1.740190 0.000000 
#    z 0.000000 0.000000 1.775700 
# 
# From -- ./inp_files/4643.got.cif
#   From: 2010.05.17/outbox.cif.g08.bks.cpg/sg37_3_cif.got.tgz:4643.got - 2010.06.03 17:53:42.
