data_PCOD9355820
_publ_section_title
;
Structure prediction by ZEFSAII (Michael W. Deem and Ramdas Pophale) SiO2 
 PCOD9355820
Probable space group: A M M 2
;
_chemical_formula_sum "Si O2"
_cell_formula_units_Z 58
_cell_length_a 9.710244
_cell_length_b 18.932069
_cell_length_c 17.277173
_cell_angle_alpha 90.000000
_cell_angle_beta 90.000000
_cell_angle_gamma 90.000000
_cell_volume 3176.149261
_symmetry_space_group_name_H-M "A M M 2"
_symmetry_group_IT_number 38
_symmetry_cell_setting 'orthorhombic'
loop_
_space_group_symop_operation_xyz
x,y,z
-x,-y,z
-x,y,z
x,-y,z
x,1/2+y,1/2+z
-x,1/2-y,1/2+z
-x,1/2+y,1/2+z
x,1/2-y,1/2+z
loop_
_atom_site_type_symbol
_atom_site_label
_atom_site_fract_x
_atom_site_fract_y
_atom_site_fract_z
Si Si1 0.832894 0.580140 0.688110
Si Si2 0.345481 0.827817 0.739480
Si Si3 0.335077 0.082868 0.586514
Si Si4 0.164882 0.201706 0.301592
Si Si5 0.834283 0.156407 0.028684
Si Si6 0.163590 0.814103 0.482999
Si Si7 0.000000 0.000000 0.836206
Si Si8 0.728641 0.077833 0.879027
O O1 0.781321 0.500000 0.690700
O O2 0.794566 0.628381 0.760732
O O3 0.794283 0.619890 0.609018
O O4 0.000000 0.576971 0.687535
O O5 0.500000 0.800500 0.724415
O O6 0.304463 0.876649 0.666935
O O7 0.241833 0.764743 0.758054
O O8 0.347991 0.876524 0.815663
O O9 0.500000 0.087433 0.573825
O O10 0.251982 0.123622 0.520187
O O11 0.298767 0.000000 0.591823
O O12 0.196306 0.199497 0.392769
O O13 0.000000 0.210909 0.293584
O O14 0.000000 0.145744 0.017359
O O15 0.809831 0.240194 0.027172
O O16 0.755612 0.119379 0.958161
O O17 0.000000 0.829564 0.488489
O O18 0.121435 0.060246 0.842914
O O19 0.667137 0.000000 0.893775
#
# Coordination Sequence:
#
# PCOD9355820 Si02
#       8
#     8   8   8   8   8   8   2   8
#     4   9  18  30  51  82 114 146 181 227 281 335
#     4  11  23  38  58  83 116 154 193 236 290 351
#     4  10  23  43  60  79 112 155 199 246 293 344
#     4  10  21  37  60  86 117 149 188 238 288 343
#     4  10  16  30  51  81 117 148 180 222 277 336
#     4  10  21  36  58  86 114 147 191 243 291 342
#     4   8  20  28  50  88 112 156 182 228 284 340
#     4  10  18  31  52  80 116 149 186 222 279 337
#
# _framework density 18.261105000000001
#
# number of rings (size 3 to 8) (size 9 to 14) (size 15 to 20)
#    0.414    1.655    2.069    1.655    0.966    4.414 
#    0.000    1.379    0.000    0.414    0.000    0.000 
#    0.000    0.000    0.000    0.000    0.000    0.000 
#
# Total GULP energy -161461.410928 kJ/mol
# GULP energy per Si atom -5567.634860 kJ/mol
# Density = 1.821954 g / cm^3
# Si number density = 18.261105 Si / 1000 Ang^3
#
#
#
# Elastic Constant Matrix: (Units=GPa)
#
#
# Indices 1 2 3 4 5 6 
#
# 1 41.1648 44.5558 28.4796 0.0000 0.0000 0.0000
# 2 44.5558 155.4152 72.3773 0.0000 0.0000 0.0000
# 3 28.4796 72.3773 55.1521 0.0000 0.0000 0.0000
# 4 0.0000 0.0000 0.0000 8.5779 0.0000 0.0000
# 5 0.0000 0.0000 0.0000 0.0000 17.6271 0.0000
# 6 0.0000 0.0000 0.0000 0.0000 0.0000 21.1401
#
#
#
# Elastic Compliance Matrix: (Units=1/GPa)
#
#
# Indices 1 2 3 4 5 6 
#
# 1 0.039055 -0.004641 -0.014077 0.000000 0.000000 0.000000
# 2 -0.004641 0.017099 -0.020043 0.000000 0.000000 0.000000
# 3 -0.014077 -0.020043 0.051703 0.000000 0.000000 0.000000
# 4 0.000000 0.000000 0.000000 0.116579 0.000000 0.000000
# 5 0.000000 0.000000 0.000000 0.000000 0.056731 0.000000
# 6 0.000000 0.000000 0.000000 0.000000 0.000000 0.047303
#
#
# Mechanical properties :
#
#
# Convention : Reuss Voigt Hill
#
# Bulk Modulus (GPa) = 32.96422 60.28418 46.62420
# Shear Modulus (GPa) = 12.01627 16.55698 14.28662
#
# Velocity S-wave (km/s) = 2.56798 3.01438 2.80009
# Velocity P-wave (km/s) = 5.18493 6.72304 6.00345
#
# Compressibility (1/GPa) = 0.03033593
#
# Stress axis : x y z
#
# Youngs Moduli (GPa) = 25.60504 58.48369 19.34125
#
# Poissons Ratio (x) = 0.27142 0.27226
# Poissons Ratio (y) = 0.11883 0.38765
# Poissons Ratio (z) = 0.36044 1.17216
#
# Static dielectric constant tensor:
#      x y z
#    x 1.617960 0.000000 0.000000 
#    y 0.000000 1.633820 0.000000 
#    z 0.000000 0.000000 1.613710 
# 
# From -- ./inp_files/16992.got.cif
#   From: 2010.05.17/outbox.cif.g08.bks.cpg/sg38_9_cif.got.tgz:16992.got - 2010.06.03 18:07:57.
