data_PCOD9355606
_publ_section_title
;
Structure prediction by ZEFSAII (Michael W. Deem and Ramdas Pophale) SiO2 
 PCOD9355606
Probable space group: C C C 2
;
_chemical_formula_sum "Si O2"
_cell_formula_units_Z 40
_cell_length_a 16.084905
_cell_length_b 4.762908
_cell_length_c 20.366953
_cell_angle_alpha 90.000000
_cell_angle_beta 90.000000
_cell_angle_gamma 90.000000
_cell_volume 1560.331062
_symmetry_space_group_name_H-M "C C C 2"
_symmetry_group_IT_number 37
_symmetry_cell_setting 'orthorhombic'
loop_
_space_group_symop_operation_xyz
x,y,z
-x,-y,z
-x,y,1/2+z
x,-y,1/2+z
1/2+x,1/2+y,z
1/2-x,1/2-y,z
1/2-x,1/2+y,1/2+z
1/2+x,1/2-y,1/2+z
loop_
_atom_site_type_symbol
_atom_site_label
_atom_site_fract_x
_atom_site_fract_y
_atom_site_fract_z
Si Si1 0.750000 0.250000 0.783810
Si Si2 0.347441 0.831583 0.096931
Si Si3 0.618170 0.351442 0.680123
Si Si4 0.750000 0.250000 0.381988
Si Si5 0.000000 0.500000 0.773864
Si Si6 0.500000 0.500000 0.863883
Si Si7 0.347691 0.641980 0.952180
O O1 0.690267 0.403839 0.732831
O O2 0.776323 0.498209 0.833020
O O3 0.250000 0.750000 0.104360
O O4 0.402032 0.645110 0.146863
O O5 0.356438 0.151143 0.119319
O O6 0.372826 0.745317 0.023769
O O7 0.558645 0.175255 0.726262
O O8 0.674731 0.321188 0.431622
O O9 0.962333 0.750941 0.818565
O O10 0.428079 0.663893 0.904672
O O11 0.250000 0.750000 0.947325
#
# Coordination Sequence:
#
# PCOD9355606 Si02
#       7
#     4   8   8   4   4   4   8
#     4  12  22  39  68  99 138 194 240 304 370 448
#     4  11  24  44  74 105 145 188 255 307 373 459
#     4  12  24  44  69 104 141 193 241 308 375 446
#     4  12  24  41  68 107 142 190 254 302 374 452
#     4  12  28  48  72 108 156 194 254 318 384 468
#     4  12  28  52  72 112 154 200 254 326 388 464
#     4  11  28  47  78 109 152 202 258 318 387 468
#
# _framework density 25.635584999999999
#
# number of rings (size 3 to 8) (size 9 to 14) (size 15 to 20)
#    0.000    0.400    3.000    4.800    8.400    1.600 
#    0.000    0.000    0.000    0.000    0.000    0.000 
#    0.000    0.000    0.000    0.000    0.000    0.000 
#
# Total GULP energy -111542.670544 kJ/mol
# GULP energy per Si atom -5577.133527 kJ/mol
# Density = 2.557724 g / cm^3
# Si number density = 25.635585 Si / 1000 Ang^3
#
#
#
# Elastic Constant Matrix: (Units=GPa)
#
#
# Indices 1 2 3 4 5 6 
#
# 1 57.4213 8.4571 34.1634 0.0000 0.0000 0.0000
# 2 8.4571 118.2437 50.9180 0.0000 0.0000 0.0000
# 3 34.1634 50.9180 176.5218 0.0000 0.0000 0.0000
# 4 0.0000 0.0000 0.0000 -36.0266 0.0000 0.0000
# 5 0.0000 0.0000 0.0000 0.0000 35.4028 0.0000
# 6 0.0000 0.0000 0.0000 0.0000 0.0000 45.3520
#
#
#
# Elastic Compliance Matrix: (Units=1/GPa)
#
#
# Indices 1 2 3 4 5 6 
#
# 1 0.019689 0.000266 -0.003887 0.000000 0.000000 0.000000
# 2 0.000266 0.009660 -0.002838 0.000000 0.000000 0.000000
# 3 -0.003887 -0.002838 0.007236 0.000000 0.000000 0.000000
# 4 0.000000 0.000000 0.000000 -0.027757 0.000000 0.000000
# 5 0.000000 0.000000 0.000000 0.000000 0.028246 0.000000
# 6 0.000000 0.000000 0.000000 0.000000 0.000000 0.022050
#
#
# Mechanical properties :
#
#
# Convention : Reuss Voigt Hill
#
# Bulk Modulus (GPa) = 42.25457 59.91820 51.08639
# Shear Modulus (GPa) = 62.55400 26.18887 44.37143
#
# Velocity S-wave (km/s) = 4.94512 3.19969 4.16487
# Velocity P-wave (km/s) = 7.00886 6.08888 6.56501
#
# Compressibility (1/GPa) = 0.02366608
#
# Stress axis : x y z
#
# Youngs Moduli (GPa) = 50.79063 103.51793 138.19950
#
# Poissons Ratio (x) = -0.02750 0.53720
# Poissons Ratio (y) = -0.01349 0.39220
# Poissons Ratio (z) = 0.19743 0.29377
#
# Static dielectric constant tensor:
#      x y z
#    x 2.315940 0.000000 0.000000 
#    y 0.000000 2.262760 0.000000 
#    z 0.000000 0.000000 1.994920 
# 
# From -- ./inp_files/17285.got.cif
#   From: 2010.05.17/outbox.cif.g08.bks.cpg/sg37_9_cif.got.tgz:17285.got - 2010.06.03 17:53:42.
