data_PCOD9355170
_publ_section_title
;
Structure prediction by ZEFSAII (Michael W. Deem and Ramdas Pophale) SiO2 
 PCOD9355170
Probable space group: C C C 2
;
_chemical_formula_sum "Si O2"
_cell_formula_units_Z 40
_cell_length_a 15.072713
_cell_length_b 9.201257
_cell_length_c 11.201469
_cell_angle_alpha 90.000000
_cell_angle_beta 90.000000
_cell_angle_gamma 90.000000
_cell_volume 1553.508280
_symmetry_space_group_name_H-M "C C C 2"
_symmetry_group_IT_number 37
_symmetry_cell_setting 'orthorhombic'
loop_
_space_group_symop_operation_xyz
x,y,z
-x,-y,z
-x,y,1/2+z
x,-y,1/2+z
1/2+x,1/2+y,z
1/2-x,1/2-y,z
1/2-x,1/2+y,1/2+z
1/2+x,1/2-y,1/2+z
loop_
_atom_site_type_symbol
_atom_site_label
_atom_site_fract_x
_atom_site_fract_y
_atom_site_fract_z
Si Si1 0.250000 0.750000 0.552660
Si Si2 0.927955 0.902051 0.559110
Si Si3 0.612698 0.334495 0.730666
Si Si4 0.262922 0.010457 0.858457
Si Si5 0.250000 0.750000 0.156978
Si Si6 0.554761 0.856639 0.419160
O O1 0.332876 0.767595 0.640528
O O2 0.234913 0.886093 0.467442
O O3 0.826567 0.831245 0.580450
O O4 0.968351 0.743143 0.532069
O O5 0.919014 0.028101 0.657224
O O6 0.000000 0.000000 0.477687
O O7 0.682162 0.406333 0.822806
O O8 0.540706 0.246838 0.804495
O O9 0.284077 0.121146 0.747840
O O10 0.345098 0.913922 0.900323
O O11 0.500000 0.000000 0.419087
#
# Coordination Sequence:
#
# PCOD9355170 Si02
#       6
#     4   8   8   8   4   8
#     4  11  22  41  78 108 150 199 262 323 398 488
#     4  11  28  49  77 112 159 211 266 324 417 488
#     4  11  24  47  77 110 152 208 260 330 402 495
#     4  10  23  45  76 116 151 196 268 328 402 485
#     4   9  24  49  82 114 152 215 262 341 402 496
#     4  12  28  47  75 115 162 204 264 350 402 475
#
# _framework density 25.748173999999999
#
# number of rings (size 3 to 8) (size 9 to 14) (size 15 to 20)
#    0.000    1.200    2.000    1.200   14.000    0.800 
#    0.000    0.000    0.000    0.000    0.000    0.000 
#    0.000    0.000    0.000    0.000    0.000    0.000 
#
# Total GULP energy -111390.539489 kJ/mol
# GULP energy per Si atom -5569.526974 kJ/mol
# Density = 2.568957 g / cm^3
# Si number density = 25.748174 Si / 1000 Ang^3
#
#
#
# Elastic Constant Matrix: (Units=GPa)
#
#
# Indices 1 2 3 4 5 6 
#
# 1 69.1906 43.0473 9.7143 0.0000 0.0000 0.0000
# 2 43.0473 201.5154 37.8128 0.0000 0.0000 0.0000
# 3 9.7143 37.8128 70.7024 0.0000 0.0000 0.0000
# 4 0.0000 0.0000 0.0000 57.7264 0.0000 0.0000
# 5 0.0000 0.0000 0.0000 0.0000 14.8915 0.0000
# 6 0.0000 0.0000 0.0000 0.0000 0.0000 48.8871
#
#
#
# Elastic Compliance Matrix: (Units=1/GPa)
#
#
# Indices 1 2 3 4 5 6 
#
# 1 0.016680 -0.003483 -0.000429 0.000000 0.000000 0.000000
# 2 -0.003483 0.006243 -0.002860 0.000000 0.000000 0.000000
# 3 -0.000429 -0.002860 0.015733 0.000000 0.000000 0.000000
# 4 0.000000 0.000000 0.000000 0.017323 0.000000 0.000000
# 5 0.000000 0.000000 0.000000 0.000000 0.067153 0.000000
# 6 0.000000 0.000000 0.000000 0.000000 0.000000 0.020455
#
#
# Mechanical properties :
#
#
# Convention : Reuss Voigt Hill
#
# Bulk Modulus (GPa) = 39.82313 58.06192 48.94253
# Shear Modulus (GPa) = 30.21128 41.02326 35.61727
#
# Velocity S-wave (km/s) = 3.42912 3.99588 3.72330
# Velocity P-wave (km/s) = 5.58376 6.62483 6.12645
#
# Compressibility (1/GPa) = 0.02511104
#
# Stress axis : x y z
#
# Youngs Moduli (GPa) = 59.95282 160.17757 63.56241
#
# Poissons Ratio (x) = 0.55783 0.02728
# Poissons Ratio (y) = 0.20879 0.18181
# Poissons Ratio (z) = 0.02573 0.45817
#
# Static dielectric constant tensor:
#      x y z
#    x 2.413640 0.000000 0.000000 
#    y 0.000000 1.957800 0.000000 
#    z 0.000000 0.000000 2.210340 
# 
# From -- ./inp_files/8177.got.cif
#   From: 2010.05.17/outbox.cif.g08.bks.cpg/sg37_5_cif.got.tgz:8177.got - 2010.06.03 17:53:42.
