data_PCOD9355751
_publ_section_title
;
Structure prediction by ZEFSAII (Michael W. Deem and Ramdas Pophale) SiO2 
 PCOD9355751
Probable space group: C C C 2
;
_chemical_formula_sum "Si O2"
_cell_formula_units_Z 20
_cell_length_a 5.037555
_cell_length_b 14.660816
_cell_length_c 9.065148
_cell_angle_alpha 90.000000
_cell_angle_beta 90.000000
_cell_angle_gamma 90.000000
_cell_volume 669.503486
_symmetry_space_group_name_H-M "C C C 2"
_symmetry_group_IT_number 37
_symmetry_cell_setting 'orthorhombic'
loop_
_space_group_symop_operation_xyz
x,y,z
-x,-y,z
-x,y,1/2+z
x,-y,1/2+z
1/2+x,1/2+y,z
1/2-x,1/2-y,z
1/2-x,1/2+y,1/2+z
1/2+x,1/2-y,1/2+z
loop_
_atom_site_type_symbol
_atom_site_label
_atom_site_fract_x
_atom_site_fract_y
_atom_site_fract_z
Si Si1 0.250000 0.750000 0.041631
Si Si2 0.624141 0.598848 0.105984
Si Si3 0.441388 0.103830 0.849261
O O1 0.429455 0.682834 0.141377
O O2 0.420197 0.814653 0.936992
O O3 0.500000 0.500000 0.140070
O O4 0.903340 0.605527 0.192821
O O5 0.652274 0.608524 0.928051
O O6 0.500000 0.000000 0.900314
#
# Coordination Sequence:
#
# PCOD9355751 Si02
#       3
#     4   8   8
#     4  12  30  54  92 130 172 244 300 372 438 548
#     4  12  30  59  92 131 184 235 301 373 448 536
#     4  12  29  56  90 130 182 235 295 370 455 521
#
# _framework density 29.872882000000001
#
# number of rings (size 3 to 8) (size 9 to 14) (size 15 to 20)
#    0.000    0.000    4.000    2.400   11.200    0.000 
#    0.000    0.000    0.000    2.400    0.000    0.000 
#    0.000    0.000    0.000    0.000    0.000    0.000 
#
# Total GULP energy -55948.653151 kJ/mol
# GULP energy per Si atom -5594.865315 kJ/mol
# Density = 2.980489 g / cm^3
# Si number density = 29.872882 Si / 1000 Ang^3
#
#
#
# Elastic Constant Matrix: (Units=GPa)
#
#
# Indices 1 2 3 4 5 6 
#
# 1 116.6969 44.1537 40.6289 0.0000 0.0000 0.0000
# 2 44.1537 241.7969 73.4131 0.0000 0.0000 0.0000
# 3 40.6289 73.4131 206.8897 0.0000 0.0000 0.0000
# 4 0.0000 0.0000 0.0000 31.8525 0.0000 0.0000
# 5 0.0000 0.0000 0.0000 0.0000 18.6599 0.0000
# 6 0.0000 0.0000 0.0000 0.0000 0.0000 60.0083
#
#
#
# Elastic Compliance Matrix: (Units=1/GPa)
#
#
# Indices 1 2 3 4 5 6 
#
# 1 0.009558 -0.001317 -0.001410 0.000000 0.000000 0.000000
# 2 -0.001317 0.004817 -0.001450 0.000000 0.000000 0.000000
# 3 -0.001410 -0.001450 0.005625 0.000000 0.000000 0.000000
# 4 0.000000 0.000000 0.000000 0.031395 0.000000 0.000000
# 5 0.000000 0.000000 0.000000 0.000000 0.053591 0.000000
# 6 0.000000 0.000000 0.000000 0.000000 0.000000 0.016664
#
#
# Mechanical properties :
#
#
# Convention : Reuss Voigt Hill
#
# Bulk Modulus (GPa) = 85.87291 97.97500 91.92396
# Shear Modulus (GPa) = 37.34497 49.24998 43.29748
#
# Velocity S-wave (km/s) = 3.53955 4.06476 3.81122
# Velocity P-wave (km/s) = 6.74634 7.40934 7.08560
#
# Compressibility (1/GPa) = 0.01164512
#
# Stress axis : x y z
#
# Youngs Moduli (GPa) = 104.61949 207.61317 177.77836
#
# Poissons Ratio (x) = 0.27352 0.25060
# Poissons Ratio (y) = 0.13783 0.25785
# Poissons Ratio (z) = 0.14747 0.30113
#
# Static dielectric constant tensor:
#      x y z
#    x 2.409220 0.000000 0.000000 
#    y 0.000000 2.186590 0.000000 
#    z 0.000000 0.000000 2.301190 
# 
# From -- ./inp_files/1579.got.cif
#   From: 2010.05.17/outbox.cif.g08.bks.cpg/sg37_1_cif.got.tgz:1579.got - 2010.06.03 17:53:42.
