data_PCOD9355025
_publ_section_title
;
Structure prediction by ZEFSAII (Michael W. Deem and Ramdas Pophale) SiO2 
 PCOD9355025
Probable space group: C C C 2
;
_chemical_formula_sum "Si O2"
_cell_formula_units_Z 28
_cell_length_a 5.623923
_cell_length_b 22.548209
_cell_length_c 7.971633
_cell_angle_alpha 90.000000
_cell_angle_beta 90.000000
_cell_angle_gamma 90.000000
_cell_volume 1010.877928
_symmetry_space_group_name_H-M "C C C 2"
_symmetry_group_IT_number 37
_symmetry_cell_setting 'orthorhombic'
loop_
_space_group_symop_operation_xyz
x,y,z
-x,-y,z
-x,y,1/2+z
x,-y,1/2+z
1/2+x,1/2+y,z
1/2-x,1/2-y,z
1/2-x,1/2+y,1/2+z
1/2+x,1/2-y,1/2+z
loop_
_atom_site_type_symbol
_atom_site_label
_atom_site_fract_x
_atom_site_fract_y
_atom_site_fract_z
Si Si1 0.741830 0.104385 0.182220
Si Si2 0.413687 0.818933 0.880908
Si Si3 0.000000 0.500000 0.826030
Si Si4 0.500000 0.500000 0.322995
Si Si5 0.750000 0.750000 0.082167
O O1 0.666523 0.151799 0.324187
O O2 0.962593 0.061363 0.220558
O O3 0.525922 0.057656 0.210314
O O4 0.721956 0.138559 0.008631
O O5 0.268519 0.804797 0.712554
O O6 0.512559 0.759732 0.973877
O O7 0.748976 0.496284 0.918390
#
# Coordination Sequence:
#
# PCOD9355025 Si02
#       5
#     8   8   4   4   4
#     4   9  20  41  71 104 152 194 236 304 388 452
#     4  10  22  47  70 108 144 199 248 326 382 436
#     4   8  18  40  66 110 148 196 238 310 354 500
#     4   8  18  42  68 106 152 192 242 302 362 492
#     4  10  24  46  74  98 152 184 280 314 374 450
#
# _framework density 27.698696999999999
#
# number of rings (size 3 to 8) (size 9 to 14) (size 15 to 20)
#    1.714    1.143    0.000    0.000    0.000    5.714 
#   20.571    2.857    0.000    5.143    0.000    0.000 
#    0.000    0.000    0.000    0.000    0.000    0.000 
#
# Total GULP energy -78158.726624 kJ/mol
# GULP energy per Si atom -5582.766187 kJ/mol
# Density = 2.763565 g / cm^3
# Si number density = 27.698697 Si / 1000 Ang^3
#
#
#
# Elastic Constant Matrix: (Units=GPa)
#
#
# Indices 1 2 3 4 5 6 
#
# 1 189.0797 34.8696 44.8885 0.0000 0.0000 0.0000
# 2 34.8696 119.0087 32.2615 0.0000 0.0000 0.0000
# 3 44.8885 32.2615 115.4703 0.0000 0.0000 0.0000
# 4 0.0000 0.0000 0.0000 50.1500 0.0000 0.0000
# 5 0.0000 0.0000 0.0000 0.0000 34.2584 0.0000
# 6 0.0000 0.0000 0.0000 0.0000 0.0000 63.7862
#
#
#
# Elastic Compliance Matrix: (Units=1/GPa)
#
#
# Indices 1 2 3 4 5 6 
#
# 1 0.005985 -0.001215 -0.001987 0.000000 0.000000 0.000000
# 2 -0.001215 0.009338 -0.002137 0.000000 0.000000 0.000000
# 3 -0.001987 -0.002137 0.010030 0.000000 0.000000 0.000000
# 4 0.000000 0.000000 0.000000 0.019940 0.000000 0.000000
# 5 0.000000 0.000000 0.000000 0.000000 0.029190 0.000000
# 6 0.000000 0.000000 0.000000 0.000000 0.000000 0.015677
#
#
# Mechanical properties :
#
#
# Convention : Reuss Voigt Hill
#
# Bulk Modulus (GPa) = 68.14304 71.95534 70.04919
# Shear Modulus (GPa) = 47.29099 50.40818 48.84959
#
# Velocity S-wave (km/s) = 4.13648 4.27063 4.20409
# Velocity P-wave (km/s) = 6.88976 7.09591 6.99360
#
# Compressibility (1/GPa) = 0.01467501
#
# Stress axis : x y z
#
# Youngs Moduli (GPa) = 167.09703 107.09033 99.70422
#
# Poissons Ratio (x) = 0.13009 0.19812
# Poissons Ratio (y) = 0.20299 0.21304
# Poissons Ratio (z) = 0.33203 0.22882
#
# Static dielectric constant tensor:
#      x y z
#    x 2.196160 0.000000 0.000000 
#    y 0.000000 2.248250 0.000000 
#    z 0.000000 0.000000 2.125830 
# 
# From -- ./inp_files/1691.got.cif
#   From: 2010.05.17/outbox.cif.g08.bks.cpg/sg37_1_cif.got.tgz:1691.got - 2010.06.03 17:53:42.
