data_PCOD9355127
_publ_section_title
;
Structure prediction by ZEFSAII (Michael W. Deem and Ramdas Pophale) SiO2 
 PCOD9355127
Probable space group: C C C 2
;
_chemical_formula_sum "Si O2"
_cell_formula_units_Z 60
_cell_length_a 18.736321
_cell_length_b 11.976909
_cell_length_c 11.788961
_cell_angle_alpha 90.000000
_cell_angle_beta 90.000000
_cell_angle_gamma 90.000000
_cell_volume 2645.480710
_symmetry_space_group_name_H-M "C C C 2"
_symmetry_group_IT_number 37
_symmetry_cell_setting 'orthorhombic'
loop_
_space_group_symop_operation_xyz
x,y,z
-x,-y,z
-x,y,1/2+z
x,-y,1/2+z
1/2+x,1/2+y,z
1/2-x,1/2-y,z
1/2-x,1/2+y,1/2+z
1/2+x,1/2-y,1/2+z
loop_
_atom_site_type_symbol
_atom_site_label
_atom_site_fract_x
_atom_site_fract_y
_atom_site_fract_z
Si Si1 0.876111 0.081763 0.920830
Si Si2 0.250697 0.114393 0.252280
Si Si3 0.537392 0.301541 0.735526
Si Si4 0.750000 0.750000 0.876592
Si Si5 0.984417 0.372832 0.402668
Si Si6 0.078628 0.261858 0.587281
Si Si7 0.349354 0.631106 0.552887
Si Si8 0.653219 0.084162 0.261769
O O1 0.802339 0.075834 0.852045
O O2 0.937762 0.110922 0.830435
O O3 0.873426 0.186117 0.006793
O O4 0.888877 0.969382 0.989836
O O5 0.250000 0.250000 0.256306
O O6 0.214122 0.084125 0.132288
O O7 0.324305 0.045572 0.259591
O O8 0.528885 0.183272 0.799605
O O9 0.459458 0.316896 0.680863
O O10 0.597962 0.307614 0.639908
O O11 0.723951 0.849002 0.796041
O O12 0.687525 0.707530 0.959156
O O13 0.903903 0.380147 0.357566
O O14 0.000000 0.500000 0.424878
O O15 0.012559 0.306876 0.511773
O O16 0.120058 0.363336 0.647097
#
# Coordination Sequence:
#
# PCOD9355127 Si02
#       8
#     8   8   8   4   8   8   8   8
#     4  10  23  43  68 101 142 184 237 293 348 429
#     4  11  25  44  68 103 144 186 237 290 357 427
#     4   9  22  44  67 100 139 179 236 290 351 414
#     4  12  24  44  64 100 140 180 234 284 352 426
#     4  10  23  43  70 104 139 181 234 290 357 423
#     4  10  23  45  68 105 140 187 234 291 358 429
#     4  11  23  42  69  99 140 187 237 287 356 427
#     4  11  26  42  72 103 141 187 231 294 351 425
#
# _framework density 22.680187
#
# number of rings (size 3 to 8) (size 9 to 14) (size 15 to 20)
#    0.000    1.600    2.000    0.800    7.467    4.800 
#    0.000    5.333    0.000    0.000    0.000    0.000 
#    0.000    0.000    0.000    0.000    0.000    0.000 
#
# Total GULP energy -167544.867064 kJ/mol
# GULP energy per Si atom -5584.828902 kJ/mol
# Density = 2.262857 g / cm^3
# Si number density = 22.680187 Si / 1000 Ang^3
#
#
#
# Elastic Constant Matrix: (Units=GPa)
#
#
# Indices 1 2 3 4 5 6 
#
# 1 82.0348 51.9553 40.9126 0.0000 0.0000 0.0000
# 2 51.9553 109.5342 40.9963 0.0000 0.0000 0.0000
# 3 40.9126 40.9963 93.4360 0.0000 0.0000 0.0000
# 4 0.0000 0.0000 0.0000 45.6154 0.0000 0.0000
# 5 0.0000 0.0000 0.0000 0.0000 16.1822 0.0000
# 6 0.0000 0.0000 0.0000 0.0000 0.0000 44.1819
#
#
#
# Elastic Compliance Matrix: (Units=1/GPa)
#
#
# Indices 1 2 3 4 5 6 
#
# 1 0.019421 -0.007214 -0.005339 0.000000 0.000000 0.000000
# 2 -0.007214 0.013603 -0.002810 0.000000 0.000000 0.000000
# 3 -0.005339 -0.002810 0.014273 0.000000 0.000000 0.000000
# 4 0.000000 0.000000 0.000000 0.021922 0.000000 0.000000
# 5 0.000000 0.000000 0.000000 0.000000 0.061796 0.000000
# 6 0.000000 0.000000 0.000000 0.000000 0.000000 0.022634
#
#
# Mechanical properties :
#
#
# Convention : Reuss Voigt Hill
#
# Bulk Modulus (GPa) = 60.34116 61.41481 60.87799
# Shear Modulus (GPa) = 26.32982 31.27195 28.80089
#
# Velocity S-wave (km/s) = 3.41092 3.71728 3.56739
# Velocity P-wave (km/s) = 6.49427 6.74993 6.62333
#
# Compressibility (1/GPa) = 0.01657244
#
# Stress axis : x y z
#
# Youngs Moduli (GPa) = 51.48984 73.51332 70.06244
#
# Poissons Ratio (x) = 0.53032 0.37405
# Poissons Ratio (y) = 0.37144 0.19686
# Poissons Ratio (z) = 0.27489 0.20655
#
# Static dielectric constant tensor:
#      x y z
#    x 2.075920 0.000000 0.000000 
#    y 0.000000 1.779770 0.000000 
#    z 0.000000 0.000000 1.854970 
# 
# From -- ./inp_files/8653.got.cif
#   From: 2010.05.17/outbox.cif.g08.bks.cpg/sg37_5_cif.got.tgz:8653.got - 2010.06.03 17:53:42.
