data_PCOD9355465
_publ_section_title
;
Structure prediction by ZEFSAII (Michael W. Deem and Ramdas Pophale) SiO2 
 PCOD9355465
Probable space group: C C C 2
;
_chemical_formula_sum "Si O2"
_cell_formula_units_Z 48
_cell_length_a 14.702546
_cell_length_b 10.203410
_cell_length_c 14.215965
_cell_angle_alpha 90.000000
_cell_angle_beta 90.000000
_cell_angle_gamma 90.000000
_cell_volume 2132.623696
_symmetry_space_group_name_H-M "C C C 2"
_symmetry_group_IT_number 37
_symmetry_cell_setting 'orthorhombic'
loop_
_space_group_symop_operation_xyz
x,y,z
-x,-y,z
-x,y,1/2+z
x,-y,1/2+z
1/2+x,1/2+y,z
1/2-x,1/2-y,z
1/2-x,1/2+y,1/2+z
1/2+x,1/2-y,1/2+z
loop_
_atom_site_type_symbol
_atom_site_label
_atom_site_fract_x
_atom_site_fract_y
_atom_site_fract_z
Si Si1 0.001729 0.341379 0.397530
Si Si2 0.145147 0.730355 0.042326
Si Si3 0.900992 0.020400 0.164084
Si Si4 0.261755 0.408641 0.825068
Si Si5 0.590250 0.404683 0.477912
Si Si6 0.916815 0.588797 0.722589
O O1 0.095913 0.301112 0.445306
O O2 0.000000 0.500000 0.407976
O O3 0.932912 0.245448 0.452081
O O4 0.973684 0.310606 0.289467
O O5 0.250000 0.750000 0.025630
O O6 0.101111 0.856069 0.093006
O O7 0.132740 0.627687 0.127244
O O8 0.826408 0.045032 0.241120
O O9 0.000000 0.000000 0.207484
O O10 0.886547 0.906889 0.088209
O O11 0.250000 0.250000 0.821868
O O12 0.319806 0.444571 0.917993
O O13 0.161243 0.459665 0.795992
O O14 0.500000 0.500000 0.458830
O O15 0.000000 0.500000 0.691600
#
# Coordination Sequence:
#
# PCOD9355465 Si02
#       6
#     8   8   8   8   8   8
#     4  11  24  44  70 108 148 192 231 305 371 440
#     4  12  22  45  74 103 141 196 241 292 366 443
#     4  11  21  39  70 103 141 177 248 293 355 420
#     4  12  22  44  74 102 139 197 244 297 370 443
#     4  11  23  43  70 110 145 185 243 303 366 433
#     4  11  24  44  68 101 144 189 243 288 372 437
#
# _framework density 22.507487000000001
#
# number of rings (size 3 to 8) (size 9 to 14) (size 15 to 20)
#    0.000    0.667    8.333    1.000    0.000    2.667 
#    3.000    0.000    0.000    0.000    0.000    0.000 
#    0.000    0.000    0.000    0.000    0.000    0.000 
#
# Total GULP energy -133727.567474 kJ/mol
# GULP energy per Si atom -5571.981978 kJ/mol
# Density = 2.245626 g / cm^3
# Si number density = 22.507487 Si / 1000 Ang^3
#
#
#
# Elastic Constant Matrix: (Units=GPa)
#
#
# Indices 1 2 3 4 5 6 
#
# 1 192.8477 11.3760 58.8982 0.0000 0.0000 0.0000
# 2 11.3760 44.5734 -15.1032 0.0000 0.0000 0.0000
# 3 58.8982 -15.1032 98.6825 0.0000 0.0000 0.0000
# 4 0.0000 0.0000 0.0000 0.9295 0.0000 0.0000
# 5 0.0000 0.0000 0.0000 0.0000 59.8728 0.0000
# 6 0.0000 0.0000 0.0000 0.0000 0.0000 29.2439
#
#
#
# Elastic Compliance Matrix: (Units=1/GPa)
#
#
# Indices 1 2 3 4 5 6 
#
# 1 0.006763 -0.003263 -0.004536 0.000000 0.000000 0.000000
# 2 -0.003263 0.025236 0.005810 0.000000 0.000000 0.000000
# 3 -0.004536 0.005810 0.013730 0.000000 0.000000 0.000000
# 4 0.000000 0.000000 0.000000 1.075888 0.000000 0.000000
# 5 0.000000 0.000000 0.000000 0.000000 0.016702 0.000000
# 6 0.000000 0.000000 0.000000 0.000000 0.000000 0.034195
#
#
# Mechanical properties :
#
#
# Convention : Reuss Voigt Hill
#
# Bulk Modulus (GPa) = 23.95135 49.60506 36.77821
# Shear Modulus (GPa) = 4.20023 36.73807 20.46915
#
# Velocity S-wave (km/s) = 1.36755 4.04451 3.01896
# Velocity P-wave (km/s) = 3.62742 6.62555 5.34117
#
# Compressibility (1/GPa) = 0.04175130
#
# Stress axis : x y z
#
# Youngs Moduli (GPa) = 147.85671 39.62534 72.83297
#
# Poissons Ratio (x) = 0.12930 0.33038
# Poissons Ratio (y) = 0.48248 -0.42316
# Poissons Ratio (z) = 0.67069 -0.23022
#
# Static dielectric constant tensor:
#      x y z
#    x 1.876190 0.000000 0.000000 
#    y 0.000000 1.967180 0.000000 
#    z 0.000000 0.000000 1.904760 
# 
# From -- ./inp_files/12102.got.cif
#   From: 2010.05.17/outbox.cif.g08.bks.cpg/sg37_7_cif.got.tgz:12102.got - 2010.06.03 17:53:42.
