data_PCOD9355001
_publ_section_title
;
Structure prediction by ZEFSAII (Michael W. Deem and Ramdas Pophale) SiO2 
 PCOD9355001
Probable space group: C C C 2
;
_chemical_formula_sum "Si O2"
_cell_formula_units_Z 40
_cell_length_a 5.499466
_cell_length_b 13.836689
_cell_length_c 23.752167
_cell_angle_alpha 90.000000
_cell_angle_beta 90.000000
_cell_angle_gamma 90.000000
_cell_volume 1807.406913
_symmetry_space_group_name_H-M "C C C 2"
_symmetry_group_IT_number 37
_symmetry_cell_setting 'orthorhombic'
loop_
_space_group_symop_operation_xyz
x,y,z
-x,-y,z
-x,y,1/2+z
x,-y,1/2+z
1/2+x,1/2+y,z
1/2-x,1/2-y,z
1/2-x,1/2+y,1/2+z
1/2+x,1/2-y,1/2+z
loop_
_atom_site_type_symbol
_atom_site_label
_atom_site_fract_x
_atom_site_fract_y
_atom_site_fract_z
Si Si1 0.003127 0.686363 0.453690
Si Si2 0.750000 0.750000 0.783073
Si Si3 0.997892 0.690489 0.582109
Si Si4 0.500000 0.000000 0.877444
Si Si5 0.959170 0.610978 0.203132
Si Si6 0.382772 0.601388 0.793450
O O1 0.750000 0.750000 0.441207
O O2 0.250000 0.750000 0.450996
O O3 0.971195 0.651557 0.518743
O O4 0.065448 0.590440 0.417501
O O5 0.643468 0.829377 0.741268
O O6 0.550248 0.688141 0.817340
O O7 0.250000 0.750000 0.582028
O O8 0.022655 0.624713 0.637040
O O9 0.750000 0.750000 0.592071
O O10 0.683006 0.060756 0.837021
O O11 0.708779 0.640416 0.233265
O O12 0.000000 0.500000 0.215811
O O13 0.500000 0.500000 0.779026
#
# Coordination Sequence:
#
# PCOD9355001 Si02
#       6
#     8   4   8   4   8   8
#     4  10  26  50  78 110 144 192 251 309 376 441
#     4  12  24  46  70  98 150 188 236 306 370 440
#     4  10  22  45  74 109 147 187 238 302 374 448
#     4  12  28  50  72 104 146 196 258 312 366 444
#     4  12  24  43  71 109 143 190 238 297 372 451
#     4  12  26  47  68 106 144 193 253 300 371 447
#
# _framework density 22.131150999999999
#
# number of rings (size 3 to 8) (size 9 to 14) (size 15 to 20)
#    0.000    0.800    4.000    1.800    4.200    3.200 
#    1.800    0.000    0.000    0.000    0.000    0.000 
#    0.000    0.000    0.000    0.000    0.000    0.000 
#
# Total GULP energy -111402.420829 kJ/mol
# GULP energy per Si atom -5570.121041 kJ/mol
# Density = 2.208078 g / cm^3
# Si number density = 22.131151 Si / 1000 Ang^3
#
#
#
# Elastic Constant Matrix: (Units=GPa)
#
#
# Indices 1 2 3 4 5 6 
#
# 1 120.1176 57.5349 42.3897 0.0000 0.0000 0.0000
# 2 57.5349 159.9321 68.3267 0.0000 0.0000 0.0000
# 3 42.3897 68.3267 139.3041 0.0000 0.0000 0.0000
# 4 0.0000 0.0000 0.0000 79.5735 0.0000 0.0000
# 5 0.0000 0.0000 0.0000 0.0000 -14.9417 0.0000
# 6 0.0000 0.0000 0.0000 0.0000 0.0000 48.6305
#
#
#
# Elastic Compliance Matrix: (Units=1/GPa)
#
#
# Indices 1 2 3 4 5 6 
#
# 1 0.010358 -0.003011 -0.001675 0.000000 0.000000 0.000000
# 2 -0.003011 0.008785 -0.003393 0.000000 0.000000 0.000000
# 3 -0.001675 -0.003393 0.009353 0.000000 0.000000 0.000000
# 4 0.000000 0.000000 0.000000 0.012567 0.000000 0.000000
# 5 0.000000 0.000000 0.000000 0.000000 -0.066927 0.000000
# 6 0.000000 0.000000 0.000000 0.000000 0.000000 0.020563
#
#
# Mechanical properties :
#
#
# Convention : Reuss Voigt Hill
#
# Bulk Modulus (GPa) = 81.04785 83.98403 82.51594
# Shear Modulus (GPa) = 333.99010 39.39263 186.69137
#
# Velocity S-wave (km/s) = 12.29803 4.22354 9.19456
# Velocity P-wave (km/s) = 15.43880 7.86226 12.25095
#
# Compressibility (1/GPa) = 0.01233839
#
# Stress axis : x y z
#
# Youngs Moduli (GPa) = 96.53923 113.82710 106.92309
#
# Poissons Ratio (x) = 0.34270 0.17913
# Poissons Ratio (y) = 0.29065 0.36278
# Poissons Ratio (z) = 0.16174 0.38620
#
# Static dielectric constant tensor:
#      x y z
#    x 2.022240 0.000000 0.000000 
#    y 0.000000 1.714310 0.000000 
#    z 0.000000 0.000000 1.834230 
# 
# From -- ./inp_files/17875.got.cif
#   From: 2010.05.17/outbox.cif.g08.bks.cpg/sg37_9_cif.got.tgz:17875.got - 2010.06.03 17:53:42.
