data_PCOD9355232
_publ_section_title
;
Structure prediction by ZEFSAII (Michael W. Deem and Ramdas Pophale) SiO2 
 PCOD9355232
Probable space group: C C C 2
;
_chemical_formula_sum "Si O2"
_cell_formula_units_Z 60
_cell_length_a 10.152711
_cell_length_b 20.255458
_cell_length_c 12.557156
_cell_angle_alpha 90.000000
_cell_angle_beta 90.000000
_cell_angle_gamma 90.000000
_cell_volume 2582.351647
_symmetry_space_group_name_H-M "C C C 2"
_symmetry_group_IT_number 37
_symmetry_cell_setting 'orthorhombic'
loop_
_space_group_symop_operation_xyz
x,y,z
-x,-y,z
-x,y,1/2+z
x,-y,1/2+z
1/2+x,1/2+y,z
1/2-x,1/2-y,z
1/2-x,1/2+y,1/2+z
1/2+x,1/2-y,1/2+z
loop_
_atom_site_type_symbol
_atom_site_label
_atom_site_fract_x
_atom_site_fract_y
_atom_site_fract_z
Si Si1 0.853968 0.981518 0.088280
Si Si2 0.031517 0.744945 0.466292
Si Si3 0.392662 0.663601 0.667065
Si Si4 0.820805 0.488575 0.930162
Si Si5 0.250000 0.750000 0.844544
Si Si6 0.008677 0.400026 0.035574
Si Si7 0.660636 0.068422 0.227319
Si Si8 0.328142 0.308516 0.765379
O O1 0.838253 0.906077 0.125017
O O2 0.761107 0.033988 0.146710
O O3 0.828777 0.998685 0.963256
O O4 0.000000 0.000000 0.117678
O O5 0.879494 0.744347 0.421451
O O6 0.059359 0.670788 0.503999
O O7 0.076926 0.789572 0.565827
O O8 0.116903 0.771083 0.368219
O O9 0.296400 0.693159 0.758995
O O10 0.540797 0.660050 0.714790
O O11 0.858985 0.512830 0.815021
O O12 0.882540 0.418647 0.960608
O O13 0.890071 0.542448 0.007736
O O14 0.961495 0.407140 0.156799
O O15 0.726579 0.132044 0.281262
O O16 0.250000 0.250000 0.701897
#
# Coordination Sequence:
#
# PCOD9355232 Si02
#       8
#     8   8   8   8   4   8   8   8
#     4  11  24  44  68 101 141 187 235 291 355 424
#     4  11  25  43  72  99 147 182 236 305 353 434
#     4  11  25  45  69  99 142 181 235 299 356 429
#     4  10  24  42  68 100 139 183 241 290 350 430
#     4  10  28  44  68 114 130 194 244 288 372 430
#     4  10  24  43  67 106 134 190 233 295 361 406
#     4  11  23  44  70  99 143 186 234 295 353 425
#     4  11  23  42  67 101 130 185 235 280 366 424
#
# _framework density 23.234635000000001
#
# number of rings (size 3 to 8) (size 9 to 14) (size 15 to 20)
#    0.000    1.333    1.333    2.400    7.467    5.867 
#    2.400    0.000    0.000    0.000    0.000    0.000 
#    0.000    0.000    0.000    0.000    0.000    0.000 
#
# Total GULP energy -167499.043508 kJ/mol
# GULP energy per Si atom -5583.301450 kJ/mol
# Density = 2.318175 g / cm^3
# Si number density = 23.234635 Si / 1000 Ang^3
#
#
#
# Elastic Constant Matrix: (Units=GPa)
#
#
# Indices 1 2 3 4 5 6 
#
# 1 56.0571 -10.9224 14.0466 0.0000 0.0000 0.0000
# 2 -10.9224 96.7248 22.7311 0.0000 0.0000 0.0000
# 3 14.0466 22.7311 89.3362 0.0000 0.0000 0.0000
# 4 0.0000 0.0000 0.0000 23.3206 0.0000 0.0000
# 5 0.0000 0.0000 0.0000 0.0000 21.7064 0.0000
# 6 0.0000 0.0000 0.0000 0.0000 0.0000 36.2903
#
#
#
# Elastic Compliance Matrix: (Units=1/GPa)
#
#
# Indices 1 2 3 4 5 6 
#
# 1 0.019403 0.003093 -0.003838 0.000000 0.000000 0.000000
# 2 0.003093 0.011489 -0.003410 0.000000 0.000000 0.000000
# 3 -0.003838 -0.003410 0.012665 0.000000 0.000000 0.000000
# 4 0.000000 0.000000 0.000000 0.042880 0.000000 0.000000
# 5 0.000000 0.000000 0.000000 0.000000 0.046069 0.000000
# 6 0.000000 0.000000 0.000000 0.000000 0.000000 0.027556
#
#
# Mechanical properties :
#
#
# Convention : Reuss Voigt Hill
#
# Bulk Modulus (GPa) = 28.37035 32.64765 30.50900
# Shear Modulus (GPa) = 27.75913 30.68099 29.22006
#
# Velocity S-wave (km/s) = 3.46024 3.63779 3.55012
# Velocity P-wave (km/s) = 5.31048 5.63263 5.47392
#
# Compressibility (1/GPa) = 0.03524807
#
# Stress axis : x y z
#
# Youngs Moduli (GPa) = 51.53770 87.03845 78.95972
#
# Poissons Ratio (x) = -0.26921 0.30303
# Poissons Ratio (y) = -0.15941 0.26923
# Poissons Ratio (z) = 0.19779 0.29677
#
# Static dielectric constant tensor:
#      x y z
#    x 2.020810 0.000000 0.000000 
#    y 0.000000 1.828680 0.000000 
#    z 0.000000 0.000000 1.933870 
# 
# From -- ./inp_files/7351.got.cif
#   From: 2010.05.17/outbox.cif.g08.bks.cpg/sg37_4_cif.got.tgz:7351.got - 2010.06.03 17:53:42.
