data_PCOD9355249
_publ_section_title
;
Structure prediction by ZEFSAII (Michael W. Deem and Ramdas Pophale) SiO2 
 PCOD9355249
Probable space group: C C C 2
;
_chemical_formula_sum "Si O2"
_cell_formula_units_Z 56
_cell_length_a 11.872869
_cell_length_b 22.893930
_cell_length_c 9.921147
_cell_angle_alpha 90.000000
_cell_angle_beta 90.000000
_cell_angle_gamma 90.000000
_cell_volume 2696.732761
_symmetry_space_group_name_H-M "C C C 2"
_symmetry_group_IT_number 37
_symmetry_cell_setting 'orthorhombic'
loop_
_space_group_symop_operation_xyz
x,y,z
-x,-y,z
-x,y,1/2+z
x,-y,1/2+z
1/2+x,1/2+y,z
1/2-x,1/2-y,z
1/2-x,1/2+y,1/2+z
1/2+x,1/2-y,1/2+z
loop_
_atom_site_type_symbol
_atom_site_label
_atom_site_fract_x
_atom_site_fract_y
_atom_site_fract_z
Si Si1 0.993703 0.797245 0.796660
Si Si2 0.364117 0.994114 0.013639
Si Si3 0.638680 0.927167 0.249873
Si Si4 0.615727 0.766767 0.539490
Si Si5 0.269655 0.318340 0.210298
Si Si6 0.389141 0.113797 0.685467
Si Si7 0.736548 0.319270 0.396421
O O1 0.101343 0.831756 0.743274
O O2 0.939325 0.766959 0.666264
O O3 0.893663 0.832852 0.865861
O O4 0.044759 0.752788 0.908355
O O5 0.331826 0.938435 0.104294
O O6 0.500000 0.000000 0.013433
O O7 0.324783 0.049379 0.101725
O O8 0.335204 0.976820 0.860885
O O9 0.696389 0.866020 0.286164
O O10 0.506140 0.912065 0.241605
O O11 0.750000 0.750000 0.531790
O O12 0.595212 0.833928 0.578227
O O13 0.250000 0.250000 0.241350
O O14 0.239941 0.324108 0.053665
O O15 0.316937 0.141923 0.804995
O O16 0.750000 0.250000 0.363243
#
# Coordination Sequence:
#
# PCOD9355249 Si02
#       7
#     8   8   8   8   8   8   8
#     4  12  23  43  60  97 144 176 237 279 356 424
#     4  10  24  43  64 101 134 182 229 288 341 412
#     4  11  26  44  69 102 139 177 235 284 358 421
#     4  12  25  40  64  99 145 191 229 289 359 432
#     4  11  26  41  68 101 138 181 226 290 355 419
#     4  11  23  37  68  96 139 182 233 281 350 418
#     4  11  23  40  63  98 140 190 221 285 353 412
#
# _framework density 20.76587
#
# number of rings (size 3 to 8) (size 9 to 14) (size 15 to 20)
#    0.000    0.857    4.286    2.571   14.000    0.000 
#    0.000    0.000    0.000    0.857    0.000    0.000 
#    0.000    0.000    0.000    0.000    0.000    0.000 
#
# Total GULP energy -156438.665076 kJ/mol
# GULP energy per Si atom -5587.095181 kJ/mol
# Density = 2.071861 g / cm^3
# Si number density = 20.765870 Si / 1000 Ang^3
#
#
#
# Elastic Constant Matrix: (Units=GPa)
#
#
# Indices 1 2 3 4 5 6 
#
# 1 78.7209 11.9609 36.1074 0.0000 0.0000 0.0000
# 2 11.9609 78.9249 33.0419 0.0000 0.0000 0.0000
# 3 36.1074 33.0419 139.4732 0.0000 0.0000 0.0000
# 4 0.0000 0.0000 0.0000 27.7571 0.0000 0.0000
# 5 0.0000 0.0000 0.0000 0.0000 21.3919 0.0000
# 6 0.0000 0.0000 0.0000 0.0000 0.0000 27.6031
#
#
#
# Elastic Compliance Matrix: (Units=1/GPa)
#
#
# Indices 1 2 3 4 5 6 
#
# 1 0.014449 -0.000692 -0.003577 0.000000 0.000000 0.000000
# 2 -0.000692 0.014098 -0.003161 0.000000 0.000000 0.000000
# 3 -0.003577 -0.003161 0.008845 0.000000 0.000000 0.000000
# 4 0.000000 0.000000 0.000000 0.036027 0.000000 0.000000
# 5 0.000000 0.000000 0.000000 0.000000 0.046747 0.000000
# 6 0.000000 0.000000 0.000000 0.000000 0.000000 0.036228
#
#
# Mechanical properties :
#
#
# Convention : Reuss Voigt Hill
#
# Bulk Modulus (GPa) = 44.38041 51.03773 47.70907
# Shear Modulus (GPa) = 27.96996 29.75100 28.86048
#
# Velocity S-wave (km/s) = 3.67402 3.78919 3.73205
# Velocity P-wave (km/s) = 6.27823 6.61627 6.44946
#
# Compressibility (1/GPa) = 0.02253246
#
# Stress axis : x y z
#
# Youngs Moduli (GPa) = 69.21001 70.92980 113.06406
#
# Poissons Ratio (x) = 0.04911 0.40438
# Poissons Ratio (y) = 0.04792 0.35737
# Poissons Ratio (z) = 0.24753 0.22419
#
# Static dielectric constant tensor:
#      x y z
#    x 1.755410 0.000000 0.000000 
#    y 0.000000 1.755500 0.000000 
#    z 0.000000 0.000000 1.798400 
# 
# From -- ./inp_files/7283.got.cif
#   From: 2010.05.17/outbox.cif.g08.bks.cpg/sg37_4_cif.got.tgz:7283.got - 2010.06.03 17:53:42.
