data_PCOD9355486
_publ_section_title
;
Structure prediction by ZEFSAII (Michael W. Deem and Ramdas Pophale) SiO2 
 PCOD9355486
Probable space group: C C C 2
;
_chemical_formula_sum "Si O2"
_cell_formula_units_Z 64
_cell_length_a 27.209775
_cell_length_b 12.110733
_cell_length_c 7.071765
_cell_angle_alpha 90.000000
_cell_angle_beta 90.000000
_cell_angle_gamma 90.000000
_cell_volume 2330.360984
_symmetry_space_group_name_H-M "C C C 2"
_symmetry_group_IT_number 37
_symmetry_cell_setting 'orthorhombic'
loop_
_space_group_symop_operation_xyz
x,y,z
-x,-y,z
-x,y,1/2+z
x,-y,1/2+z
1/2+x,1/2+y,z
1/2-x,1/2-y,z
1/2-x,1/2+y,1/2+z
1/2+x,1/2-y,1/2+z
loop_
_atom_site_type_symbol
_atom_site_label
_atom_site_fract_x
_atom_site_fract_y
_atom_site_fract_z
Si Si1 0.626068 0.866905 0.969840
Si Si2 0.251805 0.869557 0.859222
Si Si3 0.004398 0.203195 0.113582
Si Si4 0.313979 0.447308 0.669781
Si Si5 0.649336 0.895245 0.579660
Si Si6 0.885464 0.136873 0.639603
Si Si7 0.898763 0.828771 0.565423
Si Si8 0.012494 0.629241 0.363110
O O1 0.663719 0.871258 0.796147
O O2 0.571798 0.860090 0.877776
O O3 0.632790 0.760147 0.095682
O O4 0.628050 0.981723 0.078820
O O5 0.250000 0.750000 0.757345
O O6 0.228880 0.979217 0.764654
O O7 0.306003 0.889679 0.935530
O O8 0.215577 0.861747 0.038610
O O9 0.952905 0.140204 0.126837
O O10 0.006075 0.235665 0.363353
O O11 0.056529 0.141563 0.089919
O O12 0.001730 0.345098 0.116542
O O13 0.345573 0.547311 0.575586
O O14 0.360362 0.368974 0.723074
O O15 0.609644 0.801536 0.528940
O O16 0.885799 0.119626 0.865074
O O17 0.000000 0.500000 0.363783
#
# Coordination Sequence:
#
# PCOD9355486 Si02
#       8
#     8   8   8   8   8   8   8   8
#     4  11  26  40  71 111 157 205 265 322 401 475
#     4  12  27  51  79 115 155 200 264 333 407 492
#     4  11  23  40  68 104 156 205 265 322 398 474
#     4  12  27  49  83 108 149 201 257 330 401 472
#     4  12  24  45  72 111 154 208 257 331 407 483
#     4  11  26  48  71 113 157 210 267 329 393 486
#     4  12  24  48  75 106 162 205 263 333 395 485
#     4  11  22  36  61 103 150 209 259 320 384 471
#
# _framework density 27.463556000000001
#
# number of rings (size 3 to 8) (size 9 to 14) (size 15 to 20)
#    0.000    0.500    5.000    2.625    5.250    1.500 
#    0.000    1.875    0.000    0.000    0.000    0.000 
#    0.000    0.000    0.000    0.000    0.000    0.000 
#
# Total GULP energy -178625.199021 kJ/mol
# GULP energy per Si atom -5582.037469 kJ/mol
# Density = 2.740105 g / cm^3
# Si number density = 27.463556 Si / 1000 Ang^3
#
#
#
# Elastic Constant Matrix: (Units=GPa)
#
#
# Indices 1 2 3 4 5 6 
#
# 1 160.7896 37.9544 22.6279 0.0000 0.0000 0.0000
# 2 37.9544 134.7940 17.8267 0.0000 0.0000 0.0000
# 3 22.6279 17.8267 116.6076 0.0000 0.0000 0.0000
# 4 0.0000 0.0000 0.0000 18.3702 0.0000 0.0000
# 5 0.0000 0.0000 0.0000 0.0000 32.4641 0.0000
# 6 0.0000 0.0000 0.0000 0.0000 0.0000 46.1778
#
#
#
# Elastic Compliance Matrix: (Units=1/GPa)
#
#
# Indices 1 2 3 4 5 6 
#
# 1 0.006785 -0.001772 -0.001046 0.000000 0.000000 0.000000
# 2 -0.001772 0.008035 -0.000884 0.000000 0.000000 0.000000
# 3 -0.001046 -0.000884 0.008914 0.000000 0.000000 0.000000
# 4 0.000000 0.000000 0.000000 0.054436 0.000000 0.000000
# 5 0.000000 0.000000 0.000000 0.000000 0.030803 0.000000
# 6 0.000000 0.000000 0.000000 0.000000 0.000000 0.021655
#
#
# Mechanical properties :
#
#
# Convention : Reuss Voigt Hill
#
# Bulk Modulus (GPa) = 61.24121 63.22325 62.23223
# Shear Modulus (GPa) = 34.84915 41.65457 38.25186
#
# Velocity S-wave (km/s) = 3.56606 3.89874 3.73610
# Velocity P-wave (km/s) = 6.26923 6.58313 6.42810
#
# Compressibility (1/GPa) = 0.01632887
#
# Stress axis : x y z
#
# Youngs Moduli (GPa) = 147.38885 124.46047 112.18441
#
# Poissons Ratio (x) = 0.22056 0.11731
# Poissons Ratio (y) = 0.26119 0.09922
# Poissons Ratio (z) = 0.15412 0.11008
#
# Static dielectric constant tensor:
#      x y z
#    x 2.062860 0.000000 0.000000 
#    y 0.000000 2.163730 0.000000 
#    z 0.000000 0.000000 2.923940 
# 
# From -- ./inp_files/5005.got.cif
#   From: 2010.05.17/outbox.cif.g08.bks.cpg/sg37_3_cif.got.tgz:5005.got - 2010.06.03 17:53:42.
