data_PCOD9355352
_publ_section_title
;
Structure prediction by ZEFSAII (Michael W. Deem and Ramdas Pophale) SiO2 
 PCOD9355352
Probable space group: C C C 2
;
_chemical_formula_sum "Si O2"
_cell_formula_units_Z 64
_cell_length_a 9.719862
_cell_length_b 17.161651
_cell_length_c 18.577996
_cell_angle_alpha 90.000000
_cell_angle_beta 90.000000
_cell_angle_gamma 90.000000
_cell_volume 3098.974694
_symmetry_space_group_name_H-M "C C C 2"
_symmetry_group_IT_number 37
_symmetry_cell_setting 'orthorhombic'
loop_
_space_group_symop_operation_xyz
x,y,z
-x,-y,z
-x,y,1/2+z
x,-y,1/2+z
1/2+x,1/2+y,z
1/2-x,1/2-y,z
1/2-x,1/2+y,1/2+z
1/2+x,1/2-y,1/2+z
loop_
_atom_site_type_symbol
_atom_site_label
_atom_site_fract_x
_atom_site_fract_y
_atom_site_fract_z
Si Si1 0.468553 0.592261 0.418940
Si Si2 0.311570 0.675469 0.301481
Si Si3 0.240642 0.443890 0.027992
Si Si4 0.870295 0.053737 0.680908
Si Si5 0.527130 0.306574 0.159418
Si Si6 0.203268 0.123530 0.527820
Si Si7 0.623860 0.049736 0.232607
Si Si8 0.978246 0.644915 0.590720
O O1 0.500000 0.500000 0.410534
O O2 0.432094 0.633481 0.344972
O O3 0.326864 0.595787 0.464761
O O4 0.594360 0.630984 0.463024
O O5 0.250000 0.750000 0.341714
O O6 0.371064 0.706128 0.225742
O O7 0.192369 0.613840 0.283098
O O8 0.341542 0.444276 0.096229
O O9 0.232722 0.536611 0.016200
O O10 0.099589 0.401050 0.049809
O O11 0.905958 0.142684 0.694320
O O12 0.739972 0.013762 0.715454
O O13 0.000000 0.000000 0.698779
O O14 0.612761 0.358006 0.100075
O O15 0.475539 0.226940 0.124580
O O16 0.346277 0.168392 0.541625
O O17 0.574958 0.090767 0.157560
O O18 0.500000 0.000000 0.264672
#
# Coordination Sequence:
#
# PCOD9355352 Si02
#       8
#     8   8   8   8   8   8   8   8
#     4  10  25  42  66  97 131 179 232 267 321 415
#     4  12  24  44  67  96 139 178 222 279 345 401
#     4  11  20  39  64  97 131 167 217 276 331 392
#     4  12  19  35  66  95 128 166 224 273 325 389
#     4  12  23  37  66 103 131 170 220 280 336 395
#     4  11  19  40  66  97 127 170 225 273 322 398
#     4  12  23  40  67 100 132 172 221 281 346 397
#     4  12  22  37  66 105 133 164 208 288 346 387
#
# _framework density 20.651992
#
# number of rings (size 3 to 8) (size 9 to 14) (size 15 to 20)
#    0.000    0.500    8.750    1.125    1.750    1.500 
#    0.000    2.500    0.000    0.000    3.250    0.000 
#    0.000    0.000    0.000    0.000    0.000    0.000 
#
# Total GULP energy -178558.438265 kJ/mol
# GULP energy per Si atom -5579.951196 kJ/mol
# Density = 2.060499 g / cm^3
# Si number density = 20.651992 Si / 1000 Ang^3
#
#
#
# Elastic Constant Matrix: (Units=GPa)
#
#
# Indices 1 2 3 4 5 6 
#
# 1 105.7273 54.6456 34.8575 0.0000 0.0000 0.0000
# 2 54.6456 96.2802 22.9294 0.0000 0.0000 0.0000
# 3 34.8575 22.9294 67.2114 0.0000 0.0000 0.0000
# 4 0.0000 0.0000 0.0000 20.5786 0.0000 0.0000
# 5 0.0000 0.0000 0.0000 0.0000 47.3871 0.0000
# 6 0.0000 0.0000 0.0000 0.0000 0.0000 32.0160
#
#
#
# Elastic Compliance Matrix: (Units=1/GPa)
#
#
# Indices 1 2 3 4 5 6 
#
# 1 0.014929 -0.007215 -0.005281 0.000000 0.000000 0.000000
# 2 -0.007215 0.014792 -0.001304 0.000000 0.000000 0.000000
# 3 -0.005281 -0.001304 0.018062 0.000000 0.000000 0.000000
# 4 0.000000 0.000000 0.000000 0.048594 0.000000 0.000000
# 5 0.000000 0.000000 0.000000 0.000000 0.021103 0.000000
# 6 0.000000 0.000000 0.000000 0.000000 0.000000 0.031234
#
#
# Mechanical properties :
#
#
# Convention : Reuss Voigt Hill
#
# Bulk Modulus (GPa) = 49.54919 54.89821 52.22370
# Shear Modulus (GPa) = 27.31600 30.44874 28.88237
#
# Velocity S-wave (km/s) = 3.64081 3.84392 3.74375
# Velocity P-wave (km/s) = 6.45899 6.80744 6.63550
#
# Compressibility (1/GPa) = 0.02018196
#
# Stress axis : x y z
#
# Youngs Moduli (GPa) = 66.98531 67.60313 55.36431
#
# Poissons Ratio (x) = 0.48778 0.29237
# Poissons Ratio (y) = 0.48333 0.07221
# Poissons Ratio (z) = 0.35374 0.08818
#
# Static dielectric constant tensor:
#      x y z
#    x 1.727530 0.000000 0.000000 
#    y 0.000000 1.514300 0.000000 
#    z 0.000000 0.000000 1.751870 
# 
# From -- ./inp_files/16517.got.cif
#   From: 2010.05.17/outbox.cif.g08.bks.cpg/sg37_9_cif.got.tgz:16517.got - 2010.06.03 17:53:42.
