data_PCOD9355781
_publ_section_title
;
Structure prediction by ZEFSAII (Michael W. Deem and Ramdas Pophale) SiO2 
 PCOD9355781
Probable space group: C C C 2
;
_chemical_formula_sum "Si O2"
_cell_formula_units_Z 32
_cell_length_a 12.000000
_cell_length_b 30.000000
_cell_length_c 9.000000
_cell_angle_alpha 90.000000
_cell_angle_beta 90.000000
_cell_angle_gamma 90.000000
_cell_volume 3240.000000
_symmetry_space_group_name_H-M "C C C 2"
_symmetry_group_IT_number 37
_symmetry_cell_setting 'orthorhombic'
loop_
_space_group_symop_operation_xyz
x,y,z
-x,-y,z
-x,y,1/2+z
x,-y,1/2+z
1/2+x,1/2+y,z
1/2-x,1/2-y,z
1/2-x,1/2+y,1/2+z
1/2+x,1/2-y,1/2+z
loop_
_atom_site_type_symbol
_atom_site_label
_atom_site_fract_x
_atom_site_fract_y
_atom_site_fract_z
Si Si1 0.635315 0.046262 0.204860
Si Si2 0.894212 0.549476 0.352465
Si Si3 0.224770 0.696534 0.086942
Si Si4 0.117075 0.758804 0.481095
Si Si5 0.511361 0.204401 0.724781
Si Si6 0.281056 0.142304 0.287727
Si Si7 0.075130 0.139878 0.052441
Si Si8 0.153192 0.882636 0.235650
O O1 0.519977 0.060488 0.291023
O O2 0.744872 0.080049 0.214587
O O3 0.650023 0.996016 0.272553
O O4 0.604746 0.042564 0.030380
O O5 0.812928 0.591364 0.324274
O O6 0.250000 0.750000 0.087589
O O7 0.289804 0.666124 0.207320
O O8 0.093826 0.690927 0.122734
O O9 0.252533 0.672312 0.930934
O O10 0.250000 0.750000 0.455399
O O11 0.086188 0.741206 0.643869
O O12 0.071110 0.809384 0.486741
O O13 0.047815 0.727946 0.365830
O O14 0.600007 0.164641 0.743000
O O15 0.179629 0.141979 0.168933
O O16 0.960035 0.121352 0.129954
O O17 0.109919 0.112410 0.904875
#
# Coordination Sequence:
#
# PCOD9355781 Si02
#       8
#     8   8   8   8   8   8   8   8
#     4  11  25  48  84 112 149 186 238 312 384 446
#     4  11  25  47  78 117 145 183 241 308 390 446
#     4  12  25  45  67 102 150 194 246 306 367 440
#     4  12  24  44  65 101 143 200 252 299 372 430
#     4  12  25  42  67 101 139 191 245 312 356 436
#     4  12  27  43  73 102 147 191 251 302 371 439
#     4  12  27  45  71 101 148 198 252 302 363 431
#     4  12  27  48  75 105 149 196 247 302 372 445
#
# _framework density 9.8765429999999999
#
# number of rings (size 3 to 8) (size 9 to 14) (size 15 to 20)
#    0.000    0.250    3.750    6.375    5.250    0.000 
#    0.000    0.625    0.000    0.000    0.000    0.000 
#    0.000    0.000    0.000    0.000    0.000    0.000 
#
# Total GULP energy -178670.705499 kJ/mol
# GULP energy per Si atom -5583.459547 kJ/mol
# Density = 0.985406 g / cm^3
# Si number density = 9.876543 Si / 1000 Ang^3
#
#
#
# Elastic Constant Matrix: (Units=GPa)
#
#
# Indices 1 2 3 4 5 6 
#
# 1 154.3568 49.9803 69.6884 0.0000 0.0000 0.0000
# 2 49.9803 122.0854 40.5800 0.0000 0.0000 0.0000
# 3 69.6884 40.5800 136.8421 0.0000 0.0000 0.0000
# 4 0.0000 0.0000 0.0000 34.0477 0.0000 0.0000
# 5 0.0000 0.0000 0.0000 0.0000 48.6341 0.0000
# 6 0.0000 0.0000 0.0000 0.0000 0.0000 45.1398
#
#
#
# Elastic Compliance Matrix: (Units=1/GPa)
#
#
# Indices 1 2 3 4 5 6 
#
# 1 0.009004 -0.002398 -0.003874 0.000000 0.000000 0.000000
# 2 -0.002398 0.009726 -0.001663 0.000000 0.000000 0.000000
# 3 -0.003874 -0.001663 0.009774 0.000000 0.000000 0.000000
# 4 0.000000 0.000000 0.000000 0.029371 0.000000 0.000000
# 5 0.000000 0.000000 0.000000 0.000000 0.020562 0.000000
# 6 0.000000 0.000000 0.000000 0.000000 0.000000 0.022153
#
#
# Mechanical properties :
#
#
# Convention : Reuss Voigt Hill
#
# Bulk Modulus (GPa) = 79.15882 81.53130 80.34506
# Shear Modulus (GPa) = 41.43502 42.43335 41.93419
#
# Velocity S-wave (km/s) = 4.58498 4.63988 4.61251
# Velocity P-wave (km/s) = 8.25775 8.37075 8.31445
#
# Compressibility (1/GPa) = 0.01263283
#
# Stress axis : x y z
#
# Youngs Moduli (GPa) = 111.05862 102.82216 102.31487
#
# Poissons Ratio (x) = 0.24662 0.39639
# Poissons Ratio (y) = 0.26637 0.17011
# Poissons Ratio (z) = 0.43027 0.17095
#
# Static dielectric constant tensor:
#      x y z
#    x 1.704640 0.000000 0.000000 
#    y 0.000000 1.716550 0.000000 
#    z 0.000000 0.000000 1.759920 
# 
# From -- ./inp_files/3128.got.cif
#   From: 2010.05.17/outbox.ucp.g08.bks.cvg/sg37_2_cif.got.tgz:3128.got - 2010.06.11 10:38:43.
