data_PCOD9355870
_publ_section_title
;
Structure prediction by ZEFSAII (Michael W. Deem and Ramdas Pophale) SiO2 
 PCOD9355870
Probable space group: A M M 2
;
_chemical_formula_sum "Si O2"
_cell_formula_units_Z 64
_cell_length_a 8.206786
_cell_length_b 27.533819
_cell_length_c 18.944487
_cell_angle_alpha 90.000000
_cell_angle_beta 90.000000
_cell_angle_gamma 90.000000
_cell_volume 4280.775097
_symmetry_space_group_name_H-M "A M M 2"
_symmetry_group_IT_number 38
_symmetry_cell_setting 'orthorhombic'
loop_
_space_group_symop_operation_xyz
x,y,z
-x,-y,z
-x,y,z
x,-y,z
x,1/2+y,1/2+z
-x,1/2-y,1/2+z
-x,1/2+y,1/2+z
x,1/2-y,1/2+z
loop_
_atom_site_type_symbol
_atom_site_label
_atom_site_fract_x
_atom_site_fract_y
_atom_site_fract_z
Si Si1 0.311442 0.298831 0.672230
Si Si2 0.694960 0.743578 0.891748
Si Si3 0.698838 0.944867 0.553446
Si Si4 0.307240 0.146155 0.642855
Si Si5 0.188565 0.290102 0.260013
Si Si6 0.300858 0.852521 0.305005
Si Si7 0.809844 0.763533 0.551274
Si Si8 0.301126 0.945011 0.391291
O O1 0.500000 0.308011 0.655439
O O2 0.297878 0.250876 0.721760
O O3 0.247393 0.340417 0.725060
O O4 0.221463 0.283055 0.601320
O O5 0.500000 0.746118 0.888328
O O6 0.768724 0.785653 0.842087
O O7 0.747065 0.692236 0.856027
O O8 0.749245 0.744879 0.972352
O O9 0.500000 0.943998 0.553977
O O10 0.754564 0.903106 0.606476
O O11 0.747623 0.934492 0.472342
O O12 0.748944 0.000000 0.570874
O O13 0.500000 0.141868 0.654871
O O14 0.224366 0.161317 0.716394
O O15 0.278095 0.190555 0.588089
O O16 0.000000 0.276974 0.249293
O O17 0.500000 0.852479 0.303450
O O18 0.245436 0.903028 0.338565
O O19 0.000000 0.774693 0.551106
O O20 0.500000 0.944564 0.390509
O O21 0.249920 0.000000 0.373725
#
# Coordination Sequence:
#
# PCOD9355870 Si02
#       8
#     8   8   8   8   8   8   8   8
#     4   9  16  27  40  54  76 106 138 167 196 234
#     4  10  18  29  43  58  78 105 137 166 198 241
#     4   8  14  23  37  59  83 106 137 176 208 232
#     4  10  17  27  43  59  79 110 143 170 201 240
#     4  10  18  28  40  57  81 104 131 167 204 240
#     4   8  14  23  37  56  76 102 134 163 190 228
#     4  11  20  28  39  58  82 105 134 169 205 242
#     4   8  12  19  32  53  81 106 128 161 202 231
#
# _framework density 14.950564
#
# number of rings (size 3 to 8) (size 9 to 14) (size 15 to 20)
#    0.000    2.750    0.000    7.125    0.000    2.000 
#    0.000    0.000    0.000    1.500    0.000    0.000 
#    0.000   18.500    0.000    8.500    0.000    2.375 
#
# Total GULP energy -178204.995742 kJ/mol
# GULP energy per Si atom -5568.906117 kJ/mol
# Density = 1.491654 g / cm^3
# Si number density = 14.950564 Si / 1000 Ang^3
#
#
#
# Elastic Constant Matrix: (Units=GPa)
#
#
# Indices 1 2 3 4 5 6 
#
# 1 22.1654 0.2881 4.7250 0.0000 0.0000 0.0000
# 2 0.2881 84.0526 49.8321 0.0000 0.0000 0.0000
# 3 4.7250 49.8321 97.1473 0.0000 0.0000 0.0000
# 4 0.0000 0.0000 0.0000 28.5317 0.0000 0.0000
# 5 0.0000 0.0000 0.0000 0.0000 -5.9180 0.0000
# 6 0.0000 0.0000 0.0000 0.0000 0.0000 -6.4523
#
#
#
# Elastic Compliance Matrix: (Units=1/GPa)
#
#
# Indices 1 2 3 4 5 6 
#
# 1 0.045751 0.001670 -0.003082 0.000000 0.000000 0.000000
# 2 0.001670 0.017158 -0.008882 0.000000 0.000000 0.000000
# 3 -0.003082 -0.008882 0.015000 0.000000 0.000000 0.000000
# 4 0.000000 0.000000 0.000000 0.035049 0.000000 0.000000
# 5 0.000000 0.000000 0.000000 0.000000 -0.168976 0.000000
# 6 0.000000 0.000000 0.000000 0.000000 0.000000 -0.154985
#
#
# Mechanical properties :
#
#
# Convention : Reuss Voigt Hill
#
# Bulk Modulus (GPa) = 17.44586 34.78396 26.11491
# Shear Modulus (GPa) = -29.18696 13.13362 -8.02667
#
# Velocity S-wave (km/s) = -4.42320 2.96711 -2.31958
# Velocity P-wave (km/s) = 3.79367 5.92071 3.21426
#
# Compressibility (1/GPa) = 0.05732018
#
# Stress axis : x y z
#
# Youngs Moduli (GPa) = 21.85763 58.28303 66.66764
#
# Poissons Ratio (x) = -0.09736 0.20547
# Poissons Ratio (y) = -0.03651 0.59216
# Poissons Ratio (z) = 0.06737 0.51769
#
# Static dielectric constant tensor:
#      x y z
#    x 1.504890 0.000000 0.000000 
#    y 0.000000 1.499750 0.000000 
#    z 0.000000 0.000000 1.507230 
# 
# From -- ./inp_files/17356.got.cif
#   From: 2010.05.17/outbox.cif.g08.bks.cpg/sg38_9_cif.got.tgz:17356.got - 2010.06.03 18:07:57.
