data_PCOD9355534
_publ_section_title
;
Structure prediction by ZEFSAII (Michael W. Deem and Ramdas Pophale) SiO2 
 PCOD9355534
Probable space group: C C C 2
;
_chemical_formula_sum "Si O2"
_cell_formula_units_Z 56
_cell_length_a 16.367129
_cell_length_b 10.669474
_cell_length_c 14.448587
_cell_angle_alpha 90.000000
_cell_angle_beta 90.000000
_cell_angle_gamma 90.000000
_cell_volume 2523.137348
_symmetry_space_group_name_H-M "C C C 2"
_symmetry_group_IT_number 37
_symmetry_cell_setting 'orthorhombic'
loop_
_space_group_symop_operation_xyz
x,y,z
-x,-y,z
-x,y,1/2+z
x,-y,1/2+z
1/2+x,1/2+y,z
1/2-x,1/2-y,z
1/2-x,1/2+y,1/2+z
1/2+x,1/2-y,1/2+z
loop_
_atom_site_type_symbol
_atom_site_label
_atom_site_fract_x
_atom_site_fract_y
_atom_site_fract_z
Si Si1 0.304113 0.626330 0.992660
Si Si2 0.992993 0.858644 0.509173
Si Si3 0.782024 0.114262 0.794028
Si Si4 0.465863 0.632982 0.725075
Si Si5 0.063844 0.613686 0.256091
Si Si6 0.187886 0.495456 0.627040
Si Si7 0.574747 0.900828 0.963677
O O1 0.250000 0.750000 0.999490
O O2 0.290328 0.552911 0.895650
O O3 0.397189 0.667533 0.000189
O O4 0.271220 0.546106 0.077722
O O5 0.021792 0.865324 0.615058
O O6 0.042342 0.741282 0.469915
O O7 0.000000 0.000000 0.470284
O O8 0.750000 0.250000 0.818524
O O9 0.871431 0.131710 0.751558
O O10 0.718557 0.065573 0.718549
O O11 0.500000 0.500000 0.759159
O O12 0.513978 0.756156 0.759596
O O13 0.128318 0.609983 0.171707
O O14 0.103643 0.586660 0.356869
O O15 0.000000 0.500000 0.238528
O O16 0.136881 0.568330 0.547460
O O17 0.500000 0.000000 0.973771
#
# Coordination Sequence:
#
# PCOD9355534 Si02
#       7
#     8   8   8   8   8   8   8
#     4  11  24  42  64  91 128 172 211 253 317 390
#     4  11  23  42  67  95 129 170 213 260 315 378
#     4  11  24  42  64  91 128 172 211 253 317 390
#     4  11  23  42  67  95 129 170 213 260 315 378
#     4  11  23  40  66  97 128 168 217 266 318 378
#     4  12  23  40  65  96 128 162 214 272 317 366
#     4  11  23  40  66  97 128 168 217 266 318 378
#
# _framework density 22.194589000000001
#
# number of rings (size 3 to 8) (size 9 to 14) (size 15 to 20)
#    0.000    0.857    0.000    9.000    0.000    6.857 
#    0.000    0.000    0.000    6.857    0.000    0.000 
#    0.000    0.000    0.000    0.000    0.000    0.000 
#
# Total GULP energy -156398.197681 kJ/mol
# GULP energy per Si atom -5585.649917 kJ/mol
# Density = 2.214407 g / cm^3
# Si number density = 22.194589 Si / 1000 Ang^3
#
#
#
# Elastic Constant Matrix: (Units=GPa)
#
#
# Indices 1 2 3 4 5 6 
#
# 1 67.2333 -14.6259 3.4165 0.0000 0.0000 0.0000
# 2 -14.6259 43.0533 11.5347 0.0000 0.0000 0.0000
# 3 3.4165 11.5347 132.0824 0.0000 0.0000 0.0000
# 4 0.0000 0.0000 0.0000 725.4437 0.0000 0.0000
# 5 0.0000 0.0000 0.0000 0.0000 56.2043 0.0000
# 6 0.0000 0.0000 0.0000 0.0000 0.0000 23.3949
#
#
#
# Elastic Compliance Matrix: (Units=1/GPa)
#
#
# Indices 1 2 3 4 5 6 
#
# 1 0.016169 0.005739 -0.000919 0.000000 0.000000 0.000000
# 2 0.005739 0.025821 -0.002403 0.000000 0.000000 0.000000
# 3 -0.000919 -0.002403 0.007805 0.000000 0.000000 0.000000
# 4 0.000000 0.000000 0.000000 0.001378 0.000000 0.000000
# 5 0.000000 0.000000 0.000000 0.000000 0.017792 0.000000
# 6 0.000000 0.000000 0.000000 0.000000 0.000000 0.042744
#
#
# Mechanical properties :
#
#
# Convention : Reuss Voigt Hill
#
# Bulk Modulus (GPa) = 18.30601 27.00216 22.65409
# Shear Modulus (GPa) = 39.97268 177.14482 108.55875
#
# Velocity S-wave (km/s) = 4.24844 8.94358 7.00132
# Velocity P-wave (km/s) = 5.68608 10.90150 8.69409
#
# Compressibility (1/GPa) = 0.05462686
#
# Stress axis : x y z
#
# Youngs Moduli (GPa) = 61.84751 38.72873 128.12801
#
# Poissons Ratio (x) = -0.22227 0.11780
# Poissons Ratio (y) = -0.35495 0.30794
# Poissons Ratio (z) = 0.05686 0.09308
#
# Static dielectric constant tensor:
#      x y z
#    x 1.750930 0.000000 0.000000 
#    y 0.000000 1.760560 0.000000 
#    z 0.000000 0.000000 1.901400 
# 
# From -- ./inp_files/12134.got.cif
#   From: 2010.05.17/outbox.cif.g08.bks.cpg/sg37_7_cif.got.tgz:12134.got - 2010.06.03 17:53:42.
