data_PCOD9355190
_publ_section_title
;
Structure prediction by ZEFSAII (Michael W. Deem and Ramdas Pophale) SiO2 
 PCOD9355190
Probable space group: C C C 2
;
_chemical_formula_sum "Si O2"
_cell_formula_units_Z 60
_cell_length_a 12.225278
_cell_length_b 9.515993
_cell_length_c 22.310415
_cell_angle_alpha 90.000000
_cell_angle_beta 90.000000
_cell_angle_gamma 90.000000
_cell_volume 2595.496851
_symmetry_space_group_name_H-M "C C C 2"
_symmetry_group_IT_number 37
_symmetry_cell_setting 'orthorhombic'
loop_
_space_group_symop_operation_xyz
x,y,z
-x,-y,z
-x,y,1/2+z
x,-y,1/2+z
1/2+x,1/2+y,z
1/2-x,1/2-y,z
1/2-x,1/2+y,1/2+z
1/2+x,1/2-y,1/2+z
loop_
_atom_site_type_symbol
_atom_site_label
_atom_site_fract_x
_atom_site_fract_y
_atom_site_fract_z
Si Si1 0.174801 0.386113 0.051430
Si Si2 0.981369 0.199061 0.050509
Si Si3 0.195021 0.102592 0.468965
Si Si4 0.892500 0.914996 0.338365
Si Si5 0.500000 0.500000 0.649060
Si Si6 0.440110 0.856805 0.752973
Si Si7 0.281394 0.493816 0.728079
Si Si8 0.117488 0.628834 0.147252
O O1 0.250000 0.250000 0.066232
O O2 0.059927 0.321786 0.028206
O O3 0.138793 0.486706 0.107128
O O4 0.237347 0.478623 0.001226
O O5 0.888023 0.256582 0.095693
O O6 0.923642 0.114358 0.998999
O O7 0.045493 0.109283 0.099463
O O8 0.250000 0.250000 0.484168
O O9 0.178116 0.104698 0.397876
O O10 0.928132 0.775337 0.298926
O O11 0.821491 0.014906 0.295418
O O12 0.000000 0.000000 0.355116
O O13 0.395132 0.496521 0.692022
O O14 0.315306 0.888482 0.732924
O O15 0.512263 0.840746 0.691376
O O16 0.500000 0.000000 0.778920
O O17 0.212051 0.377441 0.695085
#
# Coordination Sequence:
#
# PCOD9355190 Si02
#       8
#     8   8   8   8   4   8   8   8
#     4  12  26  47  75 119 156 208 256 335 409 488
#     4  12  25  45  73 112 157 191 261 322 406 470
#     4  12  28  51  78 104 151 218 273 328 393 484
#     4  12  28  52  74 108 156 211 269 325 400 482
#     4  12  26  40  76 118 154 208 234 340 402 486
#     4  10  23  47  79 112 152 204 257 330 401 487
#     4  11  22  44  72 111 149 200 249 309 398 475
#     4  11  24  44  78 120 156 193 257 329 406 490
#
# _framework density 23.116959999999999
#
# number of rings (size 3 to 8) (size 9 to 14) (size 15 to 20)
#    0.000    0.533    2.000    7.200    2.800    3.200 
#    9.600    0.000    0.000    0.000    0.000    0.000 
#    0.000    0.000    0.000    0.000    0.000    0.000 
#
# Total GULP energy -167102.607150 kJ/mol
# GULP energy per Si atom -5570.086905 kJ/mol
# Density = 2.306435 g / cm^3
# Si number density = 23.116960 Si / 1000 Ang^3
#
#
#
# Elastic Constant Matrix: (Units=GPa)
#
#
# Indices 1 2 3 4 5 6 
#
# 1 116.0290 23.2985 37.4810 0.0000 0.0000 0.0000
# 2 23.2985 90.3797 34.4646 0.0000 0.0000 0.0000
# 3 37.4810 34.4646 131.2585 0.0000 0.0000 0.0000
# 4 0.0000 0.0000 0.0000 22.1381 0.0000 0.0000
# 5 0.0000 0.0000 0.0000 0.0000 38.5152 0.0000
# 6 0.0000 0.0000 0.0000 0.0000 0.0000 27.9841
#
#
#
# Elastic Compliance Matrix: (Units=1/GPa)
#
#
# Indices 1 2 3 4 5 6 
#
# 1 0.009699 -0.001605 -0.002348 0.000000 0.000000 0.000000
# 2 -0.001605 0.012561 -0.002840 0.000000 0.000000 0.000000
# 3 -0.002348 -0.002840 0.009035 0.000000 0.000000 0.000000
# 4 0.000000 0.000000 0.000000 0.045171 0.000000 0.000000
# 5 0.000000 0.000000 0.000000 0.000000 0.025964 0.000000
# 6 0.000000 0.000000 0.000000 0.000000 0.000000 0.035735
#
#
# Mechanical properties :
#
#
# Convention : Reuss Voigt Hill
#
# Bulk Modulus (GPa) = 56.46804 58.68395 57.57600
# Shear Modulus (GPa) = 31.71508 33.88901 32.80204
#
# Velocity S-wave (km/s) = 3.70799 3.83297 3.77100
# Velocity P-wave (km/s) = 6.54312 6.71041 6.62729
#
# Compressibility (1/GPa) = 0.01770913
#
# Stress axis : x y z
#
# Youngs Moduli (GPa) = 103.09958 79.61089 110.68334
#
# Poissons Ratio (x) = 0.12777 0.25991
# Poissons Ratio (y) = 0.16546 0.31433
# Poissons Ratio (z) = 0.24211 0.22609
#
# Static dielectric constant tensor:
#      x y z
#    x 2.169710 0.000000 0.000000 
#    y 0.000000 2.092520 0.000000 
#    z 0.000000 0.000000 1.821410 
# 
# From -- ./inp_files/19960.got.cif
#   From: 2010.05.17/outbox.cif.g08.bks.cpg/sg37_10_cif.got.tgz:19960.got - 2010.06.03 17:53:42.
