data_PCOD9355152
_publ_section_title
;
Structure prediction by ZEFSAII (Michael W. Deem and Ramdas Pophale) SiO2 
 PCOD9355152
Probable space group: C C C 2
;
_chemical_formula_sum "Si O2"
_cell_formula_units_Z 56
_cell_length_a 15.306949
_cell_length_b 5.369226
_cell_length_c 29.647085
_cell_angle_alpha 90.000000
_cell_angle_beta 90.000000
_cell_angle_gamma 90.000000
_cell_volume 2436.589219
_symmetry_space_group_name_H-M "C C C 2"
_symmetry_group_IT_number 37
_symmetry_cell_setting 'orthorhombic'
loop_
_space_group_symop_operation_xyz
x,y,z
-x,-y,z
-x,y,1/2+z
x,-y,1/2+z
1/2+x,1/2+y,z
1/2-x,1/2-y,z
1/2-x,1/2+y,1/2+z
1/2+x,1/2-y,1/2+z
loop_
_atom_site_type_symbol
_atom_site_label
_atom_site_fract_x
_atom_site_fract_y
_atom_site_fract_z
Si Si1 0.901427 0.410624 0.651270
Si Si2 0.325005 0.594652 0.575381
Si Si3 0.442258 0.248589 0.415298
Si Si4 0.750000 0.250000 0.280634
Si Si5 0.559827 0.252214 0.015504
Si Si6 0.250000 0.750000 0.148844
Si Si7 0.346296 0.860121 0.824128
Si Si8 0.899214 0.914440 0.238015
O O1 0.890050 0.284341 0.601429
O O2 0.841656 0.645331 0.666014
O O3 0.881872 0.214890 0.690478
O O4 0.000000 0.500000 0.653807
O O5 0.250000 0.750000 0.548327
O O6 0.368967 0.356576 0.550975
O O7 0.273456 0.479866 0.616893
O O8 0.500000 0.500000 0.412374
O O9 0.399837 0.234981 0.465139
O O10 0.382260 0.224680 0.371686
O O11 0.500000 0.000000 0.413287
O O12 0.824977 0.353484 0.314509
O O13 0.688229 0.421008 0.248896
O O14 0.500000 0.500000 0.013702
O O15 0.500000 0.000000 0.022492
O O16 0.250000 0.750000 0.819222
O O17 0.400833 0.768791 0.781401
O O18 0.000000 0.000000 0.235252
#
# Coordination Sequence:
#
# PCOD9355152 Si02
#       8
#     8   8   8   4   8   4   8   8
#     4  11  28  47  71 109 144 201 256 311 380 462
#     4  10  25  46  71 103 143 198 247 315 384 447
#     4  10  23  44  72 106 143 189 249 309 377 454
#     4  10  26  47  70 104 146 192 242 318 368 447
#     4  10  24  44  73 109 145 192 252 316 384 459
#     4  10  26  47  68  98 148 186 246 314 370 445
#     4  10  24  43  70 102 140 192 239 306 377 441
#     4  11  27  46  69 106 145 194 255 305 379 453
#
# _framework density 22.982946999999999
#
# number of rings (size 3 to 8) (size 9 to 14) (size 15 to 20)
#    0.000    1.714    0.000    0.429   16.000    6.286 
#    1.286    0.000    0.000    0.000    0.000    0.000 
#    0.000    0.000    0.000    0.000    0.000    0.000 
#
# Total GULP energy -155974.551753 kJ/mol
# GULP energy per Si atom -5570.519705 kJ/mol
# Density = 2.293064 g / cm^3
# Si number density = 22.982947 Si / 1000 Ang^3
#
#
#
# Elastic Constant Matrix: (Units=GPa)
#
#
# Indices 1 2 3 4 5 6 
#
# 1 102.0508 49.2647 40.2449 0.0000 0.0000 0.0000
# 2 49.2647 127.7677 42.2533 0.0000 0.0000 0.0000
# 3 40.2449 42.2533 125.7445 0.0000 0.0000 0.0000
# 4 0.0000 0.0000 0.0000 31.4244 0.0000 0.0000
# 5 0.0000 0.0000 0.0000 0.0000 177.4393 0.0000
# 6 0.0000 0.0000 0.0000 0.0000 0.0000 42.5690
#
#
#
# Elastic Compliance Matrix: (Units=1/GPa)
#
#
# Indices 1 2 3 4 5 6 
#
# 1 0.012833 -0.004039 -0.002750 0.000000 0.000000 0.000000
# 2 -0.004039 0.010076 -0.002093 0.000000 0.000000 0.000000
# 3 -0.002750 -0.002093 0.009536 0.000000 0.000000 0.000000
# 4 0.000000 0.000000 0.000000 0.031822 0.000000 0.000000
# 5 0.000000 0.000000 0.000000 0.000000 0.005636 0.000000
# 6 0.000000 0.000000 0.000000 0.000000 0.000000 0.023491
#
#
# Mechanical properties :
#
#
# Convention : Reuss Voigt Hill
#
# Bulk Modulus (GPa) = 68.11376 68.78763 68.45070
# Shear Modulus (GPa) = 43.08360 65.20653 54.14507
#
# Velocity S-wave (km/s) = 4.33435 5.33229 4.85901
# Velocity P-wave (km/s) = 7.39931 8.24050 7.83121
#
# Compressibility (1/GPa) = 0.01468132
#
# Stress axis : x y z
#
# Youngs Moduli (GPa) = 77.92215 99.24362 104.86320
#
# Poissons Ratio (x) = 0.40082 0.28840
# Poissons Ratio (y) = 0.31471 0.21950
# Poissons Ratio (z) = 0.21430 0.20774
#
# Static dielectric constant tensor:
#      x y z
#    x 1.956790 0.000000 0.000000 
#    y 0.000000 2.195210 0.000000 
#    z 0.000000 0.000000 1.894230 
# 
# From -- ./inp_files/20590.got.cif
#   From: 2010.05.17/outbox.cif.g08.bks.cpg/sg37_11_cif.got.tgz:20590.got - 2010.06.03 17:53:42.
