data_PCOD9355535
_publ_section_title
;
Structure prediction by ZEFSAII (Michael W. Deem and Ramdas Pophale) SiO2 
 PCOD9355535
Probable space group: C C C 2
;
_chemical_formula_sum "Si O2"
_cell_formula_units_Z 52
_cell_length_a 8.501867
_cell_length_b 14.643980
_cell_length_c 20.363202
_cell_angle_alpha 90.000000
_cell_angle_beta 90.000000
_cell_angle_gamma 90.000000
_cell_volume 2535.242480
_symmetry_space_group_name_H-M "C C C 2"
_symmetry_group_IT_number 37
_symmetry_cell_setting 'orthorhombic'
loop_
_space_group_symop_operation_xyz
x,y,z
-x,-y,z
-x,y,1/2+z
x,-y,1/2+z
1/2+x,1/2+y,z
1/2-x,1/2-y,z
1/2-x,1/2+y,1/2+z
1/2+x,1/2-y,1/2+z
loop_
_atom_site_type_symbol
_atom_site_label
_atom_site_fract_x
_atom_site_fract_y
_atom_site_fract_z
Si Si1 0.859184 0.661850 0.087300
Si Si2 0.500000 0.500000 0.326969
Si Si3 0.859067 0.874643 0.720879
Si Si4 0.718152 0.859230 0.347001
Si Si5 0.668460 0.524876 0.580142
Si Si6 0.639245 0.839834 0.488661
Si Si7 0.998580 0.316680 0.227666
O O1 0.750000 0.750000 0.091002
O O2 0.760308 0.569496 0.086836
O O3 0.974817 0.673775 0.025601
O O4 0.956229 0.656677 0.154334
O O5 0.609902 0.443841 0.278670
O O6 0.374973 0.423610 0.355576
O O7 0.861781 0.922506 0.649334
O O8 0.990517 0.794604 0.727853
O O9 0.683467 0.840958 0.734338
O O10 0.750000 0.750000 0.346447
O O11 0.620294 0.873282 0.414036
O O12 0.611957 0.865805 0.280664
O O13 0.500000 0.500000 0.550750
O O14 0.767367 0.587813 0.532295
O O15 0.750000 0.750000 0.489129
#
# Coordination Sequence:
#
# PCOD9355535 Si02
#       7
#     8   4   8   8   8   8   8
#     4  12  25  43  71 100 140 183 232 290 350 418
#     4  12  24  44  70 106 130 190 238 288 362 426
#     4  11  23  40  71 103 137 175 235 289 346 420
#     4  11  25  47  70 100 143 183 232 295 356 428
#     4  12  24  42  69 102 134 177 235 286 346 414
#     4  11  25  47  68  97 139 183 231 290 354 420
#     4  11  23  44  68 103 140 184 224 291 352 410
#
# _framework density 20.510859
#
# number of rings (size 3 to 8) (size 9 to 14) (size 15 to 20)
#    0.000    0.615    3.846    4.615    1.077    1.846 
#    8.308    0.000    0.000    0.000    0.000    0.000 
#    0.000    0.000    0.000    0.000    0.000    0.000 
#
# Total GULP energy -145068.730583 kJ/mol
# GULP energy per Si atom -5579.566561 kJ/mol
# Density = 2.046418 g / cm^3
# Si number density = 20.510859 Si / 1000 Ang^3
#
#
#
# Elastic Constant Matrix: (Units=GPa)
#
#
# Indices 1 2 3 4 5 6 
#
# 1 90.8653 23.9609 28.4676 0.0000 0.0000 0.0000
# 2 23.9609 100.8520 9.6932 0.0000 0.0000 0.0000
# 3 28.4676 9.6932 106.7992 0.0000 0.0000 0.0000
# 4 0.0000 0.0000 0.0000 27.1592 0.0000 0.0000
# 5 0.0000 0.0000 0.0000 0.0000 26.0465 0.0000
# 6 0.0000 0.0000 0.0000 0.0000 0.0000 41.4767
#
#
#
# Elastic Compliance Matrix: (Units=1/GPa)
#
#
# Indices 1 2 3 4 5 6 
#
# 1 0.012705 -0.002717 -0.003140 0.000000 0.000000 0.000000
# 2 -0.002717 0.010584 -0.000236 0.000000 0.000000 0.000000
# 3 -0.003140 -0.000236 0.010222 0.000000 0.000000 0.000000
# 4 0.000000 0.000000 0.000000 0.036820 0.000000 0.000000
# 5 0.000000 0.000000 0.000000 0.000000 0.038393 0.000000
# 6 0.000000 0.000000 0.000000 0.000000 0.000000 0.024110
#
#
# Mechanical properties :
#
#
# Convention : Reuss Voigt Hill
#
# Bulk Modulus (GPa) = 46.89473 46.97333 46.93403
# Shear Modulus (GPa) = 32.86692 34.69613 33.78153
#
# Velocity S-wave (km/s) = 4.00736 4.11737 4.06274
# Velocity P-wave (km/s) = 6.65770 6.74945 6.70373
#
# Compressibility (1/GPa) = 0.02132436
#
# Stress axis : x y z
#
# Youngs Moduli (GPa) = 78.70608 94.48478 97.82993
#
# Poissons Ratio (x) = 0.25670 0.30720
# Poissons Ratio (y) = 0.21383 0.02313
# Poissons Ratio (z) = 0.24715 0.02234
#
# Static dielectric constant tensor:
#      x y z
#    x 1.723630 0.000000 0.000000 
#    y 0.000000 1.789890 0.000000 
#    z 0.000000 0.000000 1.732330 
# 
# From -- ./inp_files/16354.got.cif
#   From: 2010.05.17/outbox.cif.g08.bks.cpg/sg37_9_cif.got.tgz:16354.got - 2010.06.03 17:53:42.
