data_PCOD9355985
_publ_section_title
;
Structure prediction by ZEFSAII (Michael W. Deem and Ramdas Pophale) SiO2 
 PCOD9355985
Probable space group: A M M 2
;
_chemical_formula_sum "Si O2"
_cell_formula_units_Z 64
_cell_length_a 7.738507
_cell_length_b 15.071937
_cell_length_c 29.000124
_cell_angle_alpha 90.000000
_cell_angle_beta 90.000000
_cell_angle_gamma 90.000000
_cell_volume 3382.408872
_symmetry_space_group_name_H-M "A M M 2"
_symmetry_group_IT_number 38
_symmetry_cell_setting 'orthorhombic'
loop_
_space_group_symop_operation_xyz
x,y,z
-x,-y,z
-x,y,z
x,-y,z
x,1/2+y,1/2+z
-x,1/2-y,1/2+z
-x,1/2+y,1/2+z
x,1/2-y,1/2+z
loop_
_atom_site_type_symbol
_atom_site_label
_atom_site_fract_x
_atom_site_fract_y
_atom_site_fract_z
Si Si1 0.794195 0.398411 0.524200
Si Si2 0.205357 0.401270 0.055071
Si Si3 0.288602 0.399799 0.684031
Si Si4 0.701632 0.770439 0.368448
Si Si5 0.208353 0.604084 0.951769
Si Si6 0.301099 0.729304 0.606155
Si Si7 0.708991 0.100800 0.918739
Si Si8 0.711278 0.899708 0.290276
O O1 0.733191 0.500000 0.531023
O O2 0.714154 0.332559 0.561060
O O3 0.756824 0.374435 0.471208
O O4 0.000000 0.395985 0.530814
O O5 0.272296 0.500000 0.066501
O O6 0.233195 0.325346 0.092231
O O7 0.000000 0.408960 0.049323
O O8 0.269789 0.374917 0.003860
O O9 0.500000 0.399889 0.682630
O O10 0.234607 0.500000 0.670880
O O11 0.222557 0.326435 0.648420
O O12 0.239108 0.384035 0.737145
O O13 0.500000 0.755263 0.357506
O O14 0.713010 0.833684 0.413066
O O15 0.775701 0.675486 0.383754
O O16 0.776332 0.825814 0.325713
O O17 0.246430 0.500000 0.943521
O O18 0.000000 0.614933 0.949590
O O19 0.500000 0.742576 0.617719
O O20 0.500000 0.100066 0.916549
O O21 0.770183 0.000000 0.910432
O O22 0.500000 0.899631 0.291758
O O23 0.765297 0.000000 0.303359
#
# Coordination Sequence:
#
# PCOD9355985 Si02
#       8
#     8   8   8   8   8   8   8   8
#     4  10  20  32  46  66  93 125 159 191 225 272
#     4   9  19  35  50  64  89 127 163 190 221 267
#     4   8  15  28  45  66  93 122 147 175 221 278
#     4  10  18  27  45  70  90 114 151 189 222 260
#     4   9  18  31  45  63  90 121 148 176 216 267
#     4  11  20  29  47  72  94 118 152 194 235 274
#     4   9  18  31  44  62  92 124 152 187 229 267
#     4   8  14  26  44  66  91 116 144 180 221 269
#
# _framework density 18.921427000000001
#
# number of rings (size 3 to 8) (size 9 to 14) (size 15 to 20)
#    0.000    2.750    0.000    3.750    0.000    5.250 
#    0.000    1.250    0.000    2.250    0.000    8.750 
#    0.000    2.000    0.000    0.000    0.000    0.000 
#
# Total GULP energy -178494.123039 kJ/mol
# GULP energy per Si atom -5577.941345 kJ/mol
# Density = 1.887836 g / cm^3
# Si number density = 18.921427 Si / 1000 Ang^3
#
#
#
# Elastic Constant Matrix: (Units=GPa)
#
#
# Indices 1 2 3 4 5 6 
#
# 1 24.2058 -5.0423 -5.7269 0.0000 0.0000 0.0000
# 2 -5.0423 96.1138 78.0487 0.0000 0.0000 0.0000
# 3 -5.7269 78.0487 95.3949 0.0000 0.0000 0.0000
# 4 0.0000 0.0000 0.0000 35.3623 0.0000 0.0000
# 5 0.0000 0.0000 0.0000 0.0000 148.3599 0.0000
# 6 0.0000 0.0000 0.0000 0.0000 0.0000 12.2817
#
#
#
# Elastic Compliance Matrix: (Units=1/GPa)
#
#
# Indices 1 2 3 4 5 6 
#
# 1 0.041915 0.000464 0.002137 0.000000 0.000000 0.000000
# 2 0.000464 0.031006 -0.025340 0.000000 0.000000 0.000000
# 3 0.002137 -0.025340 0.031344 0.000000 0.000000 0.000000
# 4 0.000000 0.000000 0.000000 0.028279 0.000000 0.000000
# 5 0.000000 0.000000 0.000000 0.000000 0.006740 0.000000
# 6 0.000000 0.000000 0.000000 0.000000 0.000000 0.081422
#
#
# Mechanical properties :
#
#
# Convention : Reuss Voigt Hill
#
# Bulk Modulus (GPa) = 17.01119 38.91928 27.96523
# Shear Modulus (GPa) = 17.49599 49.09644 33.29622
#
# Velocity S-wave (km/s) = 3.04413 5.09940 4.19944
# Velocity P-wave (km/s) = 4.62229 7.43541 6.19076
#
# Compressibility (1/GPa) = 0.05878484
#
# Stress axis : x y z
#
# Youngs Moduli (GPa) = 23.85805 32.25168 31.90445
#
# Poissons Ratio (x) = -0.01495 -0.06818
# Poissons Ratio (y) = -0.01106 0.80847
# Poissons Ratio (z) = -0.05099 0.81727
#
# Static dielectric constant tensor:
#      x y z
#    x 1.694930 0.000000 0.000000 
#    y 0.000000 1.683100 0.000000 
#    z 0.000000 0.000000 1.646120 
# 
# From -- ./inp_files/24769.got.cif
#   From: 2010.05.17/outbox.cif.g08.bks.cpg/sg38_13_cif.got.tgz:24769.got - 2010.06.03 18:07:57.
