data_PCOD9355225
_publ_section_title
;
Structure prediction by ZEFSAII (Michael W. Deem and Ramdas Pophale) SiO2 
 PCOD9355225
Probable space group: C C C 2
;
_chemical_formula_sum "Si O2"
_cell_formula_units_Z 56
_cell_length_a 12.605863
_cell_length_b 14.190423
_cell_length_c 12.959683
_cell_angle_alpha 90.000000
_cell_angle_beta 90.000000
_cell_angle_gamma 90.000000
_cell_volume 2318.260860
_symmetry_space_group_name_H-M "C C C 2"
_symmetry_group_IT_number 37
_symmetry_cell_setting 'orthorhombic'
loop_
_space_group_symop_operation_xyz
x,y,z
-x,-y,z
-x,y,1/2+z
x,-y,1/2+z
1/2+x,1/2+y,z
1/2-x,1/2-y,z
1/2-x,1/2+y,1/2+z
1/2+x,1/2-y,1/2+z
loop_
_atom_site_type_symbol
_atom_site_label
_atom_site_fract_x
_atom_site_fract_y
_atom_site_fract_z
Si Si1 0.947594 0.102870 0.817770
Si Si2 0.083264 0.224522 0.686285
Si Si3 0.705136 0.111127 0.123920
Si Si4 0.879349 0.465875 0.910195
Si Si5 0.017391 0.897505 0.531757
Si Si6 0.277224 0.096948 0.209210
Si Si7 0.245395 0.644416 0.481453
O O1 0.838445 0.118706 0.757301
O O2 0.034968 0.181020 0.788888
O O3 0.000000 0.000000 0.800155
O O4 0.932833 0.107793 0.939947
O O5 0.187288 0.168568 0.645954
O O6 0.112746 0.332571 0.683122
O O7 0.997179 0.191748 0.603237
O O8 0.725197 0.009891 0.170422
O O9 0.664941 0.095209 0.006939
O O10 0.858126 0.406597 0.805498
O O11 0.000000 0.500000 0.922767
O O12 0.815341 0.565263 0.916130
O O13 0.135729 0.894621 0.490440
O O14 0.000000 0.000000 0.582618
O O15 0.297987 0.149982 0.100687
O O16 0.250000 0.750000 0.437207
#
# Coordination Sequence:
#
# PCOD9355225 Si02
#       7
#     8   8   8   8   8   8   8
#     4  11  20  36  69 102 133 177 232 282 357 407
#     4  11  21  40  67 103 139 173 222 290 342 411
#     4  10  24  42  66 100 140 179 225 279 345 422
#     4  11  26  47  70  94 140 192 234 280 358 423
#     4  11  22  40  68 100 138 178 223 289 354 408
#     4  11  22  46  69  98 138 183 234 282 348 422
#     4  11  26  46  71 101 139 179 239 295 344 419
#
# _framework density 24.156039
#
# number of rings (size 3 to 8) (size 9 to 14) (size 15 to 20)
#    0.000    1.143    2.857    4.714    2.000    3.429 
#    5.143    0.000    0.000    0.000    0.000    0.000 
#    0.000    0.000    0.000    0.000    0.000    0.000 
#
# Total GULP energy -156577.860873 kJ/mol
# GULP energy per Si atom -5592.066460 kJ/mol
# Density = 2.410106 g / cm^3
# Si number density = 24.156039 Si / 1000 Ang^3
#
#
#
# Elastic Constant Matrix: (Units=GPa)
#
#
# Indices 1 2 3 4 5 6 
#
# 1 97.3882 6.7614 -12.9005 0.0000 0.0000 0.0000
# 2 6.7614 85.7695 -21.6483 0.0000 0.0000 0.0000
# 3 -12.9005 -21.6483 94.4367 0.0000 0.0000 0.0000
# 4 0.0000 0.0000 0.0000 5.2732 0.0000 0.0000
# 5 0.0000 0.0000 0.0000 0.0000 39.4633 0.0000
# 6 0.0000 0.0000 0.0000 0.0000 0.0000 32.1048
#
#
#
# Elastic Compliance Matrix: (Units=1/GPa)
#
#
# Indices 1 2 3 4 5 6 
#
# 1 0.010477 -0.000493 0.001318 0.000000 0.000000 0.000000
# 2 -0.000493 0.012398 0.002775 0.000000 0.000000 0.000000
# 3 0.001318 0.002775 0.011405 0.000000 0.000000 0.000000
# 4 0.000000 0.000000 0.000000 0.189638 0.000000 0.000000
# 5 0.000000 0.000000 0.000000 0.000000 0.025340 0.000000
# 6 0.000000 0.000000 0.000000 0.000000 0.000000 0.031148
#
#
# Mechanical properties :
#
#
# Convention : Reuss Voigt Hill
#
# Bulk Modulus (GPa) = 24.10794 24.66884 24.38839
# Shear Modulus (GPa) = 17.41954 35.72704 26.57329
#
# Velocity S-wave (km/s) = 2.68829 3.84996 3.32033
# Velocity P-wave (km/s) = 4.43144 5.47699 4.98172
#
# Compressibility (1/GPa) = 0.04148010
#
# Stress axis : x y z
#
# Youngs Moduli (GPa) = 95.44684 80.65558 87.67891
#
# Poissons Ratio (x) = 0.03978 -0.11557
# Poissons Ratio (y) = 0.04708 -0.24329
# Poissons Ratio (z) = -0.12581 -0.22380
#
# Static dielectric constant tensor:
#      x y z
#    x 1.935820 0.000000 0.000000 
#    y 0.000000 1.788500 0.000000 
#    z 0.000000 0.000000 2.016540 
# 
# From -- ./inp_files/11575.got.cif
#   From: 2010.05.17/outbox.cif.g08.bks.cpg/sg37_6_cif.got.tgz:11575.got - 2010.06.03 17:53:42.
