data_PCOD9355255
_publ_section_title
;
Structure prediction by ZEFSAII (Michael W. Deem and Ramdas Pophale) SiO2 
 PCOD9355255
Probable space group: C C C 2
;
_chemical_formula_sum "Si O2"
_cell_formula_units_Z 28
_cell_length_a 6.694568
_cell_length_b 12.480951
_cell_length_c 13.441403
_cell_angle_alpha 90.000000
_cell_angle_beta 90.000000
_cell_angle_gamma 90.000000
_cell_volume 1123.090717
_symmetry_space_group_name_H-M "C C C 2"
_symmetry_group_IT_number 37
_symmetry_cell_setting 'orthorhombic'
loop_
_space_group_symop_operation_xyz
x,y,z
-x,-y,z
-x,y,1/2+z
x,-y,1/2+z
1/2+x,1/2+y,z
1/2-x,1/2-y,z
1/2-x,1/2+y,1/2+z
1/2+x,1/2-y,1/2+z
loop_
_atom_site_type_symbol
_atom_site_label
_atom_site_fract_x
_atom_site_fract_y
_atom_site_fract_z
Si Si1 0.500000 0.500000 0.154521
Si Si2 0.625373 0.857722 0.378797
Si Si3 0.719950 0.592091 0.821529
Si Si4 0.216963 0.363224 0.029119
O O1 0.417683 0.592508 0.226855
O O2 0.314501 0.456697 0.091938
O O3 0.750000 0.750000 0.376801
O O4 0.437279 0.857120 0.302623
O O5 0.505665 0.873838 0.483982
O O6 0.741428 0.966911 0.351716
O O7 0.652238 0.642613 0.925963
O O8 0.250000 0.250000 0.081432
#
# Coordination Sequence:
#
# PCOD9355255 Si02
#       4
#     4   8   8   8
#     4  12  24  42  72 116 156 188 268 310 376 452
#     4   9  21  43  72  97 142 206 248 291 382 451
#     4   9  23  44  71 100 151 203 239 317 374 437
#     4  10  24  43  73 108 145 202 242 318 382 442
#
# _framework density 24.931201000000001
#
# number of rings (size 3 to 8) (size 9 to 14) (size 15 to 20)
#    1.714    0.571    0.000    0.857    8.000    1.143 
#   10.286    0.000   12.571    0.000    0.000    0.000 
#    0.000    0.000    0.000    0.000    0.000    0.000 
#
# Total GULP energy -78132.258945 kJ/mol
# GULP energy per Si atom -5580.875639 kJ/mol
# Density = 2.487446 g / cm^3
# Si number density = 24.931201 Si / 1000 Ang^3
#
#
#
# Elastic Constant Matrix: (Units=GPa)
#
#
# Indices 1 2 3 4 5 6 
#
# 1 109.1529 61.4184 37.8339 0.0000 0.0000 0.0000
# 2 61.4184 128.7240 29.7396 0.0000 0.0000 0.0000
# 3 37.8339 29.7396 70.2877 0.0000 0.0000 0.0000
# 4 0.0000 0.0000 0.0000 11.8983 0.0000 0.0000
# 5 0.0000 0.0000 0.0000 0.0000 35.5096 0.0000
# 6 0.0000 0.0000 0.0000 0.0000 0.0000 51.4492
#
#
#
# Elastic Compliance Matrix: (Units=1/GPa)
#
#
# Indices 1 2 3 4 5 6 
#
# 1 0.014078 -0.005504 -0.005249 0.000000 0.000000 0.000000
# 2 -0.005504 0.010762 -0.001591 0.000000 0.000000 0.000000
# 3 -0.005249 -0.001591 0.017726 0.000000 0.000000 0.000000
# 4 0.000000 0.000000 0.000000 0.084046 0.000000 0.000000
# 5 0.000000 0.000000 0.000000 0.000000 0.028161 0.000000
# 6 0.000000 0.000000 0.000000 0.000000 0.000000 0.019437
#
#
# Mechanical properties :
#
#
# Convention : Reuss Voigt Hill
#
# Bulk Modulus (GPa) = 55.93488 62.90539 59.42014
# Shear Modulus (GPa) = 24.40720 31.71625 28.06173
#
# Velocity S-wave (km/s) = 3.13226 3.57059 3.35859
# Velocity P-wave (km/s) = 5.96371 6.50271 6.23903
#
# Compressibility (1/GPa) = 0.01787793
#
# Stress axis : x y z
#
# Youngs Moduli (GPa) = 71.03271 92.91571 56.41542
#
# Poissons Ratio (x) = 0.51145 0.29611
# Poissons Ratio (y) = 0.39099 0.08975
# Poissons Ratio (z) = 0.37284 0.14781
#
# Static dielectric constant tensor:
#      x y z
#    x 2.040400 0.000000 0.000000 
#    y 0.000000 2.066790 0.000000 
#    z 0.000000 0.000000 1.979730 
# 
# From -- ./inp_files/9423.got.cif
#   From: 2010.05.17/outbox.cif.g08.bks.cpg/sg37_5_cif.got.tgz:9423.got - 2010.06.03 17:53:42.
