data_PCOD9355921
_publ_section_title
;
Structure prediction by ZEFSAII (Michael W. Deem and Ramdas Pophale) SiO2 
 PCOD9355921
Probable space group: A M M 2
;
_chemical_formula_sum "Si O2"
_cell_formula_units_Z 48
_cell_length_a 7.408587
_cell_length_b 19.170629
_cell_length_c 15.556718
_cell_angle_alpha 90.000000
_cell_angle_beta 90.000000
_cell_angle_gamma 90.000000
_cell_volume 2209.478231
_symmetry_space_group_name_H-M "A M M 2"
_symmetry_group_IT_number 38
_symmetry_cell_setting 'orthorhombic'
loop_
_space_group_symop_operation_xyz
x,y,z
-x,-y,z
-x,y,z
x,-y,z
x,1/2+y,1/2+z
-x,1/2-y,1/2+z
-x,1/2+y,1/2+z
x,1/2-y,1/2+z
loop_
_atom_site_type_symbol
_atom_site_label
_atom_site_fract_x
_atom_site_fract_y
_atom_site_fract_z
Si Si1 0.719589 0.735292 0.759240
Si Si2 0.717585 0.391279 0.296076
Si Si3 0.720999 0.845422 0.427238
Si Si4 0.198243 0.000000 0.651763
Si Si5 0.700618 0.000000 0.465654
Si Si6 0.720627 0.775975 0.061392
Si Si7 0.279926 0.575098 0.486260
O O1 0.500000 0.733228 0.757808
O O2 0.774022 0.811580 0.791263
O O3 0.775328 0.680952 0.832500
O O4 0.778154 0.728736 0.660636
O O5 0.500000 0.393816 0.295164
O O6 0.777823 0.434274 0.213795
O O7 0.775493 0.422719 0.386537
O O8 0.500000 0.845661 0.431167
O O9 0.782660 0.924699 0.442817
O O10 0.777358 0.788388 0.499729
O O11 0.318645 0.000000 0.568549
O O12 0.000000 0.000000 0.614395
O O13 0.500000 0.000000 0.425119
O O14 0.500000 0.774684 0.059748
O O15 0.778308 0.851951 0.027201
O O16 0.500000 0.576173 0.488731
O O17 0.223546 0.500000 0.523903
#
# Coordination Sequence:
#
# PCOD9355921 Si02
#       7
#     8   8   8   4   4   8   8
#     4   9  16  26  45  73 101 132 167 207 253 295
#     4  10  17  30  52  73  97 131 168 203 250 309
#     4   9  16  28  45  70 102 132 167 211 251 296
#     4  12  24  34  48  75 106 130 164 217 264 303
#     4  10  20  34  52  73 100 136 174 207 250 307
#     4   9  15  24  38  62  98 131 159 200 251 293
#     4   9  15  24  40  64  93 124 160 199 240 297
#
# _framework density 21.724585999999999
#
# number of rings (size 3 to 8) (size 9 to 14) (size 15 to 20)
#    0.000    2.500    2.500    1.750    0.000    2.667 
#    1.500    0.000    0.000    1.000    0.000    0.000 
#    0.000    1.333    0.000    0.000    0.000    0.000 
#
# Total GULP energy -133943.092272 kJ/mol
# GULP energy per Si atom -5580.962178 kJ/mol
# Density = 2.167514 g / cm^3
# Si number density = 21.724586 Si / 1000 Ang^3
#
#
#
# Elastic Constant Matrix: (Units=GPa)
#
#
# Indices 1 2 3 4 5 6 
#
# 1 72.2925 7.5163 2.3800 0.0000 0.0000 0.0000
# 2 7.5163 222.8168 89.5951 0.0000 0.0000 0.0000
# 3 2.3800 89.5951 130.6937 0.0000 0.0000 0.0000
# 4 0.0000 0.0000 0.0000 -29.2300 0.0000 0.0000
# 5 0.0000 0.0000 0.0000 0.0000 -26.1027 0.0000
# 6 0.0000 0.0000 0.0000 0.0000 0.0000 -16.7009
#
#
#
# Elastic Compliance Matrix: (Units=1/GPa)
#
#
# Indices 1 2 3 4 5 6 
#
# 1 0.013882 -0.000506 0.000094 0.000000 0.000000 0.000000
# 2 -0.000506 0.006214 -0.004251 0.000000 0.000000 0.000000
# 3 0.000094 -0.004251 0.010564 0.000000 0.000000 0.000000
# 4 0.000000 0.000000 0.000000 -0.034211 0.000000 0.000000
# 5 0.000000 0.000000 0.000000 0.000000 -0.038310 0.000000
# 6 0.000000 0.000000 0.000000 0.000000 0.000000 -0.059877
#
#
# Mechanical properties :
#
#
# Convention : Reuss Voigt Hill
#
# Bulk Modulus (GPa) = 46.87206 69.42065 58.14636
# Shear Modulus (GPa) = -58.61618 7.34739 -25.63440
#
# Velocity S-wave (km/s) = -5.20001 1.84103 -3.43880
# Velocity P-wave (km/s) = 3.79882 6.04512 3.32509
#
# Compressibility (1/GPa) = 0.02133467
#
# Stress axis : x y z
#
# Youngs Moduli (GPa) = 72.03464 160.91685 94.66156
#
# Poissons Ratio (x) = 0.08145 -0.00892
# Poissons Ratio (y) = 0.03646 0.40240
# Poissons Ratio (z) = -0.00678 0.68405
#
# Static dielectric constant tensor:
#      x y z
#    x 1.826420 0.000000 0.000000 
#    y 0.000000 1.786090 0.000000 
#    z 0.000000 0.000000 1.741020 
# 
# From -- ./inp_files/12155.got.cif
#   From: 2010.05.17/outbox.cif.g08.bks.cpg/sg38_7_cif.got.tgz:12155.got - 2010.06.03 18:07:57.
