data_PCOD9355639
_publ_section_title
;
Structure prediction by ZEFSAII (Michael W. Deem and Ramdas Pophale) SiO2 
 PCOD9355639
Probable space group: C C C 2
;
_chemical_formula_sum "Si O2"
_cell_formula_units_Z 32
_cell_length_a 10.585484
_cell_length_b 16.178200
_cell_length_c 7.770389
_cell_angle_alpha 90.000000
_cell_angle_beta 90.000000
_cell_angle_gamma 90.000000
_cell_volume 1330.710798
_symmetry_space_group_name_H-M "C C C 2"
_symmetry_group_IT_number 37
_symmetry_cell_setting 'orthorhombic'
loop_
_space_group_symop_operation_xyz
x,y,z
-x,-y,z
-x,y,1/2+z
x,-y,1/2+z
1/2+x,1/2+y,z
1/2-x,1/2-y,z
1/2-x,1/2+y,1/2+z
1/2+x,1/2-y,1/2+z
loop_
_atom_site_type_symbol
_atom_site_label
_atom_site_fract_x
_atom_site_fract_y
_atom_site_fract_z
Si Si1 0.582708 0.794019 0.203560
Si Si2 0.860161 0.034362 0.237095
Si Si3 0.317016 0.168394 0.585912
Si Si4 0.319211 0.373940 0.092332
O O1 0.640785 0.809473 0.391440
O O2 0.449955 0.838874 0.183738
O O3 0.583040 0.695319 0.162418
O O4 0.684789 0.829733 0.069971
O O5 0.782273 0.094791 0.111909
O O6 0.862279 0.082199 0.417394
O O7 0.790543 0.946552 0.228604
O O8 0.000000 0.000000 0.192656
O O9 0.250000 0.250000 0.657286
#
# Coordination Sequence:
#
# PCOD9355639 Si02
#       4
#     8   8   8   8
#     4  11  26  48  78 115 163 215 281 335 413 497
#     4  12  27  46  77 116 162 212 270 343 412 491
#     4  12  26  48  80 112 163 218 272 344 410 494
#     4  11  25  46  73 115 161 210 274 337 412 491
#
# _framework density 24.0473
#
# number of rings (size 3 to 8) (size 9 to 14) (size 15 to 20)
#    0.000    0.500    2.500    5.250   10.500    1.000 
#    0.000    6.250    0.000    0.000    0.000    0.000 
#    0.000    0.000    0.000    0.000    0.000    0.000 
#
# Total GULP energy -89431.368900 kJ/mol
# GULP energy per Si atom -5589.460556 kJ/mol
# Density = 2.399257 g / cm^3
# Si number density = 24.047300 Si / 1000 Ang^3
#
#
#
# Elastic Constant Matrix: (Units=GPa)
#
#
# Indices 1 2 3 4 5 6 
#
# 1 155.5474 50.4721 45.5861 0.0000 0.0000 0.0000
# 2 50.4721 173.0139 58.0023 0.0000 0.0000 0.0000
# 3 45.5861 58.0023 154.0780 0.0000 0.0000 0.0000
# 4 0.0000 0.0000 0.0000 37.5833 0.0000 0.0000
# 5 0.0000 0.0000 0.0000 0.0000 31.0322 0.0000
# 6 0.0000 0.0000 0.0000 0.0000 0.0000 38.9790
#
#
#
# Elastic Compliance Matrix: (Units=1/GPa)
#
#
# Indices 1 2 3 4 5 6 
#
# 1 0.007423 -0.001636 -0.001580 0.000000 0.000000 0.000000
# 2 -0.001636 0.006975 -0.002142 0.000000 0.000000 0.000000
# 3 -0.001580 -0.002142 0.007764 0.000000 0.000000 0.000000
# 4 0.000000 0.000000 0.000000 0.026608 0.000000 0.000000
# 5 0.000000 0.000000 0.000000 0.000000 0.032225 0.000000
# 6 0.000000 0.000000 0.000000 0.000000 0.000000 0.025655
#
#
# Mechanical properties :
#
#
# Convention : Reuss Voigt Hill
#
# Bulk Modulus (GPa) = 87.36462 87.86226 87.61344
# Shear Modulus (GPa) = 41.26090 43.42413 42.34252
#
# Velocity S-wave (km/s) = 4.14674 4.25406 4.20074
# Velocity P-wave (km/s) = 7.70302 7.79397 7.74863
#
# Compressibility (1/GPa) = 0.01144628
#
# Stress axis : x y z
#
# Youngs Moduli (GPa) = 134.72013 143.36802 128.79783
#
# Poissons Ratio (x) = 0.23449 0.20356
# Poissons Ratio (y) = 0.22034 0.27586
# Poissons Ratio (z) = 0.21292 0.30707
#
# Static dielectric constant tensor:
#      x y z
#    x 2.006180 0.000000 0.000000 
#    y 0.000000 2.003540 0.000000 
#    z 0.000000 0.000000 2.013620 
# 
# From -- ./inp_files/2585.got.cif
#   From: 2010.05.17/outbox.cif.g08.bks.cpg/sg37_2_cif.got.tgz:2585.got - 2010.06.03 17:53:42.
