data_PCOD9355339
_publ_section_title
;
Structure prediction by ZEFSAII (Michael W. Deem and Ramdas Pophale) SiO2 
 PCOD9355339
Probable space group: C C C 2
;
_chemical_formula_sum "Si O2"
_cell_formula_units_Z 40
_cell_length_a 17.582001
_cell_length_b 10.699320
_cell_length_c 8.755463
_cell_angle_alpha 90.000000
_cell_angle_beta 90.000000
_cell_angle_gamma 90.000000
_cell_volume 1647.037905
_symmetry_space_group_name_H-M "C C C 2"
_symmetry_group_IT_number 37
_symmetry_cell_setting 'orthorhombic'
loop_
_space_group_symop_operation_xyz
x,y,z
-x,-y,z
-x,y,1/2+z
x,-y,1/2+z
1/2+x,1/2+y,z
1/2-x,1/2-y,z
1/2-x,1/2+y,1/2+z
1/2+x,1/2-y,1/2+z
loop_
_atom_site_type_symbol
_atom_site_label
_atom_site_fract_x
_atom_site_fract_y
_atom_site_fract_z
Si Si1 0.937932 0.250000 0.707440
Si Si2 0.250000 0.056092 0.707440
Si Si3 0.500000 0.000000 0.327143
Si Si4 0.500000 0.500000 0.587737
Si Si5 0.852521 0.893864 0.437225
Si Si6 0.647479 0.893864 0.977655
O O1 0.986758 0.125871 0.683826
O O2 0.885564 0.228268 0.855297
O O3 0.885564 0.271732 0.559583
O O4 0.986758 0.374129 0.731054
O O5 0.198678 0.128687 0.585437
O O6 0.301322 0.128687 0.829444
O O7 0.195403 0.968374 0.810210
O O8 0.304597 0.968375 0.604670
O O9 0.575544 0.024609 0.424352
O O10 0.424456 0.475391 0.490528
#
# Coordination Sequence:
#
# PCOD9355339 Si02
#       6
#     8   8   4   4   8   8
#     4  12  26  49  84 115 162 208 282 330 406 475
#     4  10  24  49  77 114 168 205 263 326 420 475
#     4  12  26  52  80 118 158 218 274 338 394 488
#     4  12  26  52  80 118 158 218 274 338 394 488
#     4  11  24  49  76 116 163 212 260 336 401 486
#     4  11  24  49  76 116 163 212 260 336 401 486
#
# _framework density 24.286021999999999
#
# number of rings (size 3 to 8) (size 9 to 14) (size 15 to 20)
#    0.000    0.800    4.000    2.400    0.000    0.800 
#    0.000    2.000    0.000    0.000    0.000    0.000 
#    0.000    0.000    0.000    0.000    0.000    0.000 
#
# Total GULP energy -112117.791625 kJ/mol
# GULP energy per Si atom -5605.889581 kJ/mol
# Density = 2.423075 g / cm^3
# Si number density = 24.286022 Si / 1000 Ang^3
#
#
#
# Elastic Constant Matrix: (Units=GPa)
#
#
# Indices 1 2 3 4 5 6 
#
# 1 153.0382 61.3945 82.5840 0.0000 0.0000 0.0000
# 2 61.3945 148.9593 73.4493 0.0000 0.0000 0.0000
# 3 82.5840 73.4493 170.3634 0.0000 0.0000 0.0000
# 4 0.0000 0.0000 0.0000 43.1221 0.0000 0.0000
# 5 0.0000 0.0000 0.0000 0.0000 33.0169 0.0000
# 6 0.0000 0.0000 0.0000 0.0000 0.0000 22.2809
#
#
#
# Elastic Compliance Matrix: (Units=1/GPa)
#
#
# Indices 1 2 3 4 5 6 
#
# 1 0.009317 -0.002048 -0.003633 0.000000 0.000000 0.000000
# 2 -0.002048 0.008976 -0.002877 0.000000 0.000000 0.000000
# 3 -0.003633 -0.002877 0.008871 0.000000 0.000000 0.000000
# 4 0.000000 0.000000 0.000000 0.023190 0.000000 0.000000
# 5 0.000000 0.000000 0.000000 0.000000 0.030288 0.000000
# 6 0.000000 0.000000 0.000000 0.000000 0.000000 0.044881
#
#
# Mechanical properties :
#
#
# Convention : Reuss Voigt Hill
#
# Bulk Modulus (GPa) = 99.53144 100.80182 100.16663
# Shear Modulus (GPa) = 34.24918 36.67952 35.46435
#
# Velocity S-wave (km/s) = 3.75939 3.89049 3.82550
# Velocity P-wave (km/s) = 7.74055 7.85986 7.80043
#
# Compressibility (1/GPa) = 0.01004708
#
# Stress axis : x y z
#
# Youngs Moduli (GPa) = 107.33491 111.40721 112.72354
#
# Poissons Ratio (x) = 0.22822 0.40953
# Poissons Ratio (y) = 0.21988 0.32429
# Poissons Ratio (z) = 0.38996 0.32050
#
# Static dielectric constant tensor:
#      x y z
#    x 1.927620 0.000000 0.000000 
#    y 0.000000 1.915470 0.000000 
#    z 0.000000 0.000000 1.945960 
# 
# From -- ./inp_files/2758.got.cif
#   From: 2010.05.17/outbox.cif.g08.bks.cpg/sg37_2_cif.got.tgz:2758.got - 2010.06.03 17:53:42.
