data_PCOD9355516
_publ_section_title
;
Structure prediction by ZEFSAII (Michael W. Deem and Ramdas Pophale) SiO2 
 PCOD9355516
Probable space group: C C C 2
;
_chemical_formula_sum "Si O2"
_cell_formula_units_Z 60
_cell_length_a 8.462582
_cell_length_b 26.021065
_cell_length_c 12.157878
_cell_angle_alpha 90.000000
_cell_angle_beta 90.000000
_cell_angle_gamma 90.000000
_cell_volume 2677.230343
_symmetry_space_group_name_H-M "C C C 2"
_symmetry_group_IT_number 37
_symmetry_cell_setting 'orthorhombic'
loop_
_space_group_symop_operation_xyz
x,y,z
-x,-y,z
-x,y,1/2+z
x,-y,1/2+z
1/2+x,1/2+y,z
1/2-x,1/2-y,z
1/2-x,1/2+y,1/2+z
1/2+x,1/2-y,1/2+z
loop_
_atom_site_type_symbol
_atom_site_label
_atom_site_fract_x
_atom_site_fract_y
_atom_site_fract_z
Si Si1 0.250000 0.750000 0.888070
Si Si2 0.118838 0.461142 0.677986
Si Si3 0.008217 0.702341 0.721542
Si Si4 0.008216 0.202341 0.554597
Si Si5 0.250000 0.672120 0.388069
Si Si6 0.881161 0.038858 0.598154
Si Si7 0.601965 0.888958 0.056446
Si Si8 0.398036 0.388959 0.719693
O O1 0.140252 0.715631 0.810855
O O2 0.359748 0.715631 0.965286
O O3 0.249999 0.500000 0.638069
O O4 0.223083 0.414601 0.724836
O O5 0.000000 0.500000 0.742728
O O6 0.019613 0.434829 0.579757
O O7 0.000001 0.750001 0.638071
O O8 0.063406 0.651875 0.653299
O O9 0.840585 0.698743 0.786192
O O10 0.840584 0.198743 0.489947
O O11 0.063405 0.151874 0.622839
O O12 0.103867 0.641344 0.443052
O O13 0.396133 0.641345 0.333086
O O14 0.776918 0.085400 0.551304
O O15 0.980385 0.065171 0.696384
O O16 0.000000 0.000000 0.533411
#
# Coordination Sequence:
#
# PCOD9355516 Si02
#       8
#     4   8   8   8   8   8   8   8
#     4  12  28  42  68 104 132 196 228 280 348 432
#     4   9  20  42  74  98 140 189 231 300 369 412
#     4  12  27  47  70 105 148 186 235 294 353 426
#     4  12  27  47  70 105 148 186 235 294 353 426
#     4  12  26  45  74 107 142 195 242 284 355 436
#     4   9  20  42  74  98 140 189 231 300 369 412
#     4  11  22  44  71 105 144 186 236 299 355 418
#     4  11  22  44  71 105 144 186 236 299 355 418
#
# _framework density 22.411221999999999
#
# number of rings (size 3 to 8) (size 9 to 14) (size 15 to 20)
#    0.000    1.067    2.667    3.200    3.733    3.733 
#    0.000    4.000    0.000    0.000    0.000    0.000 
#    0.000    0.000    0.000    0.000    0.000    0.000 
#
# Total GULP energy -167171.762621 kJ/mol
# GULP energy per Si atom -5572.392087 kJ/mol
# Density = 2.236021 g / cm^3
# Si number density = 22.411222 Si / 1000 Ang^3
#
#
#
# Elastic Constant Matrix: (Units=GPa)
#
#
# Indices 1 2 3 4 5 6 
#
# 1 103.3122 56.0229 37.9483 0.0000 0.0000 0.0000
# 2 56.0229 141.2259 58.4948 0.0000 0.0000 0.0000
# 3 37.9483 58.4948 105.7747 0.0000 0.0000 0.0000
# 4 0.0000 0.0000 0.0000 6.2621 0.0000 0.0000
# 5 0.0000 0.0000 0.0000 0.0000 36.2711 0.0000
# 6 0.0000 0.0000 0.0000 0.0000 0.0000 50.3651
#
#
#
# Elastic Compliance Matrix: (Units=1/GPa)
#
#
# Indices 1 2 3 4 5 6 
#
# 1 0.012751 -0.004103 -0.002306 0.000000 0.000000 0.000000
# 2 -0.004103 0.010505 -0.004337 0.000000 0.000000 0.000000
# 3 -0.002306 -0.004337 0.012680 0.000000 0.000000 0.000000
# 4 0.000000 0.000000 0.000000 0.159690 0.000000 0.000000
# 5 0.000000 0.000000 0.000000 0.000000 0.027570 0.000000
# 6 0.000000 0.000000 0.000000 0.000000 0.000000 0.019855
#
#
# Mechanical properties :
#
#
# Convention : Reuss Voigt Hill
#
# Bulk Modulus (GPa) = 69.23375 72.80497 71.01936
# Shear Modulus (GPa) = 18.56259 31.76945 25.16602
#
# Velocity S-wave (km/s) = 2.88109 3.76915 3.35464
# Velocity P-wave (km/s) = 6.48283 7.17624 6.83833
#
# Compressibility (1/GPa) = 0.01444382
#
# Stress axis : x y z
#
# Youngs Moduli (GPa) = 78.42276 95.19159 78.86574
#
# Poissons Ratio (x) = 0.39061 0.18183
# Poissons Ratio (y) = 0.32180 0.34207
# Poissons Ratio (z) = 0.18080 0.41288
#
# Static dielectric constant tensor:
#      x y z
#    x 1.917990 0.000000 0.000000 
#    y 0.000000 2.006060 0.000000 
#    z 0.000000 0.000000 1.798010 
# 
# From -- ./inp_files/6545.got.cif
#   From: 2010.05.17/outbox.cif.g08.bks.cpg/sg37_4_cif.got.tgz:6545.got - 2010.06.03 17:53:42.
