data_PCOD9355399
_publ_section_title
;
Structure prediction by ZEFSAII (Michael W. Deem and Ramdas Pophale) SiO2 
 PCOD9355399
Probable space group: C C C 2
;
_chemical_formula_sum "Si O2"
_cell_formula_units_Z 36
_cell_length_a 9.899783
_cell_length_b 18.562395
_cell_length_c 8.050049
_cell_angle_alpha 90.000000
_cell_angle_beta 90.000000
_cell_angle_gamma 90.000000
_cell_volume 1479.306648
_symmetry_space_group_name_H-M "C C C 2"
_symmetry_group_IT_number 37
_symmetry_cell_setting 'orthorhombic'
loop_
_space_group_symop_operation_xyz
x,y,z
-x,-y,z
-x,y,1/2+z
x,-y,1/2+z
1/2+x,1/2+y,z
1/2-x,1/2-y,z
1/2-x,1/2+y,1/2+z
1/2+x,1/2-y,1/2+z
loop_
_atom_site_type_symbol
_atom_site_label
_atom_site_fract_x
_atom_site_fract_y
_atom_site_fract_z
Si Si1 0.314655 0.888924 0.371480
Si Si2 0.071007 0.930007 0.152552
Si Si3 0.836757 0.144441 0.843132
Si Si4 0.064303 0.576783 0.714507
Si Si5 0.750000 0.750000 0.093884
O O1 0.198561 0.934448 0.278730
O O2 0.379096 0.930057 0.529068
O O3 0.434021 0.872576 0.240903
O O4 0.269928 0.816608 0.468474
O O5 0.943257 0.906307 0.255838
O O6 0.119873 0.865215 0.032438
O O7 0.000000 0.000000 0.066920
O O8 0.687330 0.110727 0.818766
O O9 0.851224 0.217283 0.734723
O O10 0.000000 0.500000 0.758324
#
# Coordination Sequence:
#
# PCOD9355399 Si02
#       5
#     8   8   8   8   4
#     4  11  25  44  72 100 141 185 231 295 348 430
#     4  12  26  47  73 107 141 184 239 300 368 422
#     4  11  25  44  72 100 141 185 230 293 348 431
#     4  11  23  42  67 102 138 180 229 286 357 418
#     4  10  26  48  68 104 138 186 242 280 358 424
#
# _framework density 24.335725
#
# number of rings (size 3 to 8) (size 9 to 14) (size 15 to 20)
#    0.000    0.889    0.000    6.667    0.000   13.333 
#    0.000    5.556    0.000    0.000    0.000    0.000 
#    0.000    0.000    0.000    0.000    0.000    0.000 
#
# Total GULP energy -100232.908104 kJ/mol
# GULP energy per Si atom -5568.494895 kJ/mol
# Density = 2.428034 g / cm^3
# Si number density = 24.335725 Si / 1000 Ang^3
#
#
#
# Elastic Constant Matrix: (Units=GPa)
#
#
# Indices 1 2 3 4 5 6 
#
# 1 152.4584 37.7001 27.5480 0.0000 0.0000 0.0000
# 2 37.7001 59.3353 35.9652 0.0000 0.0000 0.0000
# 3 27.5480 35.9652 105.0344 0.0000 0.0000 0.0000
# 4 0.0000 0.0000 0.0000 5.8936 0.0000 0.0000
# 5 0.0000 0.0000 0.0000 0.0000 31.2193 0.0000
# 6 0.0000 0.0000 0.0000 0.0000 0.0000 5.3299
#
#
#
# Elastic Compliance Matrix: (Units=1/GPa)
#
#
# Indices 1 2 3 4 5 6 
#
# 1 0.007798 -0.004688 -0.000440 0.000000 0.000000 0.000000
# 2 -0.004688 0.024086 -0.007018 0.000000 0.000000 0.000000
# 3 -0.000440 -0.007018 0.012039 0.000000 0.000000 0.000000
# 4 0.000000 0.000000 0.000000 0.169676 0.000000 0.000000
# 5 0.000000 0.000000 0.000000 0.000000 0.032031 0.000000
# 6 0.000000 0.000000 0.000000 0.000000 0.000000 0.187620
#
#
# Mechanical properties :
#
#
# Convention : Reuss Voigt Hill
#
# Bulk Modulus (GPa) = 50.93890 57.69496 54.31693
# Shear Modulus (GPa) = 10.77389 22.86288 16.81839
#
# Velocity S-wave (km/s) = 2.10637 3.06842 2.63173
# Velocity P-wave (km/s) = 5.18584 6.02602 5.62165
#
# Compressibility (1/GPa) = 0.01963136
#
# Stress axis : x y z
#
# Youngs Moduli (GPa) = 128.23968 41.51853 83.06297
#
# Poissons Ratio (x) = 0.19463 0.03655
# Poissons Ratio (y) = 0.60117 0.58291
# Poissons Ratio (z) = 0.05643 0.29137
#
# Static dielectric constant tensor:
#      x y z
#    x 1.990550 0.000000 0.000000 
#    y 0.000000 2.091810 0.000000 
#    z 0.000000 0.000000 2.010520 
# 
# From -- ./inp_files/2121.got.cif
#   From: 2010.05.17/outbox.cif.g08.bks.cpg/sg37_2_cif.got.tgz:2121.got - 2010.06.03 17:53:42.
