data_PCOD9355570
_publ_section_title
;
Structure prediction by ZEFSAII (Michael W. Deem and Ramdas Pophale) SiO2 
 PCOD9355570
Probable space group: C C C 2
;
_chemical_formula_sum "Si O2"
_cell_formula_units_Z 40
_cell_length_a 22.555661
_cell_length_b 7.043976
_cell_length_c 9.362136
_cell_angle_alpha 90.000000
_cell_angle_beta 90.000000
_cell_angle_gamma 90.000000
_cell_volume 1487.470536
_symmetry_space_group_name_H-M "C C C 2"
_symmetry_group_IT_number 37
_symmetry_cell_setting 'orthorhombic'
loop_
_space_group_symop_operation_xyz
x,y,z
-x,-y,z
-x,y,1/2+z
x,-y,1/2+z
1/2+x,1/2+y,z
1/2-x,1/2-y,z
1/2-x,1/2+y,1/2+z
1/2+x,1/2-y,1/2+z
loop_
_atom_site_type_symbol
_atom_site_label
_atom_site_fract_x
_atom_site_fract_y
_atom_site_fract_z
Si Si1 0.701147 0.370405 0.661210
Si Si2 0.598341 0.758619 0.999814
Si Si3 0.646170 0.143783 0.917888
Si Si4 0.968341 0.311193 0.775737
Si Si5 0.500000 0.500000 0.066152
Si Si6 0.750000 0.750000 0.638832
O O1 0.750000 0.250000 0.577403
O O2 0.645836 0.393103 0.557426
O O3 0.681957 0.234100 0.787761
O O4 0.725521 0.567145 0.718231
O O5 0.574710 0.869164 0.141240
O O6 0.542650 0.625771 0.964216
O O7 0.629766 0.919766 0.908241
O O8 0.580478 0.241217 0.897798
O O9 0.692383 0.179429 0.046940
O O10 0.010360 0.167435 0.685679
O O11 0.000000 0.500000 0.828595
#
# Coordination Sequence:
#
# PCOD9355570 Si02
#       6
#     8   8   8   8   4   4
#     4  11  23  48  72 109 155 202 260 333 387 468
#     4   9  21  45  74 103 150 200 258 320 398 465
#     4  11  23  46  74 110 151 212 255 315 409 469
#     4   9  21  44  72 103 152 192 252 325 387 461
#     4   8  20  44  70 104 146 192 250 330 380 448
#     4  12  26  46  76 106 160 206 266 330 396 474
#
# _framework density 26.891289
#
# number of rings (size 3 to 8) (size 9 to 14) (size 15 to 20)
#    1.200    0.800    3.000    0.000    0.000    2.400 
#   12.600    0.000    0.000    0.000    0.000    0.000 
#    0.000    0.000    0.000    0.000    0.000    0.000 
#
# Total GULP energy -111346.716494 kJ/mol
# GULP energy per Si atom -5567.335825 kJ/mol
# Density = 2.683008 g / cm^3
# Si number density = 26.891289 Si / 1000 Ang^3
#
#
#
# Elastic Constant Matrix: (Units=GPa)
#
#
# Indices 1 2 3 4 5 6 
#
# 1 97.2731 48.9621 26.5052 0.0000 0.0000 0.0000
# 2 48.9621 205.5129 41.3803 0.0000 0.0000 0.0000
# 3 26.5052 41.3803 84.2428 0.0000 0.0000 0.0000
# 4 0.0000 0.0000 0.0000 -2.7282 0.0000 0.0000
# 5 0.0000 0.0000 0.0000 0.0000 18.8210 0.0000
# 6 0.0000 0.0000 0.0000 0.0000 0.0000 64.8699
#
#
#
# Elastic Compliance Matrix: (Units=1/GPa)
#
#
# Indices 1 2 3 4 5 6 
#
# 1 0.012201 -0.002368 -0.002676 0.000000 0.000000 0.000000
# 2 -0.002368 0.005860 -0.002133 0.000000 0.000000 0.000000
# 3 -0.002676 -0.002133 0.013760 0.000000 0.000000 0.000000
# 4 0.000000 0.000000 0.000000 -0.366540 0.000000 0.000000
# 5 0.000000 0.000000 0.000000 0.000000 0.053132 0.000000
# 6 0.000000 0.000000 0.000000 0.000000 0.000000 0.015415
#
#
# Mechanical properties :
#
#
# Convention : Reuss Voigt Hill
#
# Bulk Modulus (GPa) = 57.25033 68.96932 63.10983
# Shear Modulus (GPa) = -20.32559 34.20460 6.93950
#
# Velocity S-wave (km/s) = -2.75224 3.57032 1.60816
# Velocity P-wave (km/s) = 3.35201 6.53448 5.19304
#
# Compressibility (1/GPa) = 0.01746715
#
# Stress axis : x y z
#
# Youngs Moduli (GPa) = 81.95771 170.66050 72.67386
#
# Poissons Ratio (x) = 0.40415 0.19445
# Poissons Ratio (y) = 0.19409 0.15502
# Poissons Ratio (z) = 0.21929 0.36405
#
# Static dielectric constant tensor:
#      x y z
#    x 2.381700 0.000000 0.000000 
#    y 0.000000 2.129630 0.000000 
#    z 0.000000 0.000000 2.099870 
# 
# From -- ./inp_files/9000.got.cif
#   From: 2010.05.17/outbox.cif.g08.bks.cpg/sg37_5_cif.got.tgz:9000.got - 2010.06.03 17:53:42.
