data_PCOD9355141
_publ_section_title
;
Structure prediction by ZEFSAII (Michael W. Deem and Ramdas Pophale) SiO2 
 PCOD9355141
Probable space group: C C C 2
;
_chemical_formula_sum "Si O2"
_cell_formula_units_Z 48
_cell_length_a 8.511272
_cell_length_b 25.821922
_cell_length_c 9.476977
_cell_angle_alpha 90.000000
_cell_angle_beta 90.000000
_cell_angle_gamma 90.000000
_cell_volume 2082.825381
_symmetry_space_group_name_H-M "C C C 2"
_symmetry_group_IT_number 37
_symmetry_cell_setting 'orthorhombic'
loop_
_space_group_symop_operation_xyz
x,y,z
-x,-y,z
-x,y,1/2+z
x,-y,1/2+z
1/2+x,1/2+y,z
1/2-x,1/2-y,z
1/2-x,1/2+y,1/2+z
1/2+x,1/2-y,1/2+z
loop_
_atom_site_type_symbol
_atom_site_label
_atom_site_fract_x
_atom_site_fract_y
_atom_site_fract_z
Si Si1 0.965219 0.798219 0.715910
Si Si2 0.356515 0.649986 0.941498
Si Si3 0.874568 0.684332 0.814888
Si Si4 0.503971 0.135786 0.058105
Si Si5 0.347192 0.030847 0.101379
Si Si6 0.853950 0.035953 0.878853
O O1 0.948452 0.814485 0.554010
O O2 0.935733 0.738100 0.748927
O O3 0.808805 0.823422 0.785637
O O4 0.116106 0.821910 0.792496
O O5 0.177034 0.643389 0.991273
O O6 0.415038 0.591025 0.935781
O O7 0.969638 0.641846 0.724668
O O8 0.906047 0.680154 0.979670
O O9 0.415530 0.082354 0.028527
O O10 0.243083 0.045313 0.236149
O O11 0.500000 0.000000 0.153307
O O12 0.251470 0.994095 0.994353
O O13 0.000000 0.000000 0.843557
#
# Coordination Sequence:
#
# PCOD9355141 Si02
#       6
#     8   8   8   8   8   8
#     4  10  24  43  69  99 145 179 233 296 365 425
#     4  11  25  44  69 103 140 188 233 302 358 430
#     4  10  23  44  68 102 135 187 234 293 358 438
#     4  11  24  43  72  99 137 185 241 289 359 430
#     4  12  27  48  72 103 144 192 245 298 361 444
#     4  12  29  45  72 107 146 190 242 303 371 434
#
# _framework density 23.045618999999999
#
# number of rings (size 3 to 8) (size 9 to 14) (size 15 to 20)
#    0.000    1.000    1.667    3.000    9.333    3.333 
#    0.000    0.000    0.000    0.000    0.000    0.000 
#    0.000    0.000    0.000    0.000    0.000    0.000 
#
# Total GULP energy -134239.737986 kJ/mol
# GULP energy per Si atom -5593.322416 kJ/mol
# Density = 2.299317 g / cm^3
# Si number density = 23.045619 Si / 1000 Ang^3
#
#
#
# Elastic Constant Matrix: (Units=GPa)
#
#
# Indices 1 2 3 4 5 6 
#
# 1 51.7626 8.8601 2.8896 0.0000 0.0000 0.0000
# 2 8.8601 64.8075 -6.5730 0.0000 0.0000 0.0000
# 3 2.8896 -6.5730 54.7328 0.0000 0.0000 0.0000
# 4 0.0000 0.0000 0.0000 29.0531 0.0000 0.0000
# 5 0.0000 0.0000 0.0000 0.0000 17.2850 0.0000
# 6 0.0000 0.0000 0.0000 0.0000 0.0000 35.5319
#
#
#
# Elastic Compliance Matrix: (Units=1/GPa)
#
#
# Indices 1 2 3 4 5 6 
#
# 1 0.019886 -0.002860 -0.001393 0.000000 0.000000 0.000000
# 2 -0.002860 0.016032 0.002076 0.000000 0.000000 0.000000
# 3 -0.001393 0.002076 0.018593 0.000000 0.000000 0.000000
# 4 0.000000 0.000000 0.000000 0.034420 0.000000 0.000000
# 5 0.000000 0.000000 0.000000 0.000000 0.057854 0.000000
# 6 0.000000 0.000000 0.000000 0.000000 0.000000 0.028144
#
#
# Mechanical properties :
#
#
# Convention : Reuss Voigt Hill
#
# Bulk Modulus (GPa) = 19.93721 20.18404 20.06063
# Shear Modulus (GPa) = 25.50993 27.44909 26.47951
#
# Velocity S-wave (km/s) = 3.33067 3.45494 3.39337
# Velocity P-wave (km/s) = 4.84367 4.96919 4.90683
#
# Compressibility (1/GPa) = 0.05015746
#
# Stress axis : x y z
#
# Youngs Moduli (GPa) = 50.28591 62.37566 53.78229
#
# Poissons Ratio (x) = 0.17840 0.07494
# Poissons Ratio (y) = 0.14382 -0.11167
# Poissons Ratio (z) = 0.07007 -0.12951
#
# Static dielectric constant tensor:
#      x y z
#    x 1.857810 0.000000 0.000000 
#    y 0.000000 1.867400 0.000000 
#    z 0.000000 0.000000 1.823500 
# 
# From -- ./inp_files/2417.got.cif
#   From: 2010.05.17/outbox.cif.g08.bks.cpg/sg37_2_cif.got.tgz:2417.got - 2010.06.03 17:53:42.
