data_PCOD9355614
_publ_section_title
;
Structure prediction by ZEFSAII (Michael W. Deem and Ramdas Pophale) SiO2 
 PCOD9355614
Probable space group: C C C 2
;
_chemical_formula_sum "Si O2"
_cell_formula_units_Z 64
_cell_length_a 9.016314
_cell_length_b 16.951786
_cell_length_c 19.089550
_cell_angle_alpha 90.000000
_cell_angle_beta 90.000000
_cell_angle_gamma 90.000000
_cell_volume 2917.696940
_symmetry_space_group_name_H-M "C C C 2"
_symmetry_group_IT_number 37
_symmetry_cell_setting 'orthorhombic'
loop_
_space_group_symop_operation_xyz
x,y,z
-x,-y,z
-x,y,1/2+z
x,-y,1/2+z
1/2+x,1/2+y,z
1/2-x,1/2-y,z
1/2-x,1/2+y,1/2+z
1/2+x,1/2-y,1/2+z
loop_
_atom_site_type_symbol
_atom_site_label
_atom_site_fract_x
_atom_site_fract_y
_atom_site_fract_z
Si Si1 0.924378 0.241294 0.705750
Si Si2 0.372375 0.064201 0.354205
Si Si3 0.583054 0.721358 0.997508
Si Si4 0.878265 0.067469 0.733497
Si Si5 0.667241 0.028494 0.005489
Si Si6 0.623672 0.183483 0.089378
Si Si7 0.378480 0.568456 0.582166
Si Si8 0.421814 0.235703 0.371214
O O1 0.750000 0.250000 0.683905
O O2 0.963233 0.147897 0.708911
O O3 0.933136 0.255952 0.788157
O O4 0.025115 0.299853 0.659481
O O5 0.248638 0.076116 0.292779
O O6 0.285407 0.048055 0.426408
O O7 0.458100 0.143608 0.376584
O O8 0.500000 0.000000 0.336669
O O9 0.750000 0.750000 0.995584
O O10 0.482985 0.792176 0.025959
O O11 0.562936 0.652546 0.055179
O O12 0.521725 0.708076 0.919179
O O13 0.803524 0.054234 0.657901
O O14 0.000000 0.000000 0.749869
O O15 0.683223 0.098309 0.063617
O O16 0.500000 0.000000 0.002531
O O17 0.756515 0.951922 0.026214
O O18 0.750000 0.250000 0.092859
O O19 0.500000 0.500000 0.577860
O O20 0.250000 0.250000 0.391259
#
# Coordination Sequence:
#
# PCOD9355614 Si02
#       8
#     8   8   8   8   8   8   8   8
#     4  11  24  46  72 100 139 191 239 287 355 430
#     4  11  25  46  70 100 143 182 234 291 351 422
#     4  12  25  43  72 101 139 181 233 292 350 416
#     4  11  25  46  70 100 143 182 234 291 351 422
#     4  11  26  43  68 103 138 178 232 284 350 422
#     4  12  25  43  72 101 139 181 233 292 350 416
#     4  11  26  43  68 103 138 178 232 284 350 422
#     4  11  24  46  72 100 139 191 239 287 355 430
#
# _framework density 21.935108
#
# number of rings (size 3 to 8) (size 9 to 14) (size 15 to 20)
#    0.000    0.750    5.000    2.250    7.000    3.500 
#    0.000    0.000    0.000    0.000    0.000    0.000 
#    0.000    0.000    0.000    0.000    0.000    0.000 
#
# Total GULP energy -178332.661178 kJ/mol
# GULP energy per Si atom -5572.895662 kJ/mol
# Density = 2.188518 g / cm^3
# Si number density = 21.935108 Si / 1000 Ang^3
#
#
#
# Elastic Constant Matrix: (Units=GPa)
#
#
# Indices 1 2 3 4 5 6 
#
# 1 66.4956 12.3669 41.8749 0.0000 0.0000 0.0000
# 2 12.3669 91.5271 18.5156 0.0000 0.0000 0.0000
# 3 41.8749 18.5156 128.5300 0.0000 0.0000 0.0000
# 4 0.0000 0.0000 0.0000 26.5158 0.0000 0.0000
# 5 0.0000 0.0000 0.0000 0.0000 24.9437 0.0000
# 6 0.0000 0.0000 0.0000 0.0000 0.0000 32.7328
#
#
#
# Elastic Compliance Matrix: (Units=1/GPa)
#
#
# Indices 1 2 3 4 5 6 
#
# 1 0.019084 -0.001360 -0.006021 0.000000 0.000000 0.000000
# 2 -0.001360 0.011351 -0.001192 0.000000 0.000000 0.000000
# 3 -0.006021 -0.001192 0.009914 0.000000 0.000000 0.000000
# 4 0.000000 0.000000 0.000000 0.037713 0.000000 0.000000
# 5 0.000000 0.000000 0.000000 0.000000 0.040090 0.000000
# 6 0.000000 0.000000 0.000000 0.000000 0.000000 0.030550
#
#
# Mechanical properties :
#
#
# Convention : Reuss Voigt Hill
#
# Bulk Modulus (GPa) = 43.10255 48.00747 45.55501
# Shear Modulus (GPa) = 28.80467 31.09148 29.94808
#
# Velocity S-wave (km/s) = 3.62771 3.76896 3.69901
# Velocity P-wave (km/s) = 6.10244 6.39326 6.24954
#
# Compressibility (1/GPa) = 0.02320049
#
# Stress axis : x y z
#
# Youngs Moduli (GPa) = 52.40122 88.10058 100.86994
#
# Poissons Ratio (x) = 0.11985 0.60738
# Poissons Ratio (y) = 0.07129 0.12023
# Poissons Ratio (z) = 0.31553 0.10501
#
# Static dielectric constant tensor:
#      x y z
#    x 1.764620 0.000000 0.000000 
#    y 0.000000 1.976800 0.000000 
#    z 0.000000 0.000000 1.908730 
# 
# From -- ./inp_files/16524.got.cif
#   From: 2010.05.17/outbox.cif.g08.bks.cpg/sg37_9_cif.got.tgz:16524.got - 2010.06.03 17:53:42.
