data_PCOD9355293
_publ_section_title
;
Structure prediction by ZEFSAII (Michael W. Deem and Ramdas Pophale) SiO2 
 PCOD9355293
Probable space group: C C C 2
;
_chemical_formula_sum "Si O2"
_cell_formula_units_Z 36
_cell_length_a 14.519750
_cell_length_b 12.126271
_cell_length_c 9.144501
_cell_angle_alpha 90.000000
_cell_angle_beta 90.000000
_cell_angle_gamma 90.000000
_cell_volume 1610.076162
_symmetry_space_group_name_H-M "C C C 2"
_symmetry_group_IT_number 37
_symmetry_cell_setting 'orthorhombic'
loop_
_space_group_symop_operation_xyz
x,y,z
-x,-y,z
-x,y,1/2+z
x,-y,1/2+z
1/2+x,1/2+y,z
1/2-x,1/2-y,z
1/2-x,1/2+y,1/2+z
1/2+x,1/2-y,1/2+z
loop_
_atom_site_type_symbol
_atom_site_label
_atom_site_fract_x
_atom_site_fract_y
_atom_site_fract_z
Si Si1 0.523091 0.344950 0.163370
Si Si2 0.418128 0.908296 0.158855
Si Si3 0.696849 0.363213 0.671670
Si Si4 0.708507 0.008036 0.413815
Si Si5 0.000000 0.000000 0.415320
O O1 0.550911 0.218441 0.156336
O O2 0.412024 0.347527 0.163985
O O3 0.550709 0.413865 0.307490
O O4 0.554522 0.418708 0.025393
O O5 0.500000 0.000000 0.154263
O O6 0.361653 0.927546 0.307833
O O7 0.352564 0.931342 0.020419
O O8 0.750000 0.250000 0.695456
O O9 0.735223 0.414016 0.521758
O O10 0.726931 0.440611 0.804961
#
# Coordination Sequence:
#
# PCOD9355293 Si02
#       5
#     8   8   8   8   4
#     4  11  24  44  68  98 134 176 232 272 328 409
#     4  11  24  40  75 101 132 174 230 282 335 398
#     4  11  24  42  69  93 138 173 213 275 344 396
#     4  10  24  46  64 106 134 170 222 280 350 390
#     4  10  26  42  66  92 132 178 226 272 330 394
#
# _framework density 22.359190000000002
#
# number of rings (size 3 to 8) (size 9 to 14) (size 15 to 20)
#    0.000    1.333    0.000    4.667   12.444    0.000 
#    0.000    2.222    0.000    0.000    0.000    0.000 
#    0.000    0.000    0.000    0.000    0.000    0.000 
#
# Total GULP energy -100779.793571 kJ/mol
# GULP energy per Si atom -5598.877421 kJ/mol
# Density = 2.230830 g / cm^3
# Si number density = 22.359190 Si / 1000 Ang^3
#
#
#
# Elastic Constant Matrix: (Units=GPa)
#
#
# Indices 1 2 3 4 5 6 
#
# 1 112.5670 38.9409 24.8747 0.0000 0.0000 0.0000
# 2 38.9409 167.8455 38.0555 0.0000 0.0000 0.0000
# 3 24.8747 38.0555 145.7873 0.0000 0.0000 0.0000
# 4 0.0000 0.0000 0.0000 12.3044 0.0000 0.0000
# 5 0.0000 0.0000 0.0000 0.0000 29.5062 0.0000
# 6 0.0000 0.0000 0.0000 0.0000 0.0000 39.3597
#
#
#
# Elastic Compliance Matrix: (Units=1/GPa)
#
#
# Indices 1 2 3 4 5 6 
#
# 1 0.009837 -0.002021 -0.001151 0.000000 0.000000 0.000000
# 2 -0.002021 0.006748 -0.001417 0.000000 0.000000 0.000000
# 3 -0.001151 -0.001417 0.007425 0.000000 0.000000 0.000000
# 4 0.000000 0.000000 0.000000 0.081272 0.000000 0.000000
# 5 0.000000 0.000000 0.000000 0.000000 0.033891 0.000000
# 6 0.000000 0.000000 0.000000 0.000000 0.000000 0.025407
#
#
# Mechanical properties :
#
#
# Convention : Reuss Voigt Hill
#
# Bulk Modulus (GPa) = 67.41658 69.99356 68.70507
# Shear Modulus (GPa) = 27.97952 37.85597 32.91775
#
# Velocity S-wave (km/s) = 3.54130 4.11917 3.84112
# Velocity P-wave (km/s) = 6.85114 7.34817 7.10400
#
# Compressibility (1/GPa) = 0.01483315
#
# Stress axis : x y z
#
# Youngs Moduli (GPa) = 101.65539 148.19203 134.67219
#
# Poissons Ratio (x) = 0.29955 0.15498
# Poissons Ratio (y) = 0.20548 0.19077
# Poissons Ratio (z) = 0.11699 0.20992
#
# Static dielectric constant tensor:
#      x y z
#    x 1.862850 0.000000 0.000000 
#    y 0.000000 1.779720 0.000000 
#    z 0.000000 0.000000 1.826740 
# 
# From -- ./inp_files/3893.got.cif
#   From: 2010.05.17/outbox.cif.g08.bks.cpg/sg37_2_cif.got.tgz:3893.got - 2010.06.03 17:53:42.
