data_PCOD9355378
_publ_section_title
;
Structure prediction by ZEFSAII (Michael W. Deem and Ramdas Pophale) SiO2 
 PCOD9355378
Probable space group: C C C 2
;
_chemical_formula_sum "Si O2"
_cell_formula_units_Z 32
_cell_length_a 10.916028
_cell_length_b 14.077082
_cell_length_c 8.247297
_cell_angle_alpha 90.000000
_cell_angle_beta 90.000000
_cell_angle_gamma 90.000000
_cell_volume 1267.327667
_symmetry_space_group_name_H-M "C C C 2"
_symmetry_group_IT_number 37
_symmetry_cell_setting 'orthorhombic'
loop_
_space_group_symop_operation_xyz
x,y,z
-x,-y,z
-x,y,1/2+z
x,-y,1/2+z
1/2+x,1/2+y,z
1/2-x,1/2-y,z
1/2-x,1/2+y,1/2+z
1/2+x,1/2-y,1/2+z
loop_
_atom_site_type_symbol
_atom_site_label
_atom_site_fract_x
_atom_site_fract_y
_atom_site_fract_z
Si Si1 0.401156 0.918845 0.268810
Si Si2 0.610770 0.723944 0.663985
Si Si3 0.273656 0.460301 0.044908
Si Si4 0.584120 0.614600 0.343366
O O1 0.459015 0.821715 0.204734
O O2 0.318757 0.905894 0.427767
O O3 0.500000 0.000000 0.301995
O O4 0.309347 0.960541 0.133818
O O5 0.750000 0.750000 0.705790
O O6 0.606765 0.695771 0.476228
O O7 0.548640 0.640444 0.768378
O O8 0.334229 0.394453 0.181100
O O9 0.374313 0.520666 0.943916
#
# Coordination Sequence:
#
# PCOD9355378 Si02
#       4
#     8   8   8   8
#     4  11  25  49  81 120 166 213 275 341 426 493
#     4  12  29  52  78 125 166 212 281 344 420 492
#     4  10  25  52  83 115 160 225 273 337 423 499
#     4  11  28  51  86 114 166 214 281 343 412 500
#
# _framework density 25.249981999999999
#
# number of rings (size 3 to 8) (size 9 to 14) (size 15 to 20)
#    0.000    1.000    2.500    0.750   10.500    3.000 
#    0.000    0.000    0.000    0.000    0.000    0.000 
#    0.000    0.000    0.000    0.000    0.000    0.000 
#
# Total GULP energy -89575.375292 kJ/mol
# GULP energy per Si atom -5598.460956 kJ/mol
# Density = 2.519251 g / cm^3
# Si number density = 25.249982 Si / 1000 Ang^3
#
#
#
# Elastic Constant Matrix: (Units=GPa)
#
#
# Indices 1 2 3 4 5 6 
#
# 1 138.3643 41.3497 81.9695 0.0000 0.0000 0.0000
# 2 41.3497 129.1071 94.9471 0.0000 0.0000 0.0000
# 3 81.9695 94.9471 197.1363 0.0000 0.0000 0.0000
# 4 0.0000 0.0000 0.0000 42.6283 0.0000 0.0000
# 5 0.0000 0.0000 0.0000 0.0000 37.4732 0.0000
# 6 0.0000 0.0000 0.0000 0.0000 0.0000 36.4945
#
#
#
# Elastic Compliance Matrix: (Units=1/GPa)
#
#
# Indices 1 2 3 4 5 6 
#
# 1 0.009593 -0.000215 -0.003885 0.000000 0.000000 0.000000
# 2 -0.000215 0.011998 -0.005689 0.000000 0.000000 0.000000
# 3 -0.003885 -0.005689 0.009428 0.000000 0.000000 0.000000
# 4 0.000000 0.000000 0.000000 0.023459 0.000000 0.000000
# 5 0.000000 0.000000 0.000000 0.000000 0.026686 0.000000
# 6 0.000000 0.000000 0.000000 0.000000 0.000000 0.027401
#
#
# Mechanical properties :
#
#
# Convention : Reuss Voigt Hill
#
# Bulk Modulus (GPa) = 87.40942 100.12670 93.76806
# Shear Modulus (GPa) = 37.89056 39.74193 38.81625
#
# Velocity S-wave (km/s) = 3.87798 3.97159 3.92507
# Velocity P-wave (km/s) = 7.39895 7.79562 7.59987
#
# Compressibility (1/GPa) = 0.01144041
#
# Stress axis : x y z
#
# Youngs Moduli (GPa) = 104.23935 83.34397 106.06371
#
# Poissons Ratio (x) = 0.01794 0.41208
# Poissons Ratio (y) = 0.02244 0.60343
# Poissons Ratio (z) = 0.40500 0.47417
#
# Static dielectric constant tensor:
#      x y z
#    x 2.036410 0.000000 0.000000 
#    y 0.000000 2.040040 0.000000 
#    z 0.000000 0.000000 1.964190 
# 
# From -- ./inp_files/2621.got.cif
#   From: 2010.05.17/outbox.cif.g08.bks.cpg/sg37_2_cif.got.tgz:2621.got - 2010.06.03 17:53:42.
