data_PCOD9355343
_publ_section_title
;
Structure prediction by ZEFSAII (Michael W. Deem and Ramdas Pophale) SiO2 
 PCOD9355343
Probable space group: C C C 2
;
_chemical_formula_sum "Si O2"
_cell_formula_units_Z 36
_cell_length_a 13.024141
_cell_length_b 5.628234
_cell_length_c 19.977879
_cell_angle_alpha 90.000000
_cell_angle_beta 90.000000
_cell_angle_gamma 90.000000
_cell_volume 1464.436730
_symmetry_space_group_name_H-M "C C C 2"
_symmetry_group_IT_number 37
_symmetry_cell_setting 'orthorhombic'
loop_
_space_group_symop_operation_xyz
x,y,z
-x,-y,z
-x,y,1/2+z
x,-y,1/2+z
1/2+x,1/2+y,z
1/2-x,1/2-y,z
1/2-x,1/2+y,1/2+z
1/2+x,1/2-y,1/2+z
loop_
_atom_site_type_symbol
_atom_site_label
_atom_site_fract_x
_atom_site_fract_y
_atom_site_fract_z
Si Si1 0.250000 0.750000 0.884130
Si Si2 0.371058 0.709872 0.093791
Si Si3 0.000000 0.000000 0.710775
Si Si4 0.500000 0.000000 0.992940
Si Si5 0.643649 0.390636 0.473270
Si Si6 0.218783 0.987470 0.757104
O O1 0.334827 0.628193 0.930335
O O2 0.274615 0.951602 0.828881
O O3 0.250000 0.750000 0.104293
O O4 0.443848 0.682582 0.158702
O O5 0.412827 0.909022 0.043947
O O6 0.379072 0.470835 0.049165
O O7 0.096587 0.950137 0.758485
O O8 0.552790 0.786136 0.952649
O O9 0.750000 0.250000 0.469698
O O10 0.250000 0.750000 0.715116
O O11 0.250000 0.250000 0.736361
#
# Coordination Sequence:
#
# PCOD9355343 Si02
#       6
#     4   8   4   4   8   8
#     4  10  24  50  80 108 164 200 272 332 400 470
#     4  12  25  43  70 116 152 199 248 324 393 476
#     4  12  26  48  76 106 156 204 272 314 404 476
#     4  12  24  42  74 110 156 200 260 308 426 466
#     4  12  22  45  74 112 154 201 251 332 398 483
#     4  10  26  52  77 110 149 206 264 331 385 463
#
# _framework density 24.582830999999999
#
# number of rings (size 3 to 8) (size 9 to 14) (size 15 to 20)
#    0.667    0.000    5.556    1.333    0.000    5.333 
#    8.000    0.000    0.000    0.000    0.000    0.000 
#    0.000    0.000    0.000    0.000    0.000    0.000 
#
# Total GULP energy -100308.853977 kJ/mol
# GULP energy per Si atom -5572.714110 kJ/mol
# Density = 2.452688 g / cm^3
# Si number density = 24.582831 Si / 1000 Ang^3
#
#
#
# Elastic Constant Matrix: (Units=GPa)
#
#
# Indices 1 2 3 4 5 6 
#
# 1 194.4153 80.3303 24.7476 0.0000 0.0000 0.0000
# 2 80.3303 145.8909 33.1631 0.0000 0.0000 0.0000
# 3 24.7476 33.1631 88.1657 0.0000 0.0000 0.0000
# 4 0.0000 0.0000 0.0000 44.1390 0.0000 0.0000
# 5 0.0000 0.0000 0.0000 0.0000 15.2911 0.0000
# 6 0.0000 0.0000 0.0000 0.0000 0.0000 54.6590
#
#
#
# Elastic Compliance Matrix: (Units=1/GPa)
#
#
# Indices 1 2 3 4 5 6 
#
# 1 0.006682 -0.003557 -0.000538 0.000000 0.000000 0.000000
# 2 -0.003557 0.009389 -0.002533 0.000000 0.000000 0.000000
# 3 -0.000538 -0.002533 0.012446 0.000000 0.000000 0.000000
# 4 0.000000 0.000000 0.000000 0.022656 0.000000 0.000000
# 5 0.000000 0.000000 0.000000 0.000000 0.065397 0.000000
# 6 0.000000 0.000000 0.000000 0.000000 0.000000 0.018295
#
#
# Mechanical properties :
#
#
# Convention : Reuss Voigt Hill
#
# Bulk Modulus (GPa) = 65.52560 78.32824 71.92692
# Shear Modulus (GPa) = 32.63556 42.16656 37.40106
#
# Velocity S-wave (km/s) = 3.64754 4.14609 3.90478
# Velocity P-wave (km/s) = 6.66726 7.40623 7.04644
#
# Compressibility (1/GPa) = 0.01526121
#
# Stress axis : x y z
#
# Youngs Moduli (GPa) = 149.66196 106.51059 80.34700
#
# Poissons Ratio (x) = 0.37884 0.04320
# Poissons Ratio (y) = 0.53233 0.20353
# Poissons Ratio (z) = 0.08046 0.26981
#
# Static dielectric constant tensor:
#      x y z
#    x 1.997810 0.000000 0.000000 
#    y 0.000000 2.050810 0.000000 
#    z 0.000000 0.000000 1.969710 
# 
# From -- ./inp_files/18613.got.cif
#   From: 2010.05.17/outbox.cif.g08.bks.cpg/sg37_10_cif.got.tgz:18613.got - 2010.06.03 17:53:42.
