data_PCOD9355263
_publ_section_title
;
Structure prediction by ZEFSAII (Michael W. Deem and Ramdas Pophale) SiO2 
 PCOD9355263
Probable space group: C C C 2
;
_chemical_formula_sum "Si O2"
_cell_formula_units_Z 52
_cell_length_a 5.036589
_cell_length_b 27.703774
_cell_length_c 15.553901
_cell_angle_alpha 90.000000
_cell_angle_beta 90.000000
_cell_angle_gamma 90.000000
_cell_volume 2170.275055
_symmetry_space_group_name_H-M "C C C 2"
_symmetry_group_IT_number 37
_symmetry_cell_setting 'orthorhombic'
loop_
_space_group_symop_operation_xyz
x,y,z
-x,-y,z
-x,y,1/2+z
x,-y,1/2+z
1/2+x,1/2+y,z
1/2-x,1/2-y,z
1/2-x,1/2+y,1/2+z
1/2+x,1/2-y,1/2+z
loop_
_atom_site_type_symbol
_atom_site_label
_atom_site_fract_x
_atom_site_fract_y
_atom_site_fract_z
Si Si1 0.385838 0.110656 0.792320
Si Si2 0.124736 0.051954 0.262344
Si Si3 0.838300 0.703028 0.892863
Si Si4 0.098630 0.868616 0.508432
Si Si5 0.250000 0.750000 0.028329
Si Si6 0.385017 0.846288 0.103652
Si Si7 0.259617 0.533318 0.559683
O O1 0.593012 0.067073 0.800907
O O2 0.471909 0.157715 0.846470
O O3 0.388296 0.130709 0.695795
O O4 0.087528 0.090476 0.797773
O O5 0.171434 0.051733 0.157669
O O6 0.000000 0.000000 0.281779
O O7 0.750000 0.750000 0.838749
O O8 0.597724 0.672163 0.935278
O O9 0.022534 0.728893 0.964488
O O10 0.310786 0.844796 0.574249
O O11 0.239091 0.920413 0.496993
O O12 0.805039 0.878313 0.542527
O O13 0.233728 0.795507 0.092515
O O14 0.500000 0.500000 0.531732
O O15 0.000000 0.500000 0.563742
#
# Coordination Sequence:
#
# PCOD9355263 Si02
#       7
#     8   8   8   8   4   8   8
#     4  12  24  41  68 106 134 175 233 285 329 418
#     4  11  23  42  67  98 138 175 220 287 350 397
#     4  11  26  45  68  95 142 185 224 279 359 407
#     4  11  22  42  65  94 134 174 221 272 337 403
#     4  10  24  44  68  90 136 192 218 276 348 400
#     4  11  21  40  65  96 130 171 234 271 326 393
#     4  11  20  36  66  97 128 165 219 270 325 390
#
# _framework density 23.960094999999999
#
# number of rings (size 3 to 8) (size 9 to 14) (size 15 to 20)
#    0.000    0.923    4.615    3.231    3.231    0.000 
#    0.000    2.308    0.000    0.000    0.000    0.000 
#    0.000    0.000    0.000    0.000    0.000    0.000 
#
# Total GULP energy -144956.513268 kJ/mol
# GULP energy per Si atom -5575.250510 kJ/mol
# Density = 2.390556 g / cm^3
# Si number density = 23.960095 Si / 1000 Ang^3
#
#
#
# Elastic Constant Matrix: (Units=GPa)
#
#
# Indices 1 2 3 4 5 6 
#
# 1 128.4334 32.7846 13.7576 0.0000 0.0000 0.0000
# 2 32.7846 171.8098 24.3655 0.0000 0.0000 0.0000
# 3 13.7576 24.3655 28.0140 0.0000 0.0000 0.0000
# 4 0.0000 0.0000 0.0000 37.6335 0.0000 0.0000
# 5 0.0000 0.0000 0.0000 0.0000 8.7329 0.0000
# 6 0.0000 0.0000 0.0000 0.0000 0.0000 44.5396
#
#
#
# Elastic Compliance Matrix: (Units=1/GPa)
#
#
# Indices 1 2 3 4 5 6 
#
# 1 0.008418 -0.001164 -0.003122 0.000000 0.000000 0.000000
# 2 -0.001164 0.006800 -0.005343 0.000000 0.000000 0.000000
# 3 -0.003122 -0.005343 0.041877 0.000000 0.000000 0.000000
# 4 0.000000 0.000000 0.000000 0.026572 0.000000 0.000000
# 5 0.000000 0.000000 0.000000 0.000000 0.114510 0.000000
# 6 0.000000 0.000000 0.000000 0.000000 0.000000 0.022452
#
#
# Mechanical properties :
#
#
# Convention : Reuss Voigt Hill
#
# Bulk Modulus (GPa) = 26.42880 52.23029 39.32955
# Shear Modulus (GPa) = 19.80217 35.33784 27.57000
#
# Velocity S-wave (km/s) = 2.87795 3.84456 3.39582
# Velocity P-wave (km/s) = 4.70082 6.44622 5.64143
#
# Compressibility (1/GPa) = 0.03783751
#
# Stress axis : x y z
#
# Youngs Moduli (GPa) = 118.79948 147.05558 23.87961
#
# Poissons Ratio (x) = 0.17110 0.07455
# Poissons Ratio (y) = 0.13822 0.12759
# Poissons Ratio (z) = 0.37087 0.78573
#
# Static dielectric constant tensor:
#      x y z
#    x 1.934910 0.000000 0.000000 
#    y 0.000000 2.002740 0.000000 
#    z 0.000000 0.000000 2.009940 
# 
# From -- ./inp_files/13994.got.cif
#   From: 2010.05.17/outbox.cif.g08.bks.cpg/sg37_7_cif.got.tgz:13994.got - 2010.06.03 17:53:42.
