data_PCOD9355274
_publ_section_title
;
Structure prediction by ZEFSAII (Michael W. Deem and Ramdas Pophale) SiO2 
 PCOD9355274
Probable space group: C C C 2
;
_chemical_formula_sum "Si O2"
_cell_formula_units_Z 48
_cell_length_a 17.579873
_cell_length_b 9.009625
_cell_length_c 14.389232
_cell_angle_alpha 90.000000
_cell_angle_beta 90.000000
_cell_angle_gamma 90.000000
_cell_volume 2279.082589
_symmetry_space_group_name_H-M "C C C 2"
_symmetry_group_IT_number 37
_symmetry_cell_setting 'orthorhombic'
loop_
_space_group_symop_operation_xyz
x,y,z
-x,-y,z
-x,y,1/2+z
x,-y,1/2+z
1/2+x,1/2+y,z
1/2-x,1/2-y,z
1/2-x,1/2+y,1/2+z
1/2+x,1/2-y,1/2+z
loop_
_atom_site_type_symbol
_atom_site_label
_atom_site_fract_x
_atom_site_fract_y
_atom_site_fract_z
Si Si1 0.500000 0.500000 0.595881
Si Si2 0.815307 0.978493 0.464143
Si Si3 0.250000 0.750000 0.735082
Si Si4 0.457479 0.295768 0.427379
Si Si5 0.877969 0.780161 0.847907
Si Si6 0.653623 0.938554 0.373351
Si Si7 0.342182 0.474580 0.671514
O O1 0.486094 0.361062 0.526264
O O2 0.428195 0.529039 0.659401
O O3 0.883883 0.899564 0.406715
O O4 0.730315 0.945721 0.434029
O O5 0.823915 0.917469 0.568092
O O6 0.836013 0.148787 0.438752
O O7 0.317919 0.829026 0.792307
O O8 0.287192 0.613115 0.682967
O O9 0.531175 0.304692 0.361504
O O10 0.419023 0.134200 0.423822
O O11 0.864111 0.604962 0.841805
O O12 0.842345 0.861915 0.757738
#
# Coordination Sequence:
#
# PCOD9355274 Si02
#       7
#     4   8   4   8   8   8   8
#     4  10  24  44  74 100 134 194 234 270 354 430
#     4  11  23  47  72  98 140 186 233 281 354 418
#     4  12  26  44  66 104 134 184 232 286 350 420
#     4  11  21  46  71 102 132 186 228 280 351 417
#     4  12  24  44  73 102 140 182 237 287 352 419
#     4  12  25  44  71 104 142 178 231 299 351 409
#     4  11  26  43  72 100 138 187 235 285 346 423
#
# _framework density 21.061107
#
# number of rings (size 3 to 8) (size 9 to 14) (size 15 to 20)
#    0.000    0.667    6.667    1.000    7.000    0.000 
#   12.000    0.000    0.000    0.000    0.000    0.000 
#    0.000    0.000    0.000    0.000    0.000    0.000 
#
# Total GULP energy -133850.074030 kJ/mol
# GULP energy per Si atom -5577.086418 kJ/mol
# Density = 2.101317 g / cm^3
# Si number density = 21.061107 Si / 1000 Ang^3
#
#
#
# Elastic Constant Matrix: (Units=GPa)
#
#
# Indices 1 2 3 4 5 6 
#
# 1 110.1727 21.2533 31.1731 0.0000 0.0000 0.0000
# 2 21.2533 109.4980 29.7845 0.0000 0.0000 0.0000
# 3 31.1731 29.7845 64.6083 0.0000 0.0000 0.0000
# 4 0.0000 0.0000 0.0000 1106.6065 0.0000 0.0000
# 5 0.0000 0.0000 0.0000 0.0000 -42.1728 0.0000
# 6 0.0000 0.0000 0.0000 0.0000 0.0000 43.5103
#
#
#
# Elastic Compliance Matrix: (Units=1/GPa)
#
#
# Indices 1 2 3 4 5 6 
#
# 1 0.010567 -0.000759 -0.004748 0.000000 0.000000 0.000000
# 2 -0.000759 0.010497 -0.004473 0.000000 0.000000 0.000000
# 3 -0.004748 -0.004473 0.019831 0.000000 0.000000 0.000000
# 4 0.000000 0.000000 0.000000 0.000904 0.000000 0.000000
# 5 0.000000 0.000000 0.000000 0.000000 -0.023712 0.000000
# 6 0.000000 0.000000 0.000000 0.000000 0.000000 0.022983
#
#
# Mechanical properties :
#
#
# Convention : Reuss Voigt Hill
#
# Bulk Modulus (GPa) = 47.77013 49.85566 48.81290
# Shear Modulus (GPa) = 73.52195 235.06001 154.29098
#
# Velocity S-wave (km/s) = 5.91478 10.57596 8.56842
# Velocity P-wave (km/s) = 8.32929 13.14754 11.00534
#
# Compressibility (1/GPa) = 0.02093358
#
# Stress axis : x y z
#
# Youngs Moduli (GPa) = 94.63725 95.26942 50.42679
#
# Poissons Ratio (x) = 0.07235 0.23944
# Poissons Ratio (y) = 0.07187 0.22553
# Poissons Ratio (z) = 0.44936 0.42609
#
# Static dielectric constant tensor:
#      x y z
#    x 1.846360 0.000000 0.000000 
#    y 0.000000 1.790030 0.000000 
#    z 0.000000 0.000000 1.778230 
# 
# From -- ./inp_files/10643.got.cif
#   From: 2010.05.17/outbox.cif.g08.bks.cpg/sg37_6_cif.got.tgz:10643.got - 2010.06.03 17:53:42.
