data_PCOD9355364
_publ_section_title
;
Structure prediction by ZEFSAII (Michael W. Deem and Ramdas Pophale) SiO2 
 PCOD9355364
Probable space group: C C C 2
;
_chemical_formula_sum "Si O2"
_cell_formula_units_Z 40
_cell_length_a 9.453899
_cell_length_b 16.445092
_cell_length_c 10.190535
_cell_angle_alpha 90.000000
_cell_angle_beta 90.000000
_cell_angle_gamma 90.000000
_cell_volume 1584.324910
_symmetry_space_group_name_H-M "C C C 2"
_symmetry_group_IT_number 37
_symmetry_cell_setting 'orthorhombic'
loop_
_space_group_symop_operation_xyz
x,y,z
-x,-y,z
-x,y,1/2+z
x,-y,1/2+z
1/2+x,1/2+y,z
1/2-x,1/2-y,z
1/2-x,1/2+y,1/2+z
1/2+x,1/2-y,1/2+z
loop_
_atom_site_type_symbol
_atom_site_label
_atom_site_fract_x
_atom_site_fract_y
_atom_site_fract_z
Si Si1 0.839604 0.135179 0.927750
Si Si2 0.819568 0.666694 0.701597
Si Si3 0.095704 0.760899 0.704991
Si Si4 0.585468 0.569994 0.072079
Si Si5 0.665871 0.985110 0.897829
O O1 0.882416 0.219541 0.858776
O O2 0.735132 0.071767 0.853365
O O3 0.761153 0.149974 0.065741
O O4 0.986371 0.088062 0.946430
O O5 0.750000 0.750000 0.760148
O O6 0.817487 0.587839 0.793506
O O7 0.982020 0.692943 0.677182
O O8 0.250000 0.750000 0.645168
O O9 0.059994 0.848728 0.651141
O O10 0.500000 0.500000 0.145269
O O11 0.739541 0.543217 0.023346
O O12 0.500000 0.000000 0.926133
#
# Coordination Sequence:
#
# PCOD9355364 Si02
#       5
#     8   8   8   8   8
#     4  11  26  49  77 110 157 209 266 322 405 497
#     4  12  26  50  80 114 158 206 266 343 407 479
#     4  12  27  44  76 112 155 197 264 329 409 467
#     4  10  25  46  75 107 150 209 258 314 398 493
#     4  11  27  48  80 111 158 204 268 325 411 489
#
# _framework density 25.247347000000001
#
# number of rings (size 3 to 8) (size 9 to 14) (size 15 to 20)
#    0.000    0.800    2.000    3.000    8.400    4.000 
#    0.000    0.000    0.000    0.000    0.000    0.000 
#    0.000    0.000    0.000    0.000    0.000    0.000 
#
# Total GULP energy -111844.743354 kJ/mol
# GULP energy per Si atom -5592.237168 kJ/mol
# Density = 2.518988 g / cm^3
# Si number density = 25.247347 Si / 1000 Ang^3
#
#
#
# Elastic Constant Matrix: (Units=GPa)
#
#
# Indices 1 2 3 4 5 6 
#
# 1 170.6891 33.1001 39.4740 0.0000 0.0000 0.0000
# 2 33.1001 97.6471 38.2711 0.0000 0.0000 0.0000
# 3 39.4740 38.2711 90.8781 0.0000 0.0000 0.0000
# 4 0.0000 0.0000 0.0000 -312.5326 0.0000 0.0000
# 5 0.0000 0.0000 0.0000 0.0000 21.7605 0.0000
# 6 0.0000 0.0000 0.0000 0.0000 0.0000 58.1137
#
#
#
# Elastic Compliance Matrix: (Units=1/GPa)
#
#
# Indices 1 2 3 4 5 6 
#
# 1 0.006657 -0.001345 -0.002325 0.000000 0.000000 0.000000
# 2 -0.001345 0.012537 -0.004695 0.000000 0.000000 0.000000
# 3 -0.002325 -0.004695 0.013991 0.000000 0.000000 0.000000
# 4 0.000000 0.000000 0.000000 -0.003200 0.000000 0.000000
# 5 0.000000 0.000000 0.000000 0.000000 0.045955 0.000000
# 6 0.000000 0.000000 0.000000 0.000000 0.000000 0.017208
#
#
# Mechanical properties :
#
#
# Convention : Reuss Voigt Hill
#
# Bulk Modulus (GPa) = 60.77604 64.54497 62.66050
# Shear Modulus (GPa) = 43.34086 -29.97374 6.68356
#
# Velocity S-wave (km/s) = 4.14774 -3.44932 1.62880
# Velocity P-wave (km/s) = 6.86024 3.12359 5.33009
#
# Compressibility (1/GPa) = 0.01645385
#
# Stress axis : x y z
#
# Youngs Moduli (GPa) = 150.21325 79.76212 71.47439
#
# Poissons Ratio (x) = 0.10731 0.16618
# Poissons Ratio (y) = 0.20209 0.33560
# Poissons Ratio (z) = 0.34926 0.37451
#
# Static dielectric constant tensor:
#      x y z
#    x 2.091060 0.000000 0.000000 
#    y 0.000000 3.199440 0.000000 
#    z 0.000000 0.000000 2.137010 
# 
# From -- ./inp_files/6116.got.cif
#   From: 2010.05.17/outbox.cif.g08.bks.cpg/sg37_4_cif.got.tgz:6116.got - 2010.06.03 17:53:42.
