data_PCOD9355239
_publ_section_title
;
Structure prediction by ZEFSAII (Michael W. Deem and Ramdas Pophale) SiO2 
 PCOD9355239
Probable space group: C C C 2
;
_chemical_formula_sum "Si O2"
_cell_formula_units_Z 40
_cell_length_a 26.835323
_cell_length_b 5.290200
_cell_length_c 13.129837
_cell_angle_alpha 90.000000
_cell_angle_beta 90.000000
_cell_angle_gamma 90.000000
_cell_volume 1863.967144
_symmetry_space_group_name_H-M "C C C 2"
_symmetry_group_IT_number 37
_symmetry_cell_setting 'orthorhombic'
loop_
_space_group_symop_operation_xyz
x,y,z
-x,-y,z
-x,y,1/2+z
x,-y,1/2+z
1/2+x,1/2+y,z
1/2-x,1/2-y,z
1/2-x,1/2+y,1/2+z
1/2+x,1/2-y,1/2+z
loop_
_atom_site_type_symbol
_atom_site_label
_atom_site_fract_x
_atom_site_fract_y
_atom_site_fract_z
Si Si1 0.250000 0.750000 0.905270
Si Si2 0.829505 0.294859 0.725542
Si Si3 0.250000 0.250000 0.046147
Si Si4 0.966887 0.248614 0.473130
Si Si5 0.923717 0.594814 0.768897
Si Si6 0.570684 0.592033 0.188115
O O1 0.203508 0.726062 0.826922
O O2 0.254920 0.499614 0.975479
O O3 0.795843 0.293442 0.624790
O O4 0.867404 0.530368 0.735279
O O5 0.870799 0.075897 0.715523
O O6 0.929115 0.298183 0.381181
O O7 0.937283 0.195397 0.576199
O O8 0.000000 0.500000 0.483780
O O9 0.000000 0.000000 0.453285
O O10 0.948468 0.316660 0.761407
O O11 0.948538 0.809147 0.698810
#
# Coordination Sequence:
#
# PCOD9355239 Si02
#       6
#     4   8   4   8   8   8
#     4  11  26  41  72 100 140 175 224 287 326 398
#     4   9  26  44  69  99 136 178 232 258 350 403
#     4  11  26  43  70 104 138 175 222 285 326 400
#     4  12  26  43  67 102 133 174 232 278 342 399
#     4  10  24  44  67  94 133 177 223 276 333 407
#     4  10  24  42  69  93 134 176 223 274 333 405
#
# _framework density 21.459605
#
# number of rings (size 3 to 8) (size 9 to 14) (size 15 to 20)
#    1.200    0.400    0.000    2.400    8.400    6.400 
#    0.000    0.000    0.000    0.000    0.000    0.000 
#    0.000    0.000    0.000    0.000    0.000    0.000 
#
# Total GULP energy -111551.803330 kJ/mol
# GULP energy per Si atom -5577.590167 kJ/mol
# Density = 2.141076 g / cm^3
# Si number density = 21.459605 Si / 1000 Ang^3
#
#
#
# Elastic Constant Matrix: (Units=GPa)
#
#
# Indices 1 2 3 4 5 6 
#
# 1 84.1730 56.4755 43.1768 0.0000 0.0000 0.0000
# 2 56.4755 187.9053 61.8662 0.0000 0.0000 0.0000
# 3 43.1768 61.8662 143.5660 0.0000 0.0000 0.0000
# 4 0.0000 0.0000 0.0000 79.9330 0.0000 0.0000
# 5 0.0000 0.0000 0.0000 0.0000 27.6997 0.0000
# 6 0.0000 0.0000 0.0000 0.0000 0.0000 25.8134
#
#
#
# Elastic Compliance Matrix: (Units=1/GPa)
#
#
# Indices 1 2 3 4 5 6 
#
# 1 0.016053 -0.003770 -0.003203 0.000000 0.000000 0.000000
# 2 -0.003770 0.007087 -0.001920 0.000000 0.000000 0.000000
# 3 -0.003203 -0.001920 0.008756 0.000000 0.000000 0.000000
# 4 0.000000 0.000000 0.000000 0.012510 0.000000 0.000000
# 5 0.000000 0.000000 0.000000 0.000000 0.036102 0.000000
# 6 0.000000 0.000000 0.000000 0.000000 0.000000 0.038740
#
#
# Mechanical properties :
#
#
# Convention : Reuss Voigt Hill
#
# Bulk Modulus (GPa) = 70.87522 82.07569 76.47545
# Shear Modulus (GPa) = 35.27634 43.63093 39.45364
#
# Velocity S-wave (km/s) = 4.05884 4.51396 4.29243
# Velocity P-wave (km/s) = 7.42055 8.09304 7.76408
#
# Compressibility (1/GPa) = 0.01410930
#
# Stress axis : x y z
#
# Youngs Moduli (GPa) = 62.29388 141.10032 114.20419
#
# Poissons Ratio (x) = 0.53197 0.36582
# Poissons Ratio (y) = 0.23486 0.21929
# Poissons Ratio (z) = 0.19954 0.27094
#
# Static dielectric constant tensor:
#      x y z
#    x 3.511280 0.000000 0.000000 
#    y 0.000000 1.771890 0.000000 
#    z 0.000000 0.000000 1.757570 
# 
# From -- ./inp_files/9144.got.cif
#   From: 2010.05.17/outbox.cif.g08.bks.cpg/sg37_5_cif.got.tgz:9144.got - 2010.06.03 17:53:42.
