data_PCOD9355747
_publ_section_title
;
Structure prediction by ZEFSAII (Michael W. Deem and Ramdas Pophale) SiO2 
 PCOD9355747
Probable space group: C C C 2
;
_chemical_formula_sum "Si O2"
_cell_formula_units_Z 28
_cell_length_a 15.520207
_cell_length_b 7.429014
_cell_length_c 9.873539
_cell_angle_alpha 90.000000
_cell_angle_beta 90.000000
_cell_angle_gamma 90.000000
_cell_volume 1138.417418
_symmetry_space_group_name_H-M "C C C 2"
_symmetry_group_IT_number 37
_symmetry_cell_setting 'orthorhombic'
loop_
_space_group_symop_operation_xyz
x,y,z
-x,-y,z
-x,y,1/2+z
x,-y,1/2+z
1/2+x,1/2+y,z
1/2-x,1/2-y,z
1/2-x,1/2+y,1/2+z
1/2+x,1/2-y,1/2+z
loop_
_atom_site_type_symbol
_atom_site_label
_atom_site_fract_x
_atom_site_fract_y
_atom_site_fract_z
Si Si1 0.500000 0.000000 0.593230
Si Si2 0.345465 0.077503 0.272759
Si Si3 0.433425 0.655697 0.927058
Si Si4 0.237794 0.041946 0.018824
O O1 0.420564 0.027272 0.696660
O O2 0.513575 0.822295 0.498091
O O3 0.391237 0.269754 0.288804
O O4 0.310571 0.047841 0.423585
O O5 0.266246 0.044876 0.174163
O O6 0.500000 0.500000 0.898361
O O7 0.352525 0.559484 0.002664
O O8 0.250000 0.250000 0.974894
#
# Coordination Sequence:
#
# PCOD9355747 Si02
#       4
#     4   8   8   8
#     4  12  28  52  82 122 164 216 274 352 408 508
#     4  12  28  50  80 118 162 211 272 342 404 490
#     4  12  29  53  83 120 165 221 275 340 423 496
#     4  12  28  49  82 117 160 212 274 335 410 492
#
# _framework density 24.595551
#
# number of rings (size 3 to 8) (size 9 to 14) (size 15 to 20)
#    0.000    0.000    2.857    5.143    8.000    3.429 
#    0.000    0.000    0.000    0.000    0.000    0.000 
#    0.000    0.000    0.000    0.000    0.000    0.000 
#
# Total GULP energy -78103.546753 kJ/mol
# GULP energy per Si atom -5578.824768 kJ/mol
# Density = 2.453957 g / cm^3
# Si number density = 24.595551 Si / 1000 Ang^3
#
#
#
# Elastic Constant Matrix: (Units=GPa)
#
#
# Indices 1 2 3 4 5 6 
#
# 1 57.1376 6.3997 9.1250 0.0000 0.0000 0.0000
# 2 6.3997 112.2128 8.3730 0.0000 0.0000 0.0000
# 3 9.1250 8.3730 98.1815 0.0000 0.0000 0.0000
# 4 0.0000 0.0000 0.0000 32.1217 0.0000 0.0000
# 5 0.0000 0.0000 0.0000 0.0000 31.7417 0.0000
# 6 0.0000 0.0000 0.0000 0.0000 0.0000 50.5879
#
#
#
# Elastic Compliance Matrix: (Units=1/GPa)
#
#
# Indices 1 2 3 4 5 6 
#
# 1 0.017855 -0.000900 -0.001583 0.000000 0.000000 0.000000
# 2 -0.000900 0.009014 -0.000685 0.000000 0.000000 0.000000
# 3 -0.001583 -0.000685 0.010391 0.000000 0.000000 0.000000
# 4 0.000000 0.000000 0.000000 0.031132 0.000000 0.000000
# 5 0.000000 0.000000 0.000000 0.000000 0.031504 0.000000
# 6 0.000000 0.000000 0.000000 0.000000 0.000000 0.019768
#
#
# Mechanical properties :
#
#
# Convention : Reuss Voigt Hill
#
# Bulk Modulus (GPa) = 32.33728 35.03638 33.68683
# Shear Modulus (GPa) = 36.68176 39.13253 37.90715
#
# Velocity S-wave (km/s) = 3.86605 3.99311 3.93010
# Velocity P-wave (km/s) = 5.75366 5.96120 5.85835
#
# Compressibility (1/GPa) = 0.03092406
#
# Stress axis : x y z
#
# Youngs Moduli (GPa) = 56.00614 110.93736 96.23951
#
# Poissons Ratio (x) = 0.09987 0.15232
# Poissons Ratio (y) = 0.05042 0.06593
# Poissons Ratio (z) = 0.08864 0.07600
#
# Static dielectric constant tensor:
#      x y z
#    x 2.070670 0.000000 0.000000 
#    y 0.000000 2.080440 0.000000 
#    z 0.000000 0.000000 1.932850 
# 
# From -- ./inp_files/2027.got.cif
#   From: 2010.05.17/outbox.cif.g08.bks.cpg/sg37_2_cif.got.tgz:2027.got - 2010.06.03 17:53:42.
