data_PCOD9355866
_publ_section_title
;
Structure prediction by ZEFSAII (Michael W. Deem and Ramdas Pophale) SiO2 
 PCOD9355866
Probable space group: A M M 2
;
_chemical_formula_sum "Si O2"
_cell_formula_units_Z 64
_cell_length_a 7.715398
_cell_length_b 15.032590
_cell_length_c 29.254501
_cell_angle_alpha 90.000000
_cell_angle_beta 90.000000
_cell_angle_gamma 90.000000
_cell_volume 3393.007670
_symmetry_space_group_name_H-M "A M M 2"
_symmetry_group_IT_number 38
_symmetry_cell_setting 'orthorhombic'
loop_
_space_group_symop_operation_xyz
x,y,z
-x,-y,z
-x,y,z
x,-y,z
x,1/2+y,1/2+z
-x,1/2-y,1/2+z
-x,1/2+y,1/2+z
x,1/2-y,1/2+z
loop_
_atom_site_type_symbol
_atom_site_label
_atom_site_fract_x
_atom_site_fract_y
_atom_site_fract_z
Si Si1 0.788872 0.396923 0.524200
Si Si2 0.291404 0.399483 0.068549
Si Si3 0.211659 0.397848 0.693291
Si Si4 0.704493 0.780326 0.381753
Si Si5 0.288630 0.602716 0.965374
Si Si6 0.207251 0.718240 0.609120
Si Si7 0.792174 0.099797 0.921522
Si Si8 0.792356 0.900328 0.296534
O O1 0.743808 0.500000 0.533508
O O2 0.724526 0.332503 0.563948
O O3 0.728852 0.375065 0.472734
O O4 0.000000 0.392625 0.523921
O O5 0.500000 0.402252 0.067006
O O6 0.231038 0.500000 0.078895
O O7 0.241083 0.322388 0.103243
O O8 0.230310 0.375466 0.016977
O O9 0.259462 0.500000 0.682044
O O10 0.273444 0.329389 0.654891
O O11 0.269972 0.378835 0.745183
O O12 0.000000 0.395355 0.693487
O O13 0.500000 0.787509 0.385691
O O14 0.779074 0.833174 0.425733
O O15 0.749543 0.677102 0.386365
O O16 0.752664 0.828932 0.335086
O O17 0.500000 0.606132 0.965837
O O18 0.241650 0.500000 0.955863
O O19 0.000000 0.705901 0.609172
O O20 0.000000 0.095018 0.924300
O O21 0.728854 0.000000 0.910871
O O22 0.000000 0.905641 0.293719
O O23 0.728296 0.000000 0.308983
#
# Coordination Sequence:
#
# PCOD9355866 Si02
#       8
#     8   8   8   8   8   8   8   8
#     4   8  14  25  43  69  98 124 150 182 222 267
#     4   9  18  32  46  60  87 128 162 185 218 267
#     4   8  15  29  49  72  96 121 148 179 221 274
#     4  11  20  29  47  72  95 120 153 195 237 275
#     4   8  15  28  44  63  90 124 157 184 217 269
#     4  10  17  26  47  74  94 115 149 192 228 261
#     4   9  18  32  47  64  92 129 162 190 223 268
#     4   9  18  33  51  70  94 123 153 185 224 276
#
# _framework density 18.86232
#
# number of rings (size 3 to 8) (size 9 to 14) (size 15 to 20)
#    0.000    3.000    0.000    4.125    0.000    2.750 
#    0.000    1.250    0.000    5.250    0.000    1.750 
#    0.000    0.000    0.000    0.000    0.000    0.000 
#
# Total GULP energy -178454.397508 kJ/mol
# GULP energy per Si atom -5576.699922 kJ/mol
# Density = 1.881939 g / cm^3
# Si number density = 18.862320 Si / 1000 Ang^3
#
#
#
# Elastic Constant Matrix: (Units=GPa)
#
#
# Indices 1 2 3 4 5 6 
#
# 1 28.5167 3.2518 8.9185 0.0000 0.0000 0.0000
# 2 3.2518 140.9640 114.8819 0.0000 0.0000 0.0000
# 3 8.9185 114.8819 124.4097 0.0000 0.0000 0.0000
# 4 0.0000 0.0000 0.0000 34.0413 0.0000 0.0000
# 5 0.0000 0.0000 0.0000 0.0000 5.7690 0.0000
# 6 0.0000 0.0000 0.0000 0.0000 0.0000 106.0662
#
#
#
# Elastic Compliance Matrix: (Units=1/GPa)
#
#
# Indices 1 2 3 4 5 6 
#
# 1 0.036812 0.005260 -0.007496 0.000000 0.000000 0.000000
# 2 0.005260 0.029421 -0.027545 0.000000 0.000000 0.000000
# 3 -0.007496 -0.027545 0.034011 0.000000 0.000000 0.000000
# 4 0.000000 0.000000 0.000000 0.029376 0.000000 0.000000
# 5 0.000000 0.000000 0.000000 0.000000 0.173339 0.000000
# 6 0.000000 0.000000 0.000000 0.000000 0.000000 0.009428
#
#
# Mechanical properties :
#
#
# Convention : Reuss Voigt Hill
#
# Bulk Modulus (GPa) = 24.58127 60.88832 42.73479
# Shear Modulus (GPa) = 12.96986 40.29785 26.63386
#
# Velocity S-wave (km/s) = 2.62507 4.62716 3.76175
# Velocity P-wave (km/s) = 4.71680 7.80371 6.44772
#
# Compressibility (1/GPa) = 0.04068138
#
# Stress axis : x y z
#
# Youngs Moduli (GPa) = 27.16534 33.98928 29.40251
#
# Poissons Ratio (x) = -0.17877 0.22039
# Poissons Ratio (y) = -0.14288 0.80989
# Poissons Ratio (z) = 0.20362 0.93623
#
# Static dielectric constant tensor:
#      x y z
#    x 1.701320 0.000000 0.000000 
#    y 0.000000 1.382730 0.000000 
#    z 0.000000 0.000000 1.660660 
# 
# From -- ./inp_files/24815.got.cif
#   From: 2010.05.17/outbox.cif.g08.bks.cpg/sg38_13_cif.got.tgz:24815.got - 2010.06.03 18:07:57.
