data_PCOD9355836
_publ_section_title
;
Structure prediction by ZEFSAII (Michael W. Deem and Ramdas Pophale) SiO2 
 PCOD9355836
Probable space group: A M M 2
;
_chemical_formula_sum "Si O2"
_cell_formula_units_Z 46
_cell_length_a 8.404934
_cell_length_b 9.639665
_cell_length_c 28.138848
_cell_angle_alpha 90.000000
_cell_angle_beta 90.000000
_cell_angle_gamma 90.000000
_cell_volume 2279.830516
_symmetry_space_group_name_H-M "A M M 2"
_symmetry_group_IT_number 38
_symmetry_cell_setting 'orthorhombic'
loop_
_space_group_symop_operation_xyz
x,y,z
-x,-y,z
-x,y,z
x,-y,z
x,1/2+y,1/2+z
-x,1/2-y,1/2+z
-x,1/2+y,1/2+z
x,1/2-y,1/2+z
loop_
_atom_site_type_symbol
_atom_site_label
_atom_site_fract_x
_atom_site_fract_y
_atom_site_fract_z
Si Si1 0.833710 0.000000 0.693491
Si Si2 0.311608 0.833279 0.855314
Si Si3 0.315974 0.668311 0.462172
Si Si4 0.826072 0.774326 0.259928
Si Si5 0.500000 0.000000 0.695698
Si Si6 0.824376 0.669538 0.561118
Si Si7 0.500000 0.696532 0.721887
Si Si8 0.500000 0.837349 0.109323
O O1 0.832364 0.134931 0.727419
O O2 0.664556 0.000000 0.667253
O O3 0.000000 0.000000 0.666088
O O4 0.500000 0.802687 0.847942
O O5 0.269791 0.787858 0.908994
O O6 0.206995 0.766983 0.814240
O O7 0.294617 0.000000 0.852537
O O8 0.500000 0.709745 0.471153
O O9 0.316168 0.500000 0.461324
O O10 0.206481 0.709060 0.506168
O O11 0.666952 0.851326 0.242929
O O12 0.000000 0.840057 0.254635
O O13 0.500000 0.135895 0.728396
O O14 0.825674 0.500000 0.563766
O O15 0.667906 0.718544 0.589558
O O16 0.000000 0.715554 0.577455
O O17 0.500000 0.673123 0.665806
O O18 0.500000 0.000000 0.095264
#
# Coordination Sequence:
#
# PCOD9355836 Si02
#       8
#     4   8   8   8   2   8   4   4
#     4   8  14  22  34  52  74 106 142 168 188 228
#     4   9  15  21  35  56  85 121 152 172 196 243
#     4   8  13  22  35  56  83 114 145 172 202 245
#     4  10  17  25  38  56  81 113 147 173 202 245
#     4   8  16  28  44  58  80 104 134 168 216 254
#     4   9  16  27  44  62  81 108 142 179 216 257
#     4  10  20  32  45  61  83 112 143 186 221 248
#     4  10  20  34  49  62  81 108 148 186 225 261
#
# _framework density 20.176938
#
# number of rings (size 3 to 8) (size 9 to 14) (size 15 to 20)
#    0.000    2.957    2.609    1.043    0.000    1.391 
#    0.000    1.739    0.000    0.000    0.000    0.000 
#    0.000    0.000    5.913    0.000    3.652    0.000 
#
# Total GULP energy -128060.383958 kJ/mol
# GULP energy per Si atom -5567.842781 kJ/mol
# Density = 2.013101 g / cm^3
# Si number density = 20.176938 Si / 1000 Ang^3
#
#
#
# Elastic Constant Matrix: (Units=GPa)
#
#
# Indices 1 2 3 4 5 6 
#
# 1 221.3016 10.7483 68.5134 0.0000 0.0000 0.0000
# 2 10.7483 42.1789 -5.4024 0.0000 0.0000 0.0000
# 3 68.5134 -5.4024 75.6998 0.0000 0.0000 0.0000
# 4 0.0000 0.0000 0.0000 -10.7882 0.0000 0.0000
# 5 0.0000 0.0000 0.0000 0.0000 -3.7478 0.0000
# 6 0.0000 0.0000 0.0000 0.0000 0.0000 -32.2032
#
#
#
# Elastic Compliance Matrix: (Units=1/GPa)
#
#
# Indices 1 2 3 4 5 6 
#
# 1 0.006517 -0.002439 -0.006072 0.000000 0.000000 0.000000
# 2 -0.002439 0.024840 0.003980 0.000000 0.000000 0.000000
# 3 -0.006072 0.003980 0.018990 0.000000 0.000000 0.000000
# 4 0.000000 0.000000 0.000000 -0.092694 0.000000 0.000000
# 5 0.000000 0.000000 0.000000 0.000000 -0.266822 0.000000
# 6 0.000000 0.000000 0.000000 0.000000 0.000000 -0.031053
#
#
# Mechanical properties :
#
#
# Convention : Reuss Voigt Hill
#
# Bulk Modulus (GPa) = 24.22223 54.09989 39.16106
# Shear Modulus (GPa) = -15.75312 8.34021 -3.70645
#
# Velocity S-wave (km/s) = -2.79722 2.03532 -1.35682
# Velocity P-wave (km/s) = 1.26427 5.69160 4.12266
#
# Compressibility (1/GPa) = 0.04128440
#
# Stress axis : x y z
#
# Youngs Moduli (GPa) = 153.44120 40.25813 52.65901
#
# Poissons Ratio (x) = 0.09817 0.31977
# Poissons Ratio (y) = 0.37417 -0.20957
# Poissons Ratio (z) = 0.93177 -0.16022
#
# Static dielectric constant tensor:
#      x y z
#    x 1.788620 0.000000 0.000000 
#    y 0.000000 1.795510 0.000000 
#    z 0.000000 0.000000 1.698250 
# 
# From -- ./inp_files/21946.got.cif
#   From: 2010.05.17/outbox.cif.g08.bks.cpg/sg38_11_cif.got.tgz:21946.got - 2010.06.03 18:07:57.
