data_PCOD9355503
_publ_section_title
;
Structure prediction by ZEFSAII (Michael W. Deem and Ramdas Pophale) SiO2 
 PCOD9355503
Probable space group: C C C 2
;
_chemical_formula_sum "Si O2"
_cell_formula_units_Z 48
_cell_length_a 26.948522
_cell_length_b 9.358878
_cell_length_c 8.668340
_cell_angle_alpha 90.000000
_cell_angle_beta 90.000000
_cell_angle_gamma 90.000000
_cell_volume 2186.224085
_symmetry_space_group_name_H-M "C C C 2"
_symmetry_group_IT_number 37
_symmetry_cell_setting 'orthorhombic'
loop_
_space_group_symop_operation_xyz
x,y,z
-x,-y,z
-x,y,1/2+z
x,-y,1/2+z
1/2+x,1/2+y,z
1/2-x,1/2-y,z
1/2-x,1/2+y,1/2+z
1/2+x,1/2-y,1/2+z
loop_
_atom_site_type_symbol
_atom_site_label
_atom_site_fract_x
_atom_site_fract_y
_atom_site_fract_z
Si Si1 0.894009 0.703561 0.067890
Si Si2 0.128849 0.421996 0.392413
Si Si3 0.610466 0.350568 0.085610
Si Si4 0.945884 0.933415 0.886595
Si Si5 0.743773 0.099132 0.928698
Si Si6 0.192577 0.078188 0.130927
O O1 0.897030 0.635844 0.237806
O O2 0.844054 0.800098 0.069573
O O3 0.889282 0.576322 0.945922
O O4 0.937463 0.811400 0.016150
O O5 0.119713 0.309137 0.530474
O O6 0.188282 0.424780 0.369849
O O7 0.571371 0.369441 0.223596
O O8 0.659417 0.434601 0.140303
O O9 0.590813 0.438751 0.937496
O O10 0.000000 0.000000 0.881159
O O11 0.750000 0.250000 0.018390
O O12 0.715902 0.383199 0.793731
O O13 0.761406 0.962841 0.024014
#
# Coordination Sequence:
#
# PCOD9355503 Si02
#       6
#     8   8   8   8   8   8
#     4  11  24  43  67  97 141 181 231 286 352 407
#     4  12  24  42  65 103 145 188 229 286 344 399
#     4  11  22  42  69  97 136 174 225 281 346 410
#     4  11  24  44  72 101 126 171 222 281 351 434
#     4  12  23  39  61  96 140 188 247 279 318 392
#     4  11  22  42  61  92 135 191 235 281 320 395
#
# _framework density 21.955663999999999
#
# number of rings (size 3 to 8) (size 9 to 14) (size 15 to 20)
#    0.000    0.667    3.333    6.500    0.000    0.000 
#    3.000    1.667    0.000    6.000    0.000    0.000 
#    0.000    0.000    0.000    0.000    0.000    0.000 
#
# Total GULP energy -134305.204213 kJ/mol
# GULP energy per Si atom -5596.050176 kJ/mol
# Density = 2.190569 g / cm^3
# Si number density = 21.955664 Si / 1000 Ang^3
#
#
#
# Elastic Constant Matrix: (Units=GPa)
#
#
# Indices 1 2 3 4 5 6 
#
# 1 98.5267 33.3186 34.0274 0.0000 0.0000 0.0000
# 2 33.3186 124.0641 37.1160 0.0000 0.0000 0.0000
# 3 34.0274 37.1160 91.2913 0.0000 0.0000 0.0000
# 4 0.0000 0.0000 0.0000 40.4374 0.0000 0.0000
# 5 0.0000 0.0000 0.0000 0.0000 25.1393 0.0000
# 6 0.0000 0.0000 0.0000 0.0000 0.0000 33.1317
#
#
#
# Elastic Compliance Matrix: (Units=1/GPa)
#
#
# Indices 1 2 3 4 5 6 
#
# 1 0.012142 -0.002171 -0.003643 0.000000 0.000000 0.000000
# 2 -0.002171 0.009565 -0.003079 0.000000 0.000000 0.000000
# 3 -0.003643 -0.003079 0.013564 0.000000 0.000000 0.000000
# 4 0.000000 0.000000 0.000000 0.024730 0.000000 0.000000
# 5 0.000000 0.000000 0.000000 0.000000 0.039778 0.000000
# 6 0.000000 0.000000 0.000000 0.000000 0.000000 0.030183
#
#
# Mechanical properties :
#
#
# Convention : Reuss Voigt Hill
#
# Bulk Modulus (GPa) = 57.19707 58.08957 57.64332
# Shear Modulus (GPa) = 32.55728 33.70305 33.13016
#
# Velocity S-wave (km/s) = 3.85498 3.92222 3.88874
# Velocity P-wave (km/s) = 6.77659 6.85761 6.81722
#
# Compressibility (1/GPa) = 0.01748341
#
# Stress axis : x y z
#
# Youngs Moduli (GPa) = 82.35983 104.55160 73.72534
#
# Poissons Ratio (x) = 0.22697 0.26859
# Poissons Ratio (y) = 0.17880 0.22704
# Poissons Ratio (z) = 0.30004 0.32197
#
# Static dielectric constant tensor:
#      x y z
#    x 1.804130 0.000000 0.000000 
#    y 0.000000 1.821830 0.000000 
#    z 0.000000 0.000000 1.833820 
# 
# From -- ./inp_files/4954.got.cif
#   From: 2010.05.17/outbox.cif.g08.bks.cpg/sg37_3_cif.got.tgz:4954.got - 2010.06.03 17:53:42.
