data_PCOD9355185
_publ_section_title
;
Structure prediction by ZEFSAII (Michael W. Deem and Ramdas Pophale) SiO2 
 PCOD9355185
Probable space group: C C C 2
;
_chemical_formula_sum "Si O2"
_cell_formula_units_Z 40
_cell_length_a 10.153298
_cell_length_b 16.126738
_cell_length_c 9.144846
_cell_angle_alpha 90.000000
_cell_angle_beta 90.000000
_cell_angle_gamma 90.000000
_cell_volume 1497.373213
_symmetry_space_group_name_H-M "C C C 2"
_symmetry_group_IT_number 37
_symmetry_cell_setting 'orthorhombic'
loop_
_space_group_symop_operation_xyz
x,y,z
-x,-y,z
-x,y,1/2+z
x,-y,1/2+z
1/2+x,1/2+y,z
1/2-x,1/2-y,z
1/2-x,1/2+y,1/2+z
1/2+x,1/2-y,1/2+z
loop_
_atom_site_type_symbol
_atom_site_label
_atom_site_fract_x
_atom_site_fract_y
_atom_site_fract_z
Si Si1 0.629924 0.555718 0.358800
Si Si2 0.897206 0.332968 0.550589
Si Si3 0.221193 0.160393 0.771244
Si Si4 0.704397 0.002705 0.609532
Si Si5 0.942981 0.225068 0.830468
O O1 0.500000 0.500000 0.388708
O O2 0.750913 0.515464 0.445980
O O3 0.671884 0.547829 0.190468
O O4 0.639606 0.652208 0.403174
O O5 0.773866 0.335941 0.438499
O O6 0.908884 0.427684 0.606299
O O7 0.889942 0.273786 0.690857
O O8 0.006903 0.292796 0.445396
O O9 0.250000 0.250000 0.703850
O O10 0.063512 0.163808 0.777686
O O11 0.294367 0.086237 0.689945
#
# Coordination Sequence:
#
# PCOD9355185 Si02
#       5
#     8   8   8   8   8
#     4  12  25  41  78 113 148 191 260 325 388 455
#     4  11  26  50  74 109 153 198 251 320 380 458
#     4  10  23  47  75 104 152 197 248 316 376 450
#     4  12  24  47  73 111 150 195 247 321 389 444
#     4  11  25  45  77 112 148 202 251 315 388 462
#
# _framework density 26.713446999999999
#
# number of rings (size 3 to 8) (size 9 to 14) (size 15 to 20)
#    0.000    0.800    4.000    1.800   11.200    0.000 
#   10.800    8.000    0.000    0.000    0.000    0.000 
#    0.000    0.000    0.000    0.000    0.000    0.000 
#
# Total GULP energy -111806.405233 kJ/mol
# GULP energy per Si atom -5590.320262 kJ/mol
# Density = 2.665265 g / cm^3
# Si number density = 26.713447 Si / 1000 Ang^3
#
#
#
# Elastic Constant Matrix: (Units=GPa)
#
#
# Indices 1 2 3 4 5 6 
#
# 1 54.0612 54.4429 36.6971 0.0000 0.0000 0.0000
# 2 54.4429 293.3882 84.5897 0.0000 0.0000 0.0000
# 3 36.6971 84.5897 121.2168 0.0000 0.0000 0.0000
# 4 0.0000 0.0000 0.0000 26.7586 0.0000 0.0000
# 5 0.0000 0.0000 0.0000 0.0000 24.6078 0.0000
# 6 0.0000 0.0000 0.0000 0.0000 0.0000 40.9067
#
#
#
# Elastic Compliance Matrix: (Units=1/GPa)
#
#
# Indices 1 2 3 4 5 6 
#
# 1 0.025378 -0.003122 -0.005504 0.000000 0.000000 0.000000
# 2 -0.003122 0.004651 -0.002300 0.000000 0.000000 0.000000
# 3 -0.005504 -0.002300 0.011521 0.000000 0.000000 0.000000
# 4 0.000000 0.000000 0.000000 0.037371 0.000000 0.000000
# 5 0.000000 0.000000 0.000000 0.000000 0.040638 0.000000
# 6 0.000000 0.000000 0.000000 0.000000 0.000000 0.024446
#
#
# Mechanical properties :
#
#
# Convention : Reuss Voigt Hill
#
# Bulk Modulus (GPa) = 50.76963 91.12506 70.94735
# Shear Modulus (GPa) = 28.99818 37.98372 33.49095
#
# Velocity S-wave (km/s) = 3.29831 3.77489 3.54462
# Velocity P-wave (km/s) = 5.79238 7.29286 6.58550
#
# Compressibility (1/GPa) = 0.01969681
#
# Stress axis : x y z
#
# Youngs Moduli (GPa) = 39.40397 215.00124 86.79566
#
# Poissons Ratio (x) = 0.67132 0.47773
# Poissons Ratio (y) = 0.12304 0.19967
# Poissons Ratio (z) = 0.21688 0.49460
#
# Static dielectric constant tensor:
#      x y z
#    x 2.428600 0.000000 0.000000 
#    y 0.000000 2.375540 0.000000 
#    z 0.000000 0.000000 2.010540 
# 
# From -- ./inp_files/2717.got.cif
#   From: 2010.05.17/outbox.cif.g08.bks.cpg/sg37_2_cif.got.tgz:2717.got - 2010.06.03 17:53:42.
