data_PCOD9355416
_publ_section_title
;
Structure prediction by ZEFSAII (Michael W. Deem and Ramdas Pophale) SiO2 
 PCOD9355416
Probable space group: C C C 2
;
_chemical_formula_sum "Si O2"
_cell_formula_units_Z 60
_cell_length_a 6.736353
_cell_length_b 21.692979
_cell_length_c 18.580065
_cell_angle_alpha 90.000000
_cell_angle_beta 90.000000
_cell_angle_gamma 90.000000
_cell_volume 2715.133961
_symmetry_space_group_name_H-M "C C C 2"
_symmetry_group_IT_number 37
_symmetry_cell_setting 'orthorhombic'
loop_
_space_group_symop_operation_xyz
x,y,z
-x,-y,z
-x,y,1/2+z
x,-y,1/2+z
1/2+x,1/2+y,z
1/2-x,1/2-y,z
1/2-x,1/2+y,1/2+z
1/2+x,1/2-y,1/2+z
loop_
_atom_site_type_symbol
_atom_site_label
_atom_site_fract_x
_atom_site_fract_y
_atom_site_fract_z
Si Si1 0.696758 0.350123 0.174700
Si Si2 0.863298 0.359145 0.323678
Si Si3 0.505010 0.569292 0.397043
Si Si4 0.996004 0.573702 0.072767
Si Si5 0.250000 0.750000 0.065721
Si Si6 0.143955 0.349117 0.451939
Si Si7 0.835335 0.545110 0.281067
Si Si8 0.625050 0.445202 0.641041
O O1 0.751681 0.328561 0.255517
O O2 0.864719 0.389134 0.129308
O O3 0.637090 0.294733 0.121335
O O4 0.517463 0.397742 0.180235
O O5 0.700428 0.402175 0.365594
O O6 0.001444 0.329716 0.385966
O O7 0.036700 0.393655 0.278904
O O8 0.500000 0.500000 0.433841
O O9 0.633567 0.625038 0.434121
O O10 0.647358 0.553002 0.330250
O O11 0.000000 0.500000 0.079644
O O12 0.767376 0.590024 0.087138
O O13 0.052936 0.592074 0.992550
O O14 0.139851 0.704608 0.010914
O O15 0.761452 0.525230 0.203330
O O16 0.000000 0.500000 0.312746
O O17 0.500000 0.500000 0.606567
#
# Coordination Sequence:
#
# PCOD9355416 Si02
#       8
#     8   8   8   8   4   8   8   8
#     4  11  23  45  73 100 134 183 242 298 350 420
#     4  11  22  41  69 106 133 178 231 292 359 420
#     4  11  22  38  66 107 145 178 219 273 356 441
#     4  11  23  41  62 101 146 183 224 284 356 426
#     4  10  26  58  68  92 140 192 248 310 348 418
#     4  10  27  46  70  94 142 187 232 292 363 425
#     4  11  19  32  60 102 150 178 205 270 357 425
#     4  12  21  35  65 105 138 179 229 282 349 427
#
# _framework density 22.098358999999999
#
# number of rings (size 3 to 8) (size 9 to 14) (size 15 to 20)
#    0.000    1.067    5.333    1.600    1.867    2.133 
#    2.400    5.333    0.000    0.000    0.000    0.000 
#    0.000    0.000    0.000    0.000    0.000    0.000 
#
# Total GULP energy -167029.900075 kJ/mol
# GULP energy per Si atom -5567.663336 kJ/mol
# Density = 2.204806 g / cm^3
# Si number density = 22.098359 Si / 1000 Ang^3
#
#
#
# Elastic Constant Matrix: (Units=GPa)
#
#
# Indices 1 2 3 4 5 6 
#
# 1 97.6618 13.6087 21.7897 0.0000 0.0000 0.0000
# 2 13.6087 73.6043 30.3823 0.0000 0.0000 0.0000
# 3 21.7897 30.3823 109.1483 0.0000 0.0000 0.0000
# 4 0.0000 0.0000 0.0000 26.1319 0.0000 0.0000
# 5 0.0000 0.0000 0.0000 0.0000 48.7705 0.0000
# 6 0.0000 0.0000 0.0000 0.0000 0.0000 2.1508
#
#
#
# Elastic Compliance Matrix: (Units=1/GPa)
#
#
# Indices 1 2 3 4 5 6 
#
# 1 0.010818 -0.001253 -0.001811 0.000000 0.000000 0.000000
# 2 -0.001253 0.015495 -0.004063 0.000000 0.000000 0.000000
# 3 -0.001811 -0.004063 0.010654 0.000000 0.000000 0.000000
# 4 0.000000 0.000000 0.000000 0.038267 0.000000 0.000000
# 5 0.000000 0.000000 0.000000 0.000000 0.020504 0.000000
# 6 0.000000 0.000000 0.000000 0.000000 0.000000 0.464948
#
#
# Mechanical properties :
#
#
# Convention : Reuss Voigt Hill
#
# Bulk Modulus (GPa) = 44.02575 45.77511 44.90043
# Shear Modulus (GPa) = 8.58351 29.71955 19.15153
#
# Velocity S-wave (km/s) = 1.97298 3.67123 2.94708
# Velocity P-wave (km/s) = 5.01559 6.22333 5.65181
#
# Compressibility (1/GPa) = 0.02271398
#
# Stress axis : x y z
#
# Youngs Moduli (GPa) = 92.43841 64.53736 93.85818
#
# Poissons Ratio (x) = 0.08084 0.16997
# Poissons Ratio (y) = 0.11579 0.38135
# Poissons Ratio (z) = 0.16740 0.26222
#
# Static dielectric constant tensor:
#      x y z
#    x 1.880160 0.000000 0.000000 
#    y 0.000000 1.892810 0.000000 
#    z 0.000000 0.000000 1.851380 
# 
# From -- ./inp_files/18093.got.cif
#   From: 2010.05.17/outbox.cif.g08.bks.cpg/sg37_10_cif.got.tgz:18093.got - 2010.06.03 17:53:42.
