data_PCOD9355029
_publ_section_title
;
Structure prediction by ZEFSAII (Michael W. Deem and Ramdas Pophale) SiO2 
 PCOD9355029
Probable space group: C C C 2
;
_chemical_formula_sum "Si O2"
_cell_formula_units_Z 56
_cell_length_a 12.195430
_cell_length_b 14.534812
_cell_length_c 13.130886
_cell_angle_alpha 90.000000
_cell_angle_beta 90.000000
_cell_angle_gamma 90.000000
_cell_volume 2327.558298
_symmetry_space_group_name_H-M "C C C 2"
_symmetry_group_IT_number 37
_symmetry_cell_setting 'orthorhombic'
loop_
_space_group_symop_operation_xyz
x,y,z
-x,-y,z
-x,y,1/2+z
x,-y,1/2+z
1/2+x,1/2+y,z
1/2-x,1/2-y,z
1/2-x,1/2+y,1/2+z
1/2+x,1/2-y,1/2+z
loop_
_atom_site_type_symbol
_atom_site_label
_atom_site_fract_x
_atom_site_fract_y
_atom_site_fract_z
Si Si1 0.650230 0.296748 0.377880
Si Si2 0.112586 0.056626 0.188673
Si Si3 0.606049 0.310389 0.875064
Si Si4 0.871578 0.757908 0.100118
Si Si5 0.546498 0.896262 0.652046
Si Si6 0.713897 0.954122 0.804934
Si Si7 0.308369 0.120281 0.451189
O O1 0.750000 0.250000 0.314345
O O2 0.523234 0.307221 0.357403
O O3 0.642701 0.235975 0.480781
O O4 0.698219 0.399475 0.373239
O O5 0.137230 0.126790 0.280558
O O6 0.098817 0.133186 0.100438
O O7 0.217513 0.990662 0.205206
O O8 0.000000 0.000000 0.198132
O O9 0.646203 0.206816 0.887094
O O10 0.676657 0.361721 0.963988
O O11 0.750000 0.750000 0.145165
O O12 0.956244 0.685395 0.147005
O O13 0.612401 0.898419 0.757980
O O14 0.627281 0.880301 0.556704
O O15 0.500000 0.000000 0.640889
O O16 0.671048 0.032362 0.880759
#
# Coordination Sequence:
#
# PCOD9355029 Si02
#       7
#     8   8   8   8   8   8   8
#     4  11  25  46  72 106 153 201 257 320 398 462
#     4  11  24  45  72 108 148 192 252 315 389 464
#     4  10  22  48  70 104 148 204 248 317 392 468
#     4  11  27  49  74 105 155 205 250 326 398 471
#     4  12  28  48  76 116 155 204 273 330 398 478
#     4  11  27  45  74 115 147 204 265 321 388 477
#     4  10  25  46  78 104 154 201 260 321 398 465
#
# _framework density 24.059546999999998
#
# number of rings (size 3 to 8) (size 9 to 14) (size 15 to 20)
#    0.000    1.143    2.857    0.857   14.000    1.714 
#    5.143    0.000    0.000    0.000    0.000    0.000 
#    0.000    0.000    0.000    0.000    0.000    0.000 
#
# Total GULP energy -156014.845853 kJ/mol
# GULP energy per Si atom -5571.958780 kJ/mol
# Density = 2.400479 g / cm^3
# Si number density = 24.059547 Si / 1000 Ang^3
#
#
#
# Elastic Constant Matrix: (Units=GPa)
#
#
# Indices 1 2 3 4 5 6 
#
# 1 125.5601 59.8469 43.8490 0.0000 0.0000 0.0000
# 2 59.8469 115.9360 28.5434 0.0000 0.0000 0.0000
# 3 43.8490 28.5434 40.7636 0.0000 0.0000 0.0000
# 4 0.0000 0.0000 0.0000 12.8430 0.0000 0.0000
# 5 0.0000 0.0000 0.0000 0.0000 29.9538 0.0000
# 6 0.0000 0.0000 0.0000 0.0000 0.0000 39.8334
#
#
#
# Elastic Compliance Matrix: (Units=1/GPa)
#
#
# Indices 1 2 3 4 5 6 
#
# 1 0.014380 -0.004368 -0.012410 0.000000 0.000000 0.000000
# 2 -0.004368 0.011749 -0.003528 0.000000 0.000000 0.000000
# 3 -0.012410 -0.003528 0.040352 0.000000 0.000000 0.000000
# 4 0.000000 0.000000 0.000000 0.077864 0.000000 0.000000
# 5 0.000000 0.000000 0.000000 0.000000 0.033385 0.000000
# 6 0.000000 0.000000 0.000000 0.000000 0.000000 0.025105
#
#
# Mechanical properties :
#
#
# Convention : Reuss Voigt Hill
#
# Bulk Modulus (GPa) = 38.65762 60.74869 49.70315
# Shear Modulus (GPa) = 19.83586 26.52740 23.18163
#
# Velocity S-wave (km/s) = 2.87444 3.32410 3.10741
# Velocity P-wave (km/s) = 5.20758 6.32748 5.79465
#
# Compressibility (1/GPa) = 0.02586812
#
# Stress axis : x y z
#
# Youngs Moduli (GPa) = 69.54057 85.11519 24.78207
#
# Poissons Ratio (x) = 0.37176 0.30755
# Poissons Ratio (y) = 0.30373 0.08744
# Poissons Ratio (z) = 0.86301 0.30032
#
# Static dielectric constant tensor:
#      x y z
#    x 2.080110 0.000000 0.000000 
#    y 0.000000 2.164720 0.000000 
#    z 0.000000 0.000000 2.048140 
# 
# From -- ./inp_files/11616.got.cif
#   From: 2010.05.17/outbox.cif.g08.bks.cpg/sg37_6_cif.got.tgz:11616.got - 2010.06.03 17:53:42.
