data_PCOD9355660
_publ_section_title
;
Structure prediction by ZEFSAII (Michael W. Deem and Ramdas Pophale) SiO2 
 PCOD9355660
Probable space group: C C C 2
;
_chemical_formula_sum "Si O2"
_cell_formula_units_Z 40
_cell_length_a 5.131667
_cell_length_b 27.581622
_cell_length_c 11.792754
_cell_angle_alpha 90.000000
_cell_angle_beta 90.000000
_cell_angle_gamma 90.000000
_cell_volume 1669.142857
_symmetry_space_group_name_H-M "C C C 2"
_symmetry_group_IT_number 37
_symmetry_cell_setting 'orthorhombic'
loop_
_space_group_symop_operation_xyz
x,y,z
-x,-y,z
-x,y,1/2+z
x,-y,1/2+z
1/2+x,1/2+y,z
1/2-x,1/2-y,z
1/2-x,1/2+y,1/2+z
1/2+x,1/2-y,1/2+z
loop_
_atom_site_type_symbol
_atom_site_label
_atom_site_fract_x
_atom_site_fract_y
_atom_site_fract_z
Si Si1 0.500000 0.500000 0.737250
Si Si2 0.942564 0.605562 0.479784
Si Si3 0.750000 0.750000 0.984007
Si Si4 0.240300 0.836160 0.655056
Si Si5 0.000000 0.500000 0.077374
Si Si6 0.750000 0.250000 0.829988
Si Si7 0.941816 0.104982 0.333479
O O1 0.250065 0.507787 0.657330
O O2 0.546388 0.547534 0.811899
O O3 0.033983 0.631602 0.596264
O O4 0.954657 0.548150 0.504183
O O5 0.160645 0.617591 0.384350
O O6 0.661042 0.617631 0.428045
O O7 0.816498 0.797407 0.057131
O O8 0.500425 0.753254 0.906945
O O9 0.287168 0.797739 0.754567
O O10 0.025839 0.870674 0.714104
#
# Coordination Sequence:
#
# PCOD9355660 Si02
#       7
#     4   8   4   8   4   4   8
#     4  12  24  46  70 100 146 196 240 294 356 418
#     4  12  26  44  70 104 142 188 238 290 352 418
#     4  11  26  49  74 106 140 183 234 295 366 428
#     4  11  26  46  76 104 144 184 236 299 352 432
#     4  12  24  46  70 100 146 196 240 294 356 418
#     4  11  26  49  74 106 140 183 234 295 366 428
#     4  12  26  44  70 104 142 188 238 290 352 418
#
# _framework density 23.964397000000002
#
# number of rings (size 3 to 8) (size 9 to 14) (size 15 to 20)
#    0.000    0.400    2.000    6.000    0.000    6.400 
#    0.000    0.000    0.000    0.000    0.000    0.000 
#    0.000    0.000    0.000    0.000    0.000    0.000 
#
# Total GULP energy -111990.638252 kJ/mol
# GULP energy per Si atom -5599.531913 kJ/mol
# Density = 2.390985 g / cm^3
# Si number density = 23.964397 Si / 1000 Ang^3
#
#
#
# Elastic Constant Matrix: (Units=GPa)
#
#
# Indices 1 2 3 4 5 6 
#
# 1 89.6958 -22.5260 4.7200 0.0000 0.0000 0.0000
# 2 -22.5260 130.9438 21.9617 0.0000 0.0000 0.0000
# 3 4.7200 21.9617 73.9931 0.0000 0.0000 0.0000
# 4 0.0000 0.0000 0.0000 110.3758 0.0000 0.0000
# 5 0.0000 0.0000 0.0000 0.0000 25.8941 0.0000
# 6 0.0000 0.0000 0.0000 0.0000 0.0000 21.9896
#
#
#
# Elastic Compliance Matrix: (Units=1/GPa)
#
#
# Indices 1 2 3 4 5 6 
#
# 1 0.011793 0.002268 -0.001425 0.000000 0.000000 0.000000
# 2 0.002268 0.008473 -0.002660 0.000000 0.000000 0.000000
# 3 -0.001425 -0.002660 0.014395 0.000000 0.000000 0.000000
# 4 0.000000 0.000000 0.000000 0.009060 0.000000 0.000000
# 5 0.000000 0.000000 0.000000 0.000000 0.038619 0.000000
# 6 0.000000 0.000000 0.000000 0.000000 0.000000 0.045476
#
#
# Mechanical properties :
#
#
# Convention : Reuss Voigt Hill
#
# Bulk Modulus (GPa) = 32.22969 33.66046 32.94507
# Shear Modulus (GPa) = 35.26270 51.01704 43.13987
#
# Velocity S-wave (km/s) = 3.84013 4.61897 4.24744
# Velocity P-wave (km/s) = 5.75676 6.52097 6.15074
#
# Compressibility (1/GPa) = 0.03102729
#
# Stress axis : x y z
#
# Youngs Moduli (GPa) = 84.79357 118.02120 69.46822
#
# Poissons Ratio (x) = -0.26765 0.09902
# Poissons Ratio (y) = -0.19230 0.18475
# Poissons Ratio (z) = 0.12087 0.31388
#
# Static dielectric constant tensor:
#      x y z
#    x 1.881840 0.000000 0.000000 
#    y 0.000000 1.931680 0.000000 
#    z 0.000000 0.000000 1.935690 
# 
# From -- ./inp_files/5583.got.cif
#   From: 2010.05.17/outbox.cif.g08.bks.cpg/sg37_3_cif.got.tgz:5583.got - 2010.06.03 17:53:42.
