data_PCOD9355945
_publ_section_title
;
Structure prediction by ZEFSAII (Michael W. Deem and Ramdas Pophale) SiO2 
 PCOD9355945
Probable space group: A M M 2
;
_chemical_formula_sum "Si O2"
_cell_formula_units_Z 56
_cell_length_a 21.807277
_cell_length_b 7.784457
_cell_length_c 16.011877
_cell_angle_alpha 90.000000
_cell_angle_beta 90.000000
_cell_angle_gamma 90.000000
_cell_volume 2718.141175
_symmetry_space_group_name_H-M "A M M 2"
_symmetry_group_IT_number 38
_symmetry_cell_setting 'orthorhombic'
loop_
_space_group_symop_operation_xyz
x,y,z
-x,-y,z
-x,y,z
x,-y,z
x,1/2+y,1/2+z
-x,1/2-y,1/2+z
-x,1/2+y,1/2+z
x,1/2-y,1/2+z
loop_
_atom_site_type_symbol
_atom_site_label
_atom_site_fract_x
_atom_site_fract_y
_atom_site_fract_z
Si Si1 0.792961 0.300177 0.681480
Si Si2 0.000000 0.208496 0.770813
Si Si3 0.866221 0.789299 0.021148
Si Si4 0.429285 0.292321 0.827393
Si Si5 0.346784 0.297429 0.169907
Si Si6 0.129562 0.702729 0.339019
Si Si7 0.000000 0.795224 0.075660
Si Si8 0.570662 0.709712 0.016361
O O1 0.809247 0.500000 0.685592
O O2 0.824092 0.228040 0.597324
O O3 0.720210 0.281874 0.678007
O O4 0.822799 0.222828 0.764248
O O5 0.937179 0.273095 0.812620
O O6 0.000000 0.257720 0.673861
O O7 0.000000 0.000000 0.774848
O O8 0.936314 0.732925 0.036932
O O9 0.864114 0.000000 0.023623
O O10 0.847945 0.730810 0.928564
O O11 0.500000 0.238581 0.812980
O O12 0.428095 0.500000 0.826188
O O13 0.385873 0.228967 0.753971
O O14 0.411942 0.237971 0.921882
O O15 0.337955 0.500000 0.157433
O O16 0.385021 0.229984 0.090092
O O17 0.119784 0.500000 0.350747
O O18 0.000000 0.000000 0.063223
O O19 0.500000 0.762375 0.031301
O O20 0.570906 0.500000 0.017625
#
# Coordination Sequence:
#
# PCOD9355945 Si02
#       8
#     8   4   8   8   8   8   4   8
#     4  11  23  39  55  77 108 146 188 230 272 319
#     4  10  19  31  55  86 114 138 169 223 277 324
#     4   9  19  35  58  81 105 141 182 224 271 329
#     4   9  18  35  59  86 115 145 178 221 271 322
#     4  11  22  36  56  81 111 148 186 225 270 321
#     4  10  20  37  58  82 110 142 180 222 276 331
#     4  10  17  33  59  82 108 142 179 217 271 332
#     4   8  16  33  57  83 111 143 178 217 267 324
#
# _framework density 20.602314
#
# number of rings (size 3 to 8) (size 9 to 14) (size 15 to 20)
#    0.000    2.286    1.429    2.571    0.000    3.714 
#    0.000    6.429    0.000    2.571    0.000    0.000 
#    0.000    0.000    0.000    0.000    0.000    0.000 
#
# Total GULP energy -156323.529899 kJ/mol
# GULP energy per Si atom -5582.983211 kJ/mol
# Density = 2.055542 g / cm^3
# Si number density = 20.602314 Si / 1000 Ang^3
#
#
#
# Elastic Constant Matrix: (Units=GPa)
#
#
# Indices 1 2 3 4 5 6 
#
# 1 99.1518 -13.0753 78.2810 0.0000 0.0000 0.0000
# 2 -13.0753 15.1349 -12.8666 0.0000 0.0000 0.0000
# 3 78.2810 -12.8666 178.1068 0.0000 0.0000 0.0000
# 4 0.0000 0.0000 0.0000 18.5801 0.0000 0.0000
# 5 0.0000 0.0000 0.0000 0.0000 -1.8742 0.0000
# 6 0.0000 0.0000 0.0000 0.0000 0.0000 -12.2523
#
#
#
# Elastic Compliance Matrix: (Units=1/GPa)
#
#
# Indices 1 2 3 4 5 6 
#
# 1 0.016428 0.008581 -0.006601 0.000000 0.000000 0.000000
# 2 0.008581 0.074878 0.001638 0.000000 0.000000 0.000000
# 3 -0.006601 0.001638 0.008634 0.000000 0.000000 0.000000
# 4 0.000000 0.000000 0.000000 0.053821 0.000000 0.000000
# 5 0.000000 0.000000 0.000000 0.000000 -0.533555 0.000000
# 6 0.000000 0.000000 0.000000 0.000000 0.000000 -0.081617
#
#
# Mechanical properties :
#
#
# Convention : Reuss Voigt Hill
#
# Bulk Modulus (GPa) = 9.33030 44.11909 26.72470
# Shear Modulus (GPa) = -11.54944 16.89435 2.67246
#
# Velocity S-wave (km/s) = -2.37025 2.86671 1.14017
# Velocity P-wave (km/s) = 1.71818 5.69372 3.83838
#
# Compressibility (1/GPa) = 0.10717768
#
# Stress axis : x y z
#
# Youngs Moduli (GPa) = 60.87001 13.35497 115.82102
#
# Poissons Ratio (x) = -0.11460 0.76449
# Poissons Ratio (y) = -0.52235 -0.18967
# Poissons Ratio (z) = 0.40178 -0.02187
#
# Static dielectric constant tensor:
#      x y z
#    x 1.697000 0.000000 0.000000 
#    y 0.000000 1.776240 0.000000 
#    z 0.000000 0.000000 1.736440 
# 
# From -- ./inp_files/15537.got.cif
#   From: 2010.05.17/outbox.cif.g08.bks.cpg/sg38_8_cif.got.tgz:15537.got - 2010.06.03 18:07:57.
