data_PCOD9355307
_publ_section_title
;
Structure prediction by ZEFSAII (Michael W. Deem and Ramdas Pophale) SiO2 
 PCOD9355307
Probable space group: C C C 2
;
_chemical_formula_sum "Si O2"
_cell_formula_units_Z 40
_cell_length_a 23.306933
_cell_length_b 9.225681
_cell_length_c 8.759775
_cell_angle_alpha 90.000000
_cell_angle_beta 90.000000
_cell_angle_gamma 90.000000
_cell_volume 1883.547222
_symmetry_space_group_name_H-M "C C C 2"
_symmetry_group_IT_number 37
_symmetry_cell_setting 'orthorhombic'
loop_
_space_group_symop_operation_xyz
x,y,z
-x,-y,z
-x,y,1/2+z
x,-y,1/2+z
1/2+x,1/2+y,z
1/2-x,1/2-y,z
1/2-x,1/2+y,1/2+z
1/2+x,1/2-y,1/2+z
loop_
_atom_site_type_symbol
_atom_site_label
_atom_site_fract_x
_atom_site_fract_y
_atom_site_fract_z
Si Si1 0.500000 0.000000 0.021590
Si Si2 0.315340 0.018051 0.448700
Si Si3 0.655931 0.691643 0.620971
Si Si4 0.250000 0.250000 0.098874
Si Si5 0.800935 0.939955 0.312562
Si Si6 0.924342 0.625449 0.782967
O O1 0.449516 0.954349 0.134779
O O2 0.525085 0.876848 0.908834
O O3 0.325562 0.145236 0.572739
O O4 0.266477 0.087550 0.342881
O O5 0.280522 0.880292 0.508904
O O6 0.372237 0.964292 0.362437
O O7 0.662252 0.603883 0.460977
O O8 0.691682 0.599121 0.743016
O O9 0.597654 0.722831 0.714391
O O10 0.193423 0.173060 0.175291
#
# Coordination Sequence:
#
# PCOD9355307 Si02
#       6
#     4   8   8   4   8   8
#     4  10  24  46  72 114 128 172 256 326 368 426
#     4  12  24  41  69 103 146 193 228 297 357 440
#     4  12  26  45  66 103 148 194 238 286 360 441
#     4  12  24  38  64 108 148 190 240 282 352 448
#     4  12  26  42  61 104 156 191 235 271 347 462
#     4  11  24  44  74 105 134 178 241 316 367 417
#
# _framework density 21.236528
#
# number of rings (size 3 to 8) (size 9 to 14) (size 15 to 20)
#    0.000    0.400    6.000    2.400    2.800    0.000 
#    0.000    0.000    0.000    3.600    0.000    0.000 
#    0.000    0.000    0.000    0.000    0.000    0.000 
#
# Total GULP energy -111360.691492 kJ/mol
# GULP energy per Si atom -5568.034575 kJ/mol
# Density = 2.118819 g / cm^3
# Si number density = 21.236528 Si / 1000 Ang^3
#
#
#
# Elastic Constant Matrix: (Units=GPa)
#
#
# Indices 1 2 3 4 5 6 
#
# 1 71.8112 30.2852 50.2083 0.0000 0.0000 0.0000
# 2 30.2852 94.7046 55.0420 0.0000 0.0000 0.0000
# 3 50.2083 55.0420 127.6135 0.0000 0.0000 0.0000
# 4 0.0000 0.0000 0.0000 45.1495 0.0000 0.0000
# 5 0.0000 0.0000 0.0000 0.0000 26.5179 0.0000
# 6 0.0000 0.0000 0.0000 0.0000 0.0000 24.6486
#
#
#
# Elastic Compliance Matrix: (Units=1/GPa)
#
#
# Indices 1 2 3 4 5 6 
#
# 1 0.019605 -0.002384 -0.006685 0.000000 0.000000 0.000000
# 2 -0.002384 0.014382 -0.005265 0.000000 0.000000 0.000000
# 3 -0.006685 -0.005265 0.012737 0.000000 0.000000 0.000000
# 4 0.000000 0.000000 0.000000 0.022149 0.000000 0.000000
# 5 0.000000 0.000000 0.000000 0.000000 0.037710 0.000000
# 6 0.000000 0.000000 0.000000 0.000000 0.000000 0.040570
#
#
# Mechanical properties :
#
#
# Convention : Reuss Voigt Hill
#
# Bulk Modulus (GPa) = 55.38520 62.80004 59.09262
# Shear Modulus (GPa) = 27.49674 29.83611 28.66642
#
# Velocity S-wave (km/s) = 3.60222 3.75232 3.67804
# Velocity P-wave (km/s) = 6.59075 6.95767 6.77670
#
# Compressibility (1/GPa) = 0.01805537
#
# Stress axis : x y z
#
# Youngs Moduli (GPa) = 51.00783 69.53344 78.50986
#
# Poissons Ratio (x) = 0.16577 0.52484
# Poissons Ratio (y) = 0.12160 0.41336
# Poissons Ratio (z) = 0.34099 0.36610
#
# Static dielectric constant tensor:
#      x y z
#    x 1.842880 0.000000 0.000000 
#    y 0.000000 1.893640 0.000000 
#    z 0.000000 0.000000 1.905400 
# 
# From -- ./inp_files/2233.got.cif
#   From: 2010.05.17/outbox.cif.g08.bks.cpg/sg37_2_cif.got.tgz:2233.got - 2010.06.03 17:53:42.
