data_PCOD9355296
_publ_section_title
;
Structure prediction by ZEFSAII (Michael W. Deem and Ramdas Pophale) SiO2 
 PCOD9355296
Probable space group: C C C 2
;
_chemical_formula_sum "Si O2"
_cell_formula_units_Z 48
_cell_length_a 17.706272
_cell_length_b 13.411055
_cell_length_c 8.953082
_cell_angle_alpha 90.000000
_cell_angle_beta 90.000000
_cell_angle_gamma 90.000000
_cell_volume 2125.996950
_symmetry_space_group_name_H-M "C C C 2"
_symmetry_group_IT_number 37
_symmetry_cell_setting 'orthorhombic'
loop_
_space_group_symop_operation_xyz
x,y,z
-x,-y,z
-x,y,1/2+z
x,-y,1/2+z
1/2+x,1/2+y,z
1/2-x,1/2-y,z
1/2-x,1/2+y,1/2+z
1/2+x,1/2-y,1/2+z
loop_
_atom_site_type_symbol
_atom_site_label
_atom_site_fract_x
_atom_site_fract_y
_atom_site_fract_z
Si Si1 0.250728 0.059730 0.268430
Si Si2 0.355941 0.030119 0.530789
Si Si3 0.000000 0.000000 0.191663
Si Si4 0.596970 0.405440 0.935250
Si Si5 0.947271 0.283869 0.104540
Si Si6 0.404199 0.194552 0.943555
Si Si7 0.750000 0.250000 0.559400
O O1 0.314017 0.077943 0.391250
O O2 0.172883 0.048831 0.361418
O O3 0.242281 0.154102 0.162771
O O4 0.291862 0.978327 0.161150
O O5 0.423704 0.102929 0.569344
O O6 0.386683 0.921490 0.482339
O O7 0.034355 0.081916 0.304715
O O8 0.933773 0.035091 0.080258
O O9 0.600597 0.293553 0.002232
O O10 0.933781 0.279668 0.280192
O O11 0.033917 0.267618 0.060438
O O12 0.324151 0.246034 0.961356
#
# Coordination Sequence:
#
# PCOD9355296 Si02
#       7
#     8   8   4   8   8   8   4
#     4  11  23  44  68 102 141 199 235 306 358 444
#     4  11  24  45  71 106 149 196 239 297 379 431
#     4  10  24  46  66 106 142 194 244 314 374 420
#     4  11  24  44  72 103 147 191 254 301 370 438
#     4  12  26  45  76 111 145 193 249 305 364 446
#     4  11  27  46  73 108 154 190 246 303 369 438
#     4  10  26  46  70  98 148 190 252 296 366 430
#
# _framework density 22.577642000000001
#
# number of rings (size 3 to 8) (size 9 to 14) (size 15 to 20)
#    0.000    1.000    1.667    3.500    9.333    2.667 
#    9.000    0.000    0.000    0.000    0.000    0.000 
#    0.000    0.000    0.000    0.000    0.000    0.000 
#
# Total GULP energy -134102.862627 kJ/mol
# GULP energy per Si atom -5587.619276 kJ/mol
# Density = 2.252625 g / cm^3
# Si number density = 22.577642 Si / 1000 Ang^3
#
#
#
# Elastic Constant Matrix: (Units=GPa)
#
#
# Indices 1 2 3 4 5 6 
#
# 1 114.6074 14.6147 76.6312 0.0000 0.0000 0.0000
# 2 14.6147 55.4941 32.0974 0.0000 0.0000 0.0000
# 3 76.6312 32.0974 168.8517 0.0000 0.0000 0.0000
# 4 0.0000 0.0000 0.0000 -150.2769 0.0000 0.0000
# 5 0.0000 0.0000 0.0000 0.0000 36.0256 0.0000
# 6 0.0000 0.0000 0.0000 0.0000 0.0000 -5.1172
#
#
#
# Elastic Compliance Matrix: (Units=1/GPa)
#
#
# Indices 1 2 3 4 5 6 
#
# 1 0.012527 -0.000012 -0.005683 0.000000 0.000000 0.000000
# 2 -0.000012 0.020246 -0.003843 0.000000 0.000000 0.000000
# 3 -0.005683 -0.003843 0.009232 0.000000 0.000000 0.000000
# 4 0.000000 0.000000 0.000000 -0.006654 0.000000 0.000000
# 5 0.000000 0.000000 0.000000 0.000000 0.027758 0.000000
# 6 0.000000 0.000000 0.000000 0.000000 0.000000 -0.195419
#
#
# Mechanical properties :
#
#
# Convention : Reuss Voigt Hill
#
# Bulk Modulus (GPa) = 43.61357 65.07109 54.34233
# Shear Modulus (GPa) = -47.35208 -9.49971 -28.42590
#
# Velocity S-wave (km/s) = -4.58460 -2.05346 -3.55213
# Velocity P-wave (km/s) = 2.94374 4.82300 2.70145
#
# Compressibility (1/GPa) = 0.02292865
#
# Stress axis : x y z
#
# Youngs Moduli (GPa) = 79.82925 49.39257 108.31931
#
# Poissons Ratio (x) = 0.00060 0.61556
# Poissons Ratio (y) = 0.00097 0.41628
# Poissons Ratio (z) = 0.45365 0.18982
#
# Static dielectric constant tensor:
#      x y z
#    x 1.835260 0.000000 0.000000 
#    y 0.000000 2.022570 0.000000 
#    z 0.000000 0.000000 1.813800 
# 
# From -- ./inp_files/3521.got.cif
#   From: 2010.05.17/outbox.cif.g08.bks.cpg/sg37_2_cif.got.tgz:3521.got - 2010.06.03 17:53:42.
