data_PCOD9355491
_publ_section_title
;
Structure prediction by ZEFSAII (Michael W. Deem and Ramdas Pophale) SiO2 
 PCOD9355491
Probable space group: C C C 2
;
_chemical_formula_sum "Si O2"
_cell_formula_units_Z 36
_cell_length_a 6.588552
_cell_length_b 24.685743
_cell_length_c 10.162486
_cell_angle_alpha 90.000000
_cell_angle_beta 90.000000
_cell_angle_gamma 90.000000
_cell_volume 1652.860274
_symmetry_space_group_name_H-M "C C C 2"
_symmetry_group_IT_number 37
_symmetry_cell_setting 'orthorhombic'
loop_
_space_group_symop_operation_xyz
x,y,z
-x,-y,z
-x,y,1/2+z
x,-y,1/2+z
1/2+x,1/2+y,z
1/2-x,1/2-y,z
1/2-x,1/2+y,1/2+z
1/2+x,1/2-y,1/2+z
loop_
_atom_site_type_symbol
_atom_site_label
_atom_site_fract_x
_atom_site_fract_y
_atom_site_fract_z
Si Si1 0.918407 0.637465 0.948640
Si Si2 0.500000 0.500000 0.607853
Si Si3 0.332582 0.964517 0.940731
Si Si4 0.020789 0.099742 0.791894
Si Si5 0.795524 0.312890 0.719840
O O1 0.709319 0.618350 0.879683
O O2 0.040396 0.584841 0.001738
O O3 0.052632 0.665442 0.833713
O O4 0.881265 0.675384 0.074111
O O5 0.294726 0.507790 0.525267
O O6 0.566709 0.553938 0.684426
O O7 0.154567 0.933071 0.867991
O O8 0.500000 0.000000 0.862474
O O9 0.910616 0.152001 0.731888
O O10 0.750000 0.250000 0.738651
#
# Coordination Sequence:
#
# PCOD9355491 Si02
#       5
#     8   4   8   8   8
#     4  11  25  48  70 105 145 188 245 305 366 442
#     4  12  22  38  64 102 140 194 234 294 364 436
#     4  11  22  38  63  97 139 182 229 285 347 427
#     4  11  24  42  68 101 141 188 241 294 362 437
#     4  11  27  46  72 104 138 193 246 309 373 435
#
# _framework density 21.780424
#
# number of rings (size 3 to 8) (size 9 to 14) (size 15 to 20)
#    0.000    0.889    0.000    7.333    3.111    6.222 
#    0.000    0.000    0.000    0.000    0.000    0.000 
#    0.000    0.000    0.000    0.000    0.000    0.000 
#
# Total GULP energy -100462.192990 kJ/mol
# GULP energy per Si atom -5581.232944 kJ/mol
# Density = 2.173085 g / cm^3
# Si number density = 21.780424 Si / 1000 Ang^3
#
#
#
# Elastic Constant Matrix: (Units=GPa)
#
#
# Indices 1 2 3 4 5 6 
#
# 1 131.5391 58.8629 53.8583 0.0000 0.0000 0.0000
# 2 58.8629 147.1955 44.7473 0.0000 0.0000 0.0000
# 3 53.8583 44.7473 96.1957 0.0000 0.0000 0.0000
# 4 0.0000 0.0000 0.0000 -26.4272 0.0000 0.0000
# 5 0.0000 0.0000 0.0000 0.0000 96.9981 0.0000
# 6 0.0000 0.0000 0.0000 0.0000 0.0000 31.7487
#
#
#
# Elastic Compliance Matrix: (Units=1/GPa)
#
#
# Indices 1 2 3 4 5 6 
#
# 1 0.010830 -0.002897 -0.004716 0.000000 0.000000 0.000000
# 2 -0.002897 0.008688 -0.002419 0.000000 0.000000 0.000000
# 3 -0.004716 -0.002419 0.014161 0.000000 0.000000 0.000000
# 4 0.000000 0.000000 0.000000 -0.037840 0.000000 0.000000
# 5 0.000000 0.000000 0.000000 0.000000 0.010309 0.000000
# 6 0.000000 0.000000 0.000000 0.000000 0.000000 0.031497
#
#
# Mechanical properties :
#
#
# Convention : Reuss Voigt Hill
#
# Bulk Modulus (GPa) = 73.45197 76.65192 75.05195
# Shear Modulus (GPa) = 80.32489 34.96138 57.64313
#
# Velocity S-wave (km/s) = 6.07943 4.01081 5.15005
# Velocity P-wave (km/s) = 9.11462 7.53115 8.36046
#
# Compressibility (1/GPa) = 0.01361434
#
# Stress axis : x y z
#
# Youngs Moduli (GPa) = 92.33994 115.10560 70.61656
#
# Poissons Ratio (x) = 0.33348 0.33300
# Poissons Ratio (y) = 0.26752 0.17083
# Poissons Ratio (z) = 0.43544 0.27846
#
# Static dielectric constant tensor:
#      x y z
#    x 1.726370 0.000000 0.000000 
#    y 0.000000 2.097990 0.000000 
#    z 0.000000 0.000000 1.928020 
# 
# From -- ./inp_files/5455.got.cif
#   From: 2010.05.17/outbox.cif.g08.bks.cpg/sg37_3_cif.got.tgz:5455.got - 2010.06.03 17:53:42.
