data_PCOD9355288
_publ_section_title
;
Structure prediction by ZEFSAII (Michael W. Deem and Ramdas Pophale) SiO2 
 PCOD9355288
Probable space group: C C C 2
;
_chemical_formula_sum "Si O2"
_cell_formula_units_Z 56
_cell_length_a 15.669234
_cell_length_b 5.457875
_cell_length_c 28.711925
_cell_angle_alpha 90.000000
_cell_angle_beta 90.000000
_cell_angle_gamma 90.000000
_cell_volume 2455.464513
_symmetry_space_group_name_H-M "C C C 2"
_symmetry_group_IT_number 37
_symmetry_cell_setting 'orthorhombic'
loop_
_space_group_symop_operation_xyz
x,y,z
-x,-y,z
-x,y,1/2+z
x,-y,1/2+z
1/2+x,1/2+y,z
1/2-x,1/2-y,z
1/2-x,1/2+y,1/2+z
1/2+x,1/2-y,1/2+z
loop_
_atom_site_type_symbol
_atom_site_label
_atom_site_fract_x
_atom_site_fract_y
_atom_site_fract_z
Si Si1 0.250000 0.250000 0.578050
Si Si2 0.550952 0.755649 0.232864
Si Si3 0.175561 0.921092 0.494739
Si Si4 0.398897 0.570452 0.903994
Si Si5 0.654591 0.153601 0.820202
Si Si6 0.550198 0.749976 0.059555
Si Si7 0.750000 0.750000 0.851220
Si Si8 0.840175 0.371366 0.642419
O O1 0.291461 0.439534 0.541107
O O2 0.183325 0.382947 0.613060
O O3 0.500000 0.500000 0.223153
O O4 0.611350 0.714756 0.277228
O O5 0.603316 0.858136 0.188490
O O6 0.500000 0.000000 0.247888
O O7 0.250000 0.750000 0.475907
O O8 0.105560 0.730123 0.513173
O O9 0.133935 0.099558 0.456881
O O10 0.500000 0.500000 0.904365
O O11 0.393384 0.797834 0.868564
O O12 0.321258 0.395043 0.883284
O O13 0.750000 0.250000 0.826271
O O14 0.679585 0.871864 0.816480
O O15 0.500000 0.500000 0.053666
O O16 0.608000 0.716731 0.104891
O O17 0.500000 0.000000 0.066779
O O18 0.750000 0.250000 0.653603
#
# Coordination Sequence:
#
# PCOD9355288 Si02
#       8
#     4   8   8   8   8   8   4   8
#     4  12  24  45  80 104 160 202 275 326 400 470
#     4  12  30  50  80 117 155 200 259 329 405 485
#     4  12  25  46  71 109 148 215 261 324 395 475
#     4  11  25  45  73 109 151 207 265 324 398 471
#     4  10  25  48  76 109 149 202 253 329 391 478
#     4  12  25  45  70 106 152 192 255 323 387 459
#     4  10  24  45  72 106 148 194 257 320 394 468
#     4  12  26  47  74 108 147 208 254 323 398 476
#
# _framework density 22.806276
#
# number of rings (size 3 to 8) (size 9 to 14) (size 15 to 20)
#    0.000    0.571    3.571    3.000   11.000    0.571 
#    2.571    0.000    0.000    0.000    0.000    0.000 
#    0.000    0.000    0.000    0.000    0.000    0.000 
#
# Total GULP energy -155940.982396 kJ/mol
# GULP energy per Si atom -5569.320800 kJ/mol
# Density = 2.275437 g / cm^3
# Si number density = 22.806276 Si / 1000 Ang^3
#
#
#
# Elastic Constant Matrix: (Units=GPa)
#
#
# Indices 1 2 3 4 5 6 
#
# 1 116.9875 34.2157 36.4957 0.0000 0.0000 0.0000
# 2 34.2157 66.9595 20.3051 0.0000 0.0000 0.0000
# 3 36.4957 20.3051 120.3064 0.0000 0.0000 0.0000
# 4 0.0000 0.0000 0.0000 -33.0523 0.0000 0.0000
# 5 0.0000 0.0000 0.0000 0.0000 31.8319 0.0000
# 6 0.0000 0.0000 0.0000 0.0000 0.0000 11.1532
#
#
#
# Elastic Compliance Matrix: (Units=1/GPa)
#
#
# Indices 1 2 3 4 5 6 
#
# 1 0.010692 -0.004722 -0.002447 0.000000 0.000000 0.000000
# 2 -0.004722 0.017825 -0.001576 0.000000 0.000000 0.000000
# 3 -0.002447 -0.001576 0.009320 0.000000 0.000000 0.000000
# 4 0.000000 0.000000 0.000000 -0.030255 0.000000 0.000000
# 5 0.000000 0.000000 0.000000 0.000000 0.031415 0.000000
# 6 0.000000 0.000000 0.000000 0.000000 0.000000 0.089660
#
#
# Mechanical properties :
#
#
# Convention : Reuss Voigt Hill
#
# Bulk Modulus (GPa) = 49.14317 54.03183 51.58750
# Shear Modulus (GPa) = 32.69481 16.20237 24.44859
#
# Velocity S-wave (km/s) = 3.79038 2.66829 3.27771
# Velocity P-wave (km/s) = 6.38364 5.76508 6.08223
#
# Compressibility (1/GPa) = 0.02034871
#
# Stress axis : x y z
#
# Youngs Moduli (GPa) = 93.52664 56.10070 107.29243
#
# Poissons Ratio (x) = 0.26489 0.26250
# Poissons Ratio (y) = 0.44160 0.16911
# Poissons Ratio (z) = 0.22882 0.08842
#
# Static dielectric constant tensor:
#      x y z
#    x 1.891860 0.000000 0.000000 
#    y 0.000000 2.950740 0.000000 
#    z 0.000000 0.000000 1.821270 
# 
# From -- ./inp_files/20561.got.cif
#   From: 2010.05.17/outbox.cif.g08.bks.cpg/sg37_11_cif.got.tgz:20561.got - 2010.06.03 17:53:42.
