data_PCOD9355775
_publ_section_title
;
Structure prediction by ZEFSAII (Michael W. Deem and Ramdas Pophale) SiO2 
 PCOD9355775
Probable space group: C C C 2
;
_chemical_formula_sum "Si O2"
_cell_formula_units_Z 32
_cell_length_a 12.000000
_cell_length_b 30.000000
_cell_length_c 9.000000
_cell_angle_alpha 90.000000
_cell_angle_beta 90.000000
_cell_angle_gamma 90.000000
_cell_volume 3240.000000
_symmetry_space_group_name_H-M "C C C 2"
_symmetry_group_IT_number 37
_symmetry_cell_setting 'orthorhombic'
loop_
_space_group_symop_operation_xyz
x,y,z
-x,-y,z
-x,y,1/2+z
x,-y,1/2+z
1/2+x,1/2+y,z
1/2-x,1/2-y,z
1/2-x,1/2+y,1/2+z
1/2+x,1/2-y,1/2+z
loop_
_atom_site_type_symbol
_atom_site_label
_atom_site_fract_x
_atom_site_fract_y
_atom_site_fract_z
Si Si1 0.448054 0.100318 0.436760
Si Si2 0.148445 0.215141 0.462132
Si Si3 0.952023 0.253415 0.259198
Si Si4 0.141640 0.967843 0.300152
Si Si5 0.405071 0.814280 0.532133
Si Si6 0.923733 0.059170 0.645386
Si Si7 0.092709 0.459047 0.723841
Si Si8 0.259938 0.362271 0.254106
O O1 0.511219 0.145107 0.490574
O O2 0.407867 0.069300 0.571872
O O3 0.539084 0.072074 0.348535
O O4 0.345046 0.112085 0.328494
O O5 0.250000 0.250000 0.436916
O O6 0.115163 0.222610 0.638136
O O7 0.191521 0.169033 0.387316
O O8 0.039550 0.227251 0.363941
O O9 0.886708 0.284864 0.380566
O O10 0.026988 0.284872 0.152304
O O11 0.106601 0.954689 0.472186
O O12 0.276199 0.965539 0.269897
O O13 0.057143 0.939759 0.188770
O O14 0.115550 0.018954 0.254061
O O15 0.295537 0.833272 0.618265
O O16 0.853380 0.103443 0.690457
O O17 0.000000 0.500000 0.709622
#
# Coordination Sequence:
#
# PCOD9355775 Si02
#       8
#     8   8   8   8   8   8   8   8
#     4  12  24  42  68 110 140 185 236 307 368 418
#     4  11  23  46  69 104 139 191 231 304 365 435
#     4  10  22  42  71  99 141 180 241 283 379 438
#     4  11  26  47  71 102 147 203 253 290 377 437
#     4  11  19  42  69 103 137 185 230 304 367 437
#     4  11  26  46  72 103 144 206 247 299 354 447
#     4  12  27  42  71 104 147 186 242 304 368 425
#     4  12  24  42  77 103 153 186 252 302 362 438
#
# _framework density 9.8765429999999999
#
# number of rings (size 3 to 8) (size 9 to 14) (size 15 to 20)
#    0.000    0.750    3.750    4.125    7.000    1.000 
#    4.500    0.000    0.000    0.000    0.000    0.000 
#    0.000    0.000    0.000    0.000    0.000    0.000 
#
# Total GULP energy -178593.278222 kJ/mol
# GULP energy per Si atom -5581.039944 kJ/mol
# Density = 0.985406 g / cm^3
# Si number density = 9.876543 Si / 1000 Ang^3
#
#
#
# Elastic Constant Matrix: (Units=GPa)
#
#
# Indices 1 2 3 4 5 6 
#
# 1 145.1166 40.8789 45.9278 0.0000 0.0000 0.0000
# 2 40.8789 63.7245 37.0903 0.0000 0.0000 0.0000
# 3 45.9278 37.0903 156.5918 0.0000 0.0000 0.0000
# 4 0.0000 0.0000 0.0000 40.3667 0.0000 0.0000
# 5 0.0000 0.0000 0.0000 0.0000 42.1303 0.0000
# 6 0.0000 0.0000 0.0000 0.0000 0.0000 38.9432
#
#
#
# Elastic Compliance Matrix: (Units=1/GPa)
#
#
# Indices 1 2 3 4 5 6 
#
# 1 0.008676 -0.004738 -0.001422 0.000000 0.000000 0.000000
# 2 -0.004738 0.020789 -0.003535 0.000000 0.000000 0.000000
# 3 -0.001422 -0.003535 0.007640 0.000000 0.000000 0.000000
# 4 0.000000 0.000000 0.000000 0.024773 0.000000 0.000000
# 5 0.000000 0.000000 0.000000 0.000000 0.023736 0.000000
# 6 0.000000 0.000000 0.000000 0.000000 0.000000 0.025678
#
#
# Mechanical properties :
#
#
# Convention : Reuss Voigt Hill
#
# Bulk Modulus (GPa) = 56.44604 68.13633 62.29119
# Shear Modulus (GPa) = 36.60680 40.39044 38.49862
#
# Velocity S-wave (km/s) = 4.30957 4.52681 4.41953
# Velocity P-wave (km/s) = 7.30760 7.86712 7.59252
#
# Compressibility (1/GPa) = 0.01771603
#
# Stress axis : x y z
#
# Youngs Moduli (GPa) = 115.26389 48.10256 130.88278
#
# Poissons Ratio (x) = 0.22789 0.18617
# Poissons Ratio (y) = 0.54607 0.46261
# Poissons Ratio (z) = 0.16396 0.17002
#
# Static dielectric constant tensor:
#      x y z
#    x 1.724170 0.000000 0.000000 
#    y 0.000000 1.722990 0.000000 
#    z 0.000000 0.000000 1.713470 
# 
# From -- ./inp_files/3123.got.cif
#   From: 2010.05.17/outbox.ucp.g08.bks.cvg/sg37_2_cif.got.tgz:3123.got - 2010.06.11 10:38:43.
