data_PCOD9355295
_publ_section_title
;
Structure prediction by ZEFSAII (Michael W. Deem and Ramdas Pophale) SiO2 
 PCOD9355295
Probable space group: C C C 2
;
_chemical_formula_sum "Si O2"
_cell_formula_units_Z 40
_cell_length_a 23.608100
_cell_length_b 6.062894
_cell_length_c 12.469178
_cell_angle_alpha 90.000000
_cell_angle_beta 90.000000
_cell_angle_gamma 90.000000
_cell_volume 1784.755940
_symmetry_space_group_name_H-M "C C C 2"
_symmetry_group_IT_number 37
_symmetry_cell_setting 'orthorhombic'
loop_
_space_group_symop_operation_xyz
x,y,z
-x,-y,z
-x,y,1/2+z
x,-y,1/2+z
1/2+x,1/2+y,z
1/2-x,1/2-y,z
1/2-x,1/2+y,1/2+z
1/2+x,1/2-y,1/2+z
loop_
_atom_site_type_symbol
_atom_site_label
_atom_site_fract_x
_atom_site_fract_y
_atom_site_fract_z
Si Si1 0.857024 0.242155 0.937020
Si Si2 0.940306 0.383001 0.383594
Si Si3 0.750000 0.250000 0.075675
Si Si4 0.404831 0.624791 0.588256
Si Si5 0.695966 0.396134 0.733633
Si Si6 0.500000 0.500000 0.746812
O O1 0.892718 0.424043 0.869563
O O2 0.834565 0.065651 0.847837
O O3 0.801024 0.333367 0.998224
O O4 0.893035 0.111203 0.027999
O O5 0.919540 0.285543 0.494116
O O6 0.000000 0.500000 0.396371
O O7 0.959208 0.173435 0.309766
O O8 0.719968 0.412977 0.158674
O O9 0.350506 0.704685 0.654019
O O10 0.456613 0.623401 0.669726
O O11 0.750000 0.250000 0.758891
#
# Coordination Sequence:
#
# PCOD9355295 Si02
#       6
#     8   8   4   8   8   4
#     4  11  24  45  69 103 142 188 244 292 367 438
#     4  12  25  43  70  98 138 185 232 302 360 433
#     4  10  24  46  66 104 148 188 240 304 354 434
#     4  11  25  44  66 100 141 180 239 303 354 439
#     4  11  23  42  69 101 138 189 241 289 365 429
#     4  12  26  46  68 104 138 184 246 298 376 436
#
# _framework density 22.412029
#
# number of rings (size 3 to 8) (size 9 to 14) (size 15 to 20)
#    0.000    0.800    1.000    6.600    0.000   10.400 
#    7.200    0.000    0.000    0.000    0.000    0.000 
#    0.000    0.000    0.000    0.000    0.000    0.000 
#
# Total GULP energy -111480.860752 kJ/mol
# GULP energy per Si atom -5574.043038 kJ/mol
# Density = 2.236102 g / cm^3
# Si number density = 22.412029 Si / 1000 Ang^3
#
#
#
# Elastic Constant Matrix: (Units=GPa)
#
#
# Indices 1 2 3 4 5 6 
#
# 1 100.7828 16.4273 42.5143 0.0000 0.0000 0.0000
# 2 16.4273 37.6529 22.9201 0.0000 0.0000 0.0000
# 3 42.5143 22.9201 122.3657 0.0000 0.0000 0.0000
# 4 0.0000 0.0000 0.0000 24.0296 0.0000 0.0000
# 5 0.0000 0.0000 0.0000 0.0000 39.9737 0.0000
# 6 0.0000 0.0000 0.0000 0.0000 0.0000 36.2213
#
#
#
# Elastic Compliance Matrix: (Units=1/GPa)
#
#
# Indices 1 2 3 4 5 6 
#
# 1 0.011924 -0.003025 -0.003576 0.000000 0.000000 0.000000
# 2 -0.003025 0.030744 -0.004707 0.000000 0.000000 0.000000
# 3 -0.003576 -0.004707 0.010296 0.000000 0.000000 0.000000
# 4 0.000000 0.000000 0.000000 0.041615 0.000000 0.000000
# 5 0.000000 0.000000 0.000000 0.000000 0.025016 0.000000
# 6 0.000000 0.000000 0.000000 0.000000 0.000000 0.027608
#
#
# Mechanical properties :
#
#
# Convention : Reuss Voigt Hill
#
# Bulk Modulus (GPa) = 32.95286 47.16942 40.06114
# Shear Modulus (GPa) = 27.78742 31.97425 29.88083
#
# Velocity S-wave (km/s) = 3.52496 3.78121 3.65533
# Velocity P-wave (km/s) = 5.59484 6.33684 5.97737
#
# Compressibility (1/GPa) = 0.03034638
#
# Stress axis : x y z
#
# Youngs Moduli (GPa) = 83.86429 32.52686 97.12072
#
# Poissons Ratio (x) = 0.09840 0.34732
# Poissons Ratio (y) = 0.25372 0.45719
# Poissons Ratio (z) = 0.29991 0.15312
#
# Static dielectric constant tensor:
#      x y z
#    x 1.833350 0.000000 0.000000 
#    y 0.000000 1.968700 0.000000 
#    z 0.000000 0.000000 1.810320 
# 
# From -- ./inp_files/5552.got.cif
#   From: 2010.05.17/outbox.cif.g08.bks.cpg/sg37_3_cif.got.tgz:5552.got - 2010.06.03 17:53:42.
