data_PCOD9355290
_publ_section_title
;
Structure prediction by ZEFSAII (Michael W. Deem and Ramdas Pophale) SiO2 
 PCOD9355290
Probable space group: C C C 2
;
_chemical_formula_sum "Si O2"
_cell_formula_units_Z 40
_cell_length_a 14.163431
_cell_length_b 5.543442
_cell_length_c 22.278279
_cell_angle_alpha 90.000000
_cell_angle_beta 90.000000
_cell_angle_gamma 90.000000
_cell_volume 1749.160323
_symmetry_space_group_name_H-M "C C C 2"
_symmetry_group_IT_number 37
_symmetry_cell_setting 'orthorhombic'
loop_
_space_group_symop_operation_xyz
x,y,z
-x,-y,z
-x,y,1/2+z
x,-y,1/2+z
1/2+x,1/2+y,z
1/2-x,1/2-y,z
1/2-x,1/2+y,1/2+z
1/2+x,1/2-y,1/2+z
loop_
_atom_site_type_symbol
_atom_site_label
_atom_site_fract_x
_atom_site_fract_y
_atom_site_fract_z
Si Si1 0.351740 0.333158 0.399760
Si Si2 0.354245 0.654349 0.502813
Si Si3 0.111575 0.979547 0.124282
Si Si4 0.384509 0.983662 0.690152
Si Si5 0.750000 0.250000 0.784069
Si Si6 0.500000 0.000000 0.965477
O O1 0.250000 0.250000 0.425688
O O2 0.374933 0.573068 0.435063
O O3 0.326982 0.366342 0.330091
O O4 0.429878 0.146630 0.421633
O O5 0.250000 0.750000 0.506109
O O6 0.362966 0.456797 0.554376
O O7 0.435355 0.848186 0.510900
O O8 0.139410 0.244754 0.149883
O O9 0.140239 0.739261 0.159732
O O10 0.000000 0.000000 0.128972
O O11 0.500000 0.000000 0.702425
O O12 0.314250 0.933836 0.746127
#
# Coordination Sequence:
#
# PCOD9355290 Si02
#       6
#     8   8   8   8   4   4
#     4  10  24  46  72 108 147 198 253 308 386 452
#     4  12  25  46  74 114 153 196 248 322 386 478
#     4  10  24  45  76 106 151 193 252 310 392 455
#     4  10  24  48  71 108 143 202 253 317 376 449
#     4  10  24  48  70 106 144 200 266 314 370 458
#     4  12  24  46  76 108 156 198 244 316 402 448
#
# _framework density 22.868115
#
# number of rings (size 3 to 8) (size 9 to 14) (size 15 to 20)
#    0.600    0.800    2.000    1.800    9.800    0.800 
#   10.800    2.000    0.000    0.000    0.000    0.000 
#    0.000    0.000    0.000    0.000    0.000    0.000 
#
# Total GULP energy -111547.392827 kJ/mol
# GULP energy per Si atom -5577.369641 kJ/mol
# Density = 2.281607 g / cm^3
# Si number density = 22.868115 Si / 1000 Ang^3
#
#
#
# Elastic Constant Matrix: (Units=GPa)
#
#
# Indices 1 2 3 4 5 6 
#
# 1 159.2221 55.8606 44.8491 0.0000 0.0000 0.0000
# 2 55.8606 123.4250 64.9851 0.0000 0.0000 0.0000
# 3 44.8491 64.9851 139.3063 0.0000 0.0000 0.0000
# 4 0.0000 0.0000 0.0000 541.9265 0.0000 0.0000
# 5 0.0000 0.0000 0.0000 0.0000 -16.5498 0.0000
# 6 0.0000 0.0000 0.0000 0.0000 0.0000 12.3707
#
#
#
# Elastic Compliance Matrix: (Units=1/GPa)
#
#
# Indices 1 2 3 4 5 6 
#
# 1 0.007595 -0.002850 -0.001116 0.000000 0.000000 0.000000
# 2 -0.002850 0.011809 -0.004591 0.000000 0.000000 0.000000
# 3 -0.001116 -0.004591 0.009679 0.000000 0.000000 0.000000
# 4 0.000000 0.000000 0.000000 0.001845 0.000000 0.000000
# 5 0.000000 0.000000 0.000000 0.000000 -0.060424 0.000000
# 6 0.000000 0.000000 0.000000 0.000000 0.000000 0.080836
#
#
# Mechanical properties :
#
#
# Convention : Reuss Voigt Hill
#
# Bulk Modulus (GPa) = 83.54507 83.70477 83.62492
# Shear Modulus (GPa) = 69.01822 124.63340 96.82581
#
# Velocity S-wave (km/s) = 5.49968 7.39048 6.51405
# Velocity P-wave (km/s) = 8.77163 10.46463 9.65531
#
# Compressibility (1/GPa) = 0.01196959
#
# Stress axis : x y z
#
# Youngs Moduli (GPa) = 131.67252 84.67863 103.31139
#
# Poissons Ratio (x) = 0.24132 0.11526
# Poissons Ratio (y) = 0.37524 0.47435
# Poissons Ratio (z) = 0.14690 0.38880
#
# Static dielectric constant tensor:
#      x y z
#    x 1.892420 0.000000 0.000000 
#    y 0.000000 1.145340 0.000000 
#    z 0.000000 0.000000 1.850390 
# 
# From -- ./inp_files/18799.got.cif
#   From: 2010.05.17/outbox.cif.g08.bks.cpg/sg37_10_cif.got.tgz:18799.got - 2010.06.03 17:53:42.
