data_PCOD9355686
_publ_section_title
;
Structure prediction by ZEFSAII (Michael W. Deem and Ramdas Pophale) SiO2 
 PCOD9355686
Probable space group: C C C 2
;
_chemical_formula_sum "Si O2"
_cell_formula_units_Z 60
_cell_length_a 12.685821
_cell_length_b 8.967749
_cell_length_c 25.888683
_cell_angle_alpha 90.000000
_cell_angle_beta 90.000000
_cell_angle_gamma 90.000000
_cell_volume 2945.180939
_symmetry_space_group_name_H-M "C C C 2"
_symmetry_group_IT_number 37
_symmetry_cell_setting 'orthorhombic'
loop_
_space_group_symop_operation_xyz
x,y,z
-x,-y,z
-x,y,1/2+z
x,-y,1/2+z
1/2+x,1/2+y,z
1/2-x,1/2-y,z
1/2-x,1/2+y,1/2+z
1/2+x,1/2-y,1/2+z
loop_
_atom_site_type_symbol
_atom_site_label
_atom_site_fract_x
_atom_site_fract_y
_atom_site_fract_z
Si Si1 0.422590 0.371296 0.583360
Si Si2 0.112878 0.988938 0.324426
Si Si3 0.500000 0.000000 0.312350
Si Si4 0.608912 0.078897 0.146604
Si Si5 0.005443 0.768771 0.882647
Si Si6 0.458080 0.168002 0.997150
Si Si7 0.228668 0.589293 0.560992
Si Si8 0.707945 0.917482 0.752482
O O1 0.500000 0.500000 0.603349
O O2 0.396140 0.252110 0.628513
O O3 0.484222 0.273371 0.539739
O O4 0.324458 0.469120 0.559801
O O5 0.100158 0.832341 0.354289
O O6 0.541045 0.873999 0.350933
O O7 0.208667 0.010139 0.286393
O O8 0.000000 0.000000 0.294290
O O9 0.594590 0.608385 0.370038
O O10 0.406239 0.938168 0.277556
O O11 0.692918 0.051902 0.191945
O O12 0.500000 0.000000 0.162829
O O13 0.643169 0.993184 0.095560
O O14 0.981767 0.738808 0.941678
O O15 0.334789 0.142743 0.010204
O O16 0.500000 0.000000 0.997086
O O17 0.250000 0.750000 0.587187
O O18 0.750000 0.750000 0.756911
#
# Coordination Sequence:
#
# PCOD9355686 Si02
#       8
#     8   8   4   8   8   8   8   8
#     4  12  24  44  71 100 145 183 237 300 353 444
#     4   8  21  45  67  95 146 173 241 297 352 430
#     4  12  22  42  66  96 138 170 238 290 352 420
#     4  12  24  47  70 102 144 187 238 302 368 434
#     4   9  22  44  66 100 137 181 230 294 359 421
#     4  12  23  43  71 100 150 188 233 295 363 436
#     4  12  24  44  66 103 138 187 236 290 353 437
#     4  12  23  44  72 100 136 192 233 304 367 424
#
# _framework density 20.372264000000001
#
# number of rings (size 3 to 8) (size 9 to 14) (size 15 to 20)
#    0.800    0.000    6.667    1.200    1.867    0.533 
#    7.200    5.333    0.000    0.000    0.000    0.000 
#    0.000    0.000    0.000    0.000    0.000    0.000 
#
# Total GULP energy -167019.622315 kJ/mol
# GULP energy per Si atom -5567.320744 kJ/mol
# Density = 2.032590 g / cm^3
# Si number density = 20.372264 Si / 1000 Ang^3
#
#
#
# Elastic Constant Matrix: (Units=GPa)
#
#
# Indices 1 2 3 4 5 6 
#
# 1 106.1529 31.2111 35.6496 0.0000 0.0000 0.0000
# 2 31.2111 116.1132 30.8868 0.0000 0.0000 0.0000
# 3 35.6496 30.8868 104.4710 0.0000 0.0000 0.0000
# 4 0.0000 0.0000 0.0000 16.7117 0.0000 0.0000
# 5 0.0000 0.0000 0.0000 0.0000 18.0432 0.0000
# 6 0.0000 0.0000 0.0000 0.0000 0.0000 38.7919
#
#
#
# Elastic Compliance Matrix: (Units=1/GPa)
#
#
# Indices 1 2 3 4 5 6 
#
# 1 0.011112 -0.002147 -0.003157 0.000000 0.000000 0.000000
# 2 -0.002147 0.009762 -0.002154 0.000000 0.000000 0.000000
# 3 -0.003157 -0.002154 0.011286 0.000000 0.000000 0.000000
# 4 0.000000 0.000000 0.000000 0.059838 0.000000 0.000000
# 5 0.000000 0.000000 0.000000 0.000000 0.055423 0.000000
# 6 0.000000 0.000000 0.000000 0.000000 0.000000 0.025779
#
#
# Mechanical properties :
#
#
# Convention : Reuss Voigt Hill
#
# Bulk Modulus (GPa) = 57.98819 58.02580 58.00699
# Shear Modulus (GPa) = 25.79139 29.97535 27.88337
#
# Velocity S-wave (km/s) = 3.56196 3.84002 3.70360
# Velocity P-wave (km/s) = 6.74113 6.94302 6.84282
#
# Compressibility (1/GPa) = 0.01724489
#
# Stress axis : x y z
#
# Youngs Moduli (GPa) = 89.99366 102.43518 88.60507
#
# Poissons Ratio (x) = 0.21994 0.27973
# Poissons Ratio (y) = 0.19322 0.19082
# Poissons Ratio (z) = 0.28411 0.22060
#
# Static dielectric constant tensor:
#      x y z
#    x 1.796160 0.000000 0.000000 
#    y 0.000000 1.817150 0.000000 
#    z 0.000000 0.000000 1.709710 
# 
# From -- ./inp_files/19771.got.cif
#   From: 2010.05.17/outbox.cif.g08.bks.cpg/sg37_10_cif.got.tgz:19771.got - 2010.06.03 17:53:42.
