data_PCOD9355787
_publ_section_title
;
Structure prediction by ZEFSAII (Michael W. Deem and Ramdas Pophale) SiO2 
 PCOD9355787
Probable space group: A M M 2
;
_chemical_formula_sum "Si O2"
_cell_formula_units_Z 44
_cell_length_a 13.735821
_cell_length_b 17.664591
_cell_length_c 7.115411
_cell_angle_alpha 90.000000
_cell_angle_beta 90.000000
_cell_angle_gamma 90.000000
_cell_volume 1726.466675
_symmetry_space_group_name_H-M "A M M 2"
_symmetry_group_IT_number 38
_symmetry_cell_setting 'orthorhombic'
loop_
_space_group_symop_operation_xyz
x,y,z
-x,-y,z
-x,y,z
x,-y,z
x,1/2+y,1/2+z
-x,1/2-y,1/2+z
-x,1/2+y,1/2+z
x,1/2-y,1/2+z
loop_
_atom_site_type_symbol
_atom_site_label
_atom_site_fract_x
_atom_site_fract_y
_atom_site_fract_z
Si Si1 0.135254 0.643593 0.213320
Si Si2 0.656786 0.875266 0.604887
Si Si3 0.500000 0.375395 0.582869
Si Si4 0.107120 0.680920 0.774345
Si Si5 0.500000 0.000000 0.697880
Si Si6 0.000000 0.000000 0.801219
Si Si7 0.284734 0.083663 0.180862
Si Si8 0.500000 0.775777 0.457792
O O1 0.250717 0.635570 0.233265
O O2 0.109820 0.727812 0.285793
O O3 0.082965 0.568828 0.288361
O O4 0.113771 0.649482 0.987649
O O5 0.690102 0.907430 0.402433
O O6 0.599712 0.797696 0.562435
O O7 0.582834 0.935033 0.683654
O O8 0.606308 0.413608 0.588876
O O9 0.500000 0.312197 0.425109
O O10 0.500000 0.328079 0.776485
O O11 0.198892 0.646338 0.659523
O O12 0.000000 0.658794 0.697889
O O13 0.243879 0.000000 0.144417
#
# Coordination Sequence:
#
# PCOD9355787 Si02
#       8
#     8   8   4   8   2   2   8   4
#     4  11  23  39  62  90 122 156 205 254 309 361
#     4   9  18  29  52  83 116 142 189 245 296 345
#     4  10  19  34  51  83 108 146 191 242 299 363
#     4  11  22  39  60  89 123 159 201 255 312 364
#     4  10  14  28  52  84 124 146 192 248 300 350
#     4  12  22  36  64  88 114 148 206 254 292 358
#     4  10  20  31  56  84 116 150 200 254 295 350
#     4   9  18  31  50  79 106 148 181 229 291 358
#
# _framework density 25.485576999999999
#
# number of rings (size 3 to 8) (size 9 to 14) (size 15 to 20)
#    0.000    1.818    2.727    2.455    3.818    0.364 
#    0.000    0.000    2.000    1.091   18.909    0.000 
#    0.000    0.000    0.000    0.000    0.000    0.000 
#
# Total GULP energy -122536.527052 kJ/mol
# GULP energy per Si atom -5569.842139 kJ/mol
# Density = 2.542757 g / cm^3
# Si number density = 25.485577 Si / 1000 Ang^3
#
#
#
# Elastic Constant Matrix: (Units=GPa)
#
#
# Indices 1 2 3 4 5 6 
#
# 1 219.6438 87.9960 31.0157 0.0000 0.0000 0.0000
# 2 87.9960 188.7037 10.2227 0.0000 0.0000 0.0000
# 3 31.0157 10.2227 67.5937 0.0000 0.0000 0.0000
# 4 0.0000 0.0000 0.0000 2.5694 0.0000 0.0000
# 5 0.0000 0.0000 0.0000 0.0000 19.9883 0.0000
# 6 0.0000 0.0000 0.0000 0.0000 0.0000 -26.0624
#
#
#
# Elastic Compliance Matrix: (Units=1/GPa)
#
#
# Indices 1 2 3 4 5 6 
#
# 1 0.005941 -0.002644 -0.002326 0.000000 0.000000 0.000000
# 2 -0.002644 0.006520 0.000227 0.000000 0.000000 0.000000
# 3 -0.002326 0.000227 0.015827 0.000000 0.000000 0.000000
# 4 0.000000 0.000000 0.000000 0.389197 0.000000 0.000000
# 5 0.000000 0.000000 0.000000 0.000000 0.050029 0.000000
# 6 0.000000 0.000000 0.000000 0.000000 0.000000 -0.038369
#
#
# Mechanical properties :
#
#
# Convention : Reuss Voigt Hill
#
# Bulk Modulus (GPa) = 53.18596 81.60112 67.39354
# Shear Modulus (GPa) = 11.23852 22.41285 16.82568
#
# Velocity S-wave (km/s) = 2.10222 2.96874 2.57223
# Velocity P-wave (km/s) = 5.17753 6.62112 5.94332
#
# Compressibility (1/GPa) = 0.01880195
#
# Stress axis : x y z
#
# Youngs Moduli (GPa) = 168.33225 153.37304 63.18237
#
# Poissons Ratio (x) = 0.40555 0.14696
# Poissons Ratio (y) = 0.44511 -0.01436
# Poissons Ratio (z) = 0.39154 -0.03485
#
# Static dielectric constant tensor:
#      x y z
#    x 1.989500 0.000000 0.000000 
#    y 0.000000 1.907160 0.000000 
#    z 0.000000 0.000000 2.144610 
# 
# From -- ./inp_files/9992.got.cif
#   From: 2010.05.17/outbox.cif.g08.bks.cpg/sg38_5_cif.got.tgz:9992.got - 2010.06.03 18:07:57.
