data_PCOD9355617
_publ_section_title
;
Structure prediction by ZEFSAII (Michael W. Deem and Ramdas Pophale) SiO2 
 PCOD9355617
Probable space group: C C C 2
;
_chemical_formula_sum "Si O2"
_cell_formula_units_Z 48
_cell_length_a 16.819011
_cell_length_b 13.831992
_cell_length_c 8.752270
_cell_angle_alpha 90.000000
_cell_angle_beta 90.000000
_cell_angle_gamma 90.000000
_cell_volume 2036.131818
_symmetry_space_group_name_H-M "C C C 2"
_symmetry_group_IT_number 37
_symmetry_cell_setting 'orthorhombic'
loop_
_space_group_symop_operation_xyz
x,y,z
-x,-y,z
-x,y,1/2+z
x,-y,1/2+z
1/2+x,1/2+y,z
1/2-x,1/2-y,z
1/2-x,1/2+y,1/2+z
1/2+x,1/2-y,1/2+z
loop_
_atom_site_type_symbol
_atom_site_label
_atom_site_fract_x
_atom_site_fract_y
_atom_site_fract_z
Si Si1 0.405674 0.713122 0.382230
Si Si2 0.333589 0.605823 0.627173
Si Si3 0.082881 0.207426 0.388612
Si Si4 0.658764 0.101355 0.941119
Si Si5 0.843310 0.606507 0.071290
Si Si6 0.325128 0.388828 0.623117
O O1 0.399622 0.623931 0.500253
O O2 0.495294 0.714048 0.321574
O O3 0.388793 0.809226 0.481291
O O4 0.340934 0.690195 0.252904
O O5 0.353052 0.683203 0.757392
O O6 0.250212 0.624450 0.544032
O O7 0.327702 0.497216 0.689153
O O8 0.103400 0.307165 0.473978
O O9 0.100471 0.123811 0.509546
O O10 0.655381 0.099306 0.756021
O O11 0.744411 0.120294 0.022831
O O12 0.632681 0.997607 0.004298
#
# Coordination Sequence:
#
# PCOD9355617 Si02
#       6
#     8   8   8   8   8   8
#     4  12  27  44  74 111 149 191 242 305 388 444
#     4  11  24  47  70 102 148 192 243 300 359 443
#     4  12  25  46  71 110 152 192 236 309 383 442
#     4  11  26  48  75 103 144 192 253 307 360 436
#     4  11  26  48  75 104 140 195 250 309 361 436
#     4  11  26  43  75 110 143 196 250 298 367 453
#
# _framework density 23.574113000000001
#
# number of rings (size 3 to 8) (size 9 to 14) (size 15 to 20)
#    0.000    0.667    3.333    3.000    9.333    6.000 
#    0.000    1.667    0.000    0.000    0.000    0.000 
#    0.000    0.000    0.000    0.000    0.000    0.000 
#
# Total GULP energy -134066.038986 kJ/mol
# GULP energy per Si atom -5586.084958 kJ/mol
# Density = 2.352046 g / cm^3
# Si number density = 23.574113 Si / 1000 Ang^3
#
#
#
# Elastic Constant Matrix: (Units=GPa)
#
#
# Indices 1 2 3 4 5 6 
#
# 1 46.3944 18.8375 -18.1708 0.0000 0.0000 0.0000
# 2 18.8375 116.2411 28.4574 0.0000 0.0000 0.0000
# 3 -18.1708 28.4574 76.0283 0.0000 0.0000 0.0000
# 4 0.0000 0.0000 0.0000 48.1532 0.0000 0.0000
# 5 0.0000 0.0000 0.0000 0.0000 24.8079 0.0000
# 6 0.0000 0.0000 0.0000 0.0000 0.0000 13.3528
#
#
#
# Elastic Compliance Matrix: (Units=1/GPa)
#
#
# Indices 1 2 3 4 5 6 
#
# 1 0.027913 -0.006778 0.009208 0.000000 0.000000 0.000000
# 2 -0.006778 0.011116 -0.005781 0.000000 0.000000 0.000000
# 3 0.009208 -0.005781 0.017517 0.000000 0.000000 0.000000
# 4 0.000000 0.000000 0.000000 0.020767 0.000000 0.000000
# 5 0.000000 0.000000 0.000000 0.000000 0.040310 0.000000
# 6 0.000000 0.000000 0.000000 0.000000 0.000000 0.074891
#
#
# Mechanical properties :
#
#
# Convention : Reuss Voigt Hill
#
# Bulk Modulus (GPa) = 20.06190 32.99023 26.52607
# Shear Modulus (GPa) = 23.16638 31.23209 27.19923
#
# Velocity S-wave (km/s) = 3.13821 3.64379 3.40041
# Velocity P-wave (km/s) = 4.65401 5.63273 5.16659
#
# Compressibility (1/GPa) = 0.04984573
#
# Stress axis : x y z
#
# Youngs Moduli (GPa) = 35.82601 89.95744 57.08603
#
# Poissons Ratio (x) = 0.60970 -0.52565
# Poissons Ratio (y) = 0.24282 0.33000
# Poissons Ratio (z) = -0.32989 0.52002
#
# Static dielectric constant tensor:
#      x y z
#    x 1.868620 0.000000 0.000000 
#    y 0.000000 1.884980 0.000000 
#    z 0.000000 0.000000 1.955500 
# 
# From -- ./inp_files/3503.got.cif
#   From: 2010.05.17/outbox.cif.g08.bks.cpg/sg37_2_cif.got.tgz:3503.got - 2010.06.03 17:53:42.
