data_PCOD9355300
_publ_section_title
;
Structure prediction by ZEFSAII (Michael W. Deem and Ramdas Pophale) SiO2 
 PCOD9355300
Probable space group: C C C 2
;
_chemical_formula_sum "Si O2"
_cell_formula_units_Z 40
_cell_length_a 21.062026
_cell_length_b 7.204878
_cell_length_c 12.834132
_cell_angle_alpha 90.000000
_cell_angle_beta 90.000000
_cell_angle_gamma 90.000000
_cell_volume 1947.570903
_symmetry_space_group_name_H-M "C C C 2"
_symmetry_group_IT_number 37
_symmetry_cell_setting 'orthorhombic'
loop_
_space_group_symop_operation_xyz
x,y,z
-x,-y,z
-x,y,1/2+z
x,-y,1/2+z
1/2+x,1/2+y,z
1/2-x,1/2-y,z
1/2-x,1/2+y,1/2+z
1/2+x,1/2-y,1/2+z
loop_
_atom_site_type_symbol
_atom_site_label
_atom_site_fract_x
_atom_site_fract_y
_atom_site_fract_z
Si Si1 0.831533 0.531248 0.929680
Si Si2 0.597063 0.707896 0.779376
Si Si3 0.000000 0.000000 0.425491
Si Si4 0.055981 0.340391 0.552304
Si Si5 0.250000 0.750000 0.582469
Si Si6 0.728700 0.463335 0.264386
O O1 0.874614 0.615728 0.839260
O O2 0.768631 0.464571 0.865331
O O3 0.807290 0.695926 0.005670
O O4 0.877929 0.404332 0.997839
O O5 0.544668 0.617038 0.850536
O O6 0.571428 0.781219 0.670114
O O7 0.653285 0.555068 0.774404
O O8 0.966102 0.846457 0.495702
O O9 0.000000 0.500000 0.546674
O O10 0.257744 0.578636 0.660798
O O11 0.750000 0.250000 0.250652
#
# Coordination Sequence:
#
# PCOD9355300 Si02
#       6
#     8   8   4   8   4   8
#     4  11  23  48  71 107 146 184 241 299 366 442
#     4  11  25  47  71 105 145 180 250 293 362 444
#     4  12  28  48  72 110 144 190 244 312 368 448
#     4  12  28  47  77 107 147 201 245 307 374 439
#     4  12  24  44  76 102 146 188 234 296 372 434
#     4  10  24  46  69 109 142 186 237 297 357 446
#
# _framework density 20.538406999999999
#
# number of rings (size 3 to 8) (size 9 to 14) (size 15 to 20)
#    0.000    0.800    5.000    3.000    8.400    1.600 
#    1.800    0.000    0.000    0.000    0.000    0.000 
#    0.000    0.000    0.000    0.000    0.000    0.000 
#
# Total GULP energy -111645.796838 kJ/mol
# GULP energy per Si atom -5582.289842 kJ/mol
# Density = 2.049166 g / cm^3
# Si number density = 20.538407 Si / 1000 Ang^3
#
#
#
# Elastic Constant Matrix: (Units=GPa)
#
#
# Indices 1 2 3 4 5 6 
#
# 1 53.9046 31.6070 45.4847 0.0000 0.0000 0.0000
# 2 31.6070 91.9895 57.7904 0.0000 0.0000 0.0000
# 3 45.4847 57.7904 166.4897 0.0000 0.0000 0.0000
# 4 0.0000 0.0000 0.0000 46.8334 0.0000 0.0000
# 5 0.0000 0.0000 0.0000 0.0000 29.0644 0.0000
# 6 0.0000 0.0000 0.0000 0.0000 0.0000 18.4797
#
#
#
# Elastic Compliance Matrix: (Units=1/GPa)
#
#
# Indices 1 2 3 4 5 6 
#
# 1 0.026316 -0.005787 -0.005181 0.000000 0.000000 0.000000
# 2 -0.005787 0.015175 -0.003686 0.000000 0.000000 0.000000
# 3 -0.005181 -0.003686 0.008701 0.000000 0.000000 0.000000
# 4 0.000000 0.000000 0.000000 0.021352 0.000000 0.000000
# 5 0.000000 0.000000 0.000000 0.000000 0.034406 0.000000
# 6 0.000000 0.000000 0.000000 0.000000 0.000000 0.054113
#
#
# Mechanical properties :
#
#
# Convention : Reuss Voigt Hill
#
# Bulk Modulus (GPa) = 47.88407 64.68313 56.28360
# Shear Modulus (GPa) = 25.46668 30.70894 28.08781
#
# Velocity S-wave (km/s) = 3.52512 3.87097 3.70209
# Velocity P-wave (km/s) = 6.31931 7.17923 6.76295
#
# Compressibility (1/GPa) = 0.02088377
#
# Stress axis : x y z
#
# Youngs Moduli (GPa) = 37.99943 65.89698 114.92541
#
# Poissons Ratio (x) = 0.38138 0.59539
# Poissons Ratio (y) = 0.21992 0.42366
# Poissons Ratio (z) = 0.19686 0.24292
#
# Static dielectric constant tensor:
#      x y z
#    x 1.769010 0.000000 0.000000 
#    y 0.000000 1.737910 0.000000 
#    z 0.000000 0.000000 1.726180 
# 
# From -- ./inp_files/8171.got.cif
#   From: 2010.05.17/outbox.cif.g08.bks.cpg/sg37_5_cif.got.tgz:8171.got - 2010.06.03 17:53:42.
