data_PCOD9355104
_publ_section_title
;
Structure prediction by ZEFSAII (Michael W. Deem and Ramdas Pophale) SiO2 
 PCOD9355104
Probable space group: C C C 2
;
_chemical_formula_sum "Si O2"
_cell_formula_units_Z 56
_cell_length_a 5.363311
_cell_length_b 14.394648
_cell_length_c 31.624689
_cell_angle_alpha 90.000000
_cell_angle_beta 90.000000
_cell_angle_gamma 90.000000
_cell_volume 2441.520041
_symmetry_space_group_name_H-M "C C C 2"
_symmetry_group_IT_number 37
_symmetry_cell_setting 'orthorhombic'
loop_
_space_group_symop_operation_xyz
x,y,z
-x,-y,z
-x,y,1/2+z
x,-y,1/2+z
1/2+x,1/2+y,z
1/2-x,1/2-y,z
1/2-x,1/2+y,1/2+z
1/2+x,1/2-y,1/2+z
loop_
_atom_site_type_symbol
_atom_site_label
_atom_site_fract_x
_atom_site_fract_y
_atom_site_fract_z
Si Si1 0.250000 0.750000 0.480021
Si Si2 0.368557 0.352237 0.527153
Si Si3 0.504686 0.802917 0.283744
Si Si4 0.750000 0.250000 0.643857
Si Si5 0.750640 0.562079 0.353101
Si Si6 0.619516 0.898269 0.442669
Si Si7 0.600774 0.397273 0.117412
Si Si8 0.951083 0.608624 0.696004
O O1 0.351337 0.671344 0.512417
O O2 0.439910 0.808561 0.450145
O O3 0.250000 0.250000 0.528966
O O4 0.272355 0.402670 0.485616
O O5 0.292507 0.403449 0.570071
O O6 0.750000 0.750000 0.265823
O O7 0.654242 0.863484 0.318564
O O8 0.397541 0.858879 0.243326
O O9 0.250000 0.750000 0.299818
O O10 0.568182 0.305866 0.613162
O O11 0.671466 0.167542 0.675260
O O12 0.500000 0.500000 0.343666
O O13 0.723201 0.609789 0.399170
O O14 0.000000 0.500000 0.354708
O O15 0.500000 0.000000 0.439448
O O16 0.500000 0.500000 0.125562
O O17 0.748680 0.373484 0.159840
O O18 0.000000 0.500000 0.696870
#
# Coordination Sequence:
#
# PCOD9355104 Si02
#       8
#     4   8   8   4   8   8   8   8
#     4  10  23  42  68 106 140 204 248 322 381 464
#     4  10  23  43  65 102 144 196 250 319 374 463
#     4  12  27  48  80 115 152 202 257 324 397 474
#     4  12  23  48  68 100 144 190 240 318 361 472
#     4  11  26  49  76 114 155 202 258 322 394 475
#     4  10  25  42  73 103 149 195 250 314 389 455
#     4  12  26  43  73 107 146 201 256 313 391 455
#     4  12  26  47  73 105 147 193 251 317 391 459
#
# _framework density 22.936530000000001
#
# number of rings (size 3 to 8) (size 9 to 14) (size 15 to 20)
#    0.000    0.857    2.143    3.857    7.000    3.429 
#    0.000    0.000    0.000    0.000    0.000    0.000 
#    0.000    0.000    0.000    0.000    0.000    0.000 
#
# Total GULP energy -155895.972576 kJ/mol
# GULP energy per Si atom -5567.713306 kJ/mol
# Density = 2.288433 g / cm^3
# Si number density = 22.936530 Si / 1000 Ang^3
#
#
#
# Elastic Constant Matrix: (Units=GPa)
#
#
# Indices 1 2 3 4 5 6 
#
# 1 97.3135 32.5041 41.7474 0.0000 0.0000 0.0000
# 2 32.5041 89.9898 39.8470 0.0000 0.0000 0.0000
# 3 41.7474 39.8470 166.6165 0.0000 0.0000 0.0000
# 4 0.0000 0.0000 0.0000 47.7161 0.0000 0.0000
# 5 0.0000 0.0000 0.0000 0.0000 40.0984 0.0000
# 6 0.0000 0.0000 0.0000 0.0000 0.0000 38.6415
#
#
#
# Elastic Compliance Matrix: (Units=1/GPa)
#
#
# Indices 1 2 3 4 5 6 
#
# 1 0.012415 -0.003475 -0.002280 0.000000 0.000000 0.000000
# 2 -0.003475 0.013401 -0.002334 0.000000 0.000000 0.000000
# 3 -0.002280 -0.002334 0.007131 0.000000 0.000000 0.000000
# 4 0.000000 0.000000 0.000000 0.020957 0.000000 0.000000
# 5 0.000000 0.000000 0.000000 0.000000 0.024939 0.000000
# 6 0.000000 0.000000 0.000000 0.000000 0.000000 0.025879
#
#
# Mechanical properties :
#
#
# Convention : Reuss Voigt Hill
#
# Bulk Modulus (GPa) = 59.63151 64.67964 62.15557
# Shear Modulus (GPa) = 39.52915 41.27928 40.40422
#
# Velocity S-wave (km/s) = 4.15591 4.24691 4.20165
# Velocity P-wave (km/s) = 7.00597 7.23249 7.12013
#
# Compressibility (1/GPa) = 0.01676966
#
# Stress axis : x y z
#
# Youngs Moduli (GPa) = 80.55017 74.62101 140.22806
#
# Poissons Ratio (x) = 0.25929 0.31967
# Poissons Ratio (y) = 0.27989 0.32733
# Poissons Ratio (z) = 0.18362 0.17419
#
# Static dielectric constant tensor:
#      x y z
#    x 1.965610 0.000000 0.000000 
#    y 0.000000 1.604250 0.000000 
#    z 0.000000 0.000000 1.970350 
# 
# From -- ./inp_files/20180.got.cif
#   From: 2010.05.17/outbox.cif.g08.bks.cpg/sg37_11_cif.got.tgz:20180.got - 2010.06.03 17:53:42.
