data_PCOD9355116
_publ_section_title
;
Structure prediction by ZEFSAII (Michael W. Deem and Ramdas Pophale) SiO2 
 PCOD9355116
Probable space group: C C C 2
;
_chemical_formula_sum "Si O2"
_cell_formula_units_Z 64
_cell_length_a 10.414983
_cell_length_b 10.414983
_cell_length_c 30.705058
_cell_angle_alpha 90.000000
_cell_angle_beta 90.000000
_cell_angle_gamma 90.000000
_cell_volume 3330.635087
_symmetry_space_group_name_H-M "C C C 2"
_symmetry_group_IT_number 37
_symmetry_cell_setting 'orthorhombic'
loop_
_space_group_symop_operation_xyz
x,y,z
-x,-y,z
-x,y,1/2+z
x,-y,1/2+z
1/2+x,1/2+y,z
1/2-x,1/2-y,z
1/2-x,1/2+y,1/2+z
1/2+x,1/2-y,1/2+z
loop_
_atom_site_type_symbol
_atom_site_label
_atom_site_fract_x
_atom_site_fract_y
_atom_site_fract_z
Si Si1 0.352907 0.145292 0.714210
Si Si2 0.909077 0.377112 0.114669
Si Si3 0.644174 0.856118 0.350564
Si Si4 0.354708 0.852907 0.382134
Si Si5 0.377112 0.909077 0.481675
Si Si6 0.953843 0.799198 0.053554
Si Si7 0.299198 0.546157 0.042790
Si Si8 0.143882 0.355826 0.245780
O O1 0.250000 0.250000 0.730395
O O2 0.351162 0.145665 0.661761
O O3 0.499576 0.174149 0.728980
O O4 0.323892 0.999892 0.729606
O O5 0.803392 0.399193 0.076990
O O6 0.000000 0.500000 0.116971
O O7 0.001613 0.264881 0.098152
O O8 0.750000 0.750000 0.364143
O O9 0.500108 0.823892 0.366738
O O10 0.640962 0.859038 0.298172
O O11 0.674149 0.000424 0.367364
O O12 0.250000 0.750000 0.365948
O O13 0.354335 0.851162 0.434583
O O14 0.399193 0.803392 0.519354
O O15 0.500000 0.000000 0.479373
O O16 0.264881 0.001613 0.498192
O O17 0.084479 0.858368 0.034154
O O18 0.858368 0.915521 0.062190
O O19 0.250000 0.250000 0.232201
#
# Coordination Sequence:
#
# PCOD9355116 Si02
#       8
#     8   8   8   8   8   8   8   8
#     4  11  23  41  65  93 124 161 207 252 301 364
#     4  12  22  39  61  84 117 160 198 246 302 348
#     4  10  23  43  65  93 127 160 197 247 309 370
#     4  11  23  41  65  93 124 161 207 252 301 364
#     4  12  22  39  61  84 117 160 198 246 302 348
#     4  11  23  38  58  84 117 157 200 246 294 349
#     4  11  23  38  58  84 117 157 200 246 294 349
#     4  10  23  43  65  93 127 160 197 247 309 370
#
# _framework density 19.215554999999998
#
# number of rings (size 3 to 8) (size 9 to 14) (size 15 to 20)
#    0.000    1.000    5.000    3.750    0.000    5.000 
#    0.000    2.500    0.000    0.000    0.000    0.000 
#    0.000    0.000    0.000    0.000    0.000    0.000 
#
# Total GULP energy -178755.783093 kJ/mol
# GULP energy per Si atom -5586.118222 kJ/mol
# Density = 1.917182 g / cm^3
# Si number density = 19.215555 Si / 1000 Ang^3
#
#
#
# Elastic Constant Matrix: (Units=GPa)
#
#
# Indices 1 2 3 4 5 6 
#
# 1 122.9185 88.5546 22.5434 0.0000 0.0000 0.0000
# 2 88.5546 122.9186 22.5434 0.0000 0.0000 0.0000
# 3 22.5434 22.5434 75.8266 0.0000 0.0000 0.0000
# 4 0.0000 0.0000 0.0000 -27.3306 0.0000 0.0000
# 5 0.0000 0.0000 0.0000 0.0000 -27.3309 0.0000
# 6 0.0000 0.0000 0.0000 0.0000 0.0000 46.9592
#
#
#
# Elastic Compliance Matrix: (Units=1/GPa)
#
#
# Indices 1 2 3 4 5 6 
#
# 1 0.017075 -0.012026 -0.001501 0.000000 0.000000 0.000000
# 2 -0.012026 0.017074 -0.001501 0.000000 0.000000 0.000000
# 3 -0.001501 -0.001501 0.014080 0.000000 0.000000 0.000000
# 4 0.000000 0.000000 0.000000 -0.036589 0.000000 0.000000
# 5 0.000000 0.000000 0.000000 0.000000 -0.036589 0.000000
# 6 0.000000 0.000000 0.000000 0.000000 0.000000 0.021295
#
#
# Mechanical properties :
#
#
# Convention : Reuss Voigt Hill
#
# Bulk Modulus (GPa) = 55.02375 65.43850 60.23112
# Shear Modulus (GPa) = 154.03333 10.99434 82.51384
#
# Velocity S-wave (km/s) = 8.96297 2.39458 6.56006
# Velocity P-wave (km/s) = 11.65376 6.46330 9.42296
#
# Compressibility (1/GPa) = 0.01817397
#
# Stress axis : x y z
#
# Youngs Moduli (GPa) = 58.56683 58.56687 71.02027
#
# Poissons Ratio (x) = 0.70431 0.10660
# Poissons Ratio (y) = 0.70431 0.10660
# Poissons Ratio (z) = 0.08791 0.08791
#
# Static dielectric constant tensor:
#      x y z
#    x 1.675280 0.000000 0.000000 
#    y 0.000000 1.675280 0.000000 
#    z 0.000000 0.000000 1.661190 
# 
# From -- ./inp_files/20495.got.cif
#   From: 2010.05.17/outbox.cif.g08.bks.cpg/sg37_11_cif.got.tgz:20495.got - 2010.06.03 17:53:42.
