data_PCOD9355977
_publ_section_title
;
Structure prediction by ZEFSAII (Michael W. Deem and Ramdas Pophale) SiO2 
 PCOD9355977
Probable space group: A M M 2
;
_chemical_formula_sum "Si O2"
_cell_formula_units_Z 64
_cell_length_a 8.874091
_cell_length_b 26.966200
_cell_length_c 18.803208
_cell_angle_alpha 90.000000
_cell_angle_beta 90.000000
_cell_angle_gamma 90.000000
_cell_volume 4499.617315
_symmetry_space_group_name_H-M "A M M 2"
_symmetry_group_IT_number 38
_symmetry_cell_setting 'orthorhombic'
loop_
_space_group_symop_operation_xyz
x,y,z
-x,-y,z
-x,y,z
x,-y,z
x,1/2+y,1/2+z
-x,1/2-y,1/2+z
-x,1/2+y,1/2+z
x,1/2-y,1/2+z
loop_
_atom_site_type_symbol
_atom_site_label
_atom_site_fract_x
_atom_site_fract_y
_atom_site_fract_z
Si Si1 0.327128 0.302533 0.500000
Si Si2 0.325311 0.199588 0.410266
Si Si3 0.818685 0.057361 0.775301
Si Si4 0.180088 0.852033 0.540060
Si Si5 0.679513 0.941814 0.620843
Si Si6 0.180875 0.755075 0.784242
Si Si7 0.819951 0.646183 0.373684
Si Si8 0.317599 0.260752 0.128349
O O1 0.500000 0.318167 0.506735
O O2 0.323103 0.251179 0.454958
O O3 0.241614 0.342042 0.451838
O O4 0.270746 0.285144 0.577152
O O5 0.500000 0.186150 0.399316
O O6 0.241834 0.161025 0.461627
O O7 0.242844 0.212560 0.336812
O O8 0.739439 0.068709 0.700452
O O9 0.769062 0.095762 0.835787
O O10 0.000000 0.062544 0.765699
O O11 0.787698 0.000000 0.793414
O O12 0.237556 0.904939 0.567410
O O13 0.249274 0.810473 0.593242
O O14 0.000000 0.848838 0.541720
O O15 0.500000 0.933873 0.617824
O O16 0.710050 0.000000 0.606600
O O17 0.219846 0.807577 0.822215
O O18 0.257334 0.753915 0.707497
O O19 0.000000 0.752269 0.778390
O O20 0.000000 0.645070 0.378117
O O21 0.500000 0.264125 0.126453
#
# Coordination Sequence:
#
# PCOD9355977 Si02
#       8
#     8   8   8   8   8   8   8   8
#     4   8  16  28  41  57  78 106 138 171 206 244
#     4   9  17  30  44  59  82 111 141 173 210 251
#     4   9  17  29  43  60  84 112 142 177 214 249
#     4  11  20  30  45  63  84 112 145 179 215 253
#     4  10  20  32  45  62  84 111 144 179 213 251
#     4  10  18  27  41  63  87 111 142 176 210 250
#     4   9  17  27  40  58  80 108 140 171 205 245
#     4  10  19  30  43  61  85 113 144 175 211 255
#
# _framework density 14.223432000000001
#
# number of rings (size 3 to 8) (size 9 to 14) (size 15 to 20)
#    0.000    2.500    0.000    4.125    0.000    6.250 
#    0.000    0.000    0.000    0.000    0.000    0.000 
#    0.000    1.000    0.000    6.500    0.000    4.250 
#
# Total GULP energy -178333.501076 kJ/mol
# GULP energy per Si atom -5572.921909 kJ/mol
# Density = 1.419106 g / cm^3
# Si number density = 14.223432 Si / 1000 Ang^3
#
#
#
# Elastic Constant Matrix: (Units=GPa)
#
#
# Indices 1 2 3 4 5 6 
#
# 1 62.9471 37.3753 43.7538 0.0000 0.0000 0.0000
# 2 37.3753 63.8351 42.5293 0.0000 0.0000 0.0000
# 3 43.7538 42.5293 96.6360 0.0000 0.0000 0.0000
# 4 0.0000 0.0000 0.0000 27.6609 0.0000 0.0000
# 5 0.0000 0.0000 0.0000 0.0000 26.5951 0.0000
# 6 0.0000 0.0000 0.0000 0.0000 0.0000 18.1495
#
#
#
# Elastic Compliance Matrix: (Units=1/GPa)
#
#
# Indices 1 2 3 4 5 6 
#
# 1 0.027886 -0.011199 -0.007697 0.000000 0.000000 0.000000
# 2 -0.011199 0.026662 -0.006663 0.000000 0.000000 0.000000
# 3 -0.007697 -0.006663 0.016766 0.000000 0.000000 0.000000
# 4 0.000000 0.000000 0.000000 0.036152 0.000000 0.000000
# 5 0.000000 0.000000 0.000000 0.000000 0.037601 0.000000
# 6 0.000000 0.000000 0.000000 0.000000 0.000000 0.055098
#
#
# Mechanical properties :
#
#
# Convention : Reuss Voigt Hill
#
# Bulk Modulus (GPa) = 49.51861 52.30389 50.91125
# Shear Modulus (GPa) = 19.37872 21.13175 20.25523
#
# Velocity S-wave (km/s) = 3.69514 3.85866 3.77779
# Velocity P-wave (km/s) = 7.28669 7.53029 7.40949
#
# Compressibility (1/GPa) = 0.02019443
#
# Stress axis : x y z
#
# Youngs Moduli (GPa) = 35.86001 37.50706 59.64570
#
# Poissons Ratio (x) = 0.42004 0.45911
# Poissons Ratio (y) = 0.40160 0.39743
# Poissons Ratio (z) = 0.27603 0.24992
#
# Static dielectric constant tensor:
#      x y z
#    x 1.479050 0.000000 0.000000 
#    y 0.000000 1.461200 0.000000 
#    z 0.000000 0.000000 1.461320 
# 
# From -- ./inp_files/17288.got.cif
#   From: 2010.05.17/outbox.cif.g08.bks.cpg/sg38_9_cif.got.tgz:17288.got - 2010.06.03 18:07:57.
