data_PCOD9355009
_publ_section_title
;
Structure prediction by ZEFSAII (Michael W. Deem and Ramdas Pophale) SiO2 
 PCOD9355009
Probable space group: C C C 2
;
_chemical_formula_sum "Si O2"
_cell_formula_units_Z 56
_cell_length_a 12.826196
_cell_length_b 15.898005
_cell_length_c 12.881600
_cell_angle_alpha 90.000000
_cell_angle_beta 90.000000
_cell_angle_gamma 90.000000
_cell_volume 2626.699012
_symmetry_space_group_name_H-M "C C C 2"
_symmetry_group_IT_number 37
_symmetry_cell_setting 'orthorhombic'
loop_
_space_group_symop_operation_xyz
x,y,z
-x,-y,z
-x,y,1/2+z
x,-y,1/2+z
1/2+x,1/2+y,z
1/2-x,1/2-y,z
1/2-x,1/2+y,1/2+z
1/2+x,1/2-y,1/2+z
loop_
_atom_site_type_symbol
_atom_site_label
_atom_site_fract_x
_atom_site_fract_y
_atom_site_fract_z
Si Si1 0.457359 0.199870 0.663590
Si Si2 0.832588 0.818845 0.511032
Si Si3 0.087555 0.832743 0.783161
Si Si4 0.232898 0.978129 0.136732
Si Si5 0.000000 0.000000 0.195369
Si Si6 0.393094 0.944790 0.295745
Si Si7 0.881558 0.612390 0.030616
Si Si8 0.250000 0.250000 0.137145
O O1 0.409214 0.271782 0.591422
O O2 0.529747 0.247037 0.748055
O O3 0.385014 0.142346 0.732765
O O4 0.511420 0.129358 0.590883
O O5 0.750000 0.750000 0.475882
O O6 0.888296 0.843458 0.404320
O O7 0.771025 0.890943 0.572604
O O8 0.191615 0.818223 0.711661
O O9 0.014410 0.912009 0.755358
O O10 0.284746 0.984536 0.252720
O O11 0.109950 0.998398 0.136339
O O12 0.307107 0.041458 0.076517
O O13 0.397925 0.916051 0.413898
O O14 0.500000 0.000000 0.275611
O O15 0.826538 0.700639 0.059917
#
# Coordination Sequence:
#
# PCOD9355009 Si02
#       8
#     8   8   8   8   4   8   8   4
#     4  11  24  48  71 107 146 184 246 307 360 438
#     4  12  25  44  75 105 142 194 243 306 373 434
#     4  11  24  45  74 102 144 195 243 295 366 443
#     4  12  27  47  71 107 149 186 241 308 363 436
#     4  12  26  50  66 104 152 188 238 300 358 436
#     4  12  27  46  76 108 144 188 245 308 371 429
#     4  11  26  44  74 104 145 194 243 299 372 437
#     4  10  22  46  70 100 140 194 248 292 356 450
#
# _framework density 21.319535999999999
#
# number of rings (size 3 to 8) (size 9 to 14) (size 15 to 20)
#    0.000    0.571    6.429    0.857    4.000    2.857 
#    5.143    0.000    0.000    0.000    0.000    0.000 
#    0.000    0.000    0.000    0.000    0.000    0.000 
#
# Total GULP energy -155978.108539 kJ/mol
# GULP energy per Si atom -5570.646734 kJ/mol
# Density = 2.127101 g / cm^3
# Si number density = 21.319536 Si / 1000 Ang^3
#
#
#
# Elastic Constant Matrix: (Units=GPa)
#
#
# Indices 1 2 3 4 5 6 
#
# 1 57.6059 24.9160 17.2459 0.0000 0.0000 0.0000
# 2 24.9160 89.7524 44.9252 0.0000 0.0000 0.0000
# 3 17.2459 44.9252 106.3199 0.0000 0.0000 0.0000
# 4 0.0000 0.0000 0.0000 10.0609 0.0000 0.0000
# 5 0.0000 0.0000 0.0000 0.0000 238.0332 0.0000
# 6 0.0000 0.0000 0.0000 0.0000 0.0000 -6.6633
#
#
#
# Elastic Compliance Matrix: (Units=1/GPa)
#
#
# Indices 1 2 3 4 5 6 
#
# 1 0.019835 -0.004941 -0.001130 0.000000 0.000000 0.000000
# 2 -0.004941 0.015361 -0.005689 0.000000 0.000000 0.000000
# 3 -0.001130 -0.005689 0.011993 0.000000 0.000000 0.000000
# 4 0.000000 0.000000 0.000000 0.099395 0.000000 0.000000
# 5 0.000000 0.000000 0.000000 0.000000 0.004201 0.000000
# 6 0.000000 0.000000 0.000000 0.000000 0.000000 -0.150077
#
#
# Mechanical properties :
#
#
# Convention : Reuss Voigt Hill
#
# Bulk Modulus (GPa) = 42.24943 47.53917 44.89430
# Shear Modulus (GPa) = 155.68100 59.39224 107.53662
#
# Velocity S-wave (km/s) = 8.55460 5.28381 7.10985
# Velocity P-wave (km/s) = 10.83675 7.71827 9.40763
#
# Compressibility (1/GPa) = 0.02366896
#
# Stress axis : x y z
#
# Youngs Moduli (GPa) = 50.41715 65.09916 83.38308
#
# Poissons Ratio (x) = 0.32164 0.09419
# Poissons Ratio (y) = 0.24910 0.47440
# Poissons Ratio (z) = 0.05695 0.37037
#
# Static dielectric constant tensor:
#      x y z
#    x 1.675540 0.000000 0.000000 
#    y 0.000000 1.890500 0.000000 
#    z 0.000000 0.000000 1.767650 
# 
# From -- ./inp_files/7872.got.cif
#   From: 2010.05.17/outbox.cif.g08.bks.cpg/sg37_4_cif.got.tgz:7872.got - 2010.06.03 17:53:42.
