data_PCOD9355970
_publ_section_title
;
Structure prediction by ZEFSAII (Michael W. Deem and Ramdas Pophale) SiO2 
 PCOD9355970
Probable space group: A M M 2
;
_chemical_formula_sum "Si O2"
_cell_formula_units_Z 64
_cell_length_a 14.955128
_cell_length_b 7.375476
_cell_length_c 32.423383
_cell_angle_alpha 90.000000
_cell_angle_beta 90.000000
_cell_angle_gamma 90.000000
_cell_volume 3576.337652
_symmetry_space_group_name_H-M "A M M 2"
_symmetry_group_IT_number 38
_symmetry_cell_setting 'orthorhombic'
loop_
_space_group_symop_operation_xyz
x,y,z
-x,-y,z
-x,y,z
x,-y,z
x,1/2+y,1/2+z
-x,1/2-y,1/2+z
-x,1/2+y,1/2+z
x,1/2-y,1/2+z
loop_
_atom_site_type_symbol
_atom_site_label
_atom_site_fract_x
_atom_site_fract_y
_atom_site_fract_z
Si Si1 0.103628 0.221775 0.774880
Si Si2 0.788563 0.721987 0.355228
Si Si3 0.218238 0.286417 0.017590
Si Si4 0.897605 0.218584 0.936194
Si Si5 0.401275 0.214628 0.883362
Si Si6 0.103634 0.777600 0.594452
Si Si7 0.400509 0.281401 0.980676
Si Si8 0.108561 0.289282 0.184853
O O1 0.164116 0.278791 0.813058
O O2 0.134936 0.285594 0.729545
O O3 0.000000 0.274780 0.781170
O O4 0.103921 0.000000 0.773860
O O5 0.788256 0.500000 0.355604
O O6 0.845665 0.779494 0.395177
O O7 0.686540 0.784823 0.360541
O O8 0.230093 0.500000 0.025355
O O9 0.156570 0.268231 0.977154
O O10 0.316258 0.212161 0.006565
O O11 0.166215 0.214177 0.057375
O O12 0.000000 0.282888 0.937433
O O13 0.899887 0.000000 0.934618
O O14 0.500000 0.289732 0.873630
O O15 0.386878 0.236811 0.932458
O O16 0.404699 0.000000 0.875178
O O17 0.133937 0.715051 0.640030
O O18 0.000000 0.724828 0.587730
O O19 0.103556 0.000000 0.595054
O O20 0.500000 0.217427 0.992497
O O21 0.400835 0.500000 0.983392
O O22 0.136121 0.500000 0.184769
O O23 0.000000 0.285112 0.185091
#
# Coordination Sequence:
#
# PCOD9355970 Si02
#       8
#     8   8   8   8   8   8   8   8
#     4   8  12  18  30  48  70  96 123 149 180 219
#     4   9  15  23  34  50  72  98 125 151 182 219
#     4  10  18  27  40  56  74 100 130 157 189 226
#     4  10  19  28  37  52  78 107 129 151 181 219
#     4   9  16  26  40  55  71  95 126 157 188 222
#     4   8  13  21  33  50  72  95 120 152 186 218
#     4   9  17  28  40  54  72  95 126 163 195 220
#     4   7  10  17  29  46  68  92 118 150 184 214
#
# _framework density 17.895401
#
# number of rings (size 3 to 8) (size 9 to 14) (size 15 to 20)
#    0.000    3.250    1.250    2.250    0.000    2.250 
#    0.000    0.000    0.000    0.000    0.000    0.875 
#    0.000    9.000    0.000    8.000    0.000   17.500 
#
# Total GULP energy -178342.103231 kJ/mol
# GULP energy per Si atom -5573.190726 kJ/mol
# Density = 1.785467 g / cm^3
# Si number density = 17.895401 Si / 1000 Ang^3
#
#
#
# Elastic Constant Matrix: (Units=GPa)
#
#
# Indices 1 2 3 4 5 6 
#
# 1 149.8891 4.3181 97.4816 0.0000 0.0000 0.0000
# 2 4.3181 62.3005 0.8337 0.0000 0.0000 0.0000
# 3 97.4816 0.8337 171.2829 0.0000 0.0000 0.0000
# 4 0.0000 0.0000 0.0000 4.4438 0.0000 0.0000
# 5 0.0000 0.0000 0.0000 0.0000 8.0349 0.0000
# 6 0.0000 0.0000 0.0000 0.0000 0.0000 0.1825
#
#
#
# Elastic Compliance Matrix: (Units=1/GPa)
#
#
# Indices 1 2 3 4 5 6 
#
# 1 0.010619 -0.000655 -0.006040 0.000000 0.000000 0.000000
# 2 -0.000655 0.016093 0.000295 0.000000 0.000000 0.000000
# 3 -0.006040 0.000295 0.009275 0.000000 0.000000 0.000000
# 4 0.000000 0.000000 0.000000 0.225034 0.000000 0.000000
# 5 0.000000 0.000000 0.000000 0.000000 0.124458 0.000000
# 6 0.000000 0.000000 0.000000 0.000000 0.000000 5.479853
#
#
# Mechanical properties :
#
#
# Convention : Reuss Voigt Hill
#
# Bulk Modulus (GPa) = 43.13265 65.41547 54.27406
# Shear Modulus (GPa) = 0.84949 21.25484 11.05216
#
# Velocity S-wave (km/s) = 0.68973 3.45008 2.48785
# Velocity P-wave (km/s) = 4.97888 7.24599 6.21666
#
# Compressibility (1/GPa) = 0.02318429
#
# Stress axis : x y z
#
# Youngs Moduli (GPa) = 94.17261 62.13995 107.82224
#
# Poissons Ratio (x) = 0.04071 0.65127
# Poissons Ratio (y) = 0.06170 -0.03176
# Poissons Ratio (z) = 0.56883 -0.01830
#
# Static dielectric constant tensor:
#      x y z
#    x 1.609280 0.000000 0.000000 
#    y 0.000000 2.032940 0.000000 
#    z 0.000000 0.000000 1.606620 
# 
# From -- ./inp_files/25076.got.cif
#   From: 2010.05.17/outbox.cif.g08.bks.cpg/sg38_13_cif.got.tgz:25076.got - 2010.06.03 18:07:57.
