data_PCOD9355117
_publ_section_title
;
Structure prediction by ZEFSAII (Michael W. Deem and Ramdas Pophale) SiO2 
 PCOD9355117
Probable space group: C C C 2
;
_chemical_formula_sum "Si O2"
_cell_formula_units_Z 60
_cell_length_a 14.416447
_cell_length_b 15.915657
_cell_length_c 11.383321
_cell_angle_alpha 90.000000
_cell_angle_beta 90.000000
_cell_angle_gamma 90.000000
_cell_volume 2611.871422
_symmetry_space_group_name_H-M "C C C 2"
_symmetry_group_IT_number 37
_symmetry_cell_setting 'orthorhombic'
loop_
_space_group_symop_operation_xyz
x,y,z
-x,-y,z
-x,y,1/2+z
x,-y,1/2+z
1/2+x,1/2+y,z
1/2-x,1/2-y,z
1/2-x,1/2+y,1/2+z
1/2+x,1/2-y,1/2+z
loop_
_atom_site_type_symbol
_atom_site_label
_atom_site_fract_x
_atom_site_fract_y
_atom_site_fract_z
Si Si1 0.402852 0.784500 0.434940
Si Si2 0.668811 0.555396 0.411710
Si Si3 0.496191 0.098521 0.737287
Si Si4 0.000000 0.000000 0.766128
Si Si5 0.411920 0.798317 0.055866
Si Si6 0.648066 0.631703 0.661154
Si Si7 0.779446 0.871878 0.898326
Si Si8 0.812697 0.329089 0.805341
O O1 0.448753 0.845678 0.338532
O O2 0.485394 0.766109 0.523484
O O3 0.308644 0.834502 0.463850
O O4 0.363671 0.693727 0.400602
O O5 0.570045 0.552571 0.347913
O O6 0.672253 0.608753 0.528767
O O7 0.692764 0.460928 0.447212
O O8 0.743482 0.593404 0.323133
O O9 0.435702 0.114354 0.620172
O O10 0.599475 0.139003 0.730692
O O11 0.500000 0.000000 0.765895
O O12 0.063873 0.067911 0.696816
O O13 0.372472 0.730762 0.147540
O O14 0.353968 0.805861 0.935669
O O15 0.729063 0.617370 0.756752
O O16 0.750000 0.250000 0.764071
#
# Coordination Sequence:
#
# PCOD9355117 Si02
#       8
#     8   8   8   4   8   8   8   8
#     4  10  23  44  67  97 138 175 224 290 349 409
#     4  11  24  42  68 101 138 178 230 282 348 417
#     4  11  25  45  72  99 137 183 240 290 357 426
#     4  10  26  40  66 104 142 178 224 292 350 414
#     4  11  25  42  72  96 135 186 229 284 352 425
#     4  11  23  40  70  99 133 183 228 277 348 421
#     4  10  23  43  66 100 134 176 226 289 342 418
#     4  11  25  45  68 102 141 183 232 299 348 422
#
# _framework density 22.972035999999999
#
# number of rings (size 3 to 8) (size 9 to 14) (size 15 to 20)
#    0.000    1.333    2.667    1.200    9.333    3.200 
#    7.200    0.000    0.000    0.000    0.000    0.000 
#    0.000    0.000    0.000    0.000    0.000    0.000 
#
# Total GULP energy -167550.272979 kJ/mol
# GULP energy per Si atom -5585.009099 kJ/mol
# Density = 2.291975 g / cm^3
# Si number density = 22.972036 Si / 1000 Ang^3
#
#
#
# Elastic Constant Matrix: (Units=GPa)
#
#
# Indices 1 2 3 4 5 6 
#
# 1 104.7603 25.0627 6.6346 0.0000 0.0000 0.0000
# 2 25.0627 127.3642 -7.8229 0.0000 0.0000 0.0000
# 3 6.6346 -7.8229 25.3011 0.0000 0.0000 0.0000
# 4 0.0000 0.0000 0.0000 20.9427 0.0000 0.0000
# 5 0.0000 0.0000 0.0000 0.0000 14.9212 0.0000
# 6 0.0000 0.0000 0.0000 0.0000 0.0000 35.1165
#
#
#
# Elastic Compliance Matrix: (Units=1/GPa)
#
#
# Indices 1 2 3 4 5 6 
#
# 1 0.010295 -0.002234 -0.003390 0.000000 0.000000 0.000000
# 2 -0.002234 0.008488 0.003210 0.000000 0.000000 0.000000
# 3 -0.003390 0.003210 0.041406 0.000000 0.000000 0.000000
# 4 0.000000 0.000000 0.000000 0.047749 0.000000 0.000000
# 5 0.000000 0.000000 0.000000 0.000000 0.067019 0.000000
# 6 0.000000 0.000000 0.000000 0.000000 0.000000 0.028477
#
#
# Mechanical properties :
#
#
# Convention : Reuss Voigt Hill
#
# Bulk Modulus (GPa) = 18.06336 33.90824 25.98580
# Shear Modulus (GPa) = 22.05413 29.76617 25.91015
#
# Velocity S-wave (km/s) = 3.10182 3.60357 3.36207
# Velocity P-wave (km/s) = 4.55067 5.66630 5.13885
#
# Compressibility (1/GPa) = 0.05536067
#
# Stress axis : x y z
#
# Youngs Moduli (GPa) = 97.13661 117.80922 24.15135
#
# Poissons Ratio (x) = 0.26319 0.08188
# Poissons Ratio (y) = 0.21701 -0.07753
# Poissons Ratio (z) = 0.32932 -0.37821
#
# Static dielectric constant tensor:
#      x y z
#    x 1.874800 0.000000 0.000000 
#    y 0.000000 1.835140 0.000000 
#    z 0.000000 0.000000 1.895960 
# 
# From -- ./inp_files/7947.got.cif
#   From: 2010.05.17/outbox.cif.g08.bks.cpg/sg37_4_cif.got.tgz:7947.got - 2010.06.03 17:53:42.
