data_PCOD9355721
_publ_section_title
;
Structure prediction by ZEFSAII (Michael W. Deem and Ramdas Pophale) SiO2 
 PCOD9355721
Probable space group: C C C 2
;
_chemical_formula_sum "Si O2"
_cell_formula_units_Z 32
_cell_length_a 5.261877
_cell_length_b 24.321895
_cell_length_c 8.430992
_cell_angle_alpha 90.000000
_cell_angle_beta 90.000000
_cell_angle_gamma 90.000000
_cell_volume 1078.988407
_symmetry_space_group_name_H-M "C C C 2"
_symmetry_group_IT_number 37
_symmetry_cell_setting 'orthorhombic'
loop_
_space_group_symop_operation_xyz
x,y,z
-x,-y,z
-x,y,1/2+z
x,-y,1/2+z
1/2+x,1/2+y,z
1/2-x,1/2-y,z
1/2-x,1/2+y,1/2+z
1/2+x,1/2-y,1/2+z
loop_
_atom_site_type_symbol
_atom_site_label
_atom_site_fract_x
_atom_site_fract_y
_atom_site_fract_z
Si Si1 0.726027 0.526682 0.527880
Si Si2 0.157457 0.915336 0.687838
Si Si3 0.766160 0.312518 0.853903
Si Si4 0.796683 0.359892 0.188360
O O1 0.608708 0.462074 0.542426
O O2 0.740109 0.551334 0.348349
O O3 0.681035 0.576590 0.670218
O O4 0.000000 0.500000 0.567114
O O5 0.413026 0.884780 0.626084
O O6 0.053346 0.853711 0.770680
O O7 0.750000 0.250000 0.802312
O O8 0.062099 0.327745 0.827080
O O9 0.716285 0.323117 0.037817
#
# Coordination Sequence:
#
# PCOD9355721 Si02
#       4
#     8   8   8   8
#     4   5  14  40  63  86 124 157 202 262 322 378
#     4   7  18  42  62  91 126 164 206 265 328 383
#     4  12  25  39  65  93 133 176 214 268 325 389
#     4   9  23  43  61  99 122 169 225 260 326 387
#
# _framework density 29.657408
#
# number of rings (size 3 to 8) (size 9 to 14) (size 15 to 20)
#    3.000    0.000    0.000    0.000    3.500    3.000 
#   13.500    2.500    0.000    0.000    0.000    0.000 
#    0.000    0.000    0.000    0.000    0.000    0.000 
#
# Total GULP energy -89143.968219 kJ/mol
# GULP energy per Si atom -5571.498014 kJ/mol
# Density = 2.958991 g / cm^3
# Si number density = 29.657408 Si / 1000 Ang^3
#
#
#
# Elastic Constant Matrix: (Units=GPa)
#
#
# Indices 1 2 3 4 5 6 
#
# 1 178.4915 38.6590 10.0150 0.0000 0.0000 0.0000
# 2 38.6590 179.9254 52.7480 0.0000 0.0000 0.0000
# 3 10.0150 52.7480 161.9545 0.0000 0.0000 0.0000
# 4 0.0000 0.0000 0.0000 40.6199 0.0000 0.0000
# 5 0.0000 0.0000 0.0000 0.0000 94.4309 0.0000
# 6 0.0000 0.0000 0.0000 0.0000 0.0000 41.9649
#
#
#
# Elastic Compliance Matrix: (Units=1/GPa)
#
#
# Indices 1 2 3 4 5 6 
#
# 1 0.005876 -0.001278 0.000053 0.000000 0.000000 0.000000
# 2 -0.001278 0.006423 -0.002013 0.000000 0.000000 0.000000
# 3 0.000053 -0.002013 0.006827 0.000000 0.000000 0.000000
# 4 0.000000 0.000000 0.000000 0.024618 0.000000 0.000000
# 5 0.000000 0.000000 0.000000 0.000000 0.010590 0.000000
# 6 0.000000 0.000000 0.000000 0.000000 0.000000 0.023829
#
#
# Mechanical properties :
#
#
# Convention : Reuss Voigt Hill
#
# Bulk Modulus (GPa) = 79.05264 80.35727 79.70496
# Shear Modulus (GPa) = 56.27084 63.33311 59.80197
#
# Velocity S-wave (km/s) = 4.36060 4.62615 4.49533
# Velocity P-wave (km/s) = 7.21569 7.46251 7.34014
#
# Compressibility (1/GPa) = 0.01264980
#
# Stress axis : x y z
#
# Youngs Moduli (GPa) = 170.17334 155.70146 146.48034
#
# Poissons Ratio (x) = 0.19900 -0.00775
# Poissons Ratio (y) = 0.21750 0.29483
# Poissons Ratio (z) = -0.00900 0.31339
#
# Static dielectric constant tensor:
#      x y z
#    x -2.253390 0.000000 0.000000 
#    y 0.000000 2.417030 0.000000 
#    z 0.000000 0.000000 2.096590 
# 
# From -- ./inp_files/2169.got.cif
#   From: 2010.05.17/outbox.cif.g08.bks.cpg/sg37_2_cif.got.tgz:2169.got - 2010.06.03 17:53:42.
