data_PCOD9355859
_publ_section_title
;
Structure prediction by ZEFSAII (Michael W. Deem and Ramdas Pophale) SiO2 
 PCOD9355859
Probable space group: A M M 2
;
_chemical_formula_sum "Si O2"
_cell_formula_units_Z 64
_cell_length_a 7.362386
_cell_length_b 15.268022
_cell_length_c 28.788610
_cell_angle_alpha 90.000000
_cell_angle_beta 90.000000
_cell_angle_gamma 90.000000
_cell_volume 3236.100918
_symmetry_space_group_name_H-M "A M M 2"
_symmetry_group_IT_number 38
_symmetry_cell_setting 'orthorhombic'
loop_
_space_group_symop_operation_xyz
x,y,z
-x,-y,z
-x,y,z
x,-y,z
x,1/2+y,1/2+z
-x,1/2-y,1/2+z
-x,1/2+y,1/2+z
x,1/2-y,1/2+z
loop_
_atom_site_type_symbol
_atom_site_label
_atom_site_fract_x
_atom_site_fract_y
_atom_site_fract_z
Si Si1 0.216240 0.098256 0.294040
Si Si2 0.778926 0.599309 0.170250
Si Si3 0.209407 0.272259 0.985383
Si Si4 0.779301 0.599127 0.334405
Si Si5 0.778251 0.598797 0.063574
Si Si6 0.284034 0.599842 0.901805
Si Si7 0.778030 0.400935 0.440538
Si Si8 0.222334 0.725384 0.251973
O O1 0.244112 0.122645 0.348228
O O2 0.283872 0.175403 0.260821
O O3 0.000000 0.093508 0.287294
O O4 0.290114 0.000000 0.287310
O O5 0.723610 0.500000 0.183510
O O6 0.724502 0.614900 0.116903
O O7 0.718827 0.673340 0.206151
O O8 0.000000 0.599172 0.171019
O O9 0.211129 0.331575 0.938947
O O10 0.287820 0.177608 0.972830
O O11 0.000000 0.256405 0.998253
O O12 0.288624 0.329987 0.026960
O O13 0.724819 0.500000 0.322140
O O14 0.722314 0.616882 0.387228
O O15 0.720047 0.668504 0.296518
O O16 0.000000 0.600374 0.334367
O O17 0.722388 0.500000 0.050485
O O18 0.000000 0.598910 0.062536
O O19 0.500000 0.598973 0.907399
O O20 0.216777 0.500000 0.909736
O O21 0.723545 0.500000 0.452793
O O22 0.000000 0.399612 0.440633
O O23 0.000000 0.726169 0.251426
#
# Coordination Sequence:
#
# PCOD9355859 Si02
#       8
#     8   8   8   8   8   8   8   8
#     4   9  17  28  41  58  81 109 140 170 199 239
#     4   8  13  21  33  53  83 111 132 163 210 255
#     4  10  17  26  44  64  82 110 146 179 210 247
#     4   8  12  17  26  44  70  95 119 151 191 230
#     4   8  14  23  35  55  82 108 135 169 209 251
#     4  10  20  31  42  60  87 114 139 171 212 256
#     4   8  14  23  35  55  82 106 131 168 207 240
#     4   9  14  20  34  54  75 101 132 162 194 235
#
# _framework density 19.776886000000001
#
# number of rings (size 3 to 8) (size 9 to 14) (size 15 to 20)
#    0.000    3.250    0.000    3.375    0.000    4.750 
#    0.000    0.000    0.000    1.125    0.000    6.125 
#    0.000    1.000    0.000    0.000    0.000    0.000 
#
# Total GULP energy -178540.947935 kJ/mol
# GULP energy per Si atom -5579.404623 kJ/mol
# Density = 1.973187 g / cm^3
# Si number density = 19.776886 Si / 1000 Ang^3
#
#
#
# Elastic Constant Matrix: (Units=GPa)
#
#
# Indices 1 2 3 4 5 6 
#
# 1 73.6337 3.7079 0.7327 0.0000 0.0000 0.0000
# 2 3.7079 162.6566 114.1058 0.0000 0.0000 0.0000
# 3 0.7327 114.1058 110.1327 0.0000 0.0000 0.0000
# 4 0.0000 0.0000 0.0000 38.6446 0.0000 0.0000
# 5 0.0000 0.0000 0.0000 0.0000 -38.8281 0.0000
# 6 0.0000 0.0000 0.0000 0.0000 0.0000 -15.0066
#
#
#
# Elastic Compliance Matrix: (Units=1/GPa)
#
#
# Indices 1 2 3 4 5 6 
#
# 1 0.013618 -0.000904 0.000846 0.000000 0.000000 0.000000
# 2 -0.000904 0.022565 -0.023373 0.000000 0.000000 0.000000
# 3 0.000846 -0.023373 0.033291 0.000000 0.000000 0.000000
# 4 0.000000 0.000000 0.000000 0.025877 0.000000 0.000000
# 5 0.000000 0.000000 0.000000 0.000000 -0.025755 0.000000
# 6 0.000000 0.000000 0.000000 0.000000 0.000000 -0.066637
#
#
# Mechanical properties :
#
#
# Convention : Reuss Voigt Hill
#
# Bulk Modulus (GPa) = 44.22557 64.83507 54.53032
# Shear Modulus (GPa) = 87.17183 12.15376 49.66280
#
# Velocity S-wave (km/s) = 6.64630 2.48169 5.01658
# Velocity P-wave (km/s) = 9.01713 6.40829 7.82223
#
# Compressibility (1/GPa) = 0.02261135
#
# Stress axis : x y z
#
# Youngs Moduli (GPa) = 73.43309 44.31625 30.03844
#
# Poissons Ratio (x) = 0.04005 -0.02540
# Poissons Ratio (y) = 0.06636 0.70209
# Poissons Ratio (z) = -0.06210 1.03581
#
# Static dielectric constant tensor:
#      x y z
#    x 1.739210 0.000000 0.000000 
#    y 0.000000 1.699580 0.000000 
#    z 0.000000 0.000000 1.659490 
# 
# From -- ./inp_files/24720.got.cif
#   From: 2010.05.17/outbox.cif.g08.bks.cpg/sg38_13_cif.got.tgz:24720.got - 2010.06.03 18:07:57.
