data_PCOD9355373
_publ_section_title
;
Structure prediction by ZEFSAII (Michael W. Deem and Ramdas Pophale) SiO2 
 PCOD9355373
Probable space group: C C C 2
;
_chemical_formula_sum "Si O2"
_cell_formula_units_Z 52
_cell_length_a 11.120073
_cell_length_b 9.148068
_cell_length_c 22.852069
_cell_angle_alpha 90.000000
_cell_angle_beta 90.000000
_cell_angle_gamma 90.000000
_cell_volume 2324.676627
_symmetry_space_group_name_H-M "C C C 2"
_symmetry_group_IT_number 37
_symmetry_cell_setting 'orthorhombic'
loop_
_space_group_symop_operation_xyz
x,y,z
-x,-y,z
-x,y,1/2+z
x,-y,1/2+z
1/2+x,1/2+y,z
1/2-x,1/2-y,z
1/2-x,1/2+y,1/2+z
1/2+x,1/2-y,1/2+z
loop_
_atom_site_type_symbol
_atom_site_label
_atom_site_fract_x
_atom_site_fract_y
_atom_site_fract_z
Si Si1 0.862383 0.540478 0.654460
Si Si2 0.652056 0.863693 0.783868
Si Si3 0.750000 0.250000 0.660592
Si Si4 0.383332 0.892992 0.030656
Si Si5 0.945301 0.855846 0.249939
Si Si6 0.374419 0.573004 0.981695
Si Si7 0.777825 0.080674 0.856657
O O1 0.811677 0.587048 0.717553
O O2 0.789884 0.399557 0.630515
O O3 0.871727 0.649329 0.599622
O O4 0.000000 0.500000 0.667575
O O5 0.750000 0.750000 0.806400
O O6 0.533257 0.768386 0.774523
O O7 0.662200 0.994896 0.830441
O O8 0.860389 0.218212 0.703231
O O9 0.500000 0.000000 0.024941
O O10 0.395520 0.747082 0.991767
O O11 0.253325 0.959048 0.013204
O O12 0.870051 0.921813 0.303184
O O13 0.000000 0.000000 0.220572
O O14 0.500000 0.500000 0.000793
O O15 0.343077 0.527510 0.915051
O O16 0.750000 0.250000 0.867244
#
# Coordination Sequence:
#
# PCOD9355373 Si02
#       7
#     8   8   4   8   8   8   8
#     4  11  23  42  70 101 149 185 236 294 358 436
#     4  12  25  41  68 107 142 188 227 291 367 432
#     4  12  22  40  66 100 146 190 226 284 346 428
#     4  10  25  49  73 106 140 188 248 302 361 427
#     4  12  23  42  64 104 147 181 232 277 357 437
#     4  11  26  51  74 100 140 189 250 306 360 427
#     4  12  24  45  70 100 142 185 233 298 358 432
#
# _framework density 22.368703
#
# number of rings (size 3 to 8) (size 9 to 14) (size 15 to 20)
#    0.000    0.615    6.923    0.462    2.154    4.308 
#    0.000    0.000    0.000    0.000    0.000    0.000 
#    0.000    0.000    0.000    0.000    0.000    0.000 
#
# Total GULP energy -145079.954601 kJ/mol
# GULP energy per Si atom -5579.998254 kJ/mol
# Density = 2.231779 g / cm^3
# Si number density = 22.368703 Si / 1000 Ang^3
#
#
#
# Elastic Constant Matrix: (Units=GPa)
#
#
# Indices 1 2 3 4 5 6 
#
# 1 141.3082 51.9932 9.6528 0.0000 0.0000 0.0000
# 2 51.9932 90.9317 18.4883 0.0000 0.0000 0.0000
# 3 9.6528 18.4883 87.2208 0.0000 0.0000 0.0000
# 4 0.0000 0.0000 0.0000 27.4814 0.0000 0.0000
# 5 0.0000 0.0000 0.0000 0.0000 104.9134 0.0000
# 6 0.0000 0.0000 0.0000 0.0000 0.0000 50.3374
#
#
#
# Elastic Compliance Matrix: (Units=1/GPa)
#
#
# Indices 1 2 3 4 5 6 
#
# 1 0.008963 -0.005145 0.000099 0.000000 0.000000 0.000000
# 2 -0.005145 0.014446 -0.002493 0.000000 0.000000 0.000000
# 3 0.000099 -0.002493 0.011983 0.000000 0.000000 0.000000
# 4 0.000000 0.000000 0.000000 0.036388 0.000000 0.000000
# 5 0.000000 0.000000 0.000000 0.000000 0.009532 0.000000
# 6 0.000000 0.000000 0.000000 0.000000 0.000000 0.019866
#
#
# Mechanical properties :
#
#
# Convention : Reuss Voigt Hill
#
# Bulk Modulus (GPa) = 49.22843 53.30324 51.26583
# Shear Modulus (GPa) = 40.64158 52.50153 46.57156
#
# Velocity S-wave (km/s) = 4.26713 4.84994 4.56784
# Velocity P-wave (km/s) = 6.80686 7.43261 7.12661
#
# Compressibility (1/GPa) = 0.02031347
#
# Stress axis : x y z
#
# Youngs Moduli (GPa) = 111.56927 69.22385 83.45421
#
# Poissons Ratio (x) = 0.35615 -0.00823
# Poissons Ratio (y) = 0.57402 0.20803
# Poissons Ratio (z) = -0.01101 0.17256
#
# Static dielectric constant tensor:
#      x y z
#    x 1.359540 0.000000 0.000000 
#    y 0.000000 2.361790 0.000000 
#    z 0.000000 0.000000 1.792900 
# 
# From -- ./inp_files/19744.got.cif
#   From: 2010.05.17/outbox.cif.g08.bks.cpg/sg37_10_cif.got.tgz:19744.got - 2010.06.03 17:53:42.
