data_PCOD9355199
_publ_section_title
;
Structure prediction by ZEFSAII (Michael W. Deem and Ramdas Pophale) SiO2 
 PCOD9355199
Probable space group: C C C 2
;
_chemical_formula_sum "Si O2"
_cell_formula_units_Z 32
_cell_length_a 9.397900
_cell_length_b 11.574823
_cell_length_c 10.058662
_cell_angle_alpha 90.000000
_cell_angle_beta 90.000000
_cell_angle_gamma 90.000000
_cell_volume 1094.171486
_symmetry_space_group_name_H-M "C C C 2"
_symmetry_group_IT_number 37
_symmetry_cell_setting 'orthorhombic'
loop_
_space_group_symop_operation_xyz
x,y,z
-x,-y,z
-x,y,1/2+z
x,-y,1/2+z
1/2+x,1/2+y,z
1/2-x,1/2-y,z
1/2-x,1/2+y,1/2+z
1/2+x,1/2-y,1/2+z
loop_
_atom_site_type_symbol
_atom_site_label
_atom_site_fract_x
_atom_site_fract_y
_atom_site_fract_z
Si Si1 0.840905 0.863384 0.724370
Si Si2 0.915491 0.886109 0.447491
Si Si3 0.137567 0.541251 0.840541
Si Si4 0.084167 0.267295 0.146483
O O1 0.750000 0.750000 0.688347
O O2 0.861411 0.940679 0.595069
O O3 0.001887 0.815828 0.757698
O O4 0.735036 0.929066 0.820464
O O5 0.757266 0.870889 0.389570
O O6 0.002371 0.778716 0.515827
O O7 0.000000 0.000000 0.394628
O O8 0.073066 0.607099 0.711607
O O9 0.000000 0.500000 0.920964
O O10 0.250000 0.250000 0.122640
#
# Coordination Sequence:
#
# PCOD9355199 Si02
#       4
#     8   8   8   8
#     4  10  23  49  74 114 160 205 274 345 416 498
#     4  10  25  46  72 116 159 208 277 342 412 504
#     4  12  24  47  82 113 161 223 277 342 420 502
#     4  10  24  47  76 107 161 217 260 348 423 475
#
# _framework density 29.245873
#
# number of rings (size 3 to 8) (size 9 to 14) (size 15 to 20)
#    1.500    0.000    2.500    1.500    3.500    2.000 
#    4.500    3.750    0.000    0.000    0.000    0.000 
#    0.000    0.000    0.000    0.000    0.000    0.000 
#
# Total GULP energy -89267.880959 kJ/mol
# GULP energy per Si atom -5579.242560 kJ/mol
# Density = 2.917931 g / cm^3
# Si number density = 29.245873 Si / 1000 Ang^3
#
#
#
# Elastic Constant Matrix: (Units=GPa)
#
#
# Indices 1 2 3 4 5 6 
#
# 1 315.9629 97.3140 22.9901 0.0000 0.0000 0.0000
# 2 97.3140 165.9420 55.3779 0.0000 0.0000 0.0000
# 3 22.9901 55.3779 37.3368 0.0000 0.0000 0.0000
# 4 0.0000 0.0000 0.0000 21.9311 0.0000 0.0000
# 5 0.0000 0.0000 0.0000 0.0000 51.5774 0.0000
# 6 0.0000 0.0000 0.0000 0.0000 0.0000 56.3324
#
#
#
# Elastic Compliance Matrix: (Units=1/GPa)
#
#
# Indices 1 2 3 4 5 6 
#
# 1 0.003935 -0.002968 0.001980 0.000000 0.000000 0.000000
# 2 -0.002968 0.014171 -0.019191 0.000000 0.000000 0.000000
# 3 0.001980 -0.019191 0.054029 0.000000 0.000000 0.000000
# 4 0.000000 0.000000 0.000000 0.045597 0.000000 0.000000
# 5 0.000000 0.000000 0.000000 0.000000 0.019388 0.000000
# 6 0.000000 0.000000 0.000000 0.000000 0.000000 0.017752
#
#
# Mechanical properties :
#
#
# Convention : Reuss Voigt Hill
#
# Bulk Modulus (GPa) = 31.47108 96.73395 64.10251
# Shear Modulus (GPa) = 24.29256 48.87219 36.58238
#
# Velocity S-wave (km/s) = 2.88520 4.09232 3.54058
# Velocity P-wave (km/s) = 4.67797 7.44831 6.21935
#
# Compressibility (1/GPa) = 0.03177521
#
# Stress axis : x y z
#
# Youngs Moduli (GPa) = 254.12323 70.56485 18.50867
#
# Poissons Ratio (x) = 0.20946 -0.03664
# Poissons Ratio (y) = 0.75431 0.35520
# Poissons Ratio (z) = -0.50304 1.35423
#
# Static dielectric constant tensor:
#      x y z
#    x 2.229560 0.000000 0.000000 
#    y 0.000000 2.416950 0.000000 
#    z 0.000000 0.000000 2.786120 
# 
# From -- ./inp_files/6013.got.cif
#   From: 2010.05.17/outbox.cif.g08.bks.cpg/sg37_4_cif.got.tgz:6013.got - 2010.06.03 17:53:42.
