data_PCOD9355292
_publ_section_title
;
Structure prediction by ZEFSAII (Michael W. Deem and Ramdas Pophale) SiO2 
 PCOD9355292
Probable space group: C C C 2
;
_chemical_formula_sum "Si O2"
_cell_formula_units_Z 48
_cell_length_a 14.214548
_cell_length_b 6.034768
_cell_length_c 25.222613
_cell_angle_alpha 90.000000
_cell_angle_beta 90.000000
_cell_angle_gamma 90.000000
_cell_volume 2163.633562
_symmetry_space_group_name_H-M "C C C 2"
_symmetry_group_IT_number 37
_symmetry_cell_setting 'orthorhombic'
loop_
_space_group_symop_operation_xyz
x,y,z
-x,-y,z
-x,y,1/2+z
x,-y,1/2+z
1/2+x,1/2+y,z
1/2-x,1/2-y,z
1/2-x,1/2+y,1/2+z
1/2+x,1/2-y,1/2+z
loop_
_atom_site_type_symbol
_atom_site_label
_atom_site_fract_x
_atom_site_fract_y
_atom_site_fract_z
Si Si1 0.609976 0.046024 0.155670
Si Si2 0.750000 0.750000 0.847097
Si Si3 0.895055 0.096823 0.861446
Si Si4 0.750000 0.250000 0.588416
Si Si5 0.395055 0.596823 0.074068
Si Si6 0.609976 0.953974 0.279844
Si Si7 0.048952 0.741580 0.967757
O O1 0.677031 0.881652 0.124694
O O2 0.623398 0.999998 0.217757
O O3 0.500000 0.000000 0.143890
O O4 0.630300 0.285813 0.129732
O O5 0.682544 0.582555 0.877321
O O6 0.822969 0.618346 0.810820
O O7 0.869701 0.214185 0.805782
O O8 0.898827 0.259958 0.911371
O O9 0.000000 0.000000 0.854471
O O10 0.682544 0.417446 0.558193
O O11 0.500000 0.500000 0.081043
O O12 0.398828 0.759959 0.024143
O O13 0.500000 0.000000 0.291624
O O14 0.000000 0.500000 0.967756
O O15 0.000000 0.000000 0.967757
#
# Coordination Sequence:
#
# PCOD9355292 Si02
#       7
#     8   4   8   4   8   8   8
#     4  11  25  46  71 102 148 196 247 309 379 448
#     4  12  26  43  74 106 148 189 248 312 374 452
#     4  11  24  47  73 108 150 192 253 310 381 455
#     4  12  26  43  74 106 148 189 248 312 374 452
#     4  11  24  47  73 108 150 192 253 310 381 455
#     4  11  25  46  71 102 148 196 247 309 379 448
#     4  10  24  45  83 109 151 205 248 318 385 453
#
# _framework density 22.184904
#
# number of rings (size 3 to 8) (size 9 to 14) (size 15 to 20)
#    0.000    1.000    3.333    2.000    9.333    0.667 
#    0.000    3.333    0.000    0.000    0.000    0.000 
#    0.000    0.000    0.000    0.000    0.000    0.000 
#
# Total GULP energy -133874.354815 kJ/mol
# GULP energy per Si atom -5578.098117 kJ/mol
# Density = 2.213441 g / cm^3
# Si number density = 22.184904 Si / 1000 Ang^3
#
#
#
# Elastic Constant Matrix: (Units=GPa)
#
#
# Indices 1 2 3 4 5 6 
#
# 1 95.7433 49.3765 36.2101 0.0000 0.0000 0.0000
# 2 49.3765 114.1834 45.4916 0.0000 0.0000 0.0000
# 3 36.2101 45.4916 106.0668 0.0000 0.0000 0.0000
# 4 0.0000 0.0000 0.0000 28.8093 0.0000 0.0000
# 5 0.0000 0.0000 0.0000 0.0000 -61.1727 0.0000
# 6 0.0000 0.0000 0.0000 0.0000 0.0000 56.0433
#
#
#
# Elastic Compliance Matrix: (Units=1/GPa)
#
#
# Indices 1 2 3 4 5 6 
#
# 1 0.014029 -0.005015 -0.002638 0.000000 0.000000 0.000000
# 2 -0.005015 0.012356 -0.003587 0.000000 0.000000 0.000000
# 3 -0.002638 -0.003587 0.011867 0.000000 0.000000 0.000000
# 4 0.000000 0.000000 0.000000 0.034711 0.000000 0.000000
# 5 0.000000 0.000000 0.000000 0.000000 -0.016347 0.000000
# 6 0.000000 0.000000 0.000000 0.000000 0.000000 0.017843
#
#
# Mechanical properties :
#
#
# Convention : Reuss Voigt Hill
#
# Bulk Modulus (GPa) = 63.41031 64.23889 63.82460
# Shear Modulus (GPa) = 48.92484 17.06365 32.99425
#
# Velocity S-wave (km/s) = 4.70118 2.77638 3.86066
# Velocity P-wave (km/s) = 7.62318 6.26871 6.97888
#
# Compressibility (1/GPa) = 0.01577031
#
# Stress axis : x y z
#
# Youngs Moduli (GPa) = 71.28130 80.93344 84.26588
#
# Poissons Ratio (x) = 0.40592 0.22231
# Poissons Ratio (y) = 0.35751 0.30227
# Poissons Ratio (z) = 0.18806 0.29032
#
# Static dielectric constant tensor:
#      x y z
#    x 1.832740 0.000000 0.000000 
#    y 0.000000 1.938460 0.000000 
#    z 0.000000 0.000000 1.778010 
# 
# From -- ./inp_files/19358.got.cif
#   From: 2010.05.17/outbox.cif.g08.bks.cpg/sg37_10_cif.got.tgz:19358.got - 2010.06.03 17:53:42.
