data_PCOD9355123
_publ_section_title
;
Structure prediction by ZEFSAII (Michael W. Deem and Ramdas Pophale) SiO2 
 PCOD9355123
Probable space group: C C C 2
;
_chemical_formula_sum "Si O2"
_cell_formula_units_Z 48
_cell_length_a 5.541767
_cell_length_b 13.940962
_cell_length_c 26.478513
_cell_angle_alpha 90.000000
_cell_angle_beta 90.000000
_cell_angle_gamma 90.000000
_cell_volume 2045.665390
_symmetry_space_group_name_H-M "C C C 2"
_symmetry_group_IT_number 37
_symmetry_cell_setting 'orthorhombic'
loop_
_space_group_symop_operation_xyz
x,y,z
-x,-y,z
-x,y,1/2+z
x,-y,1/2+z
1/2+x,1/2+y,z
1/2-x,1/2-y,z
1/2-x,1/2+y,1/2+z
1/2+x,1/2-y,1/2+z
loop_
_atom_site_type_symbol
_atom_site_label
_atom_site_fract_x
_atom_site_fract_y
_atom_site_fract_z
Si Si1 0.847917 0.141273 0.257670
Si Si2 0.500000 0.000000 0.007228
Si Si3 0.123341 0.852349 0.046351
Si Si4 0.500000 0.000000 0.319623
Si Si5 0.357748 0.399120 0.947926
Si Si6 0.497352 0.311521 0.153434
Si Si7 0.361734 0.648371 0.855568
O O1 0.750000 0.250000 0.257173
O O2 0.654564 0.069450 0.282694
O O3 0.950936 0.121579 0.201933
O O4 0.061905 0.143922 0.297656
O O5 0.699633 0.055764 0.040040
O O6 0.405150 0.080794 0.968724
O O7 0.250000 0.750000 0.050191
O O8 0.975569 0.861066 0.098615
O O9 0.975827 0.843632 0.994557
O O10 0.328501 0.062018 0.356481
O O11 0.500000 0.500000 0.948343
O O12 0.410084 0.360530 0.892706
O O13 0.250000 0.250000 0.161829
O O14 0.750000 0.250000 0.151445
O O15 0.250000 0.750000 0.867982
#
# Coordination Sequence:
#
# PCOD9355123 Si02
#       7
#     8   4   8   4   8   8   8
#     4  11  24  46  72 107 150 195 250 317 380 458
#     4  10  24  46  66 100 148 181 250 309 376 462
#     4  10  23  43  71 103 138 190 243 305 375 450
#     4  12  26  46  76 104 150 197 252 315 386 456
#     4  10  23  43  67 103 141 189 240 310 369 456
#     4  10  24  44  76 109 149 197 252 316 375 456
#     4  12  25  47  72 107 146 195 250 311 383 458
#
# _framework density 23.464247
#
# number of rings (size 3 to 8) (size 9 to 14) (size 15 to 20)
#    0.000    1.333    1.667    2.500    7.000    6.667 
#    3.000    6.667    0.000    0.000    0.000    0.000 
#    0.000    0.000    0.000    0.000    0.000    0.000 
#
# Total GULP energy -134039.655534 kJ/mol
# GULP energy per Si atom -5584.985647 kJ/mol
# Density = 2.341084 g / cm^3
# Si number density = 23.464247 Si / 1000 Ang^3
#
#
#
# Elastic Constant Matrix: (Units=GPa)
#
#
# Indices 1 2 3 4 5 6 
#
# 1 82.5906 29.0608 21.7000 0.0000 0.0000 0.0000
# 2 29.0608 98.4900 26.4097 0.0000 0.0000 0.0000
# 3 21.7000 26.4097 159.5681 0.0000 0.0000 0.0000
# 4 0.0000 0.0000 0.0000 12.4916 0.0000 0.0000
# 5 0.0000 0.0000 0.0000 0.0000 35.4706 0.0000
# 6 0.0000 0.0000 0.0000 0.0000 0.0000 42.2287
#
#
#
# Elastic Compliance Matrix: (Units=1/GPa)
#
#
# Indices 1 2 3 4 5 6 
#
# 1 0.013746 -0.003720 -0.001254 0.000000 0.000000 0.000000
# 2 -0.003720 0.011631 -0.001419 0.000000 0.000000 0.000000
# 3 -0.001254 -0.001419 0.006672 0.000000 0.000000 0.000000
# 4 0.000000 0.000000 0.000000 0.080054 0.000000 0.000000
# 5 0.000000 0.000000 0.000000 0.000000 0.028192 0.000000
# 6 0.000000 0.000000 0.000000 0.000000 0.000000 0.023681
#
#
# Mechanical properties :
#
#
# Convention : Reuss Voigt Hill
#
# Bulk Modulus (GPa) = 51.90911 54.99884 53.45398
# Shear Modulus (GPa) = 27.29505 35.60341 31.44923
#
# Velocity S-wave (km/s) = 3.41436 3.89954 3.66499
# Velocity P-wave (km/s) = 6.14121 6.61555 6.38279
#
# Compressibility (1/GPa) = 0.01926444
#
# Stress axis : x y z
#
# Youngs Moduli (GPa) = 72.74740 85.97378 149.87325
#
# Poissons Ratio (x) = 0.31981 0.18790
# Poissons Ratio (y) = 0.27061 0.21270
# Poissons Ratio (z) = 0.09120 0.12202
#
# Static dielectric constant tensor:
#      x y z
#    x 1.975930 0.000000 0.000000 
#    y 0.000000 2.090120 0.000000 
#    z 0.000000 0.000000 1.898180 
# 
# From -- ./inp_files/19397.got.cif
#   From: 2010.05.17/outbox.cif.g08.bks.cpg/sg37_10_cif.got.tgz:19397.got - 2010.06.03 17:53:42.
