data_PCOD9355027
_publ_section_title
;
Structure prediction by ZEFSAII (Michael W. Deem and Ramdas Pophale) SiO2 
 PCOD9355027
Probable space group: C C C 2
;
_chemical_formula_sum "Si O2"
_cell_formula_units_Z 40
_cell_length_a 13.366667
_cell_length_b 8.404634
_cell_length_c 14.879173
_cell_angle_alpha 90.000000
_cell_angle_beta 90.000000
_cell_angle_gamma 90.000000
_cell_volume 1671.555219
_symmetry_space_group_name_H-M "C C C 2"
_symmetry_group_IT_number 37
_symmetry_cell_setting 'orthorhombic'
loop_
_space_group_symop_operation_xyz
x,y,z
-x,-y,z
-x,y,1/2+z
x,-y,1/2+z
1/2+x,1/2+y,z
1/2-x,1/2-y,z
1/2-x,1/2+y,1/2+z
1/2+x,1/2-y,1/2+z
loop_
_atom_site_type_symbol
_atom_site_label
_atom_site_fract_x
_atom_site_fract_y
_atom_site_fract_z
Si Si1 0.471161 0.332726 0.808370
Si Si2 0.168475 0.453289 0.603021
Si Si3 0.336864 0.123724 0.285616
Si Si4 0.841512 0.371112 0.437592
Si Si5 0.600171 0.396699 0.112071
O O1 0.500000 0.500000 0.851862
O O2 0.564990 0.230465 0.777259
O O3 0.421690 0.222113 0.880753
O O4 0.406308 0.381256 0.721126
O O5 0.156849 0.493000 0.707406
O O6 0.124868 0.584647 0.537064
O O7 0.289482 0.462108 0.586344
O O8 0.114683 0.286444 0.581324
O O9 0.250000 0.250000 0.269598
O O10 0.321386 0.032376 0.380082
O O11 0.750000 0.250000 0.440594
O O12 0.500000 0.500000 0.087182
#
# Coordination Sequence:
#
# PCOD9355027 Si02
#       5
#     8   8   8   8   8
#     4  11  24  49  76 107 146 204 254 314 388 454
#     4  11  25  47  76 109 157 202 255 322 390 460
#     4  12  25  47  73 108 151 199 250 318 385 465
#     4  12  26  47  70 110 152 198 254 318 383 462
#     4  10  22  47  81 110 149 206 260 317 388 464
#
# _framework density 23.929811000000001
#
# number of rings (size 3 to 8) (size 9 to 14) (size 15 to 20)
#    0.000    0.800    2.000    6.000    2.800    0.000 
#   14.400    1.000    0.000    0.000    0.000    0.000 
#    0.000    0.000    0.000    0.000    0.000    0.000 
#
# Total GULP energy -111889.837990 kJ/mol
# GULP energy per Si atom -5594.491899 kJ/mol
# Density = 2.387535 g / cm^3
# Si number density = 23.929811 Si / 1000 Ang^3
#
#
#
# Elastic Constant Matrix: (Units=GPa)
#
#
# Indices 1 2 3 4 5 6 
#
# 1 113.7242 48.9656 9.9409 0.0000 0.0000 0.0000
# 2 48.9656 111.7059 2.2305 0.0000 0.0000 0.0000
# 3 9.9409 2.2305 64.3178 0.0000 0.0000 0.0000
# 4 0.0000 0.0000 0.0000 53.0046 0.0000 0.0000
# 5 0.0000 0.0000 0.0000 0.0000 0.5989 0.0000
# 6 0.0000 0.0000 0.0000 0.0000 0.0000 47.5343
#
#
#
# Elastic Compliance Matrix: (Units=1/GPa)
#
#
# Indices 1 2 3 4 5 6 
#
# 1 0.010988 -0.004786 -0.001532 0.000000 0.000000 0.000000
# 2 -0.004786 0.011043 0.000357 0.000000 0.000000 0.000000
# 3 -0.001532 0.000357 0.015772 0.000000 0.000000 0.000000
# 4 0.000000 0.000000 0.000000 0.018866 0.000000 0.000000
# 5 0.000000 0.000000 0.000000 0.000000 1.669712 0.000000
# 6 0.000000 0.000000 0.000000 0.000000 0.000000 0.021037
#
#
# Mechanical properties :
#
#
# Convention : Reuss Voigt Hill
#
# Bulk Modulus (GPa) = 38.63979 45.78020 42.21000
# Shear Modulus (GPa) = 2.82811 35.46830 19.14820
#
# Velocity S-wave (km/s) = 1.08830 3.85409 2.83182
# Velocity P-wave (km/s) = 4.21443 6.24323 5.32632
#
# Compressibility (1/GPa) = 0.02588005
#
# Stress axis : x y z
#
# Youngs Moduli (GPa) = 91.01048 90.55684 63.40251
#
# Poissons Ratio (x) = 0.43339 0.09715
# Poissons Ratio (y) = 0.43556 -0.02262
# Poissons Ratio (z) = 0.13945 -0.03231
#
# Static dielectric constant tensor:
#      x y z
#    x 1.901040 0.000000 0.000000 
#    y 0.000000 1.892640 0.000000 
#    z 0.000000 0.000000 1.859810 
# 
# From -- ./inp_files/14866.got.cif
#   From: 2010.05.17/outbox.cif.g08.bks.cpg/sg37_8_cif.got.tgz:14866.got - 2010.06.03 17:53:42.
