data_PCOD9355777
_publ_section_title
;
Structure prediction by ZEFSAII (Michael W. Deem and Ramdas Pophale) SiO2 
 PCOD9355777
Probable space group: C C C 2
;
_chemical_formula_sum "Si O2"
_cell_formula_units_Z 30
_cell_length_a 18.000000
_cell_length_b 18.000000
_cell_length_c 9.000000
_cell_angle_alpha 90.000000
_cell_angle_beta 90.000000
_cell_angle_gamma 90.000000
_cell_volume 2916.000000
_symmetry_space_group_name_H-M "C C C 2"
_symmetry_group_IT_number 37
_symmetry_cell_setting 'orthorhombic'
loop_
_space_group_symop_operation_xyz
x,y,z
-x,-y,z
-x,y,1/2+z
x,-y,1/2+z
1/2+x,1/2+y,z
1/2-x,1/2-y,z
1/2-x,1/2+y,1/2+z
1/2+x,1/2-y,1/2+z
loop_
_atom_site_type_symbol
_atom_site_label
_atom_site_fract_x
_atom_site_fract_y
_atom_site_fract_z
Si Si1 0.219505 0.584742 0.669410
Si Si2 0.781769 0.425505 0.029067
Si Si3 0.920529 0.672417 0.027470
Si Si4 0.629051 0.675758 0.186630
Si Si5 0.089507 0.658967 0.165696
Si Si6 0.971346 0.100304 0.167081
Si Si7 0.649072 0.695074 0.540060
Si Si8 0.500000 0.500000 0.918697
O O1 0.240386 0.506895 0.590460
O O2 0.142996 0.617713 0.597720
O O3 0.290858 0.640048 0.648770
O O4 0.209894 0.575412 0.848748
O O5 0.861265 0.411218 0.111457
O O6 0.716712 0.363413 0.062622
O O7 0.892979 0.753590 0.085623
O O8 0.006043 0.661600 0.090713
O O9 0.919136 0.665874 0.845957
O O10 0.558758 0.619685 0.169564
O O11 0.632766 0.696616 0.362667
O O12 0.147289 0.720914 0.098276
O O13 0.921133 0.169584 0.139212
O O14 0.954890 0.054938 0.314451
O O15 0.951584 0.049003 0.027445
#
# Coordination Sequence:
#
# PCOD9355777 Si02
#       8
#     8   8   8   8   8   8   8   4
#     4  11  26  46  70 101 139 179 225 282 342 403
#     4  11  26  46  70 101 139 179 225 282 342 403
#     4  12  26  46  72 101 134 177 231 283 340 405
#     4  11  24  42  67 100 138 179 223 278 337 400
#     4  12  26  46  72 101 134 177 231 283 340 405
#     4  11  22  38  58  94 133 182 222 268 327 396
#     4  11  24  42  67 100 138 179 223 278 337 400
#     4  10  24  34  56  90 140 178 224 266 324 394
#
# _framework density 10.288066000000001
#
# number of rings (size 3 to 8) (size 9 to 14) (size 15 to 20)
#    0.000    0.800    2.667    4.000    5.600    5.867 
#    0.000    2.667    0.000    0.000    0.000    0.000 
#    0.000    0.000    0.000    0.000    0.000    0.000 
#
# Total GULP energy -167410.762724 kJ/mol
# GULP energy per Si atom -5580.358757 kJ/mol
# Density = 1.026465 g / cm^3
# Si number density = 10.288066 Si / 1000 Ang^3
#
#
#
# Elastic Constant Matrix: (Units=GPa)
#
#
# Indices 1 2 3 4 5 6 
#
# 1 135.8490 29.0916 50.9389 0.0000 0.0000 0.0000
# 2 29.0916 58.1761 26.9636 0.0000 0.0000 0.0000
# 3 50.9389 26.9636 154.6786 0.0000 0.0000 0.0000
# 4 0.0000 0.0000 0.0000 38.8765 0.0000 0.0000
# 5 0.0000 0.0000 0.0000 0.0000 42.7861 0.0000
# 6 0.0000 0.0000 0.0000 0.0000 0.0000 23.9289
#
#
#
# Elastic Compliance Matrix: (Units=1/GPa)
#
#
# Indices 1 2 3 4 5 6 
#
# 1 0.008974 -0.003392 -0.002364 0.000000 0.000000 0.000000
# 2 -0.003392 0.019982 -0.002366 0.000000 0.000000 0.000000
# 3 -0.002364 -0.002366 0.007656 0.000000 0.000000 0.000000
# 4 0.000000 0.000000 0.000000 0.025722 0.000000 0.000000
# 5 0.000000 0.000000 0.000000 0.000000 0.023372 0.000000
# 6 0.000000 0.000000 0.000000 0.000000 0.000000 0.041790
#
#
# Mechanical properties :
#
#
# Convention : Reuss Voigt Hill
#
# Bulk Modulus (GPa) = 49.09729 62.52131 55.80930
# Shear Modulus (GPa) = 33.21589 37.23228 35.22409
#
# Velocity S-wave (km/s) = 4.02218 4.25842 4.14199
# Velocity P-wave (km/s) = 6.74416 7.39123 7.07509
#
# Compressibility (1/GPa) = 0.02036772
#
# Stress axis : x y z
#
# Youngs Moduli (GPa) = 111.43432 50.04495 130.61592
#
# Poissons Ratio (x) = 0.16974 0.30878
# Poissons Ratio (y) = 0.37796 0.30907
# Poissons Ratio (z) = 0.26343 0.11842
#
# Static dielectric constant tensor:
#      x y z
#    x 1.671340 0.000000 0.000000 
#    y 0.000000 1.813080 0.000000 
#    z 0.000000 0.000000 1.717220 
# 
# From -- ./inp_files/4081.got.cif
#   From: 2010.05.17/outbox.ucp.g08.bks.cvg/sg37_3_cif.got.tgz:4081.got - 2010.06.11 10:38:43.
