data_PCOD9355047
_publ_section_title
;
Structure prediction by ZEFSAII (Michael W. Deem and Ramdas Pophale) SiO2 
 PCOD9355047
Probable space group: C C C 2
;
_chemical_formula_sum "Si O2"
_cell_formula_units_Z 48
_cell_length_a 23.304258
_cell_length_b 11.680845
_cell_length_c 9.171674
_cell_angle_alpha 90.000000
_cell_angle_beta 90.000000
_cell_angle_gamma 90.000000
_cell_volume 2496.652797
_symmetry_space_group_name_H-M "C C C 2"
_symmetry_group_IT_number 37
_symmetry_cell_setting 'orthorhombic'
loop_
_space_group_symop_operation_xyz
x,y,z
-x,-y,z
-x,y,1/2+z
x,-y,1/2+z
1/2+x,1/2+y,z
1/2-x,1/2-y,z
1/2-x,1/2+y,1/2+z
1/2+x,1/2-y,1/2+z
loop_
_atom_site_type_symbol
_atom_site_label
_atom_site_fract_x
_atom_site_fract_y
_atom_site_fract_z
Si Si1 0.761120 0.515381 0.660560
Si Si2 0.419285 0.704344 0.417480
Si Si3 0.503413 0.333708 0.165145
Si Si4 0.080147 0.930771 0.910429
Si Si5 0.794063 0.144569 0.895760
Si Si6 0.197626 0.660295 0.424279
O O1 0.720138 0.442323 0.765217
O O2 0.724399 0.592080 0.550659
O O3 0.796223 0.429719 0.556469
O O4 0.797391 0.592855 0.771274
O O5 0.454244 0.735037 0.271384
O O6 0.460485 0.728436 0.554428
O O7 0.407111 0.566688 0.410487
O O8 0.360557 0.770196 0.431871
O O9 0.461980 0.400653 0.277238
O O10 0.544981 0.404191 0.057294
O O11 0.136872 0.851488 0.899848
O O12 0.750000 0.250000 0.872475
O O13 0.250000 0.750000 0.433267
#
# Coordination Sequence:
#
# PCOD9355047 Si02
#       6
#     8   8   8   8   8   8
#     4  10  24  44  56  98 126 156 214 256 310 370
#     4  11  21  39  63  90 125 161 202 252 321 374
#     4  10  23  38  58  95 126 163 202 258 310 369
#     4  11  22  36  60  91 132 153 203 256 306 384
#     4  11  25  38  65  92 123 164 201 252 316 367
#     4  11  24  41  68  91 126 170 205 259 323 365
#
# _framework density 19.225740999999999
#
# number of rings (size 3 to 8) (size 9 to 14) (size 15 to 20)
#    0.000    1.333    0.000    7.000   14.000    0.000 
#    0.000    0.000    0.000    3.000    0.000    0.000 
#    0.000    0.000    0.000    0.000    0.000    0.000 
#
# Total GULP energy -134051.954285 kJ/mol
# GULP energy per Si atom -5585.498095 kJ/mol
# Density = 1.918198 g / cm^3
# Si number density = 19.225741 Si / 1000 Ang^3
#
#
#
# Elastic Constant Matrix: (Units=GPa)
#
#
# Indices 1 2 3 4 5 6 
#
# 1 143.8904 25.7453 16.4618 0.0000 0.0000 0.0000
# 2 25.7453 30.1885 -9.2551 0.0000 0.0000 0.0000
# 3 16.4618 -9.2551 91.2711 0.0000 0.0000 0.0000
# 4 0.0000 0.0000 0.0000 8.7192 0.0000 0.0000
# 5 0.0000 0.0000 0.0000 0.0000 -0.9017 0.0000
# 6 0.0000 0.0000 0.0000 0.0000 0.0000 34.6521
#
#
#
# Elastic Compliance Matrix: (Units=1/GPa)
#
#
# Indices 1 2 3 4 5 6 
#
# 1 0.008679 -0.008134 -0.002390 0.000000 0.000000 0.000000
# 2 -0.008134 0.041812 0.005707 0.000000 0.000000 0.000000
# 3 -0.002390 0.005707 0.011966 0.000000 0.000000 0.000000
# 4 0.000000 0.000000 0.000000 0.114690 0.000000 0.000000
# 5 0.000000 0.000000 0.000000 0.000000 -1.108958 0.000000
# 6 0.000000 0.000000 0.000000 0.000000 0.000000 0.028858
#
#
# Mechanical properties :
#
#
# Convention : Reuss Voigt Hill
#
# Bulk Modulus (GPa) = 18.93158 36.80602 27.86880
# Shear Modulus (GPa) = -5.70963 23.98711 9.13874
#
# Velocity S-wave (km/s) = -1.72518 3.53605 2.18259
# Velocity P-wave (km/s) = 2.42900 5.98809 4.56932
#
# Compressibility (1/GPa) = 0.05282180
#
# Stress axis : x y z
#
# Youngs Moduli (GPa) = 115.22699 23.91684 83.56925
#
# Poissons Ratio (x) = 0.19454 0.19974
# Poissons Ratio (y) = 0.93725 -0.47691
# Poissons Ratio (z) = 0.27540 -0.13649
#
# Static dielectric constant tensor:
#      x y z
#    x 1.661980 0.000000 0.000000 
#    y 0.000000 1.657810 0.000000 
#    z 0.000000 0.000000 1.687070 
# 
# From -- ./inp_files/2928.got.cif
#   From: 2010.05.17/outbox.cif.g08.bks.cpg/sg37_2_cif.got.tgz:2928.got - 2010.06.03 17:53:42.
