data_PCOD9355075
_publ_section_title
;
Structure prediction by ZEFSAII (Michael W. Deem and Ramdas Pophale) SiO2 
 PCOD9355075
Probable space group: C C C 2
;
_chemical_formula_sum "Si O2"
_cell_formula_units_Z 56
_cell_length_a 16.535155
_cell_length_b 5.410775
_cell_length_c 28.051399
_cell_angle_alpha 90.000000
_cell_angle_beta 90.000000
_cell_angle_gamma 90.000000
_cell_volume 2509.702658
_symmetry_space_group_name_H-M "C C C 2"
_symmetry_group_IT_number 37
_symmetry_cell_setting 'orthorhombic'
loop_
_space_group_symop_operation_xyz
x,y,z
-x,-y,z
-x,y,1/2+z
x,-y,1/2+z
1/2+x,1/2+y,z
1/2-x,1/2-y,z
1/2-x,1/2+y,1/2+z
1/2+x,1/2-y,1/2+z
loop_
_atom_site_type_symbol
_atom_site_label
_atom_site_fract_x
_atom_site_fract_y
_atom_site_fract_z
Si Si1 0.500000 0.500000 0.985890
Si Si2 0.168145 0.404371 0.286299
Si Si3 0.427860 0.858605 0.560511
Si Si4 0.196644 0.495322 0.888779
Si Si5 0.345487 0.180890 0.484322
Si Si6 0.250000 0.750000 0.208680
Si Si7 0.833762 0.876923 0.138100
Si Si8 0.450626 0.749887 0.716333
O O1 0.588711 0.393183 0.968887
O O2 0.527027 0.730123 0.017295
O O3 0.250000 0.250000 0.290491
O O4 0.148415 0.502838 0.338785
O O5 0.192022 0.602720 0.245538
O O6 0.099388 0.229472 0.265166
O O7 0.386251 0.638363 0.590360
O O8 0.500000 0.000000 0.588541
O O9 0.367607 0.051095 0.534858
O O10 0.250000 0.750000 0.889493
O O11 0.149767 0.498024 0.938744
O O12 0.250000 0.250000 0.887188
O O13 0.250000 0.250000 0.488493
O O14 0.307900 0.602520 0.171969
O O15 0.750000 0.750000 0.125242
O O16 0.886667 0.715201 0.174085
O O17 0.500000 0.500000 0.706843
O O18 0.500000 0.000000 0.720346
#
# Coordination Sequence:
#
# PCOD9355075 Si02
#       8
#     4   8   8   8   8   4   8   8
#     4  10  24  46  68 102 144 192 228 314 378 430
#     4  11  22  45  70 101 138 191 240 303 360 443
#     4  10  25  47  67  99 144 184 245 301 379 442
#     4  10  23  40  75 110 140 187 249 302 371 444
#     4  10  24  45  74 105 143 192 247 307 375 454
#     4  12  20  42  70 100 140 174 260 298 362 424
#     4  12  26  41  68  99 130 191 240 298 358 443
#     4  12  26  43  66  98 146 185 231 295 367 429
#
# _framework density 22.313400999999999
#
# number of rings (size 3 to 8) (size 9 to 14) (size 15 to 20)
#    0.000    1.143    3.571    1.286    7.000    2.286 
#    1.286    2.143    0.000    0.000    0.000    0.000 
#    0.000    0.000    0.000    0.000    0.000    0.000 
#
# Total GULP energy -155947.786928 kJ/mol
# GULP energy per Si atom -5569.563819 kJ/mol
# Density = 2.226261 g / cm^3
# Si number density = 22.313401 Si / 1000 Ang^3
#
#
#
# Elastic Constant Matrix: (Units=GPa)
#
#
# Indices 1 2 3 4 5 6 
#
# 1 96.6191 7.7780 21.8153 0.0000 0.0000 0.0000
# 2 7.7780 57.6592 8.9159 0.0000 0.0000 0.0000
# 3 21.8153 8.9159 96.0628 0.0000 0.0000 0.0000
# 4 0.0000 0.0000 0.0000 11.1069 0.0000 0.0000
# 5 0.0000 0.0000 0.0000 0.0000 9.9179 0.0000
# 6 0.0000 0.0000 0.0000 0.0000 0.0000 30.2775
#
#
#
# Elastic Compliance Matrix: (Units=1/GPa)
#
#
# Indices 1 2 3 4 5 6 
#
# 1 0.010979 -0.001111 -0.002390 0.000000 0.000000 0.000000
# 2 -0.001111 0.017708 -0.001391 0.000000 0.000000 0.000000
# 3 -0.002390 -0.001391 0.011082 0.000000 0.000000 0.000000
# 4 0.000000 0.000000 0.000000 0.090034 0.000000 0.000000
# 5 0.000000 0.000000 0.000000 0.000000 0.100828 0.000000
# 6 0.000000 0.000000 0.000000 0.000000 0.000000 0.033028
#
#
# Mechanical properties :
#
#
# Convention : Reuss Voigt Hill
#
# Bulk Modulus (GPa) = 33.35146 36.37326 34.86236
# Shear Modulus (GPa) = 17.64045 24.38258 21.01152
#
# Velocity S-wave (km/s) = 2.81477 3.30924 3.07197
# Velocity P-wave (km/s) = 5.05403 5.56218 5.31418
#
# Compressibility (1/GPa) = 0.02998370
#
# Stress axis : x y z
#
# Youngs Moduli (GPa) = 91.08260 56.47057 90.23836
#
# Poissons Ratio (x) = 0.06276 0.21568
# Poissons Ratio (y) = 0.10123 0.12554
# Poissons Ratio (z) = 0.21770 0.07856
#
# Static dielectric constant tensor:
#      x y z
#    x 1.898270 0.000000 0.000000 
#    y 0.000000 1.896040 0.000000 
#    z 0.000000 0.000000 1.859840 
# 
# From -- ./inp_files/20603.got.cif
#   From: 2010.05.17/outbox.cif.g08.bks.cpg/sg37_11_cif.got.tgz:20603.got - 2010.06.03 17:53:42.
