data_PCOD9355197
_publ_section_title
;
Structure prediction by ZEFSAII (Michael W. Deem and Ramdas Pophale) SiO2 
 PCOD9355197
Probable space group: C C C 2
;
_chemical_formula_sum "Si O2"
_cell_formula_units_Z 28
_cell_length_a 7.239283
_cell_length_b 15.117762
_cell_length_c 10.002732
_cell_angle_alpha 90.000000
_cell_angle_beta 90.000000
_cell_angle_gamma 90.000000
_cell_volume 1094.716569
_symmetry_space_group_name_H-M "C C C 2"
_symmetry_group_IT_number 37
_symmetry_cell_setting 'orthorhombic'
loop_
_space_group_symop_operation_xyz
x,y,z
-x,-y,z
-x,y,1/2+z
x,-y,1/2+z
1/2+x,1/2+y,z
1/2-x,1/2-y,z
1/2-x,1/2+y,1/2+z
1/2+x,1/2-y,1/2+z
loop_
_atom_site_type_symbol
_atom_site_label
_atom_site_fract_x
_atom_site_fract_y
_atom_site_fract_z
Si Si1 0.658248 0.445431 0.400450
Si Si2 0.046135 0.333996 0.048012
Si Si3 0.533133 0.274240 0.291687
Si Si4 0.500000 0.000000 0.725775
O O1 0.500000 0.500000 0.473634
O O2 0.768165 0.379435 0.495854
O O3 0.536644 0.379084 0.308999
O O4 0.818666 0.499796 0.321959
O O5 0.959296 0.416368 0.129580
O O6 0.058552 0.259110 0.158231
O O7 0.963084 0.285658 0.916772
O O8 0.750000 0.250000 0.278006
#
# Coordination Sequence:
#
# PCOD9355197 Si02
#       4
#     8   8   8   4
#     4  11  27  50  77 120 161 209 268 327 404 479
#     4  11  23  46  81 112 155 210 263 325 390 473
#     4  10  23  48  77 111 156 208 264 321 398 466
#     4  12  24  48  82 114 156 218 256 338 396 480
#
# _framework density 25.577397999999999
#
# number of rings (size 3 to 8) (size 9 to 14) (size 15 to 20)
#    0.000    1.143    5.714    0.857    0.000   10.286 
#    5.143    4.286    0.000    0.000    0.000    0.000 
#    0.000    0.000    0.000    0.000    0.000    0.000 
#
# Total GULP energy -78198.069824 kJ/mol
# GULP energy per Si atom -5585.576416 kJ/mol
# Density = 2.551918 g / cm^3
# Si number density = 25.577398 Si / 1000 Ang^3
#
#
#
# Elastic Constant Matrix: (Units=GPa)
#
#
# Indices 1 2 3 4 5 6 
#
# 1 104.3194 27.8107 35.0777 0.0000 0.0000 0.0000
# 2 27.8107 39.5408 6.0597 0.0000 0.0000 0.0000
# 3 35.0777 6.0597 146.4421 0.0000 0.0000 0.0000
# 4 0.0000 0.0000 0.0000 49.3165 0.0000 0.0000
# 5 0.0000 0.0000 0.0000 0.0000 17.8275 0.0000
# 6 0.0000 0.0000 0.0000 0.0000 0.0000 46.0286
#
#
#
# Elastic Compliance Matrix: (Units=1/GPa)
#
#
# Indices 1 2 3 4 5 6 
#
# 1 0.012782 -0.008575 -0.002707 0.000000 0.000000 0.000000
# 2 -0.008575 0.031205 0.000763 0.000000 0.000000 0.000000
# 3 -0.002707 0.000763 0.007445 0.000000 0.000000 0.000000
# 4 0.000000 0.000000 0.000000 0.020277 0.000000 0.000000
# 5 0.000000 0.000000 0.000000 0.000000 0.056093 0.000000
# 6 0.000000 0.000000 0.000000 0.000000 0.000000 0.021726
#
#
# Mechanical properties :
#
#
# Convention : Reuss Voigt Hill
#
# Bulk Modulus (GPa) = 32.90169 47.57761 40.23965
# Shear Modulus (GPa) = 27.67034 37.39148 32.53091
#
# Velocity S-wave (km/s) = 3.29268 3.82762 3.57019
# Velocity P-wave (km/s) = 5.22945 6.17868 5.72378
#
# Compressibility (1/GPa) = 0.03039357
#
# Stress axis : x y z
#
# Youngs Moduli (GPa) = 78.23317 32.04628 134.30986
#
# Poissons Ratio (x) = 0.27481 0.36357
# Poissons Ratio (y) = 0.67089 -0.10246
# Poissons Ratio (z) = 0.21177 -0.02445
#
# Static dielectric constant tensor:
#      x y z
#    x 2.033670 0.000000 0.000000 
#    y 0.000000 2.102260 0.000000 
#    z 0.000000 0.000000 2.067390 
# 
# From -- ./inp_files/2031.got.cif
#   From: 2010.05.17/outbox.cif.g08.bks.cpg/sg37_2_cif.got.tgz:2031.got - 2010.06.03 17:53:42.
