data_PCOD9355317
_publ_section_title
;
Structure prediction by ZEFSAII (Michael W. Deem and Ramdas Pophale) SiO2 
 PCOD9355317
Probable space group: C C C 2
;
_chemical_formula_sum "Si O2"
_cell_formula_units_Z 60
_cell_length_a 7.497609
_cell_length_b 29.024320
_cell_length_c 12.260564
_cell_angle_alpha 90.000000
_cell_angle_beta 90.000000
_cell_angle_gamma 90.000000
_cell_volume 2668.058149
_symmetry_space_group_name_H-M "C C C 2"
_symmetry_group_IT_number 37
_symmetry_cell_setting 'orthorhombic'
loop_
_space_group_symop_operation_xyz
x,y,z
-x,-y,z
-x,y,1/2+z
x,-y,1/2+z
1/2+x,1/2+y,z
1/2-x,1/2-y,z
1/2-x,1/2+y,1/2+z
1/2+x,1/2-y,1/2+z
loop_
_atom_site_type_symbol
_atom_site_label
_atom_site_fract_x
_atom_site_fract_y
_atom_site_fract_z
Si Si1 0.749741 0.362042 0.214150
Si Si2 0.987002 0.697926 0.855023
Si Si3 0.155024 0.617539 0.973334
Si Si4 0.449731 0.272541 0.693043
Si Si5 0.817041 0.047633 0.342653
Si Si6 0.871850 0.453811 0.551885
Si Si7 0.750000 0.750000 0.016707
Si Si8 0.275106 0.549669 0.785472
O O1 0.922532 0.333230 0.253043
O O2 0.749286 0.378507 0.089580
O O3 0.588423 0.325567 0.222457
O O4 0.753761 0.404915 0.295133
O O5 0.031654 0.745922 0.797101
O O6 0.824222 0.710032 0.937036
O O7 0.123898 0.668257 0.924759
O O8 0.977505 0.589207 0.002302
O O9 0.236662 0.585634 0.880330
O O10 0.250000 0.250000 0.672334
O O11 0.584601 0.265644 0.592711
O O12 0.799941 0.041561 0.472748
O O13 0.012152 0.046445 0.290797
O O14 0.710201 0.002659 0.304915
O O15 0.808323 0.438797 0.670389
O O16 0.000000 0.500000 0.551992
#
# Coordination Sequence:
#
# PCOD9355317 Si02
#       8
#     8   8   8   8   8   8   4   8
#     4  11  23  45  71 103 152 189 246 314 368 450
#     4  11  22  45  70 106 145 190 249 319 367 451
#     4  12  25  42  76 107 148 196 255 306 381 454
#     4  10  24  47  69 107 147 187 248 317 380 445
#     4  11  26  46  72 103 152 198 247 308 381 440
#     4  12  25  44  75 104 149 197 254 308 372 452
#     4  12  24  46  80  98 144 202 244 312 402 448
#     4  11  28  45  70 111 150 197 249 309 379 447
#
# _framework density 22.488265999999999
#
# number of rings (size 3 to 8) (size 9 to 14) (size 15 to 20)
#    0.000    0.800    4.667    3.200    3.733    4.267 
#    3.600    0.000    0.000    0.000    0.000    0.000 
#    0.000    0.000    0.000    0.000    0.000    0.000 
#
# Total GULP energy -167451.823514 kJ/mol
# GULP energy per Si atom -5581.727450 kJ/mol
# Density = 2.243708 g / cm^3
# Si number density = 22.488266 Si / 1000 Ang^3
#
#
#
# Elastic Constant Matrix: (Units=GPa)
#
#
# Indices 1 2 3 4 5 6 
#
# 1 51.3442 10.7553 22.1718 0.0000 0.0000 0.0000
# 2 10.7553 112.1770 44.2319 0.0000 0.0000 0.0000
# 3 22.1718 44.2319 141.5146 0.0000 0.0000 0.0000
# 4 0.0000 0.0000 0.0000 41.6816 0.0000 0.0000
# 5 0.0000 0.0000 0.0000 0.0000 24.5184 0.0000
# 6 0.0000 0.0000 0.0000 0.0000 0.0000 11.4570
#
#
#
# Elastic Compliance Matrix: (Units=1/GPa)
#
#
# Indices 1 2 3 4 5 6 
#
# 1 0.020955 -0.000815 -0.003028 0.000000 0.000000 0.000000
# 2 -0.000815 0.010199 -0.003060 0.000000 0.000000 0.000000
# 3 -0.003028 -0.003060 0.008497 0.000000 0.000000 0.000000
# 4 0.000000 0.000000 0.000000 0.023991 0.000000 0.000000
# 5 0.000000 0.000000 0.000000 0.000000 0.040786 0.000000
# 6 0.000000 0.000000 0.000000 0.000000 0.000000 0.087283
#
#
# Mechanical properties :
#
#
# Convention : Reuss Voigt Hill
#
# Bulk Modulus (GPa) = 38.69317 51.03931 44.86624
# Shear Modulus (GPa) = 23.34996 30.72320 27.03658
#
# Velocity S-wave (km/s) = 3.22579 3.70021 3.47111
# Velocity P-wave (km/s) = 5.57831 6.40317 6.00492
#
# Compressibility (1/GPa) = 0.02584435
#
# Stress axis : x y z
#
# Youngs Moduli (GPa) = 47.72169 98.04616 117.68342
#
# Poissons Ratio (x) = 0.07991 0.35639
# Poissons Ratio (y) = 0.03889 0.36013
# Poissons Ratio (z) = 0.14452 0.30004
#
# Static dielectric constant tensor:
#      x y z
#    x 1.884930 0.000000 0.000000 
#    y 0.000000 1.939710 0.000000 
#    z 0.000000 0.000000 1.850120 
# 
# From -- ./inp_files/6602.got.cif
#   From: 2010.05.17/outbox.cif.g08.bks.cpg/sg37_4_cif.got.tgz:6602.got - 2010.06.03 17:53:42.
