data_PCOD9355541
_publ_section_title
;
Structure prediction by ZEFSAII (Michael W. Deem and Ramdas Pophale) SiO2 
 PCOD9355541
Probable space group: C C C 2
;
_chemical_formula_sum "Si O2"
_cell_formula_units_Z 64
_cell_length_a 13.246738
_cell_length_b 18.937548
_cell_length_c 13.187321
_cell_angle_alpha 90.000000
_cell_angle_beta 90.000000
_cell_angle_gamma 90.000000
_cell_volume 3308.181061
_symmetry_space_group_name_H-M "C C C 2"
_symmetry_group_IT_number 37
_symmetry_cell_setting 'orthorhombic'
loop_
_space_group_symop_operation_xyz
x,y,z
-x,-y,z
-x,y,1/2+z
x,-y,1/2+z
1/2+x,1/2+y,z
1/2-x,1/2-y,z
1/2-x,1/2+y,1/2+z
1/2+x,1/2-y,1/2+z
loop_
_atom_site_type_symbol
_atom_site_label
_atom_site_fract_x
_atom_site_fract_y
_atom_site_fract_z
Si Si1 0.981594 0.202260 0.119510
Si Si2 0.346989 0.291754 0.950287
Si Si3 0.576017 0.059488 0.225775
Si Si4 0.271898 0.559152 0.364513
Si Si5 0.006190 0.292497 0.803882
Si Si6 0.210837 0.454577 0.542556
Si Si7 0.095586 0.951960 0.180267
Si Si8 0.842700 0.702714 0.479446
O O1 0.028467 0.236964 0.219654
O O2 0.933268 0.128754 0.154988
O O3 0.066400 0.194614 0.033260
O O4 0.896790 0.254661 0.071618
O O5 0.250000 0.250000 0.991986
O O6 0.305799 0.366323 0.910615
O O7 0.397556 0.243589 0.861068
O O8 0.678820 0.067692 0.288261
O O9 0.526605 0.135839 0.241781
O O10 0.612341 0.035677 0.113685
O O11 0.500000 0.000000 0.265759
O O12 0.229199 0.504843 0.447175
O O13 0.366561 0.535558 0.295340
O O14 0.925241 0.306457 0.891601
O O15 0.309354 0.468715 0.609997
O O16 0.200990 0.372754 0.511696
O O17 0.000000 0.000000 0.157349
O O18 0.750000 0.750000 0.442622
#
# Coordination Sequence:
#
# PCOD9355541 Si02
#       8
#     8   8   8   8   8   8   8   8
#     4  11  23  41  68  98 131 176 223 274 338 401
#     4  11  23  41  69  98 131 174 226 282 334 403
#     4  11  24  42  67  96 133 177 221 278 338 405
#     4  11  24  42  67  96 132 178 223 273 337 406
#     4  11  23  41  68  98 131 176 223 274 338 401
#     4  11  24  42  67  96 132 178 223 273 337 406
#     4  11  24  42  67  96 133 177 221 278 338 405
#     4  11  23  41  69  98 131 174 226 282 334 403
#
# _framework density 19.345979
#
# number of rings (size 3 to 8) (size 9 to 14) (size 15 to 20)
#    0.000    1.000    5.000    1.500    0.000    6.000 
#    0.000    0.000    0.000    0.000    0.000    0.000 
#    0.000    0.000    0.000    0.000    0.000    0.000 
#
# Total GULP energy -178591.020693 kJ/mol
# GULP energy per Si atom -5580.969397 kJ/mol
# Density = 1.930195 g / cm^3
# Si number density = 19.345979 Si / 1000 Ang^3
#
#
#
# Elastic Constant Matrix: (Units=GPa)
#
#
# Indices 1 2 3 4 5 6 
#
# 1 71.3829 15.4291 5.9732 0.0000 0.0000 0.0000
# 2 15.4291 58.0979 7.8573 0.0000 0.0000 0.0000
# 3 5.9732 7.8573 63.8459 0.0000 0.0000 0.0000
# 4 0.0000 0.0000 0.0000 15.0033 0.0000 0.0000
# 5 0.0000 0.0000 0.0000 0.0000 19.8504 0.0000
# 6 0.0000 0.0000 0.0000 0.0000 0.0000 40.8403
#
#
#
# Elastic Compliance Matrix: (Units=1/GPa)
#
#
# Indices 1 2 3 4 5 6 
#
# 1 0.014915 -0.003836 -0.000923 0.000000 0.000000 0.000000
# 2 -0.003836 0.018490 -0.001917 0.000000 0.000000 0.000000
# 3 -0.000923 -0.001917 0.015985 0.000000 0.000000 0.000000
# 4 0.000000 0.000000 0.000000 0.066652 0.000000 0.000000
# 5 0.000000 0.000000 0.000000 0.000000 0.050377 0.000000
# 6 0.000000 0.000000 0.000000 0.000000 0.000000 0.024486
#
#
# Mechanical properties :
#
#
# Convention : Reuss Voigt Hill
#
# Bulk Modulus (GPa) = 27.74824 27.98288 27.86556
# Shear Modulus (GPa) = 23.11921 26.07659 24.59790
#
# Velocity S-wave (km/s) = 3.46069 3.67537 3.56964
# Velocity P-wave (km/s) = 5.50843 5.70149 5.60579
#
# Compressibility (1/GPa) = 0.03603832
#
# Stress axis : x y z
#
# Youngs Moduli (GPa) = 67.04476 54.08236 62.55875
#
# Poissons Ratio (x) = 0.20747 0.05776
# Poissons Ratio (y) = 0.25720 0.11990
# Poissons Ratio (z) = 0.06190 0.10366
#
# Static dielectric constant tensor:
#      x y z
#    x 1.667440 0.000000 0.000000 
#    y 0.000000 1.661070 0.000000 
#    z 0.000000 0.000000 1.702120 
# 
# From -- ./inp_files/11766.got.cif
#   From: 2010.05.17/outbox.cif.g08.bks.cpg/sg37_6_cif.got.tgz:11766.got - 2010.06.03 17:53:42.
