data_PCOD9355277
_publ_section_title
;
Structure prediction by ZEFSAII (Michael W. Deem and Ramdas Pophale) SiO2 
 PCOD9355277
Probable space group: C C C 2
;
_chemical_formula_sum "Si O2"
_cell_formula_units_Z 52
_cell_length_a 24.151036
_cell_length_b 11.130757
_cell_length_c 8.734617
_cell_angle_alpha 90.000000
_cell_angle_beta 90.000000
_cell_angle_gamma 90.000000
_cell_volume 2348.033741
_symmetry_space_group_name_H-M "C C C 2"
_symmetry_group_IT_number 37
_symmetry_cell_setting 'orthorhombic'
loop_
_space_group_symop_operation_xyz
x,y,z
-x,-y,z
-x,y,1/2+z
x,-y,1/2+z
1/2+x,1/2+y,z
1/2-x,1/2-y,z
1/2-x,1/2+y,1/2+z
1/2+x,1/2-y,1/2+z
loop_
_atom_site_type_symbol
_atom_site_label
_atom_site_fract_x
_atom_site_fract_y
_atom_site_fract_z
Si Si1 0.750000 0.750000 0.449780
Si Si2 0.015592 0.137998 0.868121
Si Si3 0.878428 0.873069 0.070843
Si Si4 0.157865 0.079685 0.394522
Si Si5 0.196331 0.338093 0.015532
Si Si6 0.076871 0.245005 0.574853
Si Si7 0.673107 0.089453 0.163508
O O1 0.787709 0.843927 0.359117
O O2 0.711822 0.828769 0.558268
O O3 0.061242 0.121282 0.000645
O O4 0.045455 0.201453 0.726137
O O5 0.967152 0.223743 0.936614
O O6 0.000000 0.000000 0.829154
O O7 0.856130 0.739607 0.069482
O O8 0.836321 0.948111 0.962692
O O9 0.876426 0.924916 0.239924
O O10 0.124420 0.150726 0.525159
O O11 0.250000 0.250000 0.023599
O O12 0.184948 0.379782 0.840531
O O13 0.192733 0.455318 0.122602
O O14 0.110597 0.368377 0.612119
#
# Coordination Sequence:
#
# PCOD9355277 Si02
#       7
#     4   8   8   8   8   8   8
#     4  10  24  44  74  96 148 190 248 298 376 444
#     4  12  23  41  74 115 145 196 252 313 372 444
#     4  12  26  44  74 109 149 192 252 308 378 437
#     4  11  25  42  68 109 145 193 243 311 374 447
#     4  12  28  48  79 106 150 197 249 304 374 453
#     4  11  24  44  71 105 150 191 247 316 372 438
#     4  11  26  49  71 107 148 194 247 307 370 453
#
# _framework density 22.146190000000001
#
# number of rings (size 3 to 8) (size 9 to 14) (size 15 to 20)
#    0.000    0.615    3.846    3.231    7.538    2.462 
#    0.000    0.769    0.000    0.000    0.000    0.000 
#    0.000    0.000    0.000    0.000    0.000    0.000 
#
# Total GULP energy -145355.572388 kJ/mol
# GULP energy per Si atom -5590.598938 kJ/mol
# Density = 2.209578 g / cm^3
# Si number density = 22.146190 Si / 1000 Ang^3
#
#
#
# Elastic Constant Matrix: (Units=GPa)
#
#
# Indices 1 2 3 4 5 6 
#
# 1 110.9568 52.8271 29.5435 0.0000 0.0000 0.0000
# 2 52.8271 124.5871 33.3059 0.0000 0.0000 0.0000
# 3 29.5435 33.3059 107.1203 0.0000 0.0000 0.0000
# 4 0.0000 0.0000 0.0000 187.2733 0.0000 0.0000
# 5 0.0000 0.0000 0.0000 0.0000 31.8569 0.0000
# 6 0.0000 0.0000 0.0000 0.0000 0.0000 38.8782
#
#
#
# Elastic Compliance Matrix: (Units=1/GPa)
#
#
# Indices 1 2 3 4 5 6 
#
# 1 0.011610 -0.004435 -0.001823 0.000000 0.000000 0.000000
# 2 -0.004435 0.010449 -0.002025 0.000000 0.000000 0.000000
# 3 -0.001823 -0.002025 0.010468 0.000000 0.000000 0.000000
# 4 0.000000 0.000000 0.000000 0.005340 0.000000 0.000000
# 5 0.000000 0.000000 0.000000 0.000000 0.031390 0.000000
# 6 0.000000 0.000000 0.000000 0.000000 0.000000 0.025721
#
#
# Mechanical properties :
#
#
# Convention : Reuss Voigt Hill
#
# Bulk Modulus (GPa) = 62.66169 63.77969 63.22069
# Shear Modulus (GPa) = 42.78462 66.73418 54.75940
#
# Velocity S-wave (km/s) = 4.40013 5.49535 4.97795
# Velocity P-wave (km/s) = 7.36008 8.31427 7.85169
#
# Compressibility (1/GPa) = 0.01595872
#
# Stress axis : x y z
#
# Youngs Moduli (GPa) = 86.13581 95.70621 95.53121
#
# Poissons Ratio (x) = 0.42449 0.17414
# Poissons Ratio (y) = 0.38204 0.19349
# Poissons Ratio (z) = 0.15701 0.19385
#
# Static dielectric constant tensor:
#      x y z
#    x 1.863990 0.000000 0.000000 
#    y 0.000000 1.654750 0.000000 
#    z 0.000000 0.000000 1.801160 
# 
# From -- ./inp_files/4782.got.cif
#   From: 2010.05.17/outbox.cif.g08.bks.cpg/sg37_3_cif.got.tgz:4782.got - 2010.06.03 17:53:42.
