data_PCOD9355256
_publ_section_title
;
Structure prediction by ZEFSAII (Michael W. Deem and Ramdas Pophale) SiO2 
 PCOD9355256
Probable space group: C C C 2
;
_chemical_formula_sum "Si O2"
_cell_formula_units_Z 56
_cell_length_a 5.699890
_cell_length_b 14.434386
_cell_length_c 28.651081
_cell_angle_alpha 90.000000
_cell_angle_beta 90.000000
_cell_angle_gamma 90.000000
_cell_volume 2357.250854
_symmetry_space_group_name_H-M "C C C 2"
_symmetry_group_IT_number 37
_symmetry_cell_setting 'orthorhombic'
loop_
_space_group_symop_operation_xyz
x,y,z
-x,-y,z
-x,y,1/2+z
x,-y,1/2+z
1/2+x,1/2+y,z
1/2-x,1/2-y,z
1/2-x,1/2+y,1/2+z
1/2+x,1/2-y,1/2+z
loop_
_atom_site_type_symbol
_atom_site_label
_atom_site_fract_x
_atom_site_fract_y
_atom_site_fract_z
Si Si1 0.212074 0.858160 0.957070
Si Si2 0.031266 0.111253 0.624582
Si Si3 0.891668 0.899892 0.357338
Si Si4 0.470221 0.894095 0.663010
Si Si5 0.000000 0.500000 0.018845
Si Si6 0.856571 0.147488 0.530756
Si Si7 0.882109 0.652673 0.267824
Si Si8 0.750000 0.250000 0.328216
O O1 0.250000 0.750000 0.966435
O O2 0.259723 0.878723 0.903042
O O3 0.953374 0.875679 0.979051
O O4 0.372902 0.925112 0.986734
O O5 0.774423 0.146405 0.642408
O O6 0.054771 0.140737 0.570502
O O7 0.269500 0.144159 0.650439
O O8 0.000000 0.000000 0.630233
O O9 0.767717 0.900453 0.307004
O O10 0.070793 0.813036 0.356777
O O11 0.000000 0.000000 0.365054
O O12 0.430461 0.892970 0.718669
O O13 0.500000 0.000000 0.647235
O O14 0.181377 0.434863 0.045732
O O15 0.750000 0.250000 0.530922
O O16 0.750000 0.750000 0.259146
O O17 0.118179 0.678575 0.294685
#
# Coordination Sequence:
#
# PCOD9355256 Si02
#       8
#     8   8   8   8   4   8   8   4
#     4  12  26  47  74 111 152 199 258 309 391 465
#     4  10  24  45  73 107 149 197 251 314 386 462
#     4  11  26  43  72 106 145 195 251 312 384 462
#     4  10  24  43  75 105 145 194 248 313 386 464
#     4  12  26  48  78 102 162 200 244 328 380 460
#     4  12  27  47  76 111 147 203 257 318 388 467
#     4  10  24  44  66 103 139 192 243 311 382 457
#     4  10  24  44  68  94 146 186 242 314 378 454
#
# _framework density 23.756488999999998
#
# number of rings (size 3 to 8) (size 9 to 14) (size 15 to 20)
#    0.000    1.143    1.429    3.429   12.000    4.571 
#    0.000    0.000    0.000    0.000    0.000    0.000 
#    0.000    0.000    0.000    0.000    0.000    0.000 
#
# Total GULP energy -156516.007008 kJ/mol
# GULP energy per Si atom -5589.857393 kJ/mol
# Density = 2.370242 g / cm^3
# Si number density = 23.756489 Si / 1000 Ang^3
#
#
#
# Elastic Constant Matrix: (Units=GPa)
#
#
# Indices 1 2 3 4 5 6 
#
# 1 106.0340 21.6533 36.7282 0.0000 0.0000 0.0000
# 2 21.6533 114.0025 26.3219 0.0000 0.0000 0.0000
# 3 36.7282 26.3219 113.7733 0.0000 0.0000 0.0000
# 4 0.0000 0.0000 0.0000 24.7514 0.0000 0.0000
# 5 0.0000 0.0000 0.0000 0.0000 -2.8680 0.0000
# 6 0.0000 0.0000 0.0000 0.0000 0.0000 8.0393
#
#
#
# Elastic Compliance Matrix: (Units=1/GPa)
#
#
# Indices 1 2 3 4 5 6 
#
# 1 0.010802 -0.001317 -0.003182 0.000000 0.000000 0.000000
# 2 -0.001317 0.009427 -0.001756 0.000000 0.000000 0.000000
# 3 -0.003182 -0.001756 0.010223 0.000000 0.000000 0.000000
# 4 0.000000 0.000000 0.000000 0.040402 0.000000 0.000000
# 5 0.000000 0.000000 0.000000 0.000000 -0.348676 0.000000
# 6 0.000000 0.000000 0.000000 0.000000 0.000000 0.124389
#
#
# Mechanical properties :
#
#
# Convention : Reuss Voigt Hill
#
# Bulk Modulus (GPa) = 55.73556 55.91294 55.82425
# Shear Modulus (GPa) = -37.05329 22.59163 -7.23083
#
# Velocity S-wave (km/s) = -3.95360 3.08712 -1.74652
# Velocity P-wave (km/s) = 1.63426 6.02445 4.41389
#
# Compressibility (1/GPa) = 0.01794187
#
# Stress axis : x y z
#
# Youngs Moduli (GPa) = 92.57351 106.07500 97.81851
#
# Poissons Ratio (x) = 0.13969 0.31131
# Poissons Ratio (y) = 0.12191 0.17176
# Poissons Ratio (z) = 0.29461 0.18626
#
# Static dielectric constant tensor:
#      x y z
#    x 2.102780 0.000000 0.000000 
#    y 0.000000 1.851210 0.000000 
#    z 0.000000 0.000000 1.857730 
# 
# From -- ./inp_files/20190.got.cif
#   From: 2010.05.17/outbox.cif.g08.bks.cpg/sg37_11_cif.got.tgz:20190.got - 2010.06.03 17:53:42.
