data_PCOD9355166
_publ_section_title
;
Structure prediction by ZEFSAII (Michael W. Deem and Ramdas Pophale) SiO2 
 PCOD9355166
Probable space group: C C C 2
;
_chemical_formula_sum "Si O2"
_cell_formula_units_Z 32
_cell_length_a 6.234312
_cell_length_b 23.529693
_cell_length_c 8.726377
_cell_angle_alpha 90.000000
_cell_angle_beta 90.000000
_cell_angle_gamma 90.000000
_cell_volume 1280.084873
_symmetry_space_group_name_H-M "C C C 2"
_symmetry_group_IT_number 37
_symmetry_cell_setting 'orthorhombic'
loop_
_space_group_symop_operation_xyz
x,y,z
-x,-y,z
-x,y,1/2+z
x,-y,1/2+z
1/2+x,1/2+y,z
1/2-x,1/2-y,z
1/2-x,1/2+y,1/2+z
1/2+x,1/2-y,1/2+z
loop_
_atom_site_type_symbol
_atom_site_label
_atom_site_fract_x
_atom_site_fract_y
_atom_site_fract_z
Si Si1 0.319280 0.633923 0.502390
Si Si2 0.500000 0.000000 0.261657
Si Si3 0.244899 0.929184 0.010844
Si Si4 0.041571 0.347968 0.716031
Si Si5 0.750000 0.250000 0.365006
O O1 0.158280 0.622258 0.360150
O O2 0.366323 0.700232 0.462120
O O3 0.494513 0.584653 0.499182
O O4 0.197514 0.636321 0.665042
O O5 0.337723 0.966947 0.149212
O O6 0.652352 0.960914 0.366857
O O7 0.327064 0.866393 0.064645
O O8 0.078408 0.282794 0.759869
#
# Coordination Sequence:
#
# PCOD9355166 Si02
#       5
#     8   4   8   8   4
#     4  10  24  46  77 117 164 214 262 339 402 502
#     4  10  26  52  84 118 154 214 294 350 416 482
#     4  11  24  51  81 113 158 213 277 356 411 485
#     4  10  23  45  74 117 158 209 272 337 392 523
#     4   8  24  42  76 114 160 214 256 324 406 490
#
# _framework density 24.998342999999998
#
# number of rings (size 3 to 8) (size 9 to 14) (size 15 to 20)
#    1.500    0.500    0.000    1.500    3.500    4.000 
#    0.000   30.000    0.000    0.000    0.000    0.000 
#    0.000    0.000    0.000    0.000    0.000    0.000 
#
# Total GULP energy -89142.077371 kJ/mol
# GULP energy per Si atom -5571.379836 kJ/mol
# Density = 2.494145 g / cm^3
# Si number density = 24.998343 Si / 1000 Ang^3
#
#
#
# Elastic Constant Matrix: (Units=GPa)
#
#
# Indices 1 2 3 4 5 6 
#
# 1 158.1781 94.8266 98.8182 0.0000 0.0000 0.0000
# 2 94.8266 148.4366 100.8291 0.0000 0.0000 0.0000
# 3 98.8182 100.8291 160.2522 0.0000 0.0000 0.0000
# 4 0.0000 0.0000 0.0000 39.3679 0.0000 0.0000
# 5 0.0000 0.0000 0.0000 0.0000 34.0605 0.0000
# 6 0.0000 0.0000 0.0000 0.0000 0.0000 49.2484
#
#
#
# Elastic Compliance Matrix: (Units=1/GPa)
#
#
# Indices 1 2 3 4 5 6 
#
# 1 0.011806 -0.004535 -0.004427 0.000000 0.000000 0.000000
# 2 -0.004535 0.013508 -0.005702 0.000000 0.000000 0.000000
# 3 -0.004427 -0.005702 0.012558 0.000000 0.000000 0.000000
# 4 0.000000 0.000000 0.000000 0.025401 0.000000 0.000000
# 5 0.000000 0.000000 0.000000 0.000000 0.029360 0.000000
# 6 0.000000 0.000000 0.000000 0.000000 0.000000 0.020305
#
#
# Mechanical properties :
#
#
# Convention : Reuss Voigt Hill
#
# Bulk Modulus (GPa) = 117.05333 117.31274 117.18304
# Shear Modulus (GPa) = 34.45573 36.02823 35.24198
#
# Velocity S-wave (km/s) = 3.71660 3.80046 3.75877
# Velocity P-wave (km/s) = 8.08354 8.14175 8.11270
#
# Compressibility (1/GPa) = 0.00854311
#
# Stress axis : x y z
#
# Youngs Moduli (GPa) = 84.69972 74.03269 79.63349
#
# Poissons Ratio (x) = 0.33577 0.35251
# Poissons Ratio (y) = 0.38415 0.45408
# Poissons Ratio (z) = 0.37494 0.42214
#
# Static dielectric constant tensor:
#      x y z
#    x 2.112960 0.000000 0.000000 
#    y 0.000000 2.113230 0.000000 
#    z 0.000000 0.000000 2.006550 
# 
# From -- ./inp_files/2315.got.cif
#   From: 2010.05.17/outbox.cif.g08.bks.cpg/sg37_2_cif.got.tgz:2315.got - 2010.06.03 17:53:42.
