data_PCOD9355470
_publ_section_title
;
Structure prediction by ZEFSAII (Michael W. Deem and Ramdas Pophale) SiO2 
 PCOD9355470
Probable space group: C C C 2
;
_chemical_formula_sum "Si O2"
_cell_formula_units_Z 48
_cell_length_a 16.653576
_cell_length_b 9.363939
_cell_length_c 14.162719
_cell_angle_alpha 90.000000
_cell_angle_beta 90.000000
_cell_angle_gamma 90.000000
_cell_volume 2208.577878
_symmetry_space_group_name_H-M "C C C 2"
_symmetry_group_IT_number 37
_symmetry_cell_setting 'orthorhombic'
loop_
_space_group_symop_operation_xyz
x,y,z
-x,-y,z
-x,y,1/2+z
x,-y,1/2+z
1/2+x,1/2+y,z
1/2-x,1/2-y,z
1/2-x,1/2+y,1/2+z
1/2+x,1/2-y,1/2+z
loop_
_atom_site_type_symbol
_atom_site_label
_atom_site_fract_x
_atom_site_fract_y
_atom_site_fract_z
Si Si1 0.319877 0.416927 0.025430
Si Si2 0.625096 0.750000 0.721219
Si Si3 0.180123 0.416927 0.417008
Si Si4 0.250000 0.001066 0.221219
Si Si5 0.420494 0.812844 0.425703
Si Si6 0.079506 0.812844 0.016734
O O1 0.287519 0.412546 0.133359
O O2 0.397322 0.520890 0.013909
O O3 0.250000 0.500000 0.971219
O O4 0.346838 0.270519 0.977167
O O5 0.679834 0.887600 0.695133
O O6 0.679834 0.612401 0.747305
O O7 0.576302 0.780334 0.814761
O O8 0.576302 0.719666 0.627677
O O9 0.212481 0.412547 0.309079
O O10 0.102678 0.520890 0.428529
O O11 0.153162 0.270519 0.465271
O O12 0.500000 0.750000 0.471219
#
# Coordination Sequence:
#
# PCOD9355470 Si02
#       6
#     8   8   8   8   8   8
#     4  11  21  41  66  92 123 164 214 258 307 374
#     4   9  18  38  64  84 121 174 206 240 321 388
#     4  11  21  41  66  92 123 164 214 258 307 374
#     4   9  18  36  67  88 116 167 217 248 300 377
#     4  11  23  41  63  93 129 166 205 262 321 378
#     4  11  23  41  63  93 129 166 205 262 321 378
#
# _framework density 21.733443999999999
#
# number of rings (size 3 to 8) (size 9 to 14) (size 15 to 20)
#    0.000    1.667    3.333    2.000    0.000    0.000 
#    6.000    5.000    0.000    0.000    0.000    0.000 
#    0.000    0.000    0.000    0.000    0.000    0.000 
#
# Total GULP energy -133976.305698 kJ/mol
# GULP energy per Si atom -5582.346071 kJ/mol
# Density = 2.168398 g / cm^3
# Si number density = 21.733444 Si / 1000 Ang^3
#
#
#
# Elastic Constant Matrix: (Units=GPa)
#
#
# Indices 1 2 3 4 5 6 
#
# 1 88.9893 13.0049 24.1108 0.0000 0.0000 0.0000
# 2 13.0049 103.3740 40.3129 0.0000 0.0000 0.0000
# 3 24.1108 40.3129 105.7791 0.0000 0.0000 0.0000
# 4 0.0000 0.0000 0.0000 24.4701 0.0000 0.0000
# 5 0.0000 0.0000 0.0000 0.0000 33.1731 0.0000
# 6 0.0000 0.0000 0.0000 0.0000 0.0000 31.5809
#
#
#
# Elastic Compliance Matrix: (Units=1/GPa)
#
#
# Indices 1 2 3 4 5 6 
#
# 1 0.012001 -0.000520 -0.002537 0.000000 0.000000 0.000000
# 2 -0.000520 0.011385 -0.004220 0.000000 0.000000 0.000000
# 3 -0.002537 -0.004220 0.011640 0.000000 0.000000 0.000000
# 4 0.000000 0.000000 0.000000 0.040866 0.000000 0.000000
# 5 0.000000 0.000000 0.000000 0.000000 0.030145 0.000000
# 6 0.000000 0.000000 0.000000 0.000000 0.000000 0.031665
#
#
# Mechanical properties :
#
#
# Convention : Reuss Voigt Hill
#
# Bulk Modulus (GPa) = 48.85059 50.33329 49.59194
# Shear Modulus (GPa) = 31.43064 32.55908 31.99486
#
# Velocity S-wave (km/s) = 3.80700 3.87474 3.84102
# Velocity P-wave (km/s) = 6.46918 6.57479 6.52220
#
# Compressibility (1/GPa) = 0.02047058
#
# Stress axis : x y z
#
# Youngs Moduli (GPa) = 83.32815 87.83621 85.90846
#
# Poissons Ratio (x) = 0.04571 0.21796
# Poissons Ratio (y) = 0.04336 0.36255
# Poissons Ratio (z) = 0.21141 0.37069
#
# Static dielectric constant tensor:
#      x y z
#    x 1.821310 0.000000 0.000000 
#    y 0.000000 1.881260 0.000000 
#    z 0.000000 0.000000 1.794220 
# 
# From -- ./inp_files/12540.got.cif
#   From: 2010.05.17/outbox.cif.g08.bks.cpg/sg37_7_cif.got.tgz:12540.got - 2010.06.03 17:53:42.
