data_PCOD9355071
_publ_section_title
;
Structure prediction by ZEFSAII (Michael W. Deem and Ramdas Pophale) SiO2 
 PCOD9355071
Probable space group: C C C 2
;
_chemical_formula_sum "Si O2"
_cell_formula_units_Z 48
_cell_length_a 19.354811
_cell_length_b 11.067609
_cell_length_c 9.234042
_cell_angle_alpha 90.000000
_cell_angle_beta 90.000000
_cell_angle_gamma 90.000000
_cell_volume 1978.037807
_symmetry_space_group_name_H-M "C C C 2"
_symmetry_group_IT_number 37
_symmetry_cell_setting 'orthorhombic'
loop_
_space_group_symop_operation_xyz
x,y,z
-x,-y,z
-x,y,1/2+z
x,-y,1/2+z
1/2+x,1/2+y,z
1/2-x,1/2-y,z
1/2-x,1/2+y,1/2+z
1/2+x,1/2-y,1/2+z
loop_
_atom_site_type_symbol
_atom_site_label
_atom_site_fract_x
_atom_site_fract_y
_atom_site_fract_z
Si Si1 0.250000 0.750000 0.137321
Si Si2 0.647968 0.127329 0.352428
Si Si3 0.500000 0.000000 0.119651
Si Si4 0.388956 0.361951 0.220396
Si Si5 0.961470 0.743999 0.662772
Si Si6 0.146121 0.068773 0.521054
Si Si7 0.357504 0.107778 0.196213
O O1 0.308236 0.786642 0.251048
O O2 0.218227 0.860620 0.045213
O O3 0.571751 0.179947 0.306826
O O4 0.656340 0.120070 0.524358
O O5 0.673734 0.998128 0.290049
O O6 0.466111 0.876196 0.057042
O O7 0.562469 0.936036 0.202369
O O8 0.466391 0.314441 0.188176
O O9 0.379980 0.445604 0.358238
O O10 0.356252 0.436739 0.090579
O O11 0.347876 0.239927 0.257642
O O12 0.911224 0.843803 0.594797
#
# Coordination Sequence:
#
# PCOD9355071 Si02
#       7
#     4   8   4   8   8   8   8
#     4  10  26  50  72  94 142 192 246 298 354 422
#     4  10  23  44  70 100 140 184 237 295 355 421
#     4   8  18  36  62 100 136 172 214 282 340 420
#     4  11  26  43  70 107 141 184 239 291 364 426
#     4   9  21  39  68  99 143 180 227 288 356 419
#     4  11  26  46  69  99 143 192 238 294 353 426
#     4  10  23  40  70 105 135 178 233 288 360 422
#
# _framework density 24.266473000000001
#
# number of rings (size 3 to 8) (size 9 to 14) (size 15 to 20)
#    0.000    2.000    0.000    0.500   16.333    5.333 
#    0.000    0.000    0.000    0.000    0.000    0.000 
#    0.000    0.000    0.000    0.000    0.000    0.000 
#
# Total GULP energy -133759.777149 kJ/mol
# GULP energy per Si atom -5573.324048 kJ/mol
# Density = 2.421124 g / cm^3
# Si number density = 24.266473 Si / 1000 Ang^3
#
#
#
# Elastic Constant Matrix: (Units=GPa)
#
#
# Indices 1 2 3 4 5 6 
#
# 1 60.8540 2.8393 8.2596 0.0000 0.0000 0.0000
# 2 2.8393 64.8690 -7.3602 0.0000 0.0000 0.0000
# 3 8.2596 -7.3602 62.9086 0.0000 0.0000 0.0000
# 4 0.0000 0.0000 0.0000 16.5235 0.0000 0.0000
# 5 0.0000 0.0000 0.0000 0.0000 5.6388 0.0000
# 6 0.0000 0.0000 0.0000 0.0000 0.0000 -40.9162
#
#
#
# Elastic Compliance Matrix: (Units=1/GPa)
#
#
# Indices 1 2 3 4 5 6 
#
# 1 0.016795 -0.000999 -0.002322 0.000000 0.000000 0.000000
# 2 -0.000999 0.015682 0.001966 0.000000 0.000000 0.000000
# 3 -0.002322 0.001966 0.016431 0.000000 0.000000 0.000000
# 4 0.000000 0.000000 0.000000 0.060520 0.000000 0.000000
# 5 0.000000 0.000000 0.000000 0.000000 0.177343 0.000000
# 6 0.000000 0.000000 0.000000 0.000000 0.000000 -0.024440
#
#
# Mechanical properties :
#
#
# Convention : Reuss Voigt Hill
#
# Bulk Modulus (GPa) = 21.64552 21.78989 21.71771
# Shear Modulus (GPa) = 17.82917 8.57540 13.20229
#
# Velocity S-wave (km/s) = 2.71352 1.88189 2.33503
# Velocity P-wave (km/s) = 4.33092 3.70418 4.02975
#
# Compressibility (1/GPa) = 0.04619893
#
# Stress axis : x y z
#
# Youngs Moduli (GPa) = 59.54326 63.76561 60.86084
#
# Poissons Ratio (x) = 0.06367 0.14131
# Poissons Ratio (y) = 0.05946 -0.11965
# Poissons Ratio (z) = 0.13825 -0.12536
#
# Static dielectric constant tensor:
#      x y z
#    x 2.146990 0.000000 0.000000 
#    y 0.000000 1.984000 0.000000 
#    z 0.000000 0.000000 1.955140 
# 
# From -- ./inp_files/4597.got.cif
#   From: 2010.05.17/outbox.cif.g08.bks.cpg/sg37_3_cif.got.tgz:4597.got - 2010.06.03 17:53:42.
