data_PCOD9355869
_publ_section_title
;
Structure prediction by ZEFSAII (Michael W. Deem and Ramdas Pophale) SiO2 
 PCOD9355869
Probable space group: A M M 2
;
_chemical_formula_sum "Si O2"
_cell_formula_units_Z 56
_cell_length_a 9.099032
_cell_length_b 22.666681
_cell_length_c 18.258848
_cell_angle_alpha 90.000000
_cell_angle_beta 90.000000
_cell_angle_gamma 90.000000
_cell_volume 3765.793472
_symmetry_space_group_name_H-M "A M M 2"
_symmetry_group_IT_number 38
_symmetry_cell_setting 'orthorhombic'
loop_
_space_group_symop_operation_xyz
x,y,z
-x,-y,z
-x,y,z
x,-y,z
x,1/2+y,1/2+z
-x,1/2-y,1/2+z
-x,1/2+y,1/2+z
x,1/2-y,1/2+z
loop_
_atom_site_type_symbol
_atom_site_label
_atom_site_fract_x
_atom_site_fract_y
_atom_site_fract_z
Si Si1 0.669318 0.320372 0.065740
Si Si2 0.677406 0.347761 0.907849
Si Si3 0.175927 0.152145 0.156450
Si Si4 0.177068 0.277939 0.370931
Si Si5 0.670418 0.316639 0.512551
Si Si6 0.175316 0.715022 0.206526
Si Si7 0.824755 0.430392 0.791638
O O1 0.500000 0.334702 0.080150
O O2 0.676619 0.251922 0.039153
O O3 0.756955 0.323057 0.141107
O O4 0.719246 0.355568 0.993561
O O5 0.500000 0.341495 0.904695
O O6 0.753104 0.287152 0.880824
O O7 0.734875 0.399557 0.856398
O O8 0.257108 0.147476 0.078915
O O9 0.214356 0.216160 0.191232
O O10 0.213161 0.102372 0.215606
O O11 0.000000 0.151732 0.144504
O O12 0.240723 0.317236 0.436760
O O13 0.218049 0.299793 0.289608
O O14 0.000000 0.273636 0.375858
O O15 0.500000 0.331717 0.501768
O O16 0.000000 0.711227 0.201698
O O17 0.798491 0.500000 0.787640
O O18 0.000000 0.420512 0.803598
#
# Coordination Sequence:
#
# PCOD9355869 Si02
#       7
#     8   8   8   8   8   8   8
#     4   8  16  27  38  56  81 109 140 172 209 254
#     4  10  19  30  43  60  84 114 147 182 220 260
#     4   9  16  29  43  58  81 112 145 179 218 256
#     4  10  17  27  42  62  87 115 145 176 212 257
#     4   9  17  27  39  60  83 110 144 175 212 257
#     4   9  16  25  40  61  83 110 143 173 208 253
#     4  10  20  33  48  65  85 113 152 191 224 260
#
# _framework density 14.870704
#
# number of rings (size 3 to 8) (size 9 to 14) (size 15 to 20)
#    0.000    2.714    1.429    2.143    0.000    6.000 
#    0.000    0.000    0.000    0.000    0.000    0.000 
#    0.000    1.143    0.000   10.286    0.000    6.000 
#
# Total GULP energy -155913.972917 kJ/mol
# GULP energy per Si atom -5568.356176 kJ/mol
# Density = 1.483686 g / cm^3
# Si number density = 14.870704 Si / 1000 Ang^3
#
#
#
# Elastic Constant Matrix: (Units=GPa)
#
#
# Indices 1 2 3 4 5 6 
#
# 1 52.2159 23.2646 67.1328 0.0000 0.0000 0.0000
# 2 23.2646 38.1962 40.3541 0.0000 0.0000 0.0000
# 3 67.1328 40.3541 171.1565 0.0000 0.0000 0.0000
# 4 0.0000 0.0000 0.0000 12.8827 0.0000 0.0000
# 5 0.0000 0.0000 0.0000 0.0000 15.6483 0.0000
# 6 0.0000 0.0000 0.0000 0.0000 0.0000 10.0305
#
#
#
# Elastic Compliance Matrix: (Units=1/GPa)
#
#
# Indices 1 2 3 4 5 6 
#
# 1 0.041743 -0.010823 -0.013821 0.000000 0.000000 0.000000
# 2 -0.010823 0.037671 -0.004637 0.000000 0.000000 0.000000
# 3 -0.013821 -0.004637 0.012357 0.000000 0.000000 0.000000
# 4 0.000000 0.000000 0.000000 0.077623 0.000000 0.000000
# 5 0.000000 0.000000 0.000000 0.000000 0.063905 0.000000
# 6 0.000000 0.000000 0.000000 0.000000 0.000000 0.099696
#
#
# Mechanical properties :
#
#
# Convention : Reuss Voigt Hill
#
# Bulk Modulus (GPa) = 30.11181 58.11906 44.11544
# Shear Modulus (GPa) = 12.41846 16.43345 14.42595
#
# Velocity S-wave (km/s) = 2.89294 3.32789 3.11801
# Velocity P-wave (km/s) = 5.60819 7.34400 6.53399
#
# Compressibility (1/GPa) = 0.03320956
#
# Stress axis : x y z
#
# Youngs Moduli (GPa) = 23.95625 26.54533 80.92655
#
# Poissons Ratio (x) = 0.28730 1.11849
# Poissons Ratio (y) = 0.25928 0.37524
# Poissons Ratio (z) = 0.33110 0.12309
#
# Static dielectric constant tensor:
#      x y z
#    x 1.502430 0.000000 0.000000 
#    y 0.000000 1.458090 0.000000 
#    z 0.000000 0.000000 1.515800 
# 
# From -- ./inp_files/17066.got.cif
#   From: 2010.05.17/outbox.cif.g08.bks.cpg/sg38_9_cif.got.tgz:17066.got - 2010.06.03 18:07:57.
