data_PCOD9355456
_publ_section_title
;
Structure prediction by ZEFSAII (Michael W. Deem and Ramdas Pophale) SiO2 
 PCOD9355456
Probable space group: C C C 2
;
_chemical_formula_sum "Si O2"
_cell_formula_units_Z 48
_cell_length_a 9.363658
_cell_length_b 10.663779
_cell_length_c 16.832082
_cell_angle_alpha 90.000000
_cell_angle_beta 90.000000
_cell_angle_gamma 90.000000
_cell_volume 1680.716708
_symmetry_space_group_name_H-M "C C C 2"
_symmetry_group_IT_number 37
_symmetry_cell_setting 'orthorhombic'
loop_
_space_group_symop_operation_xyz
x,y,z
-x,-y,z
-x,y,1/2+z
x,-y,1/2+z
1/2+x,1/2+y,z
1/2-x,1/2-y,z
1/2-x,1/2+y,1/2+z
1/2+x,1/2-y,1/2+z
loop_
_atom_site_type_symbol
_atom_site_label
_atom_site_fract_x
_atom_site_fract_y
_atom_site_fract_z
Si Si1 0.490027 0.728475 0.665740
Si Si2 0.767575 0.469643 0.305570
Si Si3 0.667370 0.984181 0.465341
Si Si4 0.789549 0.580463 0.641245
Si Si5 0.578281 0.364253 0.495247
Si Si6 0.523503 0.270619 0.334543
O O1 0.645478 0.657791 0.663510
O O2 0.550993 0.865751 0.649752
O O3 0.415247 0.680992 0.586286
O O4 0.428945 0.718735 0.754541
O O5 0.795890 0.565829 0.377212
O O6 0.779186 0.515603 0.215196
O O7 0.620483 0.396742 0.322714
O O8 0.884920 0.356488 0.317358
O O9 0.758187 0.113238 0.469088
O O10 0.500000 0.000000 0.471242
O O11 0.722141 0.926010 0.546733
O O12 0.500000 0.500000 0.493443
O O13 0.495042 0.281035 0.429171
#
# Coordination Sequence:
#
# PCOD9355456 Si02
#       6
#     8   8   8   8   8   8
#     4   9  18  36  61  83 115 155 199 242 291 355
#     4   8  17  36  58  78 114 155 197 226 287 362
#     4  11  23  36  55  89 118 155 188 241 295 352
#     4   9  18  37  60  85 113 157 198 239 299 355
#     4  11  21  36  58  92 115 143 197 250 291 341
#     4   8  17  34  58  84 108 153 193 238 285 349
#
# _framework density 28.559245000000001
#
# number of rings (size 3 to 8) (size 9 to 14) (size 15 to 20)
#    0.000    2.667    1.667    2.000    2.333    1.333 
#    3.000    0.000    0.000    0.000    0.000    0.000 
#    0.000    0.000    0.000    0.000    0.000    0.000 
#
# Total GULP energy -133870.455413 kJ/mol
# GULP energy per Si atom -5577.935642 kJ/mol
# Density = 2.849424 g / cm^3
# Si number density = 28.559245 Si / 1000 Ang^3
#
#
#
# Elastic Constant Matrix: (Units=GPa)
#
#
# Indices 1 2 3 4 5 6 
#
# 1 92.3220 25.3694 20.2791 0.0000 0.0000 0.0000
# 2 25.3694 60.3026 29.9350 0.0000 0.0000 0.0000
# 3 20.2791 29.9350 310.8400 0.0000 0.0000 0.0000
# 4 0.0000 0.0000 0.0000 41.9729 0.0000 0.0000
# 5 0.0000 0.0000 0.0000 0.0000 34.2379 0.0000
# 6 0.0000 0.0000 0.0000 0.0000 0.0000 33.4566
#
#
#
# Elastic Compliance Matrix: (Units=1/GPa)
#
#
# Indices 1 2 3 4 5 6 
#
# 1 0.012278 -0.005007 -0.000319 0.000000 0.000000 0.000000
# 2 -0.005007 0.019457 -0.001547 0.000000 0.000000 0.000000
# 3 -0.000319 -0.001547 0.003387 0.000000 0.000000 0.000000
# 4 0.000000 0.000000 0.000000 0.023825 0.000000 0.000000
# 5 0.000000 0.000000 0.000000 0.000000 0.029207 0.000000
# 6 0.000000 0.000000 0.000000 0.000000 0.000000 0.029889
#
#
# Mechanical properties :
#
#
# Convention : Reuss Voigt Hill
#
# Bulk Modulus (GPa) = 46.78118 68.29240 57.53679
# Shear Modulus (GPa) = 35.99326 47.79222 41.89274
#
# Velocity S-wave (km/s) = 3.55392 4.09521 3.83413
# Velocity P-wave (km/s) = 5.76684 6.80628 6.30801
#
# Compressibility (1/GPa) = 0.02137612
#
# Stress axis : x y z
#
# Youngs Moduli (GPa) = 81.44946 51.39408 295.25653
#
# Poissons Ratio (x) = 0.25733 0.09413
# Poissons Ratio (y) = 0.40781 0.45681
# Poissons Ratio (z) = 0.02597 0.07952
#
# Static dielectric constant tensor:
#      x y z
#    x 2.238930 0.000000 0.000000 
#    y 0.000000 2.485290 0.000000 
#    z 0.000000 0.000000 2.335240 
# 
# From -- ./inp_files/11504.got.cif
#   From: 2010.05.17/outbox.cif.g08.bks.cpg/sg37_6_cif.got.tgz:11504.got - 2010.06.03 17:53:42.
