data_PCOD9355524
_publ_section_title
;
Structure prediction by ZEFSAII (Michael W. Deem and Ramdas Pophale) SiO2 
 PCOD9355524
Probable space group: C C C 2
;
_chemical_formula_sum "Si O2"
_cell_formula_units_Z 40
_cell_length_a 5.902402
_cell_length_b 23.367422
_cell_length_c 13.190083
_cell_angle_alpha 90.000000
_cell_angle_beta 90.000000
_cell_angle_gamma 90.000000
_cell_volume 1819.227931
_symmetry_space_group_name_H-M "C C C 2"
_symmetry_group_IT_number 37
_symmetry_cell_setting 'orthorhombic'
loop_
_space_group_symop_operation_xyz
x,y,z
-x,-y,z
-x,y,1/2+z
x,-y,1/2+z
1/2+x,1/2+y,z
1/2-x,1/2-y,z
1/2-x,1/2+y,1/2+z
1/2+x,1/2-y,1/2+z
loop_
_atom_site_type_symbol
_atom_site_label
_atom_site_fract_x
_atom_site_fract_y
_atom_site_fract_z
Si Si1 0.866353 0.618421 0.680080
Si Si2 0.500000 0.000000 0.260694
Si Si3 0.042735 0.880585 0.986710
Si Si4 0.911726 0.805583 0.812302
Si Si5 0.759465 0.191111 0.622035
Si Si6 0.500000 0.500000 0.372230
O O1 0.991301 0.558905 0.698418
O O2 0.729609 0.616384 0.575065
O O3 0.723391 0.636550 0.779198
O O4 0.029645 0.672123 0.671321
O O5 0.751583 0.000057 0.315026
O O6 0.823924 0.860439 0.049066
O O7 0.014041 0.942098 0.937338
O O8 0.067539 0.829005 0.904677
O O9 0.750000 0.750000 0.829272
O O10 0.062613 0.797231 0.711673
O O11 0.750000 0.250000 0.561754
#
# Coordination Sequence:
#
# PCOD9355524 Si02
#       6
#     8   4   8   8   8   4
#     4  11  26  45  75 105 151 197 247 317 381 452
#     4  12  28  50  80 108 154 202 254 310 388 452
#     4  11  27  43  72 110 148 192 256 308 381 448
#     4  11  22  48  71 106 145 197 249 310 377 458
#     4  11  24  45  70 105 149 192 248 305 379 453
#     4  12  28  50  76 112 152 198 258 310 376 464
#
# _framework density 21.987348000000001
#
# number of rings (size 3 to 8) (size 9 to 14) (size 15 to 20)
#    0.000    0.800    4.000    1.800    8.400    1.600 
#    3.600    0.000    0.000    0.000    0.000    0.000 
#    0.000    0.000    0.000    0.000    0.000    0.000 
#
# Total GULP energy -111436.880421 kJ/mol
# GULP energy per Si atom -5571.844021 kJ/mol
# Density = 2.193730 g / cm^3
# Si number density = 21.987348 Si / 1000 Ang^3
#
#
#
# Elastic Constant Matrix: (Units=GPa)
#
#
# Indices 1 2 3 4 5 6 
#
# 1 78.5326 43.4816 26.6873 0.0000 0.0000 0.0000
# 2 43.4816 175.4051 56.5323 0.0000 0.0000 0.0000
# 3 26.6873 56.5323 93.1225 0.0000 0.0000 0.0000
# 4 0.0000 0.0000 0.0000 48.4105 0.0000 0.0000
# 5 0.0000 0.0000 0.0000 0.0000 3.2250 0.0000
# 6 0.0000 0.0000 0.0000 0.0000 0.0000 37.7438
#
#
#
# Elastic Compliance Matrix: (Units=1/GPa)
#
#
# Indices 1 2 3 4 5 6 
#
# 1 0.015242 -0.002947 -0.002579 0.000000 0.000000 0.000000
# 2 -0.002947 0.007658 -0.003804 0.000000 0.000000 0.000000
# 3 -0.002579 -0.003804 0.013787 0.000000 0.000000 0.000000
# 4 0.000000 0.000000 0.000000 0.020657 0.000000 0.000000
# 5 0.000000 0.000000 0.000000 0.000000 0.310080 0.000000
# 6 0.000000 0.000000 0.000000 0.000000 0.000000 0.026494
#
#
# Mechanical properties :
#
#
# Convention : Reuss Voigt Hill
#
# Bulk Modulus (GPa) = 55.47538 66.71808 61.09673
# Shear Modulus (GPa) = 11.94494 32.56646 22.25570
#
# Velocity S-wave (km/s) = 2.33333 3.85274 3.18497
# Velocity P-wave (km/s) = 5.70479 7.08528 6.43218
#
# Compressibility (1/GPa) = 0.01802601
#
# Stress axis : x y z
#
# Youngs Moduli (GPa) = 65.60958 130.58667 72.53180
#
# Poissons Ratio (x) = 0.38486 0.18705
# Poissons Ratio (y) = 0.19336 0.27593
# Poissons Ratio (z) = 0.16920 0.49678
#
# Static dielectric constant tensor:
#      x y z
#    x 1.866300 0.000000 0.000000 
#    y 0.000000 1.773050 0.000000 
#    z 0.000000 0.000000 1.845970 
# 
# From -- ./inp_files/9631.got.cif
#   From: 2010.05.17/outbox.cif.g08.bks.cpg/sg37_5_cif.got.tgz:9631.got - 2010.06.03 17:53:42.
