data_PCOD9355754
_publ_section_title
;
Structure prediction by ZEFSAII (Michael W. Deem and Ramdas Pophale) SiO2 
 PCOD9355754
Probable space group: C C C 2
;
_chemical_formula_sum "Si O2"
_cell_formula_units_Z 48
_cell_length_a 7.553992
_cell_length_b 20.033568
_cell_length_c 11.351221
_cell_angle_alpha 90.000000
_cell_angle_beta 90.000000
_cell_angle_gamma 90.000000
_cell_volume 1717.819009
_symmetry_space_group_name_H-M "C C C 2"
_symmetry_group_IT_number 37
_symmetry_cell_setting 'orthorhombic'
loop_
_space_group_symop_operation_xyz
x,y,z
-x,-y,z
-x,y,1/2+z
x,-y,1/2+z
1/2+x,1/2+y,z
1/2-x,1/2-y,z
1/2-x,1/2+y,1/2+z
1/2+x,1/2-y,1/2+z
loop_
_atom_site_type_symbol
_atom_site_label
_atom_site_fract_x
_atom_site_fract_y
_atom_site_fract_z
Si Si1 0.040841 0.248833 0.876380
Si Si2 0.537767 0.251053 0.623102
Si Si3 0.088128 0.072490 0.020381
Si Si4 0.509558 0.093357 0.606589
Si Si5 0.407056 0.099341 0.354890
Si Si6 0.008782 0.080796 0.269354
O O1 0.250000 0.250000 0.887121
O O2 0.005663 0.218431 0.749208
O O3 0.967623 0.324105 0.868733
O O4 0.969005 0.220154 0.999272
O O5 0.750000 0.250000 0.621294
O O6 0.482430 0.173195 0.618931
O O7 0.287447 0.077259 0.070285
O O8 0.978210 0.101275 0.132871
O O9 0.000000 0.000000 0.003956
O O10 0.101709 0.100452 0.886460
O O11 0.411171 0.069838 0.487437
O O12 0.480861 0.070520 0.742552
O O13 0.207395 0.097794 0.310278
O O14 0.000000 0.000000 0.259490
#
# Coordination Sequence:
#
# PCOD9355754 Si02
#       6
#     8   8   8   8   8   8
#     4   9  18  34  54  78 110 144 182 228 278 332
#     4   9  18  34  52  77 110 141 180 227 274 331
#     4   9  18  34  54  77 107 141 182 229 276 330
#     4   9  18  34  54  78 107 142 183 227 276 331
#     4   9  18  34  55  79 108 144 185 228 277 332
#     4   9  18  34  55  79 109 144 184 229 277 330
#
# _framework density 27.942408
#
# number of rings (size 3 to 8) (size 9 to 14) (size 15 to 20)
#    0.000    3.000    0.000    0.000    0.000    2.000 
#    0.000   23.333    0.000   18.000    0.000    0.000 
#    0.000    0.000    0.000    0.000    0.000    0.000 
#
# Total GULP energy -134065.650644 kJ/mol
# GULP energy per Si atom -5586.068777 kJ/mol
# Density = 2.787881 g / cm^3
# Si number density = 27.942408 Si / 1000 Ang^3
#
#
#
# Elastic Constant Matrix: (Units=GPa)
#
#
# Indices 1 2 3 4 5 6 
#
# 1 65.8243 3.4051 38.8795 0.0000 0.0000 0.0000
# 2 3.4051 110.5096 48.0641 0.0000 0.0000 0.0000
# 3 38.8795 48.0641 395.4643 0.0000 0.0000 0.0000
# 4 0.0000 0.0000 0.0000 -39.3145 0.0000 0.0000
# 5 0.0000 0.0000 0.0000 0.0000 80.6741 0.0000
# 6 0.0000 0.0000 0.0000 0.0000 0.0000 32.2989
#
#
#
# Elastic Compliance Matrix: (Units=1/GPa)
#
#
# Indices 1 2 3 4 5 6 
#
# 1 0.016133 0.000204 -0.001611 0.000000 0.000000 0.000000
# 2 0.000204 0.009557 -0.001182 0.000000 0.000000 0.000000
# 3 -0.001611 -0.001182 0.002831 0.000000 0.000000 0.000000
# 4 0.000000 0.000000 0.000000 -0.025436 0.000000 0.000000
# 5 0.000000 0.000000 0.000000 0.000000 0.012396 0.000000
# 6 0.000000 0.000000 0.000000 0.000000 0.000000 0.030961
#
#
# Mechanical properties :
#
#
# Convention : Reuss Voigt Hill
#
# Bulk Modulus (GPa) = 42.84036 83.61063 63.22550
# Shear Modulus (GPa) = 84.17639 46.82831 65.50235
#
# Velocity S-wave (km/s) = 5.49458 4.09820 4.84694
# Velocity P-wave (km/s) = 7.45780 7.23748 7.34846
#
# Compressibility (1/GPa) = 0.02334248
#
# Stress axis : x y z
#
# Youngs Moduli (GPa) = 61.98522 104.63980 353.27750
#
# Poissons Ratio (x) = -0.02129 0.56906
# Poissons Ratio (y) = -0.01261 0.41740
# Poissons Ratio (z) = 0.09985 0.12363
#
# Static dielectric constant tensor:
#      x y z
#    x 2.078220 0.000000 0.000000 
#    y 0.000000 2.209210 0.000000 
#    z 0.000000 0.000000 2.329930 
# 
# From -- ./inp_files/6383.got.cif
#   From: 2010.05.17/outbox.cif.g08.bks.cpg/sg37_4_cif.got.tgz:6383.got - 2010.06.03 17:53:42.
