data_PCOD9355488
_publ_section_title
;
Structure prediction by ZEFSAII (Michael W. Deem and Ramdas Pophale) SiO2 
 PCOD9355488
Probable space group: C C C 2
;
_chemical_formula_sum "Si O2"
_cell_formula_units_Z 36
_cell_length_a 11.087857
_cell_length_b 11.124227
_cell_length_c 14.620101
_cell_angle_alpha 90.000000
_cell_angle_beta 90.000000
_cell_angle_gamma 90.000000
_cell_volume 1803.299372
_symmetry_space_group_name_H-M "C C C 2"
_symmetry_group_IT_number 37
_symmetry_cell_setting 'orthorhombic'
loop_
_space_group_symop_operation_xyz
x,y,z
-x,-y,z
-x,y,1/2+z
x,-y,1/2+z
1/2+x,1/2+y,z
1/2-x,1/2-y,z
1/2-x,1/2+y,1/2+z
1/2+x,1/2-y,1/2+z
loop_
_atom_site_type_symbol
_atom_site_label
_atom_site_fract_x
_atom_site_fract_y
_atom_site_fract_z
Si Si1 0.257697 0.620680 0.365680
Si Si2 0.071172 0.119978 0.699997
Si Si3 0.750000 0.750000 0.572069
Si Si4 0.009152 0.630623 0.253056
Si Si5 0.614824 0.080258 0.942427
O O1 0.250000 0.750000 0.414519
O O2 0.374701 0.604771 0.302752
O O3 0.143883 0.630188 0.295792
O O4 0.227788 0.509209 0.429575
O O5 0.182765 0.151572 0.634143
O O6 0.994970 0.244600 0.700515
O O7 0.000000 0.000000 0.674838
O O8 0.650955 0.814668 0.509554
O O9 0.000000 0.500000 0.205160
O O10 0.921374 0.627388 0.341196
O O11 0.500000 0.000000 0.971489
#
# Coordination Sequence:
#
# PCOD9355488 Si02
#       5
#     8   8   4   8   8
#     4   8  15  37  63  82 113 156 206 251 291 379
#     4  11  22  38  60  92 125 159 204 258 319 364
#     4  12  24  42  58  96 138 156 192 288 314 352
#     4   8  16  37  65  83 111 163 208 246 297 380
#     4   9  21  39  63  88 116 165 207 248 321 362
#
# _framework density 19.963408000000001
#
# number of rings (size 3 to 8) (size 9 to 14) (size 15 to 20)
#    0.000    3.111    3.333    0.000    3.111    0.889 
#   12.000    0.000    0.000    0.000    0.000    0.000 
#    0.000    0.000    0.000    0.000    0.000    0.000 
#
# Total GULP energy -100229.724330 kJ/mol
# GULP energy per Si atom -5568.318018 kJ/mol
# Density = 1.991797 g / cm^3
# Si number density = 19.963408 Si / 1000 Ang^3
#
#
#
# Elastic Constant Matrix: (Units=GPa)
#
#
# Indices 1 2 3 4 5 6 
#
# 1 35.3912 30.0315 11.1931 0.0000 0.0000 0.0000
# 2 30.0315 126.0550 26.8601 0.0000 0.0000 0.0000
# 3 11.1931 26.8601 48.7678 0.0000 0.0000 0.0000
# 4 0.0000 0.0000 0.0000 33.8131 0.0000 0.0000
# 5 0.0000 0.0000 0.0000 0.0000 17.9755 0.0000
# 6 0.0000 0.0000 0.0000 0.0000 0.0000 39.1916
#
#
#
# Elastic Compliance Matrix: (Units=1/GPa)
#
#
# Indices 1 2 3 4 5 6 
#
# 1 0.036098 -0.007743 -0.004020 0.000000 0.000000 0.000000
# 2 -0.007743 0.010649 -0.004088 0.000000 0.000000 0.000000
# 3 -0.004020 -0.004088 0.023680 0.000000 0.000000 0.000000
# 4 0.000000 0.000000 0.000000 0.029574 0.000000 0.000000
# 5 0.000000 0.000000 0.000000 0.000000 0.055631 0.000000
# 6 0.000000 0.000000 0.000000 0.000000 0.000000 0.025516
#
#
# Mechanical properties :
#
#
# Convention : Reuss Voigt Hill
#
# Bulk Modulus (GPa) = 25.82428 38.48706 32.15567
# Shear Modulus (GPa) = 22.14759 27.67133 24.90946
#
# Velocity S-wave (km/s) = 3.33439 3.72708 3.53619
# Velocity P-wave (km/s) = 5.27144 6.15160 5.72845
#
# Compressibility (1/GPa) = 0.03872325
#
# Stress axis : x y z
#
# Youngs Moduli (GPa) = 27.70254 93.90648 42.23052
#
# Poissons Ratio (x) = 0.72715 0.16978
# Poissons Ratio (y) = 0.21451 0.17263
# Poissons Ratio (z) = 0.11137 0.38388
#
# Static dielectric constant tensor:
#      x y z
#    x 1.715690 0.000000 0.000000 
#    y 0.000000 1.737640 0.000000 
#    z 0.000000 0.000000 1.708910 
# 
# From -- ./inp_files/11267.got.cif
#   From: 2010.05.17/outbox.cif.g08.bks.cpg/sg37_6_cif.got.tgz:11267.got - 2010.06.03 17:53:42.
