data_PCOD9355678
_publ_section_title
;
Structure prediction by ZEFSAII (Michael W. Deem and Ramdas Pophale) SiO2 
 PCOD9355678
Probable space group: C C C 2
;
_chemical_formula_sum "Si O2"
_cell_formula_units_Z 48
_cell_length_a 12.590548
_cell_length_b 8.613432
_cell_length_c 21.707958
_cell_angle_alpha 90.000000
_cell_angle_beta 90.000000
_cell_angle_gamma 90.000000
_cell_volume 2354.180918
_symmetry_space_group_name_H-M "C C C 2"
_symmetry_group_IT_number 37
_symmetry_cell_setting 'orthorhombic'
loop_
_space_group_symop_operation_xyz
x,y,z
-x,-y,z
-x,y,1/2+z
x,-y,1/2+z
1/2+x,1/2+y,z
1/2-x,1/2-y,z
1/2-x,1/2+y,1/2+z
1/2+x,1/2-y,1/2+z
loop_
_atom_site_type_symbol
_atom_site_label
_atom_site_fract_x
_atom_site_fract_y
_atom_site_fract_z
Si Si1 0.196756 0.105626 0.315470
Si Si2 0.671064 0.110219 0.225743
Si Si3 0.143389 0.646569 0.620026
Si Si4 0.681748 0.617841 0.912952
Si Si5 0.474630 0.318114 0.218375
Si Si6 0.395787 0.903516 0.478383
O O1 0.250000 0.250000 0.349340
O O2 0.125375 0.184160 0.263408
O O3 0.278811 0.993920 0.279767
O O4 0.135282 0.000817 0.364614
O O5 0.750000 0.250000 0.208915
O O6 0.563922 0.201390 0.243224
O O7 0.656060 0.996709 0.167311
O O8 0.250000 0.750000 0.617213
O O9 0.055433 0.755527 0.651390
O O10 0.112334 0.595497 0.551930
O O11 0.750000 0.750000 0.876656
O O12 0.604346 0.723475 0.954256
O O13 0.779335 0.543507 0.952458
O O14 0.500000 0.500000 0.215590
O O15 0.500000 0.000000 0.458450
#
# Coordination Sequence:
#
# PCOD9355678 Si02
#       6
#     8   8   8   8   8   8
#     4  12  23  43  64  92 138 173 219 273 334 403
#     4  12  23  40  62  99 135 171 214 271 342 398
#     4  12  20  42  69  98 133 173 218 278 336 403
#     4   8  21  40  63  90 124 173 222 280 320 390
#     4  12  24  38  63 100 133 171 217 268 337 407
#     4   9  19  40  69  92 123 176 229 271 340 393
#
# _framework density 20.389257000000001
#
# number of rings (size 3 to 8) (size 9 to 14) (size 15 to 20)
#    1.000    0.000    6.667    2.000    0.000    0.000 
#    6.000    0.833    3.667    0.000    0.000    0.000 
#    0.000    0.000    0.000    0.000    0.000    0.000 
#
# Total GULP energy -133732.123917 kJ/mol
# GULP energy per Si atom -5572.171830 kJ/mol
# Density = 2.034285 g / cm^3
# Si number density = 20.389257 Si / 1000 Ang^3
#
#
#
# Elastic Constant Matrix: (Units=GPa)
#
#
# Indices 1 2 3 4 5 6 
#
# 1 93.0114 44.9568 13.1764 0.0000 0.0000 0.0000
# 2 44.9568 124.6864 42.2775 0.0000 0.0000 0.0000
# 3 13.1764 42.2775 84.2394 0.0000 0.0000 0.0000
# 4 0.0000 0.0000 0.0000 49.6054 0.0000 0.0000
# 5 0.0000 0.0000 0.0000 0.0000 -18.2316 0.0000
# 6 0.0000 0.0000 0.0000 0.0000 0.0000 49.9029
#
#
#
# Elastic Compliance Matrix: (Units=1/GPa)
#
#
# Indices 1 2 3 4 5 6 
#
# 1 0.013031 -0.004829 0.000385 0.000000 0.000000 0.000000
# 2 -0.004829 0.011454 -0.004993 0.000000 0.000000 0.000000
# 3 0.000385 -0.004993 0.014317 0.000000 0.000000 0.000000
# 4 0.000000 0.000000 0.000000 0.020159 0.000000 0.000000
# 5 0.000000 0.000000 0.000000 0.000000 -0.054850 0.000000
# 6 0.000000 0.000000 0.000000 0.000000 0.000000 0.020039
#
#
# Mechanical properties :
#
#
# Convention : Reuss Voigt Hill
#
# Bulk Modulus (GPa) = 50.18098 55.86208 53.02153
# Shear Modulus (GPa) = 100.67060 29.69043 65.18052
#
# Velocity S-wave (km/s) = 7.03431 3.82013 5.66017
# Velocity P-wave (km/s) = 9.52052 6.84946 8.29323
#
# Compressibility (1/GPa) = 0.01992787
#
# Stress axis : x y z
#
# Youngs Moduli (GPa) = 76.74064 87.30294 69.84872
#
# Poissons Ratio (x) = 0.42159 -0.02692
# Poissons Ratio (y) = 0.37059 0.34878
# Poissons Ratio (z) = -0.02957 0.43593
#
# Static dielectric constant tensor:
#      x y z
#    x 1.833990 0.000000 0.000000 
#    y 0.000000 1.755930 0.000000 
#    z 0.000000 0.000000 1.689900 
# 
# From -- ./inp_files/18652.got.cif
#   From: 2010.05.17/outbox.cif.g08.bks.cpg/sg37_10_cif.got.tgz:18652.got - 2010.06.03 17:53:42.
