data_PCOD9355055
_publ_section_title
;
Structure prediction by ZEFSAII (Michael W. Deem and Ramdas Pophale) SiO2 
 PCOD9355055
Probable space group: C C C 2
;
_chemical_formula_sum "Si O2"
_cell_formula_units_Z 48
_cell_length_a 11.653775
_cell_length_b 34.096014
_cell_length_c 5.183136
_cell_angle_alpha 90.000000
_cell_angle_beta 90.000000
_cell_angle_gamma 90.000000
_cell_volume 2059.504968
_symmetry_space_group_name_H-M "C C C 2"
_symmetry_group_IT_number 37
_symmetry_cell_setting 'orthorhombic'
loop_
_space_group_symop_operation_xyz
x,y,z
-x,-y,z
-x,y,1/2+z
x,-y,1/2+z
1/2+x,1/2+y,z
1/2-x,1/2-y,z
1/2-x,1/2+y,1/2+z
1/2+x,1/2-y,1/2+z
loop_
_atom_site_type_symbol
_atom_site_label
_atom_site_fract_x
_atom_site_fract_y
_atom_site_fract_z
Si Si1 0.081680 0.644174 0.548140
Si Si2 0.724135 0.105537 0.912287
Si Si3 0.431108 0.736578 0.042006
Si Si4 0.421704 0.549226 0.946258
Si Si5 0.171224 0.477662 0.501281
Si Si6 0.704151 0.189584 0.184389
O O1 0.175720 0.611166 0.622220
O O2 0.161867 0.681569 0.477489
O O3 0.000391 0.642262 0.297833
O O4 0.854710 0.090828 0.925958
O O5 0.651445 0.068954 0.027578
O O6 0.714054 0.146934 0.053802
O O7 0.531072 0.728936 0.250122
O O8 0.391492 0.781820 0.064710
O O9 0.323657 0.711198 0.139802
O O10 0.502732 0.545104 0.191969
O O11 0.311081 0.521215 0.976856
O O12 0.130237 0.496451 0.236710
#
# Coordination Sequence:
#
# PCOD9355055 Si02
#       6
#     8   8   8   8   8   8
#     4  12  25  43  73 101 128 176 240 294 346 415
#     4  10  27  42  71 106 143 184 244 290 360 405
#     4  11  28  47  72 108 146 192 231 291 365 421
#     4  10  23  39  63  99 142 184 232 278 346 425
#     4  10  23  41  67 100 146 192 234 291 353 422
#     4  11  26  47  75 104 148 183 246 293 346 434
#
# _framework density 23.306573
#
# number of rings (size 3 to 8) (size 9 to 14) (size 15 to 20)
#    1.000    0.333    1.667    2.000    9.333    4.667 
#    0.000    0.000    0.000    3.000    0.000    0.000 
#    0.000    0.000    0.000    0.000    0.000    0.000 
#
# Total GULP energy -133950.990559 kJ/mol
# GULP energy per Si atom -5581.291273 kJ/mol
# Density = 2.325353 g / cm^3
# Si number density = 23.306573 Si / 1000 Ang^3
#
#
#
# Elastic Constant Matrix: (Units=GPa)
#
#
# Indices 1 2 3 4 5 6 
#
# 1 106.3376 28.0131 35.5009 0.0000 0.0000 0.0000
# 2 28.0131 130.7253 44.0590 0.0000 0.0000 0.0000
# 3 35.5009 44.0590 151.2858 0.0000 0.0000 0.0000
# 4 0.0000 0.0000 0.0000 32.9799 0.0000 0.0000
# 5 0.0000 0.0000 0.0000 0.0000 -268.2349 0.0000
# 6 0.0000 0.0000 0.0000 0.0000 0.0000 39.9777
#
#
#
# Elastic Compliance Matrix: (Units=1/GPa)
#
#
# Indices 1 2 3 4 5 6 
#
# 1 0.010487 -0.001572 -0.002003 0.000000 0.000000 0.000000
# 2 -0.001572 0.008718 -0.002170 0.000000 0.000000 0.000000
# 3 -0.002003 -0.002170 0.007712 0.000000 0.000000 0.000000
# 4 0.000000 0.000000 0.000000 0.030321 0.000000 0.000000
# 5 0.000000 0.000000 0.000000 0.000000 -0.003728 0.000000
# 6 0.000000 0.000000 0.000000 0.000000 0.000000 0.025014
#
#
# Mechanical properties :
#
#
# Convention : Reuss Voigt Hill
#
# Bulk Modulus (GPa) = 64.82363 67.05498 65.93931
# Shear Modulus (GPa) = 52.54499 -20.33708 16.10396
#
# Velocity S-wave (km/s) = 4.75332 -2.95717 2.63147
# Velocity P-wave (km/s) = 7.61573 4.14409 6.13077
#
# Compressibility (1/GPa) = 0.01542647
#
# Stress axis : x y z
#
# Youngs Moduli (GPa) = 95.35729 114.70671 129.66805
#
# Poissons Ratio (x) = 0.18034 0.25973
# Poissons Ratio (y) = 0.14992 0.28138
# Poissons Ratio (z) = 0.19100 0.24891
#
# Static dielectric constant tensor:
#      x y z
#    x 1.919950 0.000000 0.000000 
#    y 0.000000 1.905380 0.000000 
#    z 0.000000 0.000000 1.917430 
# 
# From -- ./inp_files/611.got.cif
#   From: 2010.05.17/outbox.cif.g08.bks.cpg/sg37_1_cif.got.tgz:611.got - 2010.06.03 17:53:42.
