data_PCOD9355973
_publ_section_title
;
Structure prediction by ZEFSAII (Michael W. Deem and Ramdas Pophale) SiO2 
 PCOD9355973
Probable space group: A M M 2
;
_chemical_formula_sum "Si O2"
_cell_formula_units_Z 64
_cell_length_a 9.036921
_cell_length_b 27.293396
_cell_length_c 18.834868
_cell_angle_alpha 90.000000
_cell_angle_beta 90.000000
_cell_angle_gamma 90.000000
_cell_volume 4645.587485
_symmetry_space_group_name_H-M "A M M 2"
_symmetry_group_IT_number 38
_symmetry_cell_setting 'orthorhombic'
loop_
_space_group_symop_operation_xyz
x,y,z
-x,-y,z
-x,y,z
x,-y,z
x,1/2+y,1/2+z
-x,1/2-y,1/2+z
-x,1/2+y,1/2+z
x,1/2-y,1/2+z
loop_
_atom_site_type_symbol
_atom_site_label
_atom_site_fract_x
_atom_site_fract_y
_atom_site_fract_z
Si Si1 0.671079 0.200949 0.878530
Si Si2 0.322245 0.055884 0.247926
Si Si3 0.320581 0.149102 0.338094
Si Si4 0.177196 0.743661 0.594610
Si Si5 0.821911 0.443816 0.596016
Si Si6 0.329848 0.799800 0.474898
Si Si7 0.821770 0.241125 0.258525
Si Si8 0.821654 0.851965 0.003208
O O1 0.500000 0.189776 0.863553
O O2 0.674563 0.250608 0.926324
O O3 0.759022 0.215335 0.807693
O O4 0.746453 0.160471 0.928379
O O5 0.500000 0.057300 0.239552
O O6 0.282356 0.096355 0.306198
O O7 0.248859 0.067824 0.172298
O O8 0.280177 0.000000 0.266648
O O9 0.500000 0.155540 0.335019
O O10 0.276615 0.158669 0.419996
O O11 0.245274 0.190952 0.290282
O O12 0.239809 0.786549 0.544860
O O13 0.223834 0.746134 0.676404
O O14 0.219621 0.691751 0.558217
O O15 0.000000 0.745787 0.593050
O O16 0.781807 0.500000 0.577819
O O17 0.778105 0.403536 0.538040
O O18 0.000000 0.441381 0.602990
O O19 0.500000 0.809318 0.494010
O O20 0.000000 0.239589 0.262972
O O21 0.000000 0.850708 0.995048
#
# Coordination Sequence:
#
# PCOD9355973 Si02
#       8
#     8   8   8   8   8   8   8   8
#     4   9  17  28  40  56  77 101 130 162 195 230
#     4   9  17  28  41  57  79 107 137 169 202 233
#     4   9  17  28  40  56  78 104 135 165 193 229
#     4   9  17  26  37  55  77 100 128 159 189 227
#     4   9  17  28  41  58  81 107 136 170 202 232
#     4   8  15  26  38  52  72  98 126 157 191 227
#     4  10  18  27  40  58  79 103 130 159 194 234
#     4   9  16  27  41  56  77 106 136 163 194 230
#
# _framework density 13.776513
#
# number of rings (size 3 to 8) (size 9 to 14) (size 15 to 20)
#    0.000    3.000    0.000    2.250    0.000    6.000 
#    0.000    2.500    0.000    0.000    0.000    0.000 
#    0.000    1.000    0.000    5.750    0.000    3.500 
#
# Total GULP energy -178142.023107 kJ/mol
# GULP energy per Si atom -5566.938222 kJ/mol
# Density = 1.374516 g / cm^3
# Si number density = 13.776513 Si / 1000 Ang^3
#
#
#
# Elastic Constant Matrix: (Units=GPa)
#
#
# Indices 1 2 3 4 5 6 
#
# 1 22.8874 21.3041 32.3317 0.0000 0.0000 0.0000
# 2 21.3041 75.1956 48.7606 0.0000 0.0000 0.0000
# 3 32.3317 48.7606 101.1084 0.0000 0.0000 0.0000
# 4 0.0000 0.0000 0.0000 27.4500 0.0000 0.0000
# 5 0.0000 0.0000 0.0000 0.0000 21.1942 0.0000
# 6 0.0000 0.0000 0.0000 0.0000 0.0000 14.7829
#
#
#
# Elastic Compliance Matrix: (Units=1/GPa)
#
#
# Indices 1 2 3 4 5 6 
#
# 1 0.083911 -0.009274 -0.022360 0.000000 0.000000 0.000000
# 2 -0.009274 0.020375 -0.006860 0.000000 0.000000 0.000000
# 3 -0.022360 -0.006860 0.020349 0.000000 0.000000 0.000000
# 4 0.000000 0.000000 0.000000 0.036430 0.000000 0.000000
# 5 0.000000 0.000000 0.000000 0.000000 0.047183 0.000000
# 6 0.000000 0.000000 0.000000 0.000000 0.000000 0.067646
#
#
# Mechanical properties :
#
#
# Convention : Reuss Voigt Hill
#
# Bulk Modulus (GPa) = 20.98801 44.88714 32.93758
# Shear Modulus (GPa) = 13.55879 19.13842 16.34861
#
# Velocity S-wave (km/s) = 3.14059 3.73125 3.44859
# Velocity P-wave (km/s) = 5.33093 7.15654 6.31011
#
# Compressibility (1/GPa) = 0.04764624
#
# Stress axis : x y z
#
# Youngs Moduli (GPa) = 11.91732 49.08042 49.14242
#
# Poissons Ratio (x) = 0.45517 1.09883
# Poissons Ratio (y) = 0.11052 0.33713
# Poissons Ratio (z) = 0.26647 0.33671
#
# Static dielectric constant tensor:
#      x y z
#    x 1.464040 0.000000 0.000000 
#    y 0.000000 1.451540 0.000000 
#    z 0.000000 0.000000 1.444580 
# 
# From -- ./inp_files/17327.got.cif
#   From: 2010.05.17/outbox.cif.g08.bks.cpg/sg38_9_cif.got.tgz:17327.got - 2010.06.03 18:07:57.
