data_PCOD9355019
_publ_section_title
;
Structure prediction by ZEFSAII (Michael W. Deem and Ramdas Pophale) SiO2 
 PCOD9355019
Probable space group: C C C 2
;
_chemical_formula_sum "Si O2"
_cell_formula_units_Z 40
_cell_length_a 6.090793
_cell_length_b 14.093440
_cell_length_c 20.282650
_cell_angle_alpha 90.000000
_cell_angle_beta 90.000000
_cell_angle_gamma 90.000000
_cell_volume 1741.067254
_symmetry_space_group_name_H-M "C C C 2"
_symmetry_group_IT_number 37
_symmetry_cell_setting 'orthorhombic'
loop_
_space_group_symop_operation_xyz
x,y,z
-x,-y,z
-x,y,1/2+z
x,-y,1/2+z
1/2+x,1/2+y,z
1/2-x,1/2-y,z
1/2-x,1/2+y,1/2+z
1/2+x,1/2-y,1/2+z
loop_
_atom_site_type_symbol
_atom_site_label
_atom_site_fract_x
_atom_site_fract_y
_atom_site_fract_z
Si Si1 0.750000 0.250000 0.344610
Si Si2 0.658588 0.856369 0.575471
Si Si3 0.119658 0.901868 0.817082
Si Si4 0.400513 0.844554 0.933116
Si Si5 0.000000 0.000000 0.610055
Si Si6 0.683463 0.140851 0.685990
O O1 0.562062 0.316333 0.310743
O O2 0.612636 0.178925 0.390442
O O3 0.750000 0.750000 0.580927
O O4 0.526075 0.867755 0.507419
O O5 0.848563 0.932506 0.567417
O O6 0.533602 0.877125 0.643468
O O7 0.238845 0.908039 0.888259
O O8 0.309215 0.879833 0.763476
O O9 0.000000 0.000000 0.802927
O O10 0.250000 0.750000 0.939447
O O11 0.137474 0.928531 0.654920
O O12 0.750000 0.250000 0.674755
#
# Coordination Sequence:
#
# PCOD9355019 Si02
#       6
#     4   8   8   8   4   8
#     4  10  22  46  76 100 142 188 234 302 364 426
#     4  11  25  47  75 106 147 195 241 300 363 433
#     4  11  25  47  71 107 142 187 244 296 361 434
#     4   9  22  44  73 105 139 185 240 297 357 431
#     4  12  26  46  68 104 142 198 242 294 360 436
#     4  12  25  47  73 103 148 190 243 301 362 431
#
# _framework density 22.974416000000002
#
# number of rings (size 3 to 8) (size 9 to 14) (size 15 to 20)
#    0.000    1.200    3.000    2.400    2.800    5.600 
#   12.600    0.000    0.000    0.000    0.000    0.000 
#    0.000    0.000    0.000    0.000    0.000    0.000 
#
# Total GULP energy -111746.982862 kJ/mol
# GULP energy per Si atom -5587.349143 kJ/mol
# Density = 2.292213 g / cm^3
# Si number density = 22.974416 Si / 1000 Ang^3
#
#
#
# Elastic Constant Matrix: (Units=GPa)
#
#
# Indices 1 2 3 4 5 6 
#
# 1 70.3994 25.0887 38.7999 0.0000 0.0000 0.0000
# 2 25.0887 125.9177 23.0227 0.0000 0.0000 0.0000
# 3 38.7999 23.0227 116.8962 0.0000 0.0000 0.0000
# 4 0.0000 0.0000 0.0000 111.6522 0.0000 0.0000
# 5 0.0000 0.0000 0.0000 0.0000 26.7676 0.0000
# 6 0.0000 0.0000 0.0000 0.0000 0.0000 34.1404
#
#
#
# Elastic Compliance Matrix: (Units=1/GPa)
#
#
# Indices 1 2 3 4 5 6 
#
# 1 0.018177 -0.002613 -0.005519 0.000000 0.000000 0.000000
# 2 -0.002613 0.008614 -0.000829 0.000000 0.000000 0.000000
# 3 -0.005519 -0.000829 0.010550 0.000000 0.000000 0.000000
# 4 0.000000 0.000000 0.000000 0.008956 0.000000 0.000000
# 5 0.000000 0.000000 0.000000 0.000000 0.037359 0.000000
# 6 0.000000 0.000000 0.000000 0.000000 0.000000 0.029291
#
#
# Mechanical properties :
#
#
# Convention : Reuss Voigt Hill
#
# Bulk Modulus (GPa) = 51.49506 54.11510 52.80508
# Shear Modulus (GPa) = 36.40554 49.59884 43.00219
#
# Velocity S-wave (km/s) = 3.98504 4.65141 4.33106
# Velocity P-wave (km/s) = 6.60581 7.24245 6.93145
#
# Compressibility (1/GPa) = 0.01941934
#
# Stress axis : x y z
#
# Youngs Moduli (GPa) = 55.01329 116.09137 94.78917
#
# Poissons Ratio (x) = 0.30332 0.52313
# Poissons Ratio (y) = 0.14373 0.07861
# Poissons Ratio (z) = 0.30361 0.09627
#
# Static dielectric constant tensor:
#      x y z
#    x 1.858050 0.000000 0.000000 
#    y 0.000000 1.581940 0.000000 
#    z 0.000000 0.000000 1.893050 
# 
# From -- ./inp_files/17892.got.cif
#   From: 2010.05.17/outbox.cif.g08.bks.cpg/sg37_9_cif.got.tgz:17892.got - 2010.06.03 17:53:42.
