data_PCOD9355046
_publ_section_title
;
Structure prediction by ZEFSAII (Michael W. Deem and Ramdas Pophale) SiO2 
 PCOD9355046
Probable space group: C C C 2
;
_chemical_formula_sum "Si O2"
_cell_formula_units_Z 52
_cell_length_a 5.341673
_cell_length_b 25.860421
_cell_length_c 19.643487
_cell_angle_alpha 90.000000
_cell_angle_beta 90.000000
_cell_angle_gamma 90.000000
_cell_volume 2713.510291
_symmetry_space_group_name_H-M "C C C 2"
_symmetry_group_IT_number 37
_symmetry_cell_setting 'orthorhombic'
loop_
_space_group_symop_operation_xyz
x,y,z
-x,-y,z
-x,y,1/2+z
x,-y,1/2+z
1/2+x,1/2+y,z
1/2-x,1/2-y,z
1/2-x,1/2+y,1/2+z
1/2+x,1/2-y,1/2+z
loop_
_atom_site_type_symbol
_atom_site_label
_atom_site_fract_x
_atom_site_fract_y
_atom_site_fract_z
Si Si1 0.266435 0.812044 0.345140
Si Si2 0.910463 0.333963 0.059889
Si Si3 0.940400 0.945605 0.169944
Si Si4 0.250000 0.750000 0.627379
Si Si5 0.946393 0.446223 0.081940
Si Si6 0.267652 0.311398 0.415614
Si Si7 0.595056 0.333834 0.197527
O O1 0.250000 0.750000 0.354100
O O2 0.516778 0.832528 0.380305
O O3 0.249558 0.822462 0.265122
O O4 0.017811 0.832771 0.381899
O O5 0.002406 0.392078 0.045335
O O6 0.766950 0.337663 0.131145
O O7 0.109534 0.289628 0.076780
O O8 0.740960 0.318752 0.996410
O O9 0.658539 0.947790 0.141055
O O10 0.161381 0.945842 0.111366
O O11 0.967043 0.889979 0.205457
O O12 0.000000 0.000000 0.207488
O O13 0.413484 0.713545 0.677251
O O14 0.000000 0.500000 0.043314
O O15 0.250000 0.250000 0.402942
#
# Coordination Sequence:
#
# PCOD9355046 Si02
#       7
#     8   8   8   4   8   8   8
#     4  10  23  38  55  77 115 156 192 223 279 353
#     4  11  23  36  57  87 118 148 192 239 292 334
#     4   9  18  34  55  81 111 146 188 235 283 334
#     4  12  22  32  56  90 124 136 188 246 298 332
#     4   9  18  34  55  81 111 146 188 235 283 334
#     4  10  23  38  55  77 115 156 192 223 279 353
#     4  11  23  36  57  87 118 148 192 239 292 334
#
# _framework density 19.163368999999999
#
# number of rings (size 3 to 8) (size 9 to 14) (size 15 to 20)
#    0.000    1.846    1.538    2.308   10.769    0.000 
#    0.000    0.000    0.000    1.846    0.000    0.000 
#    0.000    0.000    0.000    0.000    0.000    0.000 
#
# Total GULP energy -144850.530463 kJ/mol
# GULP energy per Si atom -5571.174249 kJ/mol
# Density = 1.911975 g / cm^3
# Si number density = 19.163369 Si / 1000 Ang^3
#
#
#
# Elastic Constant Matrix: (Units=GPa)
#
#
# Indices 1 2 3 4 5 6 
#
# 1 92.9851 23.2500 46.5153 0.0000 0.0000 0.0000
# 2 23.2500 113.4322 -10.6461 0.0000 0.0000 0.0000
# 3 46.5153 -10.6461 87.1018 0.0000 0.0000 0.0000
# 4 0.0000 0.0000 0.0000 -57.7980 0.0000 0.0000
# 5 0.0000 0.0000 0.0000 0.0000 26.9499 0.0000
# 6 0.0000 0.0000 0.0000 0.0000 0.0000 15.1007
#
#
#
# Elastic Compliance Matrix: (Units=1/GPa)
#
#
# Indices 1 2 3 4 5 6 
#
# 1 0.016481 -0.004253 -0.009321 0.000000 0.000000 0.000000
# 2 -0.004253 0.010016 0.003495 0.000000 0.000000 0.000000
# 3 -0.009321 0.003495 0.016886 0.000000 0.000000 0.000000
# 4 0.000000 0.000000 0.000000 -0.017302 0.000000 0.000000
# 5 0.000000 0.000000 0.000000 0.000000 0.037106 0.000000
# 6 0.000000 0.000000 0.000000 0.000000 0.000000 0.066222
#
#
# Mechanical properties :
#
#
# Convention : Reuss Voigt Hill
#
# Bulk Modulus (GPa) = 43.05718 45.75083 44.40401
# Shear Modulus (GPa) = 31.78500 12.47719 22.13109
#
# Velocity S-wave (km/s) = 4.07705 2.55443 3.40202
# Velocity P-wave (km/s) = 6.68434 5.71192 6.21717
#
# Compressibility (1/GPa) = 0.02322493
#
# Stress axis : x y z
#
# Youngs Moduli (GPa) = 60.67764 99.84449 59.22162
#
# Poissons Ratio (x) = 0.42462 0.55200
# Poissons Ratio (y) = 0.25805 -0.20700
# Poissons Ratio (z) = 0.56557 -0.34899
#
# Static dielectric constant tensor:
#      x y z
#    x 1.706240 0.000000 0.000000 
#    y 0.000000 1.765090 0.000000 
#    z 0.000000 0.000000 1.638290 
# 
# From -- ./inp_files/13973.got.cif
#   From: 2010.05.17/outbox.cif.g08.bks.cpg/sg37_7_cif.got.tgz:13973.got - 2010.06.03 17:53:42.
