data_PCOD9355983
_publ_section_title
;
Structure prediction by ZEFSAII (Michael W. Deem and Ramdas Pophale) SiO2 
 PCOD9355983
Probable space group: A M M 2
;
_chemical_formula_sum "Si O2"
_cell_formula_units_Z 56
_cell_length_a 21.131208
_cell_length_b 7.498861
_cell_length_c 15.594436
_cell_angle_alpha 90.000000
_cell_angle_beta 90.000000
_cell_angle_gamma 90.000000
_cell_volume 2471.094197
_symmetry_space_group_name_H-M "A M M 2"
_symmetry_group_IT_number 38
_symmetry_cell_setting 'orthorhombic'
loop_
_space_group_symop_operation_xyz
x,y,z
-x,-y,z
-x,y,z
x,-y,z
x,1/2+y,1/2+z
-x,1/2-y,1/2+z
-x,1/2+y,1/2+z
x,1/2-y,1/2+z
loop_
_atom_site_type_symbol
_atom_site_label
_atom_site_fract_x
_atom_site_fract_y
_atom_site_fract_z
Si Si1 0.840898 0.219185 0.077110
Si Si2 0.837842 0.286222 0.765706
Si Si3 0.295278 0.290758 0.837579
Si Si4 0.702007 0.296711 0.535062
Si Si5 0.567985 0.214006 0.820600
Si Si6 0.432349 0.782545 0.023509
Si Si7 0.928707 0.712518 0.423795
O O1 0.859446 0.274544 0.172358
O O2 0.839771 0.000000 0.072056
O O3 0.768970 0.282183 0.061409
O O4 0.888403 0.282609 0.004082
O O5 0.833700 0.500000 0.761298
O O6 0.766766 0.223315 0.788502
O O7 0.887007 0.241077 0.839497
O O8 0.286463 0.500000 0.854971
O O9 0.298415 0.200381 0.931040
O O10 0.362694 0.271966 0.789753
O O11 0.702218 0.500000 0.567910
O O12 0.634129 0.216157 0.560730
O O13 0.500000 0.278181 0.784332
O O14 0.567349 0.264056 0.922084
O O15 0.567550 0.000000 0.816249
O O16 0.500000 0.723374 0.060218
O O17 0.430969 0.000000 0.027066
O O18 0.933617 0.500000 0.435623
O O19 0.000000 0.783808 0.417520
#
# Coordination Sequence:
#
# PCOD9355983 Si02
#       7
#     8   8   8   8   8   8   8
#     4   9  18  34  56  79 104 140 182 219 257 313
#     4  10  21  36  55  81 112 146 179 213 265 329
#     4  10  18  27  44  72 106 138 171 215 269 322
#     4   9  15  27  49  69  92 133 179 218 256 302
#     4   8  14  25  42  65  94 133 182 225 261 310
#     4   7  10  17  33  61  90 114 152 207 253 287
#     4  10  21  38  60  84 107 134 175 224 268 314
#
# _framework density 22.662026999999998
#
# number of rings (size 3 to 8) (size 9 to 14) (size 15 to 20)
#    0.000    3.000    1.429    2.143    0.000    1.714 
#    0.000    2.857    0.000    0.857    0.000    4.000 
#    0.000    0.000    0.000    0.000    0.000    0.143 
#
# Total GULP energy -156163.690765 kJ/mol
# GULP energy per Si atom -5577.274670 kJ/mol
# Density = 2.261045 g / cm^3
# Si number density = 22.662027 Si / 1000 Ang^3
#
#
#
# Elastic Constant Matrix: (Units=GPa)
#
#
# Indices 1 2 3 4 5 6 
#
# 1 246.3293 5.5300 92.1424 0.0000 0.0000 0.0000
# 2 5.5300 62.2345 -4.2295 0.0000 0.0000 0.0000
# 3 92.1424 -4.2295 106.3303 0.0000 0.0000 0.0000
# 4 0.0000 0.0000 0.0000 7.7992 0.0000 0.0000
# 5 0.0000 0.0000 0.0000 0.0000 -16.5332 0.0000
# 6 0.0000 0.0000 0.0000 0.0000 0.0000 -1.2978
#
#
#
# Elastic Compliance Matrix: (Units=1/GPa)
#
#
# Indices 1 2 3 4 5 6 
#
# 1 0.006056 -0.000897 -0.005284 0.000000 0.000000 0.000000
# 2 -0.000897 0.016245 0.001424 0.000000 0.000000 0.000000
# 3 -0.005284 0.001424 0.014040 0.000000 0.000000 0.000000
# 4 0.000000 0.000000 0.000000 0.128218 0.000000 0.000000
# 5 0.000000 0.000000 0.000000 0.000000 -0.060484 0.000000
# 6 0.000000 0.000000 0.000000 0.000000 0.000000 -0.770527
#
#
# Mechanical properties :
#
#
# Convention : Reuss Voigt Hill
#
# Bulk Modulus (GPa) = 37.27686 66.86443 52.07064
# Shear Modulus (GPa) = -7.71611 19.42371 5.85380
#
# Velocity S-wave (km/s) = -1.84723 2.93081 1.60894
# Velocity P-wave (km/s) = 3.45472 6.40484 5.14573
#
# Compressibility (1/GPa) = 0.02682630
#
# Stress axis : x y z
#
# Youngs Moduli (GPa) = 165.11937 61.55838 71.22471
#
# Poissons Ratio (x) = 0.05523 0.37634
# Poissons Ratio (y) = 0.14815 -0.10140
# Poissons Ratio (z) = 0.87246 -0.08764
#
# Static dielectric constant tensor:
#      x y z
#    x 1.890610 0.000000 0.000000 
#    y 0.000000 1.880790 0.000000 
#    z 0.000000 0.000000 1.829210 
# 
# From -- ./inp_files/15478.got.cif
#   From: 2010.05.17/outbox.cif.g08.bks.cpg/sg38_8_cif.got.tgz:15478.got - 2010.06.03 18:07:57.
