data_PCOD9355125
_publ_section_title
;
Structure prediction by ZEFSAII (Michael W. Deem and Ramdas Pophale) SiO2 
 PCOD9355125
Probable space group: C C C 2
;
_chemical_formula_sum "Si O2"
_cell_formula_units_Z 40
_cell_length_a 18.293011
_cell_length_b 10.677624
_cell_length_c 9.204448
_cell_angle_alpha 90.000000
_cell_angle_beta 90.000000
_cell_angle_gamma 90.000000
_cell_volume 1797.867028
_symmetry_space_group_name_H-M "C C C 2"
_symmetry_group_IT_number 37
_symmetry_cell_setting 'orthorhombic'
loop_
_space_group_symop_operation_xyz
x,y,z
-x,-y,z
-x,y,1/2+z
x,-y,1/2+z
1/2+x,1/2+y,z
1/2-x,1/2-y,z
1/2-x,1/2+y,1/2+z
1/2+x,1/2-y,1/2+z
loop_
_atom_site_type_symbol
_atom_site_label
_atom_site_fract_x
_atom_site_fract_y
_atom_site_fract_z
Si Si1 0.417631 0.544315 0.875000
Si Si2 0.337193 0.240702 0.558585
Si Si3 0.545061 0.877735 0.420808
Si Si4 0.835378 0.219829 0.379606
Si Si5 0.940784 0.245771 0.627495
O O1 0.500000 0.500000 0.919397
O O2 0.365924 0.422229 0.864183
O O3 0.430141 0.618335 0.721356
O O4 0.372237 0.636835 0.981427
O O5 0.250000 0.250000 0.551580
O O6 0.371550 0.124460 0.472165
O O7 0.360922 0.223458 0.725849
O O8 0.504925 0.766328 0.510513
O O9 0.544919 0.846206 0.252286
O O10 0.500000 0.000000 0.452258
O O11 0.750000 0.250000 0.385923
O O12 0.870616 0.267976 0.527916
#
# Coordination Sequence:
#
# PCOD9355125 Si02
#       5
#     8   8   8   8   8
#     4  11  23  43  72 100 133 179 229 285 339 405
#     4  10  23  43  67  99 136 176 225 278 343 411
#     4  11  23  42  67  96 136 181 227 283 343 407
#     4  11  24  42  66 100 139 180 227 281 340 407
#     4  11  24  40  66 101 133 176 233 281 337 408
#
# _framework density 22.248586
#
# number of rings (size 3 to 8) (size 9 to 14) (size 15 to 20)
#    0.000    1.200    0.000    6.600    0.000    8.000 
#    0.000    9.000    0.000    0.000    0.000    0.000 
#    0.000    0.000    0.000    0.000    0.000    0.000 
#
# Total GULP energy -111623.670377 kJ/mol
# GULP energy per Si atom -5581.183519 kJ/mol
# Density = 2.219795 g / cm^3
# Si number density = 22.248586 Si / 1000 Ang^3
#
#
#
# Elastic Constant Matrix: (Units=GPa)
#
#
# Indices 1 2 3 4 5 6 
#
# 1 137.6338 59.8548 59.7925 0.0000 0.0000 0.0000
# 2 59.8548 88.0560 24.0304 0.0000 0.0000 0.0000
# 3 59.7925 24.0304 164.1964 0.0000 0.0000 0.0000
# 4 0.0000 0.0000 0.0000 3.8234 0.0000 0.0000
# 5 0.0000 0.0000 0.0000 0.0000 45.3857 0.0000
# 6 0.0000 0.0000 0.0000 0.0000 0.0000 35.7065
#
#
#
# Elastic Compliance Matrix: (Units=1/GPa)
#
#
# Indices 1 2 3 4 5 6 
#
# 1 0.011769 -0.007114 -0.003245 0.000000 0.000000 0.000000
# 2 -0.007114 0.016130 0.000230 0.000000 0.000000 0.000000
# 3 -0.003245 0.000230 0.007238 0.000000 0.000000 0.000000
# 4 0.000000 0.000000 0.000000 0.261549 0.000000 0.000000
# 5 0.000000 0.000000 0.000000 0.000000 0.022033 0.000000
# 6 0.000000 0.000000 0.000000 0.000000 0.000000 0.028006
#
#
# Mechanical properties :
#
#
# Convention : Reuss Voigt Hill
#
# Bulk Modulus (GPa) = 67.20845 75.24908 71.22876
# Shear Modulus (GPa) = 13.44292 33.39702 23.41997
#
# Velocity S-wave (km/s) = 2.46074 3.87859 3.24798
# Velocity P-wave (km/s) = 6.19251 7.34529 6.79340
#
# Compressibility (1/GPa) = 0.01487908
#
# Stress axis : x y z
#
# Youngs Moduli (GPa) = 84.96766 61.99793 138.15789
#
# Poissons Ratio (x) = 0.44108 0.44826
# Poissons Ratio (y) = 0.60450 -0.03180
# Poissons Ratio (z) = 0.27568 -0.01427
#
# Static dielectric constant tensor:
#      x y z
#    x 1.858220 0.000000 0.000000 
#    y 0.000000 1.911580 0.000000 
#    z 0.000000 0.000000 1.814810 
# 
# From -- ./inp_files/2723.got.cif
#   From: 2010.05.17/outbox.cif.g08.bks.cpg/sg37_2_cif.got.tgz:2723.got - 2010.06.03 17:53:42.
