data_PCOD9355471
_publ_section_title
;
Structure prediction by ZEFSAII (Michael W. Deem and Ramdas Pophale) SiO2 
 PCOD9355471
Probable space group: C C C 2
;
_chemical_formula_sum "Si O2"
_cell_formula_units_Z 48
_cell_length_a 14.296923
_cell_length_b 16.988738
_cell_length_c 9.347718
_cell_angle_alpha 90.000000
_cell_angle_beta 90.000000
_cell_angle_gamma 90.000000
_cell_volume 2270.436182
_symmetry_space_group_name_H-M "C C C 2"
_symmetry_group_IT_number 37
_symmetry_cell_setting 'orthorhombic'
loop_
_space_group_symop_operation_xyz
x,y,z
-x,-y,z
-x,y,1/2+z
x,-y,1/2+z
1/2+x,1/2+y,z
1/2-x,1/2-y,z
1/2-x,1/2+y,1/2+z
1/2+x,1/2-y,1/2+z
loop_
_atom_site_type_symbol
_atom_site_label
_atom_site_fract_x
_atom_site_fract_y
_atom_site_fract_z
Si Si1 0.250000 0.750000 0.154171
Si Si2 0.548040 0.083153 0.833309
Si Si3 0.750000 0.750000 0.146378
Si Si4 0.451960 0.416847 0.467239
Si Si5 0.250000 0.625537 0.900274
Si Si6 0.556395 0.816059 0.063015
Si Si7 0.943605 0.183941 0.237533
O O1 0.161134 0.780570 0.243595
O O2 0.231441 0.679517 0.040533
O O3 0.655138 0.078298 0.882400
O O4 0.553557 0.109236 0.668809
O O5 0.500000 0.000000 0.852251
O O6 0.493559 0.152398 0.920316
O O7 0.731441 0.679517 0.260015
O O8 0.661134 0.780570 0.056954
O O9 0.500000 0.500000 0.448297
O O10 0.344862 0.421702 0.418148
O O11 0.506441 0.347603 0.380232
O O12 0.446443 0.390764 0.631739
O O13 0.500000 0.750000 0.150274
#
# Coordination Sequence:
#
# PCOD9355471 Si02
#       7
#     4   8   4   8   8   8   8
#     4   9  18  36  65  88 114 163 213 252 298 369
#     4  11  23  41  63  93 129 165 204 259 315 373
#     4   9  18  36  65  88 114 163 213 252 298 369
#     4  11  23  41  63  93 129 165 204 259 315 373
#     4   9  18  38  64  82 121 172 202 236 323 380
#     4  11  21  41  66  92 124 164 213 254 306 368
#     4  11  21  41  66  92 124 164 213 254 306 368
#
# _framework density 21.141313
#
# number of rings (size 3 to 8) (size 9 to 14) (size 15 to 20)
#    0.000    1.667    3.333    2.000    0.000    0.000 
#    6.000    6.667    0.000    0.000    0.000    0.000 
#    0.000    0.000    0.000    0.000    0.000    0.000 
#
# Total GULP energy -133999.893576 kJ/mol
# GULP energy per Si atom -5583.328899 kJ/mol
# Density = 2.109319 g / cm^3
# Si number density = 21.141313 Si / 1000 Ang^3
#
#
#
# Elastic Constant Matrix: (Units=GPa)
#
#
# Indices 1 2 3 4 5 6 
#
# 1 161.8848 61.6029 43.3496 0.0000 0.0000 0.0000
# 2 61.6029 108.4450 18.0200 0.0000 0.0000 0.0000
# 3 43.3496 18.0200 99.3780 0.0000 0.0000 0.0000
# 4 0.0000 0.0000 0.0000 19.3356 0.0000 0.0000
# 5 0.0000 0.0000 0.0000 0.0000 23.3009 0.0000
# 6 0.0000 0.0000 0.0000 0.0000 0.0000 28.3097
#
#
#
# Elastic Compliance Matrix: (Units=1/GPa)
#
#
# Indices 1 2 3 4 5 6 
#
# 1 0.008657 -0.004423 -0.002974 0.000000 0.000000 0.000000
# 2 -0.004423 0.011768 -0.000204 0.000000 0.000000 0.000000
# 3 -0.002974 -0.000204 0.011397 0.000000 0.000000 0.000000
# 4 0.000000 0.000000 0.000000 0.051718 0.000000 0.000000
# 5 0.000000 0.000000 0.000000 0.000000 0.042917 0.000000
# 6 0.000000 0.000000 0.000000 0.000000 0.000000 0.035324
#
#
# Mechanical properties :
#
#
# Convention : Reuss Voigt Hill
#
# Bulk Modulus (GPa) = 60.17532 68.40586 64.29059
# Shear Modulus (GPa) = 27.39373 30.63826 29.01600
#
# Velocity S-wave (km/s) = 3.60355 3.81098 3.70872
# Velocity P-wave (km/s) = 6.77047 7.19663 6.98680
#
# Compressibility (1/GPa) = 0.01661811
#
# Stress axis : x y z
#
# Youngs Moduli (GPa) = 115.51465 84.97651 87.74249
#
# Poissons Ratio (x) = 0.37589 0.26096
# Poissons Ratio (y) = 0.51097 0.01793
# Poissons Ratio (z) = 0.34356 0.01736
#
# Static dielectric constant tensor:
#      x y z
#    x 1.796400 0.000000 0.000000 
#    y 0.000000 1.739970 0.000000 
#    z 0.000000 0.000000 1.793580 
# 
# From -- ./inp_files/3519.got.cif
#   From: 2010.05.17/outbox.cif.g08.bks.cpg/sg37_2_cif.got.tgz:3519.got - 2010.06.03 17:53:42.
