data_PCOD9355568
_publ_section_title
;
Structure prediction by ZEFSAII (Michael W. Deem and Ramdas Pophale) SiO2 
 PCOD9355568
Probable space group: C C C 2
;
_chemical_formula_sum "Si O2"
_cell_formula_units_Z 60
_cell_length_a 13.469475
_cell_length_b 21.609300
_cell_length_c 7.649849
_cell_angle_alpha 90.000000
_cell_angle_beta 90.000000
_cell_angle_gamma 90.000000
_cell_volume 2226.610384
_symmetry_space_group_name_H-M "C C C 2"
_symmetry_group_IT_number 37
_symmetry_cell_setting 'orthorhombic'
loop_
_space_group_symop_operation_xyz
x,y,z
-x,-y,z
-x,y,1/2+z
x,-y,1/2+z
1/2+x,1/2+y,z
1/2-x,1/2-y,z
1/2-x,1/2+y,1/2+z
1/2+x,1/2-y,1/2+z
loop_
_atom_site_type_symbol
_atom_site_label
_atom_site_fract_x
_atom_site_fract_y
_atom_site_fract_z
Si Si1 0.360929 0.580190 0.232790
Si Si2 0.950577 0.887793 0.363829
Si Si3 0.750000 0.250000 0.531828
Si Si4 0.417400 0.065682 0.988428
Si Si5 0.584322 0.828785 0.477282
Si Si6 0.277232 0.381804 0.102308
Si Si7 0.946306 0.245737 0.290206
Si Si8 0.663422 0.059926 0.102866
O O1 0.460255 0.563253 0.336929
O O2 0.304115 0.615639 0.392900
O O3 0.274419 0.537029 0.153014
O O4 0.404929 0.611576 0.056974
O O5 0.866803 0.902841 0.222297
O O6 0.004234 0.821405 0.321999
O O7 0.738983 0.310512 0.645824
O O8 0.852646 0.254697 0.420405
O O9 0.501197 0.117471 0.017194
O O10 0.327779 0.085172 0.116409
O O11 0.404891 0.990980 0.009218
O O12 0.388310 0.073774 0.787008
O O13 0.536742 0.794187 0.314655
O O14 0.595506 0.770491 0.607152
O O15 0.676537 0.875303 0.499333
#
# Coordination Sequence:
#
# PCOD9355568 Si02
#       8
#     8   8   4   8   8   8   8   8
#     4  11  23  46  71 105 138 189 240 297 363 428
#     4  12  24  44  73 103 147 189 234 295 359 441
#     4  12  20  44  68  94 146 190 222 298 354 418
#     4  11  26  48  71  98 142 186 238 304 359 419
#     4  12  24  45  67 106 140 183 232 288 356 436
#     4  11  24  44  70 102 142 190 235 295 361 426
#     4  12  25  40  70 104 140 185 238 280 361 439
#     4  11  27  47  73 101 139 185 242 306 358 425
#
# _framework density 26.946787
#
# number of rings (size 3 to 8) (size 9 to 14) (size 15 to 20)
#    0.000    0.533    5.333    2.800    3.733    1.067 
#    0.000    0.667    0.000    0.000    0.000    0.000 
#    0.000    0.000    0.000    0.000    0.000    0.000 
#
# Total GULP energy -167434.011479 kJ/mol
# GULP energy per Si atom -5581.133716 kJ/mol
# Density = 2.688546 g / cm^3
# Si number density = 26.946787 Si / 1000 Ang^3
#
#
#
# Elastic Constant Matrix: (Units=GPa)
#
#
# Indices 1 2 3 4 5 6 
#
# 1 75.3413 -1.6184 1.3870 0.0000 0.0000 0.0000
# 2 -1.6184 91.2244 1.2928 0.0000 0.0000 0.0000
# 3 1.3870 1.2928 108.0542 0.0000 0.0000 0.0000
# 4 0.0000 0.0000 0.0000 170.7070 0.0000 0.0000
# 5 0.0000 0.0000 0.0000 0.0000 28.9378 0.0000
# 6 0.0000 0.0000 0.0000 0.0000 0.0000 16.6703
#
#
#
# Elastic Compliance Matrix: (Units=1/GPa)
#
#
# Indices 1 2 3 4 5 6 
#
# 1 0.013281 0.000238 -0.000173 0.000000 0.000000 0.000000
# 2 0.000238 0.010968 -0.000134 0.000000 0.000000 0.000000
# 3 -0.000173 -0.000134 0.009258 0.000000 0.000000 0.000000
# 4 0.000000 0.000000 0.000000 0.005858 0.000000 0.000000
# 5 0.000000 0.000000 0.000000 0.000000 0.034557 0.000000
# 6 0.000000 0.000000 0.000000 0.000000 0.000000 0.059987
#
#
# Mechanical properties :
#
#
# Convention : Reuss Voigt Hill
#
# Bulk Modulus (GPa) = 29.96817 30.74917 30.35867
# Shear Modulus (GPa) = 34.44201 61.50026 47.97114
#
# Velocity S-wave (km/s) = 3.57900 4.78251 4.22384
# Velocity P-wave (km/s) = 5.31266 6.47552 5.92270
#
# Compressibility (1/GPa) = 0.03336874
#
# Stress axis : x y z
#
# Youngs Moduli (GPa) = 75.29416 91.17346 108.00948
#
# Poissons Ratio (x) = -0.02171 0.01872
# Poissons Ratio (y) = -0.01793 0.01450
# Poissons Ratio (z) = 0.01305 0.01224
#
# Static dielectric constant tensor:
#      x y z
#    x 2.305990 0.000000 0.000000 
#    y 0.000000 1.365030 0.000000 
#    z 0.000000 0.000000 2.123850 
# 
# From -- ./inp_files/3738.got.cif
#   From: 2010.05.17/outbox.cif.g08.bks.cpg/sg37_2_cif.got.tgz:3738.got - 2010.06.03 17:53:42.
