data_PCOD9355902
_publ_section_title
;
Structure prediction by ZEFSAII (Michael W. Deem and Ramdas Pophale) SiO2 
 PCOD9355902
Probable space group: A M M 2
;
_chemical_formula_sum "Si O2"
_cell_formula_units_Z 64
_cell_length_a 8.128348
_cell_length_b 24.196731
_cell_length_c 19.812276
_cell_angle_alpha 90.000000
_cell_angle_beta 90.000000
_cell_angle_gamma 90.000000
_cell_volume 3896.667548
_symmetry_space_group_name_H-M "A M M 2"
_symmetry_group_IT_number 38
_symmetry_cell_setting 'orthorhombic'
loop_
_space_group_symop_operation_xyz
x,y,z
-x,-y,z
-x,y,z
x,-y,z
x,1/2+y,1/2+z
-x,1/2-y,1/2+z
-x,1/2+y,1/2+z
x,1/2-y,1/2+z
loop_
_atom_site_type_symbol
_atom_site_label
_atom_site_fract_x
_atom_site_fract_y
_atom_site_fract_z
Si Si1 0.798682 0.937068 0.072200
Si Si2 0.197970 0.663842 0.483417
Si Si3 0.198708 0.273014 0.064811
Si Si4 0.304114 0.728546 0.358201
Si Si5 0.801837 0.746288 0.711885
Si Si6 0.802183 0.937652 0.352175
Si Si7 0.304218 0.663304 0.938531
Si Si8 0.798939 0.881483 0.213236
O O1 0.744219 0.893814 0.014939
O O2 0.749046 0.912810 0.145091
O O3 0.000000 0.937512 0.071850
O O4 0.743486 0.000000 0.063064
O O5 0.253572 0.714837 0.531122
O O6 0.249417 0.679770 0.408044
O O7 0.000000 0.663546 0.485935
O O8 0.255327 0.274148 0.142198
O O9 0.000000 0.273004 0.064425
O O10 0.256554 0.320805 0.014604
O O11 0.500000 0.731130 0.359696
O O12 0.248410 0.725071 0.281273
O O13 0.238783 0.786149 0.391317
O O14 0.744623 0.682313 0.713169
O O15 0.000000 0.744785 0.709689
O O16 0.759073 0.894496 0.410511
O O17 0.742758 0.912379 0.280862
O O18 0.000000 0.940085 0.347778
O O19 0.740645 0.000000 0.362445
O O20 0.500000 0.663251 0.933173
O O21 0.000000 0.881108 0.213598
#
# Coordination Sequence:
#
# PCOD9355902 Si02
#       8
#     8   8   8   8   8   8   8   8
#     4   9  15  24  42  69  97 122 153 192 228 265
#     4   9  16  28  45  66  90 120 154 189 228 269
#     4   9  17  29  47  68  90 117 153 193 233 277
#     4  10  20  31  44  64  91 123 157 192 232 275
#     4  10  17  28  48  71  93 121 153 189 233 276
#     4  10  19  30  47  69  93 125 162 196 228 265
#     4  10  20  32  45  64  91 125 158 192 234 275
#     4   9  15  25  41  66  97 125 154 186 222 265
#
# _framework density 16.424289999999999
#
# number of rings (size 3 to 8) (size 9 to 14) (size 15 to 20)
#    0.000    2.500    2.500    1.125    0.000    3.250 
#    0.000    0.000    0.000    1.125    0.000    0.875 
#    0.000    3.000    0.000    0.000    0.000    0.000 
#
# Total GULP energy -178425.678793 kJ/mol
# GULP energy per Si atom -5575.802462 kJ/mol
# Density = 1.638691 g / cm^3
# Si number density = 16.424290 Si / 1000 Ang^3
#
#
#
# Elastic Constant Matrix: (Units=GPa)
#
#
# Indices 1 2 3 4 5 6 
#
# 1 7.9941 10.4293 10.9460 0.0000 0.0000 0.0000
# 2 10.4293 112.7410 87.4210 0.0000 0.0000 0.0000
# 3 10.9460 87.4210 158.5883 0.0000 0.0000 0.0000
# 4 0.0000 0.0000 0.0000 18.7631 0.0000 0.0000
# 5 0.0000 0.0000 0.0000 0.0000 -3.1979 0.0000
# 6 0.0000 0.0000 0.0000 0.0000 0.0000 5.9186
#
#
#
# Elastic Compliance Matrix: (Units=1/GPa)
#
#
# Indices 1 2 3 4 5 6 
#
# 1 0.144106 -0.009812 -0.004537 0.000000 0.000000 0.000000
# 2 -0.009812 0.016160 -0.008231 0.000000 0.000000 0.000000
# 3 -0.004537 -0.008231 0.011156 0.000000 0.000000 0.000000
# 4 0.000000 0.000000 0.000000 0.053296 0.000000 0.000000
# 5 0.000000 0.000000 0.000000 0.000000 -0.312704 0.000000
# 6 0.000000 0.000000 0.000000 0.000000 0.000000 0.168959
#
#
# Mechanical properties :
#
#
# Convention : Reuss Voigt Hill
#
# Bulk Modulus (GPa) = 7.92013 55.21289 31.56651
# Shear Modulus (GPa) = 29.72294 15.66523 22.69409
#
# Velocity S-wave (km/s) = 4.25867 3.09169 3.72121
# Velocity P-wave (km/s) = 5.38649 6.81427 6.14201
#
# Compressibility (1/GPa) = 0.12626051
#
# Stress axis : x y z
#
# Youngs Moduli (GPa) = 6.93935 61.88178 89.63801
#
# Poissons Ratio (x) = 0.60721 0.40672
# Poissons Ratio (y) = 0.06809 0.73779
# Poissons Ratio (z) = 0.03149 0.50933
#
# Static dielectric constant tensor:
#      x y z
#    x 1.572950 0.000000 0.000000 
#    y 0.000000 1.541540 0.000000 
#    z 0.000000 0.000000 1.552180 
# 
# From -- ./inp_files/17220.got.cif
#   From: 2010.05.17/outbox.cif.g08.bks.cpg/sg38_9_cif.got.tgz:17220.got - 2010.06.03 18:07:57.
