data_PCOD9355950
_publ_section_title
;
Structure prediction by ZEFSAII (Michael W. Deem and Ramdas Pophale) SiO2 
 PCOD9355950
Probable space group: A M M 2
;
_chemical_formula_sum "Si O2"
_cell_formula_units_Z 52
_cell_length_a 7.881662
_cell_length_b 17.881333
_cell_length_c 25.191840
_cell_angle_alpha 90.000000
_cell_angle_beta 90.000000
_cell_angle_gamma 90.000000
_cell_volume 3550.402468
_symmetry_space_group_name_H-M "A M M 2"
_symmetry_group_IT_number 38
_symmetry_cell_setting 'orthorhombic'
loop_
_space_group_symop_operation_xyz
x,y,z
-x,-y,z
-x,y,z
x,-y,z
x,1/2+y,1/2+z
-x,1/2-y,1/2+z
-x,1/2+y,1/2+z
x,1/2-y,1/2+z
loop_
_atom_site_type_symbol
_atom_site_label
_atom_site_fract_x
_atom_site_fract_y
_atom_site_fract_z
Si Si1 0.200223 0.584753 0.453980
Si Si2 0.295778 0.333931 0.561535
Si Si3 0.685503 0.770624 0.897896
Si Si4 0.301001 0.410752 0.672181
Si Si5 0.000000 0.588868 0.971755
Si Si6 0.305793 0.317338 0.010563
Si Si7 0.000000 0.910737 0.253218
Si Si8 0.000000 0.181473 0.361003
O O1 0.264467 0.500000 0.450521
O O2 0.224081 0.616397 0.513555
O O3 0.285331 0.643516 0.414179
O O4 0.000000 0.585227 0.442716
O O5 0.500000 0.337281 0.556237
O O6 0.251967 0.366862 0.618686
O O7 0.249485 0.247252 0.551762
O O8 0.500000 0.760144 0.873805
O O9 0.689034 0.726931 0.954349
O O10 0.835797 0.734526 0.864630
O O11 0.500000 0.394923 0.684621
O O12 0.289003 0.500000 0.661670
O O13 0.168104 0.393255 0.718620
O O14 0.166933 0.618746 0.002483
O O15 0.000000 0.628593 0.913623
O O16 0.000000 0.500000 0.966457
O O17 0.500000 0.341700 0.021902
O O18 0.000000 0.867401 0.308342
O O19 0.000000 0.000000 0.262840
#
# Coordination Sequence:
#
# PCOD9355950 Si02
#       8
#     8   8   8   8   4   8   4   4
#     4  10  18  25  39  67  99 126 151 175 202 249
#     4   9  17  28  43  63  91 128 157 174 204 250
#     4   9  17  30  46  62  84 116 148 181 220 256
#     4   9  18  31  45  65  93 121 151 183 212 251
#     4  10  19  29  45  62  81 113 144 179 226 268
#     4   8  16  28  42  63  87 111 143 178 210 253
#     4  10  21  33  47  64  85 115 148 191 240 266
#     4  10  19  34  47  60  82 108 152 196 225 266
#
# _framework density 14.646226
#
# number of rings (size 3 to 8) (size 9 to 14) (size 15 to 20)
#    0.000    2.769    0.769    2.077    4.308    2.769 
#    0.000    0.000    0.000    2.769    0.000    0.000 
#    0.000    4.923    0.000    8.000    0.000    0.000 
#
# Total GULP energy -144822.794030 kJ/mol
# GULP energy per Si atom -5570.107463 kJ/mol
# Density = 1.461289 g / cm^3
# Si number density = 14.646226 Si / 1000 Ang^3
#
#
#
# Elastic Constant Matrix: (Units=GPa)
#
#
# Indices 1 2 3 4 5 6 
#
# 1 96.3995 54.8875 43.4131 0.0000 0.0000 0.0000
# 2 54.8875 94.6259 33.5592 0.0000 0.0000 0.0000
# 3 43.4131 33.5592 67.5657 0.0000 0.0000 0.0000
# 4 0.0000 0.0000 0.0000 26.5514 0.0000 0.0000
# 5 0.0000 0.0000 0.0000 0.0000 -7.6395 0.0000
# 6 0.0000 0.0000 0.0000 0.0000 0.0000 14.4561
#
#
#
# Elastic Compliance Matrix: (Units=1/GPa)
#
#
# Indices 1 2 3 4 5 6 
#
# 1 0.018430 -0.007878 -0.007929 0.000000 0.000000 0.000000
# 2 -0.007878 0.016195 -0.002982 0.000000 0.000000 0.000000
# 3 -0.007929 -0.002982 0.021376 0.000000 0.000000 0.000000
# 4 0.000000 0.000000 0.000000 0.037663 0.000000 0.000000
# 5 0.000000 0.000000 0.000000 0.000000 -0.130899 0.000000
# 6 0.000000 0.000000 0.000000 0.000000 0.000000 0.069175
#
#
# Mechanical properties :
#
#
# Convention : Reuss Voigt Hill
#
# Bulk Modulus (GPa) = 54.27947 58.03453 56.15700
# Shear Modulus (GPa) = 66.08587 15.12236 40.60411
#
# Velocity S-wave (km/s) = 6.72454 3.21675 5.27100
# Velocity P-wave (km/s) = 9.87083 7.31484 8.68735
#
# Compressibility (1/GPa) = 0.01842317
#
# Stress axis : x y z
#
# Youngs Moduli (GPa) = 54.25986 61.74652 46.78150
#
# Poissons Ratio (x) = 0.48645 0.37092
# Poissons Ratio (y) = 0.42747 0.13950
# Poissons Ratio (z) = 0.43021 0.18413
#
# Static dielectric constant tensor:
#      x y z
#    x 1.519470 0.000000 0.000000 
#    y 0.000000 1.479290 0.000000 
#    z 0.000000 0.000000 1.448250 
# 
# From -- ./inp_files/19710.got.cif
#   From: 2010.05.17/outbox.cif.g08.bks.cpg/sg38_10_cif.got.tgz:19710.got - 2010.06.03 18:07:57.
