data_PCOD9355726
_publ_section_title
;
Structure prediction by ZEFSAII (Michael W. Deem and Ramdas Pophale) SiO2 
 PCOD9355726
Probable space group: C C C 2
;
_chemical_formula_sum "Si O2"
_cell_formula_units_Z 32
_cell_length_a 4.791246
_cell_length_b 15.927292
_cell_length_c 16.527387
_cell_angle_alpha 90.000000
_cell_angle_beta 90.000000
_cell_angle_gamma 90.000000
_cell_volume 1261.230917
_symmetry_space_group_name_H-M "C C C 2"
_symmetry_group_IT_number 37
_symmetry_cell_setting 'orthorhombic'
loop_
_space_group_symop_operation_xyz
x,y,z
-x,-y,z
-x,y,1/2+z
x,-y,1/2+z
1/2+x,1/2+y,z
1/2-x,1/2-y,z
1/2-x,1/2+y,1/2+z
1/2+x,1/2-y,1/2+z
loop_
_atom_site_type_symbol
_atom_site_label
_atom_site_fract_x
_atom_site_fract_y
_atom_site_fract_z
Si Si1 0.904860 0.090955 0.128650
Si Si2 0.893912 0.590045 0.382147
Si Si3 0.858987 0.843169 0.970366
Si Si4 0.130042 0.341984 0.217679
O O1 0.600547 0.118976 0.157913
O O2 0.005680 0.153723 0.058515
O O3 0.099856 0.099750 0.207629
O O4 0.000000 0.000000 0.095653
O O5 0.582332 0.614238 0.409487
O O6 0.971807 0.653204 0.309619
O O7 0.000000 0.500000 0.351051
O O8 0.079674 0.602709 0.462096
O O9 0.750000 0.750000 0.951791
O O10 0.250000 0.250000 0.199746
#
# Coordination Sequence:
#
# PCOD9355726 Si02
#       4
#     8   8   8   8
#     4  12  25  45  70 103 142 190 243 302 366 438
#     4  12  25  46  72 104 142 188 239 300 367 438
#     4  12  26  46  72 104 142 187 240 301 366 437
#     4  12  26  45  70 103 143 189 241 301 366 437
#
# _framework density 25.372036999999999
#
# number of rings (size 3 to 8) (size 9 to 14) (size 15 to 20)
#    0.000    0.000    0.000   11.250    0.000    2.000 
#    0.000    0.000    0.000    0.000    0.000    0.000 
#    0.000    0.000    0.000    0.000    0.000    0.000 
#
# Total GULP energy -89425.779715 kJ/mol
# GULP energy per Si atom -5589.111232 kJ/mol
# Density = 2.531429 g / cm^3
# Si number density = 25.372037 Si / 1000 Ang^3
#
#
#
# Elastic Constant Matrix: (Units=GPa)
#
#
# Indices 1 2 3 4 5 6 
#
# 1 159.5610 60.2223 24.3870 0.0000 0.0000 0.0000
# 2 60.2223 146.3772 21.4078 0.0000 0.0000 0.0000
# 3 24.3870 21.4078 99.8182 0.0000 0.0000 0.0000
# 4 0.0000 0.0000 0.0000 16.1370 0.0000 0.0000
# 5 0.0000 0.0000 0.0000 0.0000 35.4762 0.0000
# 6 0.0000 0.0000 0.0000 0.0000 0.0000 49.6408
#
#
#
# Elastic Compliance Matrix: (Units=1/GPa)
#
#
# Indices 1 2 3 4 5 6 
#
# 1 0.007560 -0.002932 -0.001218 0.000000 0.000000 0.000000
# 2 -0.002932 0.008190 -0.001040 0.000000 0.000000 0.000000
# 3 -0.001218 -0.001040 0.010539 0.000000 0.000000 0.000000
# 4 0.000000 0.000000 0.000000 0.061969 0.000000 0.000000
# 5 0.000000 0.000000 0.000000 0.000000 0.028188 0.000000
# 6 0.000000 0.000000 0.000000 0.000000 0.000000 0.020145
#
#
# Mechanical properties :
#
#
# Convention : Reuss Voigt Hill
#
# Bulk Modulus (GPa) = 62.86107 68.64340 65.75223
# Shear Modulus (GPa) = 32.83539 40.23344 36.53442
#
# Velocity S-wave (km/s) = 3.60134 3.98645 3.79878
# Velocity P-wave (km/s) = 6.49018 6.95001 6.72402
#
# Compressibility (1/GPa) = 0.01590810
#
# Stress axis : x y z
#
# Youngs Moduli (GPa) = 132.27411 122.09800 94.88655
#
# Poissons Ratio (x) = 0.35801 0.11559
# Poissons Ratio (y) = 0.38785 0.09870
# Poissons Ratio (z) = 0.16113 0.12700
#
# Static dielectric constant tensor:
#      x y z
#    x 1.978040 0.000000 0.000000 
#    y 0.000000 2.227920 0.000000 
#    z 0.000000 0.000000 1.951940 
# 
# From -- ./inp_files/13649.got.cif
#   From: 2010.05.17/outbox.cif.g08.bks.cpg/sg37_7_cif.got.tgz:13649.got - 2010.06.03 17:53:42.
