data_PCOD9355757
_publ_section_title
;
Structure prediction by ZEFSAII (Michael W. Deem and Ramdas Pophale) SiO2 
 PCOD9355757
Probable space group: C C C 2
;
_chemical_formula_sum "Si O2"
_cell_formula_units_Z 24
_cell_length_a 12.000000
_cell_length_b 18.000000
_cell_length_c 12.000000
_cell_angle_alpha 90.000000
_cell_angle_beta 90.000000
_cell_angle_gamma 90.000000
_cell_volume 2592.000000
_symmetry_space_group_name_H-M "C C C 2"
_symmetry_group_IT_number 37
_symmetry_cell_setting 'orthorhombic'
loop_
_space_group_symop_operation_xyz
x,y,z
-x,-y,z
-x,y,1/2+z
x,-y,1/2+z
1/2+x,1/2+y,z
1/2-x,1/2-y,z
1/2-x,1/2+y,1/2+z
1/2+x,1/2-y,1/2+z
loop_
_atom_site_type_symbol
_atom_site_label
_atom_site_fract_x
_atom_site_fract_y
_atom_site_fract_z
Si Si1 0.914202 0.238197 0.389100
Si Si2 0.851726 0.708176 0.314797
Si Si3 0.127328 0.474432 0.928831
Si Si4 0.810630 0.375230 0.038997
Si Si5 0.244222 0.362827 0.782296
Si Si6 0.566199 0.158657 0.588937
O O1 0.848303 0.301230 0.317597
O O2 0.851965 0.162978 0.353567
O O3 0.907503 0.266035 0.517798
O O4 0.042734 0.243036 0.353136
O O5 0.750000 0.750000 0.258723
O O6 0.799653 0.671899 0.425809
O O7 0.897522 0.655891 0.216870
O O8 0.193460 0.441131 0.823541
O O9 0.000000 0.500000 0.900846
O O10 0.187104 0.541286 0.992757
O O11 0.118466 0.406850 0.015821
O O12 0.736518 0.361891 0.148905
O O13 0.934430 0.355008 0.081755
#
# Coordination Sequence:
#
# PCOD9355757 Si02
#       6
#     8   8   8   8   8   8
#     4   9  20  36  55  79 108 151 184 222 284 344
#     4  11  23  34  55  84 114 142 190 241 285 330
#     4   9  20  32  53  82 112 145 183 230 286 334
#     4  10  21  34  54  82 114 144 181 236 288 334
#     4  10  19  34  59  77 111 145 186 220 284 350
#     4   9  19  36  52  81 114 142 183 231 281 347
#
# _framework density 9.2592590000000001
#
# number of rings (size 3 to 8) (size 9 to 14) (size 15 to 20)
#    0.000    2.333    1.667    1.000    9.333    0.667 
#    0.000    0.000    0.000    1.000    0.000    0.000 
#    0.000    0.000    0.000    0.000    0.000    0.000 
#
# Total GULP energy -133668.721657 kJ/mol
# GULP energy per Si atom -5569.530069 kJ/mol
# Density = 0.923818 g / cm^3
# Si number density = 9.259259 Si / 1000 Ang^3
#
#
#
# Elastic Constant Matrix: (Units=GPa)
#
#
# Indices 1 2 3 4 5 6 
#
# 1 53.2613 21.5522 8.1317 0.0000 0.0000 0.0000
# 2 21.5522 57.0893 24.1801 0.0000 0.0000 0.0000
# 3 8.1317 24.1801 96.6879 0.0000 0.0000 0.0000
# 4 0.0000 0.0000 0.0000 14.9622 0.0000 0.0000
# 5 0.0000 0.0000 0.0000 0.0000 23.1071 0.0000
# 6 0.0000 0.0000 0.0000 0.0000 0.0000 17.6477
#
#
#
# Elastic Compliance Matrix: (Units=1/GPa)
#
#
# Indices 1 2 3 4 5 6 
#
# 1 0.022166 -0.008476 0.000256 0.000000 0.000000 0.000000
# 2 -0.008476 0.022833 -0.004997 0.000000 0.000000 0.000000
# 3 0.000256 -0.004997 0.011571 0.000000 0.000000 0.000000
# 4 0.000000 0.000000 0.000000 0.066835 0.000000 0.000000
# 5 0.000000 0.000000 0.000000 0.000000 0.043277 0.000000
# 6 0.000000 0.000000 0.000000 0.000000 0.000000 0.056665
#
#
# Mechanical properties :
#
#
# Convention : Reuss Voigt Hill
#
# Bulk Modulus (GPa) = 33.18523 34.97404 34.07963
# Shear Modulus (GPa) = 19.24352 21.35502 20.29927
#
# Velocity S-wave (km/s) = 3.22708 3.39952 3.31442
# Velocity P-wave (km/s) = 5.64308 5.85969 5.75240
#
# Compressibility (1/GPa) = 0.03013389
#
# Stress axis : x y z
#
# Youngs Moduli (GPa) = 45.11346 43.79629 86.42449
#
# Poissons Ratio (x) = 0.37124 -0.02209
# Poissons Ratio (y) = 0.38240 0.43189
# Poissons Ratio (z) = -0.01153 0.21886
#
# Static dielectric constant tensor:
#      x y z
#    x 1.653160 0.000000 0.000000 
#    y 0.000000 1.693480 0.000000 
#    z 0.000000 0.000000 1.658600 
# 
# From -- ./inp_files/7169.got.cif
#   From: 2010.05.17/outbox.ucp.g08.bks.cvg/sg37_4_cif.got.tgz:7169.got - 2010.06.11 10:38:43.
