data_PCOD9355360
_publ_section_title
;
Structure prediction by ZEFSAII (Michael W. Deem and Ramdas Pophale) SiO2 
 PCOD9355360
Probable space group: C C C 2
;
_chemical_formula_sum "Si O2"
_cell_formula_units_Z 56
_cell_length_a 13.851167
_cell_length_b 11.032741
_cell_length_c 14.379537
_cell_angle_alpha 90.000000
_cell_angle_beta 90.000000
_cell_angle_gamma 90.000000
_cell_volume 2197.428187
_symmetry_space_group_name_H-M "C C C 2"
_symmetry_group_IT_number 37
_symmetry_cell_setting 'orthorhombic'
loop_
_space_group_symop_operation_xyz
x,y,z
-x,-y,z
-x,y,1/2+z
x,-y,1/2+z
1/2+x,1/2+y,z
1/2-x,1/2-y,z
1/2-x,1/2+y,1/2+z
1/2+x,1/2-y,1/2+z
loop_
_atom_site_type_symbol
_atom_site_label
_atom_site_fract_x
_atom_site_fract_y
_atom_site_fract_z
Si Si1 0.395011 0.313272 0.391380
Si Si2 0.893217 0.440849 0.606780
Si Si3 0.893621 0.044648 0.710373
Si Si4 0.960342 0.812520 0.043893
Si Si5 0.106796 0.547260 0.293417
Si Si6 0.853875 0.786163 0.676988
Si Si7 0.710320 0.935057 0.449285
O O1 0.379637 0.346062 0.282821
O O2 0.500555 0.328323 0.438838
O O3 0.352378 0.181429 0.416060
O O4 0.321747 0.406220 0.440311
O O5 0.902210 0.310789 0.560482
O O6 0.863915 0.449905 0.713899
O O7 0.822701 0.524721 0.549501
O O8 0.000000 0.500000 0.603041
O O9 0.900846 0.088543 0.603228
O O10 0.836499 0.919381 0.720394
O O11 0.000000 0.000000 0.736533
O O12 0.060595 0.798077 0.102345
O O13 0.110030 0.680246 0.246932
O O14 0.177056 0.539921 0.379616
O O15 0.000000 0.500000 0.322410
O O16 0.750000 0.750000 0.637271
#
# Coordination Sequence:
#
# PCOD9355360 Si02
#       7
#     8   8   8   8   8   8   8
#     4  11  24  43  67 101 142 176 226 282 344 409
#     4  11  20  39  64 105 134 173 235 277 334 408
#     4  10  25  45  66  97 135 185 232 275 346 411
#     4  11  23  42  70  98 137 184 227 284 337 411
#     4  11  22  39  68 101 137 176 227 288 335 395
#     4  11  23  41  69  97 134 185 234 277 343 413
#     4  11  24  39  69 109 136 177 227 285 346 399
#
# _framework density 25.484337
#
# number of rings (size 3 to 8) (size 9 to 14) (size 15 to 20)
#    0.000    1.143    4.286    2.143    6.000    1.714 
#    0.000    0.000    0.000    0.000    7.429    0.000 
#    0.000    0.000    0.000    0.000    0.000    0.000 
#
# Total GULP energy -156759.639224 kJ/mol
# GULP energy per Si atom -5598.558544 kJ/mol
# Density = 2.542633 g / cm^3
# Si number density = 25.484337 Si / 1000 Ang^3
#
#
#
# Elastic Constant Matrix: (Units=GPa)
#
#
# Indices 1 2 3 4 5 6 
#
# 1 51.9523 23.1676 13.9860 0.0000 0.0000 0.0000
# 2 23.1676 132.8797 28.2171 0.0000 0.0000 0.0000
# 3 13.9860 28.2171 90.1856 0.0000 0.0000 0.0000
# 4 0.0000 0.0000 0.0000 37.5284 0.0000 0.0000
# 5 0.0000 0.0000 0.0000 0.0000 22.7276 0.0000
# 6 0.0000 0.0000 0.0000 0.0000 0.0000 27.7566
#
#
#
# Elastic Compliance Matrix: (Units=1/GPa)
#
#
# Indices 1 2 3 4 5 6 
#
# 1 0.021305 -0.003227 -0.002294 0.000000 0.000000 0.000000
# 2 -0.003227 0.008550 -0.002175 0.000000 0.000000 0.000000
# 3 -0.002294 -0.002175 0.012124 0.000000 0.000000 0.000000
# 4 0.000000 0.000000 0.000000 0.026646 0.000000 0.000000
# 5 0.000000 0.000000 0.000000 0.000000 0.043999 0.000000
# 6 0.000000 0.000000 0.000000 0.000000 0.000000 0.036027
#
#
# Mechanical properties :
#
#
# Convention : Reuss Voigt Hill
#
# Bulk Modulus (GPa) = 37.61203 45.08434 41.34818
# Shear Modulus (GPa) = 28.91711 31.57899 30.24805
#
# Velocity S-wave (km/s) = 3.37219 3.52398 3.44892
# Velocity P-wave (km/s) = 5.47294 5.85554 5.66747
#
# Compressibility (1/GPa) = 0.02658724
#
# Stress axis : x y z
#
# Youngs Moduli (GPa) = 46.93678 116.95792 82.47808
#
# Poissons Ratio (x) = 0.37747 0.18923
# Poissons Ratio (y) = 0.15148 0.17936
# Poissons Ratio (z) = 0.10768 0.25434
#
# Static dielectric constant tensor:
#      x y z
#    x 2.010400 0.000000 0.000000 
#    y 0.000000 2.080570 0.000000 
#    z 0.000000 0.000000 2.026890 
# 
# From -- ./inp_files/12153.got.cif
#   From: 2010.05.17/outbox.cif.g08.bks.cpg/sg37_7_cif.got.tgz:12153.got - 2010.06.03 17:53:42.
