data_PCOD9355998
_publ_section_title
;
Structure prediction by ZEFSAII (Michael W. Deem and Ramdas Pophale) SiO2 
 PCOD9355998
Probable space group: A M M 2
;
_chemical_formula_sum "Si O2"
_cell_formula_units_Z 64
_cell_length_a 8.566096
_cell_length_b 27.199129
_cell_length_c 18.850532
_cell_angle_alpha 90.000000
_cell_angle_beta 90.000000
_cell_angle_gamma 90.000000
_cell_volume 4391.992051
_symmetry_space_group_name_H-M "A M M 2"
_symmetry_group_IT_number 38
_symmetry_cell_setting 'orthorhombic'
loop_
_space_group_symop_operation_xyz
x,y,z
-x,-y,z
-x,y,z
x,-y,z
x,1/2+y,1/2+z
-x,1/2-y,1/2+z
-x,1/2+y,1/2+z
x,1/2-y,1/2+z
loop_
_atom_site_type_symbol
_atom_site_label
_atom_site_fract_x
_atom_site_fract_y
_atom_site_fract_z
Si Si1 0.687491 0.257535 0.491760
Si Si2 0.311668 0.556150 0.334089
Si Si3 0.687642 0.147441 0.740352
Si Si4 0.814608 0.293320 0.120435
Si Si5 0.685459 0.797360 0.211054
Si Si6 0.185461 0.238446 0.833203
Si Si7 0.186588 0.443663 0.489697
Si Si8 0.688054 0.855446 0.079344
O O1 0.500000 0.254184 0.494500
O O2 0.761806 0.214402 0.539721
O O3 0.745803 0.256855 0.411540
O O4 0.734336 0.309499 0.528699
O O5 0.500000 0.556636 0.337263
O O6 0.260778 0.500000 0.319572
O O7 0.264386 0.595940 0.275629
O O8 0.249595 0.570380 0.411788
O O9 0.500000 0.149211 0.734305
O O10 0.763465 0.158650 0.663992
O O11 0.741570 0.190899 0.793697
O O12 0.723629 0.249997 0.162163
O O13 0.000000 0.286261 0.127143
O O14 0.500000 0.799984 0.223018
O O15 0.770466 0.785352 0.284334
O O16 0.735530 0.842132 0.160052
O O17 0.000000 0.232629 0.835424
O O18 0.238149 0.500000 0.503316
O O19 0.245966 0.405230 0.547372
O O20 0.000000 0.442778 0.487782
O O21 0.500000 0.857251 0.078293
#
# Coordination Sequence:
#
# PCOD9355998 Si02
#       8
#     8   8   8   8   8   8   8   8
#     4  10  19  31  44  60  84 112 142 173 208 248
#     4   9  18  31  45  60  80 109 145 180 209 241
#     4  10  18  29  44  60  82 113 144 173 210 250
#     4  10  18  28  42  61  83 107 138 173 208 246
#     4   9  17  30  44  59  81 109 140 171 207 248
#     4  11  20  28  41  63  87 111 141 173 207 246
#     4  10  20  30  41  60  85 111 139 174 214 249
#     4   9  18  30  45  61  78 108 145 175 205 244
#
# _framework density 14.571975999999999
#
# number of rings (size 3 to 8) (size 9 to 14) (size 15 to 20)
#    0.000    2.250    0.000    6.750    0.000    7.750 
#    0.000    0.000    0.000    0.000    0.000    0.000 
#    0.000    1.000    0.000    5.250    0.000    4.250 
#
# Total GULP energy -178355.996130 kJ/mol
# GULP energy per Si atom -5573.624879 kJ/mol
# Density = 1.453881 g / cm^3
# Si number density = 14.571976 Si / 1000 Ang^3
#
#
#
# Elastic Constant Matrix: (Units=GPa)
#
#
# Indices 1 2 3 4 5 6 
#
# 1 26.0027 12.1045 14.5022 0.0000 0.0000 0.0000
# 2 12.1045 60.6510 34.7123 0.0000 0.0000 0.0000
# 3 14.5022 34.7123 83.8141 0.0000 0.0000 0.0000
# 4 0.0000 0.0000 0.0000 27.1544 0.0000 0.0000
# 5 0.0000 0.0000 0.0000 0.0000 -0.9511 0.0000
# 6 0.0000 0.0000 0.0000 0.0000 0.0000 9.3401
#
#
#
# Elastic Compliance Matrix: (Units=1/GPa)
#
#
# Indices 1 2 3 4 5 6 
#
# 1 0.044073 -0.005808 -0.005220 0.000000 0.000000 0.000000
# 2 -0.005808 0.022376 -0.008262 0.000000 0.000000 0.000000
# 3 -0.005220 -0.008262 0.016256 0.000000 0.000000 0.000000
# 4 0.000000 0.000000 0.000000 0.036826 0.000000 0.000000
# 5 0.000000 0.000000 0.000000 0.000000 -1.051396 0.000000
# 6 0.000000 0.000000 0.000000 0.000000 0.000000 0.107065
#
#
# Mechanical properties :
#
#
# Convention : Reuss Voigt Hill
#
# Bulk Modulus (GPa) = 22.66368 32.56733 27.61551
# Shear Modulus (GPa) = -6.48079 14.38526 3.95223
#
# Velocity S-wave (km/s) = -2.11118 3.14536 1.64867
# Velocity P-wave (km/s) = 3.10546 5.96564 4.75567
#
# Compressibility (1/GPa) = 0.04412346
#
# Stress axis : x y z
#
# Youngs Moduli (GPa) = 22.68978 44.69167 61.51477
#
# Poissons Ratio (x) = 0.25957 0.32113
# Poissons Ratio (y) = 0.13178 0.50824
# Poissons Ratio (z) = 0.11845 0.36925
#
# Static dielectric constant tensor:
#      x y z
#    x 1.487810 0.000000 0.000000 
#    y 0.000000 1.488460 0.000000 
#    z 0.000000 0.000000 1.490550 
# 
# From -- ./inp_files/17351.got.cif
#   From: 2010.05.17/outbox.cif.g08.bks.cpg/sg38_9_cif.got.tgz:17351.got - 2010.06.03 18:07:57.
