data_PCOD9355579
_publ_section_title
;
Structure prediction by ZEFSAII (Michael W. Deem and Ramdas Pophale) SiO2 
 PCOD9355579
Probable space group: C C C 2
;
_chemical_formula_sum "Si O2"
_cell_formula_units_Z 32
_cell_length_a 8.913562
_cell_length_b 10.686286
_cell_length_c 15.608136
_cell_angle_alpha 90.000000
_cell_angle_beta 90.000000
_cell_angle_gamma 90.000000
_cell_volume 1486.719793
_symmetry_space_group_name_H-M "C C C 2"
_symmetry_group_IT_number 37
_symmetry_cell_setting 'orthorhombic'
loop_
_space_group_symop_operation_xyz
x,y,z
-x,-y,z
-x,y,1/2+z
x,-y,1/2+z
1/2+x,1/2+y,z
1/2-x,1/2-y,z
1/2-x,1/2+y,1/2+z
1/2+x,1/2-y,1/2+z
loop_
_atom_site_type_symbol
_atom_site_label
_atom_site_fract_x
_atom_site_fract_y
_atom_site_fract_z
Si Si1 0.079774 0.870233 0.681710
Si Si2 0.628564 0.355115 0.486387
Si Si3 0.194823 0.126190 0.438721
Si Si4 0.609650 0.117230 0.764930
O O1 0.061677 0.839188 0.581645
O O2 0.256600 0.893947 0.696208
O O3 0.036014 0.750090 0.738963
O O4 0.000000 0.000000 0.703802
O O5 0.750000 0.250000 0.466730
O O6 0.704393 0.491663 0.482848
O O7 0.483783 0.355688 0.424740
O O8 0.250000 0.250000 0.487835
O O9 0.299851 0.121781 0.354719
O O10 0.500000 0.000000 0.764102
#
# Coordination Sequence:
#
# PCOD9355579 Si02
#       4
#     8   8   8   8
#     4  11  23  49  70 100 145 185 242 304 360 431
#     4  11  25  46  71 102 146 189 234 306 368 425
#     4  11  25  45  66 105 146 185 241 299 360 439
#     4  11  26  45  71 104 141 192 246 300 358 438
#
# _framework density 21.523893999999999
#
# number of rings (size 3 to 8) (size 9 to 14) (size 15 to 20)
#    0.000    1.000    7.500    0.000    7.000    3.000 
#    0.000    0.000    0.000    0.000    0.000    0.000 
#    0.000    0.000    0.000    0.000    0.000    0.000 
#
# Total GULP energy -89304.691113 kJ/mol
# GULP energy per Si atom -5581.543195 kJ/mol
# Density = 2.147490 g / cm^3
# Si number density = 21.523894 Si / 1000 Ang^3
#
#
#
# Elastic Constant Matrix: (Units=GPa)
#
#
# Indices 1 2 3 4 5 6 
#
# 1 77.7904 97.7383 15.2044 0.0000 0.0000 0.0000
# 2 97.7383 231.9713 41.3241 0.0000 0.0000 0.0000
# 3 15.2044 41.3241 93.6107 0.0000 0.0000 0.0000
# 4 0.0000 0.0000 0.0000 31.2655 0.0000 0.0000
# 5 0.0000 0.0000 0.0000 0.0000 24.9773 0.0000
# 6 0.0000 0.0000 0.0000 0.0000 0.0000 62.6802
#
#
#
# Elastic Compliance Matrix: (Units=1/GPa)
#
#
# Indices 1 2 3 4 5 6 
#
# 1 0.027357 -0.011651 0.000700 0.000000 0.000000 0.000000
# 2 -0.011651 0.009641 -0.002364 0.000000 0.000000 0.000000
# 3 0.000700 -0.002364 0.011612 0.000000 0.000000 0.000000
# 4 0.000000 0.000000 0.000000 0.031984 0.000000 0.000000
# 5 0.000000 0.000000 0.000000 0.000000 0.040036 0.000000
# 6 0.000000 0.000000 0.000000 0.000000 0.000000 0.015954
#
#
# Mechanical properties :
#
#
# Convention : Reuss Voigt Hill
#
# Bulk Modulus (GPa) = 45.49419 79.10066 62.29742
# Shear Modulus (GPa) = 29.31826 40.39166 34.85496
#
# Velocity S-wave (km/s) = 3.69470 4.33667 4.02849
# Velocity P-wave (km/s) = 6.27563 7.86801 7.11650
#
# Compressibility (1/GPa) = 0.02198083
#
# Stress axis : x y z
#
# Youngs Moduli (GPa) = 36.55312 103.72240 86.11607
#
# Poissons Ratio (x) = 1.20851 -0.06028
# Poissons Ratio (y) = 0.42590 0.20354
# Poissons Ratio (z) = -0.02559 0.24516
#
# Static dielectric constant tensor:
#      x y z
#    x 1.766130 0.000000 0.000000 
#    y 0.000000 1.817780 0.000000 
#    z 0.000000 0.000000 1.832820 
# 
# From -- ./inp_files/10141.got.cif
#   From: 2010.05.17/outbox.cif.g08.bks.cpg/sg37_6_cif.got.tgz:10141.got - 2010.06.03 17:53:42.
