data_PCOD9355611
_publ_section_title
;
Structure prediction by ZEFSAII (Michael W. Deem and Ramdas Pophale) SiO2 
 PCOD9355611
Probable space group: C C C 2
;
_chemical_formula_sum "Si O2"
_cell_formula_units_Z 32
_cell_length_a 13.014918
_cell_length_b 5.695627
_cell_length_c 19.035911
_cell_angle_alpha 90.000000
_cell_angle_beta 90.000000
_cell_angle_gamma 90.000000
_cell_volume 1411.096264
_symmetry_space_group_name_H-M "C C C 2"
_symmetry_group_IT_number 37
_symmetry_cell_setting 'orthorhombic'
loop_
_space_group_symop_operation_xyz
x,y,z
-x,-y,z
-x,y,1/2+z
x,-y,1/2+z
1/2+x,1/2+y,z
1/2-x,1/2-y,z
1/2-x,1/2+y,1/2+z
1/2+x,1/2-y,1/2+z
loop_
_atom_site_type_symbol
_atom_site_label
_atom_site_fract_x
_atom_site_fract_y
_atom_site_fract_z
Si Si1 0.867617 0.270669 0.354280
Si Si2 0.857617 0.384566 0.723652
Si Si3 0.000000 0.000000 0.255766
Si Si4 0.000000 0.500000 0.467636
Si Si5 0.690905 0.008845 0.071367
O O1 0.750000 0.250000 0.379821
O O2 0.871523 0.479228 0.296697
O O3 0.952620 0.307965 0.413915
O O4 0.904521 0.056648 0.306437
O O5 0.750000 0.250000 0.728814
O O6 0.843909 0.530543 0.652544
O O7 0.955372 0.215076 0.712361
O O8 0.095754 0.470942 0.518871
O O9 0.750000 0.250000 0.055685
O O10 0.750000 0.750000 0.064619
#
# Coordination Sequence:
#
# PCOD9355611 Si02
#       5
#     8   8   4   4   8
#     4  12  25  45  72 112 146 194 252 313 375 446
#     4  11  24  45  76 108 146 197 252 324 367 443
#     4  12  24  42  78 108 148 192 252 310 386 442
#     4  12  28  46  76 106 154 208 246 310 386 470
#     4  11  29  52  75 111 154 201 256 315 380 455
#
# _framework density 22.677403999999999
#
# number of rings (size 3 to 8) (size 9 to 14) (size 15 to 20)
#    0.000    0.500    5.000    1.500    7.000    6.000 
#    0.000    0.000    0.000    0.000    0.000    0.000 
#    0.000    0.000    0.000    0.000    0.000    0.000 
#
# Total GULP energy -89267.973971 kJ/mol
# GULP energy per Si atom -5579.248373 kJ/mol
# Density = 2.262579 g / cm^3
# Si number density = 22.677404 Si / 1000 Ang^3
#
#
#
# Elastic Constant Matrix: (Units=GPa)
#
#
# Indices 1 2 3 4 5 6 
#
# 1 148.2170 60.1757 49.7348 0.0000 0.0000 0.0000
# 2 60.1757 97.2476 30.9647 0.0000 0.0000 0.0000
# 3 49.7348 30.9647 108.0133 0.0000 0.0000 0.0000
# 4 0.0000 0.0000 0.0000 81.6934 0.0000 0.0000
# 5 0.0000 0.0000 0.0000 0.0000 48.9449 0.0000
# 6 0.0000 0.0000 0.0000 0.0000 0.0000 43.2412
#
#
#
# Elastic Compliance Matrix: (Units=1/GPa)
#
#
# Indices 1 2 3 4 5 6 
#
# 1 0.009856 -0.005121 -0.003070 0.000000 0.000000 0.000000
# 2 -0.005121 0.013977 -0.001649 0.000000 0.000000 0.000000
# 3 -0.003070 -0.001649 0.011144 0.000000 0.000000 0.000000
# 4 0.000000 0.000000 0.000000 0.012241 0.000000 0.000000
# 5 0.000000 0.000000 0.000000 0.000000 0.020431 0.000000
# 6 0.000000 0.000000 0.000000 0.000000 0.000000 0.023126
#
#
# Mechanical properties :
#
#
# Convention : Reuss Voigt Hill
#
# Bulk Modulus (GPa) = 65.37132 70.58091 67.97611
# Shear Modulus (GPa) = 43.26917 48.94942 46.10930
#
# Velocity S-wave (km/s) = 4.37284 4.65102 4.51407
# Velocity P-wave (km/s) = 7.37461 7.74817 7.56369
#
# Compressibility (1/GPa) = 0.01529723
#
# Stress axis : x y z
#
# Youngs Moduli (GPa) = 101.45735 71.54568 89.73085
#
# Poissons Ratio (x) = 0.36642 0.27549
# Poissons Ratio (y) = 0.51961 0.14794
# Poissons Ratio (z) = 0.31149 0.11796
#
# Static dielectric constant tensor:
#      x y z
#    x 1.872140 0.000000 0.000000 
#    y 0.000000 1.909830 0.000000 
#    z 0.000000 0.000000 1.794770 
# 
# From -- ./inp_files/13595.got.cif
#   From: 2010.05.17/outbox.cif.g08.bks.cpg/sg37_7_cif.got.tgz:13595.got - 2010.06.03 17:53:42.
