data_PCOD9355979
_publ_section_title
;
Structure prediction by ZEFSAII (Michael W. Deem and Ramdas Pophale) SiO2 
 PCOD9355979
Probable space group: A M M 2
;
_chemical_formula_sum "Si O2"
_cell_formula_units_Z 56
_cell_length_a 7.673154
_cell_length_b 14.221282
_cell_length_c 30.539012
_cell_angle_alpha 90.000000
_cell_angle_beta 90.000000
_cell_angle_gamma 90.000000
_cell_volume 3332.480720
_symmetry_space_group_name_H-M "A M M 2"
_symmetry_group_IT_number 38
_symmetry_cell_setting 'orthorhombic'
loop_
_space_group_symop_operation_xyz
x,y,z
-x,-y,z
-x,y,z
x,-y,z
x,1/2+y,1/2+z
-x,1/2-y,1/2+z
-x,1/2+y,1/2+z
x,1/2-y,1/2+z
loop_
_atom_site_type_symbol
_atom_site_label
_atom_site_fract_x
_atom_site_fract_y
_atom_site_fract_z
Si Si1 0.789770 0.394657 0.860770
Si Si2 0.287290 0.110201 0.994036
Si Si3 0.706276 0.203909 0.905446
Si Si4 0.792109 0.892491 0.184832
Si Si5 0.709468 0.391122 0.589605
Si Si6 0.794709 0.604519 0.315647
Si Si7 0.213765 0.292002 0.772055
O O1 0.726461 0.500000 0.869997
O O2 0.738082 0.313015 0.894449
O O3 0.734628 0.359512 0.812418
O O4 0.000000 0.396829 0.860329
O O5 0.500000 0.112521 0.993995
O O6 0.225744 0.169012 0.952313
O O7 0.238930 0.000000 0.989521
O O8 0.230752 0.145781 0.042225
O O9 0.500000 0.187590 0.904921
O O10 0.779777 0.143218 0.865157
O O11 0.760997 0.850337 0.136544
O O12 0.726155 0.831987 0.225641
O O13 0.000000 0.899084 0.190205
O O14 0.722176 0.000000 0.186214
O O15 0.500000 0.391509 0.588754
O O16 0.769831 0.500000 0.590783
O O17 0.718862 0.500000 0.311657
O O18 0.724020 0.687524 0.284740
O O19 0.000000 0.598031 0.305931
O O20 0.000000 0.290382 0.771946
#
# Coordination Sequence:
#
# PCOD9355979 Si02
#       7
#     8   8   8   8   8   8   8
#     4   9  17  30  45  59  80 111 141 166 195 235
#     4   8  14  25  40  57  79 108 136 159 191 239
#     4  10  18  27  42  63  84 106 135 169 203 239
#     4   9  15  23  37  57  79 101 127 161 198 234
#     4   8  14  25  39  54  75 103 131 157 189 234
#     4   9  17  29  43  59  81 109 140 170 198 235
#     4   8  14  25  41  59  78 104 136 162 191 235
#
# _framework density 16.804299
#
# number of rings (size 3 to 8) (size 9 to 14) (size 15 to 20)
#    0.000    3.286    0.000    3.000    0.000    2.857 
#    0.000    4.286    0.000    6.857    0.000    1.000 
#    0.000    3.429    0.000    0.000    0.000    0.000 
#
# Total GULP energy -155883.259811 kJ/mol
# GULP energy per Si atom -5567.259279 kJ/mol
# Density = 1.676605 g / cm^3
# Si number density = 16.804299 Si / 1000 Ang^3
#
#
#
# Elastic Constant Matrix: (Units=GPa)
#
#
# Indices 1 2 3 4 5 6 
#
# 1 26.5227 0.1221 -0.0049 0.0000 0.0000 0.0000
# 2 0.1221 101.4391 71.7925 0.0000 0.0000 0.0000
# 3 -0.0049 71.7925 169.5073 0.0000 0.0000 0.0000
# 4 0.0000 0.0000 0.0000 24.6710 0.0000 0.0000
# 5 0.0000 0.0000 0.0000 0.0000 18.1938 0.0000
# 6 0.0000 0.0000 0.0000 0.0000 0.0000 8.7517
#
#
#
# Elastic Compliance Matrix: (Units=1/GPa)
#
#
# Indices 1 2 3 4 5 6 
#
# 1 0.037704 -0.000066 0.000029 0.000000 0.000000 0.000000
# 2 -0.000066 0.014078 -0.005963 0.000000 0.000000 0.000000
# 3 0.000029 -0.005963 0.008425 0.000000 0.000000 0.000000
# 4 0.000000 0.000000 0.000000 0.040533 0.000000 0.000000
# 5 0.000000 0.000000 0.000000 0.000000 0.054964 0.000000
# 6 0.000000 0.000000 0.000000 0.000000 0.000000 0.114264
#
#
# Mechanical properties :
#
#
# Convention : Reuss Voigt Hill
#
# Bulk Modulus (GPa) = 20.74350 49.03207 34.88778
# Shear Modulus (GPa) = 16.77646 25.36058 21.06852
#
# Velocity S-wave (km/s) = 3.16309 3.88902 3.54469
# Velocity P-wave (km/s) = 5.07061 7.02905 6.12857
#
# Compressibility (1/GPa) = 0.04820787
#
# Stress axis : x y z
#
# Youngs Moduli (GPa) = 26.52246 71.03176 118.69655
#
# Poissons Ratio (x) = 0.00468 -0.00344
# Poissons Ratio (y) = 0.00175 0.70774
# Poissons Ratio (z) = -0.00077 0.42354
#
# Static dielectric constant tensor:
#      x y z
#    x 1.628250 0.000000 0.000000 
#    y 0.000000 1.565000 0.000000 
#    z 0.000000 0.000000 1.589740 
# 
# From -- ./inp_files/24627.got.cif
#   From: 2010.05.17/outbox.cif.g08.bks.cpg/sg38_13_cif.got.tgz:24627.got - 2010.06.03 18:07:57.
