data_PCOD9355557
_publ_section_title
;
Structure prediction by ZEFSAII (Michael W. Deem and Ramdas Pophale) SiO2 
 PCOD9355557
Probable space group: C C C 2
;
_chemical_formula_sum "Si O2"
_cell_formula_units_Z 36
_cell_length_a 14.620029
_cell_length_b 10.296449
_cell_length_c 9.936208
_cell_angle_alpha 90.000000
_cell_angle_beta 90.000000
_cell_angle_gamma 90.000000
_cell_volume 1495.740940
_symmetry_space_group_name_H-M "C C C 2"
_symmetry_group_IT_number 37
_symmetry_cell_setting 'orthorhombic'
loop_
_space_group_symop_operation_xyz
x,y,z
-x,-y,z
-x,y,1/2+z
x,-y,1/2+z
1/2+x,1/2+y,z
1/2-x,1/2-y,z
1/2-x,1/2+y,1/2+z
1/2+x,1/2-y,1/2+z
loop_
_atom_site_type_symbol
_atom_site_label
_atom_site_fract_x
_atom_site_fract_y
_atom_site_fract_z
Si Si1 0.925657 0.889996 0.883880
Si Si2 0.950477 0.613614 0.014021
Si Si3 0.777530 0.462610 0.381187
Si Si4 0.250000 0.250000 0.420887
Si Si5 0.886367 0.711685 0.661904
O O1 0.823244 0.923215 0.927536
O O2 0.913272 0.848023 0.728956
O O3 0.952974 0.755525 0.951874
O O4 0.000000 0.000000 0.903384
O O5 0.000000 0.500000 0.929822
O O6 0.020214 0.632433 0.137510
O O7 0.846580 0.563832 0.006295
O O8 0.764674 0.614529 0.343032
O O9 0.819628 0.371699 0.262022
O O10 0.164363 0.254650 0.523524
#
# Coordination Sequence:
#
# PCOD9355557 Si02
#       5
#     8   8   8   4   8
#     4  11  25  47  74 107 147 193 247 312 374 447
#     4  11  23  44  71 104 141 194 240 302 371 448
#     4  11  25  47  73 107 152 193 247 315 370 452
#     4  12  22  46  74 104 148 200 246 306 380 438
#     4  11  23  46  70 105 150 194 247 312 373 448
#
# _framework density 24.068339000000002
#
# number of rings (size 3 to 8) (size 9 to 14) (size 15 to 20)
#    0.000    0.889    4.444    3.333    0.000    6.222 
#    0.000    0.000    0.000    0.000    0.000    0.000 
#    0.000    0.000    0.000    0.000    0.000    0.000 
#
# Total GULP energy -100444.330674 kJ/mol
# GULP energy per Si atom -5580.240593 kJ/mol
# Density = 2.401356 g / cm^3
# Si number density = 24.068339 Si / 1000 Ang^3
#
#
#
# Elastic Constant Matrix: (Units=GPa)
#
#
# Indices 1 2 3 4 5 6 
#
# 1 219.1989 89.7617 35.5588 0.0000 0.0000 0.0000
# 2 89.7617 200.8419 16.8040 0.0000 0.0000 0.0000
# 3 35.5588 16.8040 33.4872 0.0000 0.0000 0.0000
# 4 0.0000 0.0000 0.0000 24.9118 0.0000 0.0000
# 5 0.0000 0.0000 0.0000 0.0000 21.6468 0.0000
# 6 0.0000 0.0000 0.0000 0.0000 0.0000 43.7962
#
#
#
# Elastic Compliance Matrix: (Units=1/GPa)
#
#
# Indices 1 2 3 4 5 6 
#
# 1 0.006470 -0.002418 -0.005657 0.000000 0.000000 0.000000
# 2 -0.002418 0.006101 -0.000494 0.000000 0.000000 0.000000
# 3 -0.005657 -0.000494 0.036117 0.000000 0.000000 0.000000
# 4 0.000000 0.000000 0.000000 0.040142 0.000000 0.000000
# 5 0.000000 0.000000 0.000000 0.000000 0.046196 0.000000
# 6 0.000000 0.000000 0.000000 0.000000 0.000000 0.022833
#
#
# Mechanical properties :
#
#
# Convention : Reuss Voigt Hill
#
# Bulk Modulus (GPa) = 31.69544 81.97521 56.83532
# Shear Modulus (GPa) = 26.95232 38.83120 32.89176
#
# Velocity S-wave (km/s) = 3.35001 4.02104 3.70076
# Velocity P-wave (km/s) = 5.30669 7.46268 6.47505
#
# Compressibility (1/GPa) = 0.03155028
#
# Stress axis : x y z
#
# Youngs Moduli (GPa) = 154.55893 163.90315 27.68814
#
# Poissons Ratio (x) = 0.39637 0.15662
# Poissons Ratio (y) = 0.37378 0.01367
# Poissons Ratio (z) = 0.87430 0.08091
#
# Static dielectric constant tensor:
#      x y z
#    x 1.974760 0.000000 0.000000 
#    y 0.000000 1.825990 0.000000 
#    z 0.000000 0.000000 1.985480 
# 
# From -- ./inp_files/7631.got.cif
#   From: 2010.05.17/outbox.cif.g08.bks.cpg/sg37_4_cif.got.tgz:7631.got - 2010.06.03 17:53:42.
