data_PCOD9355183
_publ_section_title
;
Structure prediction by ZEFSAII (Michael W. Deem and Ramdas Pophale) SiO2 
 PCOD9355183
Probable space group: C C C 2
;
_chemical_formula_sum "Si O2"
_cell_formula_units_Z 48
_cell_length_a 8.526820
_cell_length_b 20.072181
_cell_length_c 13.042777
_cell_angle_alpha 90.000000
_cell_angle_beta 90.000000
_cell_angle_gamma 90.000000
_cell_volume 2232.295731
_symmetry_space_group_name_H-M "C C C 2"
_symmetry_group_IT_number 37
_symmetry_cell_setting 'orthorhombic'
loop_
_space_group_symop_operation_xyz
x,y,z
-x,-y,z
-x,y,1/2+z
x,-y,1/2+z
1/2+x,1/2+y,z
1/2-x,1/2-y,z
1/2-x,1/2+y,1/2+z
1/2+x,1/2-y,1/2+z
loop_
_atom_site_type_symbol
_atom_site_label
_atom_site_fract_x
_atom_site_fract_y
_atom_site_fract_z
Si Si1 0.231049 0.616085 0.688750
Si Si2 0.250000 0.750000 0.356621
Si Si3 0.679318 0.520279 0.575922
Si Si4 0.907840 0.438606 0.891484
Si Si5 0.407042 0.653735 0.194090
Si Si6 0.462903 0.828077 0.506898
Si Si7 0.250000 0.250000 0.545710
O O1 0.248813 0.543489 0.634619
O O2 0.156725 0.605693 0.799611
O O3 0.407794 0.642719 0.705183
O O4 0.123211 0.662766 0.615934
O O5 0.317642 0.688566 0.289230
O O6 0.380995 0.776769 0.432303
O O7 0.500000 0.500000 0.549169
O O8 0.776230 0.538887 0.473863
O O9 0.667761 0.584576 0.652215
O O10 0.000000 0.500000 0.842614
O O11 0.039553 0.400090 0.955668
O O12 0.380684 0.710269 0.109000
O O13 0.645620 0.808081 0.499856
#
# Coordination Sequence:
#
# PCOD9355183 Si02
#       7
#     8   4   8   8   8   8   4
#     4  11  27  45  73 104 143 187 242 303 362 427
#     4  11  28  46  75 106 150 197 240 292 357 434
#     4  10  23  47  72 103 144 185 233 305 363 422
#     4  12  27  43  73 105 140 186 238 298 369 433
#     4  10  24  46  73 105 141 188 240 292 352 433
#     4  12  27  47  71 102 146 191 239 299 354 432
#     4  11  24  44  71  96 146 191 234 292 345 428
#
# _framework density 21.502527000000001
#
# number of rings (size 3 to 8) (size 9 to 14) (size 15 to 20)
#    0.000    1.000    3.333    1.000   11.667    4.667 
#    0.000    0.000    0.000    0.000    0.000    0.000 
#    0.000    0.000    0.000    0.000    0.000    0.000 
#
# Total GULP energy -133944.110942 kJ/mol
# GULP energy per Si atom -5581.004623 kJ/mol
# Density = 2.145359 g / cm^3
# Si number density = 21.502527 Si / 1000 Ang^3
#
#
#
# Elastic Constant Matrix: (Units=GPa)
#
#
# Indices 1 2 3 4 5 6 
#
# 1 82.2175 27.5029 55.6018 0.0000 0.0000 0.0000
# 2 27.5029 81.8525 27.7908 0.0000 0.0000 0.0000
# 3 55.6018 27.7908 122.6842 0.0000 0.0000 0.0000
# 4 0.0000 0.0000 0.0000 15.3838 0.0000 0.0000
# 5 0.0000 0.0000 0.0000 0.0000 49.7164 0.0000
# 6 0.0000 0.0000 0.0000 0.0000 0.0000 45.3268
#
#
#
# Elastic Compliance Matrix: (Units=1/GPa)
#
#
# Indices 1 2 3 4 5 6 
#
# 1 0.018492 -0.003649 -0.007554 0.000000 0.000000 0.000000
# 2 -0.003649 0.013955 -0.001508 0.000000 0.000000 0.000000
# 3 -0.007554 -0.001508 0.011916 0.000000 0.000000 0.000000
# 4 0.000000 0.000000 0.000000 0.065003 0.000000 0.000000
# 5 0.000000 0.000000 0.000000 0.000000 0.020114 0.000000
# 6 0.000000 0.000000 0.000000 0.000000 0.000000 0.022062
#
#
# Mechanical properties :
#
#
# Convention : Reuss Voigt Hill
#
# Bulk Modulus (GPa) = 52.79183 56.50503 54.64843
# Shear Modulus (GPa) = 27.28095 33.80930 30.54512
#
# Velocity S-wave (km/s) = 3.56579 3.96958 3.77309
# Velocity P-wave (km/s) = 6.44654 6.88080 6.66721
#
# Compressibility (1/GPa) = 0.01894232
#
# Stress axis : x y z
#
# Youngs Moduli (GPa) = 54.07674 71.65948 83.91916
#
# Poissons Ratio (x) = 0.26146 0.63396
# Poissons Ratio (y) = 0.19730 0.12651
# Poissons Ratio (z) = 0.40852 0.10803
#
# Static dielectric constant tensor:
#      x y z
#    x 1.744210 0.000000 0.000000 
#    y 0.000000 1.825100 0.000000 
#    z 0.000000 0.000000 1.749680 
# 
# From -- ./inp_files/10648.got.cif
#   From: 2010.05.17/outbox.cif.g08.bks.cpg/sg37_6_cif.got.tgz:10648.got - 2010.06.03 17:53:42.
