data_PCOD9355690
_publ_section_title
;
Structure prediction by ZEFSAII (Michael W. Deem and Ramdas Pophale) SiO2 
 PCOD9355690
Probable space group: C C C 2
;
_chemical_formula_sum "Si O2"
_cell_formula_units_Z 56
_cell_length_a 28.911423
_cell_length_b 6.185783
_cell_length_c 14.128190
_cell_angle_alpha 90.000000
_cell_angle_beta 90.000000
_cell_angle_gamma 90.000000
_cell_volume 2526.682517
_symmetry_space_group_name_H-M "C C C 2"
_symmetry_group_IT_number 37
_symmetry_cell_setting 'orthorhombic'
loop_
_space_group_symop_operation_xyz
x,y,z
-x,-y,z
-x,y,1/2+z
x,-y,1/2+z
1/2+x,1/2+y,z
1/2-x,1/2-y,z
1/2-x,1/2+y,1/2+z
1/2+x,1/2-y,1/2+z
loop_
_atom_site_type_symbol
_atom_site_label
_atom_site_fract_x
_atom_site_fract_y
_atom_site_fract_z
Si Si1 0.119989 0.858869 0.507230
Si Si2 0.209096 0.597304 0.139730
Si Si3 0.101292 0.496148 0.372894
Si Si4 0.036798 0.850646 0.086423
Si Si5 0.183826 0.784899 0.951791
Si Si6 0.500000 0.000000 0.953919
Si Si7 0.389894 0.977404 0.160963
Si Si8 0.750000 0.250000 0.778030
O O1 0.116068 0.736994 0.406229
O O2 0.117880 0.665469 0.584197
O O3 0.076372 0.010920 0.532985
O O4 0.167231 0.997338 0.504918
O O5 0.250000 0.750000 0.172913
O O6 0.156704 0.664933 0.161317
O O7 0.219612 0.389165 0.203633
O O8 0.209359 0.618162 0.024646
O O9 0.135748 0.334538 0.426532
O O10 0.105716 0.433174 0.264904
O O11 0.047671 0.489643 0.398723
O O12 0.065850 0.669298 0.140690
O O13 0.003581 0.715061 0.016993
O O14 0.000000 0.000000 0.141824
O O15 0.212380 0.834793 0.856137
#
# Coordination Sequence:
#
# PCOD9355690 Si02
#       8
#     8   8   8   8   8   4   8   4
#     4  12  24  46  79  98 152 200 235 319 374 440
#     4  12  27  47  75 109 148 200 255 314 385 461
#     4  12  26  46  74 110 152 193 250 308 374 457
#     4  12  23  45  75 107 146 202 246 302 375 444
#     4  12  26  49  75 114 151 205 251 313 398 448
#     4  12  22  46  72 108 150 192 256 300 368 456
#     4  12  27  48  74 112 150 192 255 316 374 454
#     4  12  30  48  76 114 158 194 270 318 380 474
#
# _framework density 22.163447000000001
#
# number of rings (size 3 to 8) (size 9 to 14) (size 15 to 20)
#    0.000    0.000    9.286    0.000    4.000    2.857 
#    3.857    0.000    0.000    0.000    0.000    0.000 
#    0.000    0.000    0.000    0.000    0.000    0.000 
#
# Total GULP energy -156111.863897 kJ/mol
# GULP energy per Si atom -5575.423711 kJ/mol
# Density = 2.211300 g / cm^3
# Si number density = 22.163447 Si / 1000 Ang^3
#
#
#
# Elastic Constant Matrix: (Units=GPa)
#
#
# Indices 1 2 3 4 5 6 
#
# 1 128.2682 30.6641 39.5236 0.0000 0.0000 0.0000
# 2 30.6641 68.7243 36.9658 0.0000 0.0000 0.0000
# 3 39.5236 36.9658 107.3696 0.0000 0.0000 0.0000
# 4 0.0000 0.0000 0.0000 -386.7246 0.0000 0.0000
# 5 0.0000 0.0000 0.0000 0.0000 -16.7715 0.0000
# 6 0.0000 0.0000 0.0000 0.0000 0.0000 34.6706
#
#
#
# Elastic Compliance Matrix: (Units=1/GPa)
#
#
# Indices 1 2 3 4 5 6 
#
# 1 0.009215 -0.002807 -0.002426 0.000000 0.000000 0.000000
# 2 -0.002807 0.018713 -0.005409 0.000000 0.000000 0.000000
# 3 -0.002426 -0.005409 0.012069 0.000000 0.000000 0.000000
# 4 0.000000 0.000000 0.000000 -0.002586 0.000000 0.000000
# 5 0.000000 0.000000 0.000000 0.000000 -0.059625 0.000000
# 6 0.000000 0.000000 0.000000 0.000000 0.000000 0.028843
#
#
# Mechanical properties :
#
#
# Convention : Reuss Voigt Hill
#
# Bulk Modulus (GPa) = 53.43935 57.62990 55.53463
# Shear Modulus (GPa) = 146.41517 -60.61786 42.89865
#
# Velocity S-wave (km/s) = 8.13664 -5.23543 4.40427
# Velocity P-wave (km/s) = 10.60364 3.23847 7.13966
#
# Compressibility (1/GPa) = 0.01871280
#
# Stress axis : x y z
#
# Youngs Moduli (GPa) = 108.52379 53.43919 82.85760
#
# Poissons Ratio (x) = 0.14999 0.20098
# Poissons Ratio (y) = 0.30460 0.44821
# Poissons Ratio (z) = 0.26324 0.28907
#
# Static dielectric constant tensor:
#      x y z
#    x 1.904550 0.000000 0.000000 
#    y 0.000000 3.064800 0.000000 
#    z 0.000000 0.000000 1.820040 
# 
# From -- ./inp_files/13398.got.cif
#   From: 2010.05.17/outbox.cif.g08.bks.cpg/sg37_7_cif.got.tgz:13398.got - 2010.06.03 17:53:42.
