data_PCOD9355839
_publ_section_title
;
Structure prediction by ZEFSAII (Michael W. Deem and Ramdas Pophale) SiO2 
 PCOD9355839
Probable space group: A M M 2
;
_chemical_formula_sum "Si O2"
_cell_formula_units_Z 64
_cell_length_a 7.452487
_cell_length_b 31.420896
_cell_length_c 15.257023
_cell_angle_alpha 90.000000
_cell_angle_beta 90.000000
_cell_angle_gamma 90.000000
_cell_volume 3572.642772
_symmetry_space_group_name_H-M "A M M 2"
_symmetry_group_IT_number 38
_symmetry_cell_setting 'orthorhombic'
loop_
_space_group_symop_operation_xyz
x,y,z
-x,-y,z
-x,y,z
x,-y,z
x,1/2+y,1/2+z
-x,1/2-y,1/2+z
-x,1/2+y,1/2+z
x,1/2-y,1/2+z
loop_
_atom_site_type_symbol
_atom_site_label
_atom_site_fract_x
_atom_site_fract_y
_atom_site_fract_z
Si Si1 0.780499 0.707630 0.349590
Si Si2 0.284913 0.451909 0.555810
Si Si3 0.219501 0.707630 0.960334
Si Si4 0.786741 0.633844 0.475487
Si Si5 0.781884 0.727045 0.154962
Si Si6 0.781034 0.325859 0.654963
Si Si7 0.786741 0.133844 0.334438
Si Si8 0.715087 0.048091 0.254114
O O1 0.727253 0.750000 0.404962
O O2 0.720505 0.664500 0.398327
O O3 0.721285 0.708873 0.248474
O O4 0.000000 0.708746 0.348632
O O5 0.500000 0.453257 0.560559
O O6 0.222073 0.500000 0.537142
O O7 0.240670 0.416574 0.483617
O O8 0.219698 0.440312 0.654962
O O9 0.279495 0.664500 0.911598
O O10 0.000000 0.708746 0.961293
O O11 0.278715 0.708873 0.061450
O O12 0.714824 0.652047 0.567197
O O13 0.000000 0.640309 0.475696
O O14 0.733758 0.776643 0.154962
O O15 0.000000 0.724345 0.154962
O O16 0.714824 0.347953 0.742728
O O17 0.000000 0.328139 0.654963
O O18 0.759330 0.083426 0.326307
O O19 0.000000 0.140309 0.334229
O O20 0.500000 0.046743 0.249365
O O21 0.777928 0.000000 0.272782
#
# Coordination Sequence:
#
# PCOD9355839 Si02
#       8
#     8   8   8   8   8   8   8   8
#     4   9  15  22  35  58  87 115 142 171 203 241
#     4   9  18  31  44  59  82 111 139 167 206 258
#     4   9  15  22  35  58  87 115 142 171 203 241
#     4  10  17  25  40  64  87 110 141 174 205 238
#     4   9  14  22  34  54  87 120 144 169 201 238
#     4   9  14  20  34  58  87 111 135 168 201 232
#     4  10  17  25  40  64  87 110 141 174 205 238
#     4   9  18  31  44  59  82 111 139 167 206 258
#
# _framework density 17.913910999999999
#
# number of rings (size 3 to 8) (size 9 to 14) (size 15 to 20)
#    0.000    2.750    3.750    0.750    0.000    0.500 
#    0.000    1.250    0.000    0.750    0.000    1.750 
#    0.000    7.000    0.000    0.000    0.000    0.000 
#
# Total GULP energy -178331.461792 kJ/mol
# GULP energy per Si atom -5572.858181 kJ/mol
# Density = 1.787314 g / cm^3
# Si number density = 17.913911 Si / 1000 Ang^3
#
#
#
# Elastic Constant Matrix: (Units=GPa)
#
#
# Indices 1 2 3 4 5 6 
#
# 1 51.8035 -1.8026 5.2037 0.0000 0.0000 0.0000
# 2 -1.8026 140.5757 83.8747 0.0000 0.0000 0.0000
# 3 5.2037 83.8747 138.2129 0.0000 0.0000 0.0000
# 4 0.0000 0.0000 0.0000 25.8215 0.0000 0.0000
# 5 0.0000 0.0000 0.0000 0.0000 0.0066 0.0000
# 6 0.0000 0.0000 0.0000 0.0000 0.0000 28.4958
#
#
#
# Elastic Compliance Matrix: (Units=1/GPa)
#
#
# Indices 1 2 3 4 5 6 
#
# 1 0.019481 0.001078 -0.001387 0.000000 0.000000 0.000000
# 2 0.001078 0.011211 -0.006844 0.000000 0.000000 0.000000
# 3 -0.001387 -0.006844 0.011441 0.000000 0.000000 0.000000
# 4 0.000000 0.000000 0.000000 0.038727 0.000000 0.000000
# 5 0.000000 0.000000 0.000000 0.000000151.462023 0.000000
# 6 0.000000 0.000000 0.000000 0.000000 0.000000 0.035093
#
#
# Mechanical properties :
#
#
# Convention : Reuss Voigt Hill
#
# Bulk Modulus (GPa) = 35.93926 56.12710 46.03318
# Shear Modulus (GPa) = 0.03298 27.08586 13.55942
#
# Velocity S-wave (km/s) = 0.13583 3.89266 2.75420
# Velocity P-wave (km/s) = 4.48669 7.18355 5.98890
#
# Compressibility (1/GPa) = 0.02782473
#
# Stress axis : x y z
#
# Youngs Moduli (GPa) = 51.33315 89.19939 87.40747
#
# Poissons Ratio (x) = -0.09612 0.12127
# Poissons Ratio (y) = -0.05532 0.59821
# Poissons Ratio (z) = 0.07122 0.61047
#
# Static dielectric constant tensor:
#      x y z
#    x 1.683390 0.000000 0.000000 
#    y 0.000000 1.639040 0.000000 
#    z 0.000000 0.000000 1.611570 
# 
# From -- ./inp_files/13127.got.cif
#   From: 2010.05.17/outbox.cif.g08.bks.cpg/sg38_7_cif.got.tgz:13127.got - 2010.06.03 18:07:57.
