data_PCOD9355640
_publ_section_title
;
Structure prediction by ZEFSAII (Michael W. Deem and Ramdas Pophale) SiO2 
 PCOD9355640
Probable space group: C C C 2
;
_chemical_formula_sum "Si O2"
_cell_formula_units_Z 48
_cell_length_a 12.580438
_cell_length_b 6.883809
_cell_length_c 19.908385
_cell_angle_alpha 90.000000
_cell_angle_beta 90.000000
_cell_angle_gamma 90.000000
_cell_volume 1724.092666
_symmetry_space_group_name_H-M "C C C 2"
_symmetry_group_IT_number 37
_symmetry_cell_setting 'orthorhombic'
loop_
_space_group_symop_operation_xyz
x,y,z
-x,-y,z
-x,y,1/2+z
x,-y,1/2+z
1/2+x,1/2+y,z
1/2-x,1/2-y,z
1/2-x,1/2+y,1/2+z
1/2+x,1/2-y,1/2+z
loop_
_atom_site_type_symbol
_atom_site_label
_atom_site_fract_x
_atom_site_fract_y
_atom_site_fract_z
Si Si1 0.583818 0.270706 0.208880
Si Si2 0.596006 0.637305 0.855715
Si Si3 0.000000 0.000000 0.094706
Si Si4 0.000000 0.500000 0.918577
Si Si5 0.327374 0.381070 0.997383
Si Si6 0.149649 0.599720 0.666978
Si Si7 0.166620 0.616465 0.025249
O O1 0.607647 0.387010 0.276665
O O2 0.588534 0.411311 0.144855
O O3 0.459611 0.199639 0.194601
O O4 0.660153 0.083847 0.216113
O O5 0.500000 0.500000 0.873950
O O6 0.564425 0.858223 0.870339
O O7 0.671807 0.586530 0.916848
O O8 0.932625 0.867708 0.044370
O O9 0.922973 0.376844 0.967065
O O10 0.303911 0.627733 0.022619
O O11 0.305000 0.129869 0.005969
O O12 0.250000 0.750000 0.660516
O O13 0.132622 0.459431 0.600417
#
# Coordination Sequence:
#
# PCOD9355640 Si02
#       7
#     8   8   4   4   8   8   8
#     4  11  25  49  76 110 158 212 265 331 415 490
#     4  12  26  51  78 112 159 214 270 324 408 496
#     4  12  24  46  86 112 154 208 264 340 404 482
#     4  12  26  46  76 110 164 214 260 342 408 474
#     4  12  25  46  75 112 155 197 263 332 396 475
#     4  11  25  46  74 112 158 204 266 339 405 491
#     4  12  25  44  76 119 152 205 273 336 409 482
#
# _framework density 27.840731000000002
#
# number of rings (size 3 to 8) (size 9 to 14) (size 15 to 20)
#    0.000    0.333    3.333    6.500    2.333    0.000 
#    3.000    1.667    3.667    0.000    0.000    0.000 
#    0.000    0.000    0.000    0.000    0.000    0.000 
#
# Total GULP energy -133637.719348 kJ/mol
# GULP energy per Si atom -5568.238306 kJ/mol
# Density = 2.777736 g / cm^3
# Si number density = 27.840731 Si / 1000 Ang^3
#
#
#
# Elastic Constant Matrix: (Units=GPa)
#
#
# Indices 1 2 3 4 5 6 
#
# 1 100.7600 60.5450 83.8919 0.0000 0.0000 0.0000
# 2 60.5450 164.0492 39.7441 0.0000 0.0000 0.0000
# 3 83.8919 39.7441 186.8564 0.0000 0.0000 0.0000
# 4 0.0000 0.0000 0.0000 61.1830 0.0000 0.0000
# 5 0.0000 0.0000 0.0000 0.0000 53.0849 0.0000
# 6 0.0000 0.0000 0.0000 0.0000 0.0000 97.9621
#
#
#
# Elastic Compliance Matrix: (Units=1/GPa)
#
#
# Indices 1 2 3 4 5 6 
#
# 1 0.019464 -0.005342 -0.007603 0.000000 0.000000 0.000000
# 2 -0.005342 0.007893 0.000719 0.000000 0.000000 0.000000
# 3 -0.007603 0.000719 0.008612 0.000000 0.000000 0.000000
# 4 0.000000 0.000000 0.000000 0.016344 0.000000 0.000000
# 5 0.000000 0.000000 0.000000 0.000000 0.018838 0.000000
# 6 0.000000 0.000000 0.000000 0.000000 0.000000 0.010208
#
#
# Mechanical properties :
#
#
# Convention : Reuss Voigt Hill
#
# Bulk Modulus (GPa) = 86.81041 91.11418 88.96229
# Shear Modulus (GPa) = 45.60028 60.27830 52.93929
#
# Velocity S-wave (km/s) = 4.05149 4.65812 4.36536
# Velocity P-wave (km/s) = 7.28936 7.85677 7.57838
#
# Compressibility (1/GPa) = 0.01151936
#
# Stress axis : x y z
#
# Youngs Moduli (GPa) = 51.37663 126.69657 116.11777
#
# Poissons Ratio (x) = 0.67677 0.88279
# Poissons Ratio (y) = 0.27444 -0.08354
# Poissons Ratio (z) = 0.39059 -0.09115
#
# Static dielectric constant tensor:
#      x y z
#    x 1.767930 0.000000 0.000000 
#    y 0.000000 2.580280 0.000000 
#    z 0.000000 0.000000 2.041770 
# 
# From -- ./inp_files/15240.got.cif
#   From: 2010.05.17/outbox.cif.g08.bks.cpg/sg37_8_cif.got.tgz:15240.got - 2010.06.03 17:53:42.
