data_PCOD9355694
_publ_section_title
;
Structure prediction by ZEFSAII (Michael W. Deem and Ramdas Pophale) SiO2 
 PCOD9355694
Probable space group: C C C 2
;
_chemical_formula_sum "Si O2"
_cell_formula_units_Z 48
_cell_length_a 6.281566
_cell_length_b 13.184918
_cell_length_c 27.675853
_cell_angle_alpha 90.000000
_cell_angle_beta 90.000000
_cell_angle_gamma 90.000000
_cell_volume 2292.167632
_symmetry_space_group_name_H-M "C C C 2"
_symmetry_group_IT_number 37
_symmetry_cell_setting 'orthorhombic'
loop_
_space_group_symop_operation_xyz
x,y,z
-x,-y,z
-x,y,1/2+z
x,-y,1/2+z
1/2+x,1/2+y,z
1/2-x,1/2-y,z
1/2-x,1/2+y,1/2+z
1/2+x,1/2-y,1/2+z
loop_
_atom_site_type_symbol
_atom_site_label
_atom_site_fract_x
_atom_site_fract_y
_atom_site_fract_z
Si Si1 0.750000 0.250000 0.467080
Si Si2 0.750000 0.250000 0.220762
Si Si3 0.115704 0.396964 0.641993
Si Si4 0.109730 0.393620 0.043208
Si Si5 0.500000 0.500000 0.589708
Si Si6 0.114248 0.606862 0.393415
Si Si7 0.568907 0.386805 0.303929
Si Si8 0.250000 0.750000 0.863796
O O1 0.910080 0.304363 0.504639
O O2 0.716665 0.347502 0.431869
O O3 0.889030 0.317144 0.184521
O O4 0.627156 0.325182 0.256349
O O5 0.348887 0.431059 0.623492
O O6 0.000000 0.500000 0.657776
O O7 0.996531 0.361174 0.593603
O O8 0.349433 0.428666 0.056801
O O9 0.000000 0.500000 0.027731
O O10 0.232313 0.608749 0.341580
O O11 0.000000 0.500000 0.402755
O O12 0.924312 0.688360 0.393541
O O13 0.500000 0.500000 0.292446
O O14 0.378448 0.329416 0.331072
#
# Coordination Sequence:
#
# PCOD9355694 Si02
#       8
#     4   4   8   8   4   8   8   4
#     4  12  23  42  67 106 132 175 235 270 340 406
#     4  12  25  42  69 108 130 177 237 266 344 406
#     4   9  22  43  65  95 137 175 221 280 327 396
#     4   9  21  44  63  93 136 175 220 283 326 394
#     4   8  18  44  66  86 128 186 218 272 340 382
#     4  12  25  46  71  99 140 174 230 285 339 414
#     4  12  26  46  70 100 137 178 227 284 342 409
#     4  12  22  48  70  90 132 184 212 280 352 390
#
# _framework density 20.940878000000001
#
# number of rings (size 3 to 8) (size 9 to 14) (size 15 to 20)
#    0.000    1.667    5.000    0.500    3.500    2.000 
#   13.500    0.000    0.000    0.000    0.000    0.000 
#    0.000    0.000    0.000    0.000    0.000    0.000 
#
# Total GULP energy -133894.132400 kJ/mol
# GULP energy per Si atom -5578.922183 kJ/mol
# Density = 2.089322 g / cm^3
# Si number density = 20.940878 Si / 1000 Ang^3
#
#
#
# Elastic Constant Matrix: (Units=GPa)
#
#
# Indices 1 2 3 4 5 6 
#
# 1 91.2017 45.6054 30.7014 0.0000 0.0000 0.0000
# 2 45.6054 155.6283 76.2326 0.0000 0.0000 0.0000
# 3 30.7014 76.2326 133.4045 0.0000 0.0000 0.0000
# 4 0.0000 0.0000 0.0000 53.5806 0.0000 0.0000
# 5 0.0000 0.0000 0.0000 0.0000 2.1956 0.0000
# 6 0.0000 0.0000 0.0000 0.0000 0.0000 32.3777
#
#
#
# Elastic Compliance Matrix: (Units=1/GPa)
#
#
# Indices 1 2 3 4 5 6 
#
# 1 0.012969 -0.003247 -0.001129 0.000000 0.000000 0.000000
# 2 -0.003247 0.009736 -0.004816 0.000000 0.000000 0.000000
# 3 -0.001129 -0.004816 0.010508 0.000000 0.000000 0.000000
# 4 0.000000 0.000000 0.000000 0.018663 0.000000 0.000000
# 5 0.000000 0.000000 0.000000 0.000000 0.455448 0.000000
# 6 0.000000 0.000000 0.000000 0.000000 0.000000 0.030885
#
#
# Mechanical properties :
#
#
# Convention : Reuss Voigt Hill
#
# Bulk Modulus (GPa) = 67.44119 76.14595 71.79357
# Shear Modulus (GPa) = 8.90412 32.81046 20.85729
#
# Velocity S-wave (km/s) = 2.06428 3.96259 3.15938
# Velocity P-wave (km/s) = 6.16093 7.57479 6.90415
#
# Compressibility (1/GPa) = 0.01482773
#
# Stress axis : x y z
#
# Youngs Moduli (GPa) = 77.10958 102.70685 95.16450
#
# Poissons Ratio (x) = 0.33352 0.10743
# Poissons Ratio (y) = 0.25040 0.45836
# Poissons Ratio (z) = 0.08705 0.49468
#
# Static dielectric constant tensor:
#      x y z
#    x 1.784090 0.000000 0.000000 
#    y 0.000000 1.742400 0.000000 
#    z 0.000000 0.000000 1.757580 
# 
# From -- ./inp_files/19456.got.cif
#   From: 2010.05.17/outbox.cif.g08.bks.cpg/sg37_10_cif.got.tgz:19456.got - 2010.06.03 17:53:42.
