data_PCOD9355918
_publ_section_title
;
Structure prediction by ZEFSAII (Michael W. Deem and Ramdas Pophale) SiO2 
 PCOD9355918
Probable space group: A M M 2
;
_chemical_formula_sum "Si O2"
_cell_formula_units_Z 58
_cell_length_a 7.401511
_cell_length_b 16.127001
_cell_length_c 19.726941
_cell_angle_alpha 90.000000
_cell_angle_beta 90.000000
_cell_angle_gamma 90.000000
_cell_volume 2354.690044
_symmetry_space_group_name_H-M "A M M 2"
_symmetry_group_IT_number 38
_symmetry_cell_setting 'orthorhombic'
loop_
_space_group_symop_operation_xyz
x,y,z
-x,-y,z
-x,y,z
x,-y,z
x,1/2+y,1/2+z
-x,1/2-y,1/2+z
-x,1/2+y,1/2+z
x,1/2-y,1/2+z
loop_
_atom_site_type_symbol
_atom_site_label
_atom_site_fract_x
_atom_site_fract_y
_atom_site_fract_z
Si Si1 0.801088 0.617700 0.707360
Si Si2 0.718208 0.908203 0.418538
Si Si3 0.718034 0.197215 0.693529
Si Si4 0.281998 0.906068 0.047175
Si Si5 0.500000 0.500000 0.762444
Si Si6 0.720601 0.222232 0.932058
Si Si7 0.280530 0.408333 0.319114
Si Si8 0.718349 0.088746 0.578345
O O1 0.790031 0.715578 0.716469
O O2 0.764189 0.602276 0.626867
O O3 0.655660 0.571669 0.752343
O O4 0.000000 0.589409 0.723815
O O5 0.500000 0.910676 0.406316
O O6 0.780662 0.813690 0.405951
O O7 0.755159 0.909639 0.499276
O O8 0.781399 0.000000 0.393215
O O9 0.500000 0.205817 0.692473
O O10 0.767235 0.125328 0.745563
O O11 0.781912 0.167233 0.620114
O O12 0.500000 0.906331 0.042750
O O13 0.223015 0.826746 0.001536
O O14 0.223383 0.000000 0.025104
O O15 0.500000 0.229352 0.937042
O O16 0.773999 0.157397 0.874795
O O17 0.500000 0.410569 0.321639
O O18 0.213905 0.500000 0.332496
O O19 0.500000 0.089311 0.584034
O O20 0.781003 0.000000 0.606029
#
# Coordination Sequence:
#
# PCOD9355918 Si02
#       8
#     8   8   8   8   2   8   8   8
#     4  12  23  37  60  87 119 157 196 241 298 364
#     4   8  13  21  34  56  92 132 180 239 297 355
#     4  10  18  31  51  75 112 147 193 244 300 357
#     4  10  17  30  50  78 114 150 188 239 297 351
#     4  12  22  44  60  86 118 156 194 244 300 356
#     4   9  16  25  44  72 108 153 203 247 297 350
#     4   9  17  29  47  75 108 152 207 256 299 352
#     4   8  13  22  41  71 100 139 187 239 300 357
#
# _framework density 24.631689999999999
#
# number of rings (size 3 to 8) (size 9 to 14) (size 15 to 20)
#    0.000    2.483    2.069    2.690    0.000    5.517 
#    0.000    0.000    1.517    2.483    0.000    0.000 
#    0.000    0.000    0.000    0.000    0.000    0.000 
#
# Total GULP energy -161694.684741 kJ/mol
# GULP energy per Si atom -5575.678784 kJ/mol
# Density = 2.457563 g / cm^3
# Si number density = 24.631690 Si / 1000 Ang^3
#
#
#
# Elastic Constant Matrix: (Units=GPa)
#
#
# Indices 1 2 3 4 5 6 
#
# 1 94.5273 21.3989 7.5116 0.0000 0.0000 0.0000
# 2 21.3989 237.8664 30.9690 0.0000 0.0000 0.0000
# 3 7.5116 30.9690 48.5256 0.0000 0.0000 0.0000
# 4 0.0000 0.0000 0.0000 39.7474 0.0000 0.0000
# 5 0.0000 0.0000 0.0000 0.0000 -223.9727 0.0000
# 6 0.0000 0.0000 0.0000 0.0000 0.0000 -278.1218
#
#
#
# Elastic Compliance Matrix: (Units=1/GPa)
#
#
# Indices 1 2 3 4 5 6 
#
# 1 0.010858 -0.000827 -0.001153 0.000000 0.000000 0.000000
# 2 -0.000827 0.004648 -0.002838 0.000000 0.000000 0.000000
# 3 -0.001153 -0.002838 0.022598 0.000000 0.000000 0.000000
# 4 0.000000 0.000000 0.000000 0.025159 0.000000 0.000000
# 5 0.000000 0.000000 0.000000 0.000000 -0.004465 0.000000
# 6 0.000000 0.000000 0.000000 0.000000 0.000000 -0.003596
#
#
# Mechanical properties :
#
#
# Convention : Reuss Voigt Hill
#
# Bulk Modulus (GPa) = 35.12848 55.63095 45.37971
# Shear Modulus (GPa) = 67.27019 -71.06677 -1.89829
#
# Velocity S-wave (km/s) = 5.23161 -5.37721 -0.87883
# Velocity P-wave (km/s) = 7.12639 3.98979 4.17535
#
# Compressibility (1/GPa) = 0.02846693
#
# Stress axis : x y z
#
# Youngs Moduli (GPa) = 92.10033 215.14882 44.25244
#
# Poissons Ratio (x) = 0.17785 0.05103
# Poissons Ratio (y) = 0.07613 0.12560
# Poissons Ratio (z) = 0.10621 0.61067
#
# Static dielectric constant tensor:
#      x y z
#    x 1.945700 0.000000 0.000000 
#    y 0.000000 1.938390 0.000000 
#    z 0.000000 0.000000 1.971160 
# 
# From -- ./inp_files/23626.got.cif
#   From: 2010.05.17/outbox.cif.g08.bks.cpg/sg38_12_cif.got.tgz:23626.got - 2010.06.03 18:07:57.
