data_PCOD9355418
_publ_section_title
;
Structure prediction by ZEFSAII (Michael W. Deem and Ramdas Pophale) SiO2 
 PCOD9355418
Probable space group: C C C 2
;
_chemical_formula_sum "Si O2"
_cell_formula_units_Z 40
_cell_length_a 8.660005
_cell_length_b 11.195933
_cell_length_c 17.760769
_cell_angle_alpha 90.000000
_cell_angle_beta 90.000000
_cell_angle_gamma 90.000000
_cell_volume 1722.027963
_symmetry_space_group_name_H-M "C C C 2"
_symmetry_group_IT_number 37
_symmetry_cell_setting 'orthorhombic'
loop_
_space_group_symop_operation_xyz
x,y,z
-x,-y,z
-x,y,1/2+z
x,-y,1/2+z
1/2+x,1/2+y,z
1/2-x,1/2-y,z
1/2-x,1/2+y,1/2+z
1/2+x,1/2-y,1/2+z
loop_
_atom_site_type_symbol
_atom_site_label
_atom_site_fract_x
_atom_site_fract_y
_atom_site_fract_z
Si Si1 0.029333 0.665786 0.646280
Si Si2 0.314724 0.118839 0.936429
Si Si3 0.142406 0.067113 0.145881
Si Si4 0.293317 0.886544 0.259064
Si Si5 0.656617 0.131638 0.995838
O O1 0.072421 0.802493 0.660032
O O2 0.184984 0.601008 0.617944
O O3 0.964375 0.613873 0.723612
O O4 0.899237 0.647558 0.582450
O O5 0.250000 0.250000 0.960059
O O6 0.283896 0.100291 0.848152
O O7 0.497364 0.129562 0.949925
O O8 0.263109 0.995228 0.977129
O O9 0.184986 0.981659 0.216448
O O10 0.000000 0.000000 0.104427
O O11 0.250000 0.750000 0.240456
O O12 0.750000 0.250000 0.975812
#
# Coordination Sequence:
#
# PCOD9355418 Si02
#       5
#     8   8   8   8   8
#     4  11  26  44  74 104 141 190 245 312 368 440
#     4  10  27  48  70 104 151 197 246 301 368 453
#     4  11  25  42  72 110 139 180 245 312 379 430
#     4  11  23  47  71 105 148 188 238 311 377 438
#     4  11  27  48  72 106 148 201 247 300 379 447
#
# _framework density 23.228427
#
# number of rings (size 3 to 8) (size 9 to 14) (size 15 to 20)
#    0.000    1.200    2.000    1.200   14.000    2.400 
#    0.000    0.000    0.000    0.000    0.000    0.000 
#    0.000    0.000    0.000    0.000    0.000    0.000 
#
# Total GULP energy -111656.565830 kJ/mol
# GULP energy per Si atom -5582.828292 kJ/mol
# Density = 2.317556 g / cm^3
# Si number density = 23.228427 Si / 1000 Ang^3
#
#
#
# Elastic Constant Matrix: (Units=GPa)
#
#
# Indices 1 2 3 4 5 6 
#
# 1 87.8963 64.7634 12.6954 0.0000 0.0000 0.0000
# 2 64.7634 268.4564 69.0825 0.0000 0.0000 0.0000
# 3 12.6954 69.0825 78.6871 0.0000 0.0000 0.0000
# 4 0.0000 0.0000 0.0000 28.7262 0.0000 0.0000
# 5 0.0000 0.0000 0.0000 0.0000 22.0497 0.0000
# 6 0.0000 0.0000 0.0000 0.0000 0.0000 57.5132
#
#
#
# Elastic Compliance Matrix: (Units=1/GPa)
#
#
# Indices 1 2 3 4 5 6 
#
# 1 0.013886 -0.003583 0.000905 0.000000 0.000000 0.000000
# 2 -0.003583 0.005737 -0.004458 0.000000 0.000000 0.000000
# 3 0.000905 -0.004458 0.016477 0.000000 0.000000 0.000000
# 4 0.000000 0.000000 0.000000 0.034811 0.000000 0.000000
# 5 0.000000 0.000000 0.000000 0.000000 0.045352 0.000000
# 6 0.000000 0.000000 0.000000 0.000000 0.000000 0.017387
#
#
# Mechanical properties :
#
#
# Convention : Reuss Voigt Hill
#
# Bulk Modulus (GPa) = 45.81403 80.90249 63.35826
# Shear Modulus (GPa) = 32.21685 40.89107 36.55396
#
# Velocity S-wave (km/s) = 3.72823 4.20025 3.97126
# Velocity P-wave (km/s) = 6.18862 7.64379 6.95437
#
# Compressibility (1/GPa) = 0.02182737
#
# Stress axis : x y z
#
# Youngs Moduli (GPa) = 72.01372 174.31850 60.69188
#
# Poissons Ratio (x) = 0.62456 -0.05494
# Poissons Ratio (y) = 0.25802 0.27059
# Poissons Ratio (z) = -0.06518 0.77717
#
# Static dielectric constant tensor:
#      x y z
#    x 1.953480 0.000000 0.000000 
#    y 0.000000 1.930000 0.000000 
#    z 0.000000 0.000000 1.892090 
# 
# From -- ./inp_files/14233.got.cif
#   From: 2010.05.17/outbox.cif.g08.bks.cpg/sg37_8_cif.got.tgz:14233.got - 2010.06.03 17:53:42.
