data_PCOD9355452
_publ_section_title
;
Structure prediction by ZEFSAII (Michael W. Deem and Ramdas Pophale) SiO2 
 PCOD9355452
Probable space group: C C C 2
;
_chemical_formula_sum "Si O2"
_cell_formula_units_Z 64
_cell_length_a 13.978930
_cell_length_b 13.749359
_cell_length_c 17.193733
_cell_angle_alpha 90.000000
_cell_angle_beta 90.000000
_cell_angle_gamma 90.000000
_cell_volume 3304.658299
_symmetry_space_group_name_H-M "C C C 2"
_symmetry_group_IT_number 37
_symmetry_cell_setting 'orthorhombic'
loop_
_space_group_symop_operation_xyz
x,y,z
-x,-y,z
-x,y,1/2+z
x,-y,1/2+z
1/2+x,1/2+y,z
1/2-x,1/2-y,z
1/2-x,1/2+y,1/2+z
1/2+x,1/2-y,1/2+z
loop_
_atom_site_type_symbol
_atom_site_label
_atom_site_fract_x
_atom_site_fract_y
_atom_site_fract_z
Si Si1 0.844937 0.189052 0.193760
Si Si2 0.583100 0.924062 0.224007
Si Si3 0.421391 0.584560 0.878534
Si Si4 0.661688 0.175437 0.424286
Si Si5 0.360811 0.776954 0.590705
Si Si6 0.748510 0.529669 0.804981
Si Si7 0.492913 0.767485 0.312287
Si Si8 0.022628 0.114188 0.556407
O O1 0.750000 0.250000 0.174850
O O2 0.814758 0.104895 0.254598
O O3 0.918973 0.256100 0.241311
O O4 0.898316 0.148314 0.118488
O O5 0.597817 0.840406 0.160387
O O6 0.549551 0.866399 0.300786
O O7 0.500000 0.000000 0.202358
O O8 0.681705 0.976534 0.244755
O O9 0.500000 0.500000 0.866052
O O10 0.320144 0.539443 0.855014
O O11 0.441738 0.673406 0.820453
O O12 0.436009 0.617786 0.968152
O O13 0.750000 0.250000 0.421362
O O14 0.643201 0.155287 0.513978
O O15 0.687849 0.088527 0.367053
O O16 0.570591 0.228658 0.389045
O O17 0.250000 0.750000 0.607586
O O18 0.428857 0.683681 0.570255
O O19 0.000000 0.000000 0.570327
#
# Coordination Sequence:
#
# PCOD9355452 Si02
#       8
#     8   8   8   8   8   8   8   8
#     4  12  23  42  70  94 129 177 224 265 326 398
#     4  12  27  46  65  99 140 177 226 276 334 406
#     4  11  24  43  70 101 134 168 222 283 333 392
#     4  11  20  43  71  95 127 179 227 265 329 406
#     4  11  27  45  68  96 140 181 220 278 342 403
#     4  12  25  41  71 102 127 177 228 278 327 398
#     4  12  21  43  70  95 129 179 223 270 325 396
#     4  11  27  45  66 101 135 173 223 282 337 394
#
# _framework density 19.366600999999999
#
# number of rings (size 3 to 8) (size 9 to 14) (size 15 to 20)
#    0.000    0.500    7.500    0.000   10.500    0.000 
#    4.500    0.000    0.000    0.000    0.000    0.000 
#    0.000    0.000    0.000    0.000    0.000    0.000 
#
# Total GULP energy -178743.663254 kJ/mol
# GULP energy per Si atom -5585.739477 kJ/mol
# Density = 1.932252 g / cm^3
# Si number density = 19.366601 Si / 1000 Ang^3
#
#
#
# Elastic Constant Matrix: (Units=GPa)
#
#
# Indices 1 2 3 4 5 6 
#
# 1 90.3912 48.1842 44.1198 0.0000 0.0000 0.0000
# 2 48.1842 72.3671 22.9486 0.0000 0.0000 0.0000
# 3 44.1198 22.9486 67.4369 0.0000 0.0000 0.0000
# 4 0.0000 0.0000 0.0000 16.1751 0.0000 0.0000
# 5 0.0000 0.0000 0.0000 0.0000 36.1113 0.0000
# 6 0.0000 0.0000 0.0000 0.0000 0.0000 25.0137
#
#
#
# Elastic Compliance Matrix: (Units=1/GPa)
#
#
# Indices 1 2 3 4 5 6 
#
# 1 0.022480 -0.011551 -0.010777 0.000000 0.000000 0.000000
# 2 -0.011551 0.021425 0.000266 0.000000 0.000000 0.000000
# 3 -0.010777 0.000266 0.021789 0.000000 0.000000 0.000000
# 4 0.000000 0.000000 0.000000 0.061823 0.000000 0.000000
# 5 0.000000 0.000000 0.000000 0.000000 0.027692 0.000000
# 6 0.000000 0.000000 0.000000 0.000000 0.000000 0.039978
#
#
# Mechanical properties :
#
#
# Convention : Reuss Voigt Hill
#
# Bulk Modulus (GPa) = 46.35834 51.18893 48.77364
# Shear Modulus (GPa) = 20.28389 23.12287 21.70338
#
# Velocity S-wave (km/s) = 3.23981 3.45912 3.35126
# Velocity P-wave (km/s) = 6.16315 6.51482 6.34142
#
# Compressibility (1/GPa) = 0.02157109
#
# Stress axis : x y z
#
# Youngs Moduli (GPa) = 44.48308 46.67485 45.89510
#
# Poissons Ratio (x) = 0.53912 0.49461
# Poissons Ratio (y) = 0.51381 -0.01221
# Poissons Ratio (z) = 0.47939 -0.01242
#
# Static dielectric constant tensor:
#      x y z
#    x 1.675550 0.000000 0.000000 
#    y 0.000000 1.670980 0.000000 
#    z 0.000000 0.000000 1.666750 
# 
# From -- ./inp_files/15300.got.cif
#   From: 2010.05.17/outbox.cif.g08.bks.cpg/sg37_8_cif.got.tgz:15300.got - 2010.06.03 17:53:42.
