data_PCOD9355519
_publ_section_title
;
Structure prediction by ZEFSAII (Michael W. Deem and Ramdas Pophale) SiO2 
 PCOD9355519
Probable space group: C C C 2
;
_chemical_formula_sum "Si O2"
_cell_formula_units_Z 40
_cell_length_a 23.742361
_cell_length_b 5.218924
_cell_length_c 12.635158
_cell_angle_alpha 90.000000
_cell_angle_beta 90.000000
_cell_angle_gamma 90.000000
_cell_volume 1565.617091
_symmetry_space_group_name_H-M "C C C 2"
_symmetry_group_IT_number 37
_symmetry_cell_setting 'orthorhombic'
loop_
_space_group_symop_operation_xyz
x,y,z
-x,-y,z
-x,y,1/2+z
x,-y,1/2+z
1/2+x,1/2+y,z
1/2-x,1/2-y,z
1/2-x,1/2+y,1/2+z
1/2+x,1/2-y,1/2+z
loop_
_atom_site_type_symbol
_atom_site_label
_atom_site_fract_x
_atom_site_fract_y
_atom_site_fract_z
Si Si1 0.194816 0.430204 0.510540
Si Si2 0.535744 0.756220 0.029000
Si Si3 0.691589 0.260284 0.724715
Si Si4 0.881488 0.118547 0.137115
Si Si5 0.383476 0.080891 0.845792
O O1 0.250000 0.250000 0.498445
O O2 0.198152 0.586500 0.620507
O O3 0.136853 0.266120 0.531345
O O4 0.174213 0.628182 0.417496
O O5 0.500000 0.500000 0.003376
O O6 0.566488 0.866209 0.926072
O O7 0.500000 0.000000 0.071987
O O8 0.581880 0.628849 0.107124
O O9 0.750000 0.250000 0.783745
O O10 0.679158 0.538034 0.682224
O O11 0.638922 0.185788 0.797014
O O12 0.902619 0.275321 0.237709
#
# Coordination Sequence:
#
# PCOD9355519 Si02
#       5
#     8   8   8   8   8
#     4  11  22  45  74 115 164 212 259 323 408 492
#     4  12  29  55  81 113 158 216 276 345 412 464
#     4  11  23  45  74 113 161 206 255 320 407 492
#     4  11  26  48  76 112 161 202 262 342 404 485
#     4  11  27  46  76 114 151 205 272 330 393 491
#
# _framework density 25.549032
#
# number of rings (size 3 to 8) (size 9 to 14) (size 15 to 20)
#    0.000    0.800    4.000    1.800    8.400    0.800 
#    7.200    0.000    0.000    0.000    0.000    0.000 
#    0.000    0.000    0.000    0.000    0.000    0.000 
#
# Total GULP energy -111383.913756 kJ/mol
# GULP energy per Si atom -5569.195688 kJ/mol
# Density = 2.549088 g / cm^3
# Si number density = 25.549032 Si / 1000 Ang^3
#
#
#
# Elastic Constant Matrix: (Units=GPa)
#
#
# Indices 1 2 3 4 5 6 
#
# 1 113.0156 42.3971 44.0703 0.0000 0.0000 0.0000
# 2 42.3971 95.3367 31.5599 0.0000 0.0000 0.0000
# 3 44.0703 31.5599 156.5268 0.0000 0.0000 0.0000
# 4 0.0000 0.0000 0.0000 -5.7492 0.0000 0.0000
# 5 0.0000 0.0000 0.0000 0.0000 21.7511 0.0000
# 6 0.0000 0.0000 0.0000 0.0000 0.0000 63.8763
#
#
#
# Elastic Compliance Matrix: (Units=1/GPa)
#
#
# Indices 1 2 3 4 5 6 
#
# 1 0.011365 -0.004281 -0.002337 0.000000 0.000000 0.000000
# 2 -0.004281 0.012852 -0.001386 0.000000 0.000000 0.000000
# 3 -0.002337 -0.001386 0.007326 0.000000 0.000000 0.000000
# 4 0.000000 0.000000 0.000000 -0.173937 0.000000 0.000000
# 5 0.000000 0.000000 0.000000 0.000000 0.045975 0.000000
# 6 0.000000 0.000000 0.000000 0.000000 0.000000 0.015655
#
#
# Mechanical properties :
#
#
# Convention : Reuss Voigt Hill
#
# Bulk Modulus (GPa) = 64.36650 66.77043 65.56846
# Shear Modulus (GPa) = -83.92342 32.43242 -25.74550
#
# Velocity S-wave (km/s) = -5.73753 3.56676 -3.17786
# Velocity P-wave (km/s) = 4.31791 6.56912 3.50064
#
# Compressibility (1/GPa) = 0.01553603
#
# Stress axis : x y z
#
# Youngs Moduli (GPa) = 87.98564 77.81109 136.49866
#
# Poissons Ratio (x) = 0.33309 0.31898
# Poissons Ratio (y) = 0.37665 0.18918
# Poissons Ratio (z) = 0.20561 0.10784
#
# Static dielectric constant tensor:
#      x y z
#    x 2.108110 0.000000 0.000000 
#    y 0.000000 2.173140 0.000000 
#    z 0.000000 0.000000 2.146680 
# 
# From -- ./inp_files/8979.got.cif
#   From: 2010.05.17/outbox.cif.g08.bks.cpg/sg37_5_cif.got.tgz:8979.got - 2010.06.03 17:53:42.
