data_PCOD9355857
_publ_section_title
;
Structure prediction by ZEFSAII (Michael W. Deem and Ramdas Pophale) SiO2 
 PCOD9355857
Probable space group: A M M 2
;
_chemical_formula_sum "Si O2"
_cell_formula_units_Z 64
_cell_length_a 20.375740
_cell_length_b 8.115289
_cell_length_c 21.075482
_cell_angle_alpha 90.000000
_cell_angle_beta 90.000000
_cell_angle_gamma 90.000000
_cell_volume 3484.936720
_symmetry_space_group_name_H-M "A M M 2"
_symmetry_group_IT_number 38
_symmetry_cell_setting 'orthorhombic'
loop_
_space_group_symop_operation_xyz
x,y,z
-x,-y,z
-x,y,z
x,-y,z
x,1/2+y,1/2+z
-x,1/2-y,1/2+z
-x,1/2+y,1/2+z
x,1/2-y,1/2+z
loop_
_atom_site_type_symbol
_atom_site_label
_atom_site_fract_x
_atom_site_fract_y
_atom_site_fract_z
Si Si1 0.428737 0.307372 0.793900
Si Si2 0.923902 0.300531 0.862246
Si Si3 0.150278 0.798569 0.490320
Si Si4 0.287488 0.304634 0.301521
Si Si5 0.709592 0.804652 0.448195
Si Si6 0.156120 0.696149 0.239724
Si Si7 0.923954 0.797938 0.617792
Si Si8 0.429257 0.805717 0.937903
O O1 0.500000 0.239789 0.772395
O O2 0.426558 0.500000 0.778481
O O3 0.360012 0.228312 0.774076
O O4 0.428629 0.287232 0.870478
O O5 0.920094 0.500000 0.858736
O O6 0.887631 0.248308 0.926581
O O7 0.888247 0.228269 0.801177
O O8 0.000000 0.253534 0.863854
O O9 0.225658 0.742440 0.484098
O O10 0.111455 0.746150 0.552845
O O11 0.151014 0.000000 0.490831
O O12 0.279634 0.500000 0.309057
O O13 0.282501 0.232190 0.372802
O O14 0.228591 0.239424 0.257596
O O15 0.639484 0.735160 0.470442
O O16 0.706739 0.000000 0.455465
O O17 0.162790 0.500000 0.230057
O O18 0.118609 0.760737 0.177833
O O19 0.000000 0.745569 0.621078
O O20 0.924704 0.000000 0.618479
O O21 0.500000 0.768626 0.969201
O O22 0.428178 0.000000 0.923150
#
# Coordination Sequence:
#
# PCOD9355857 Si02
#       8
#     8   8   8   8   8   8   8   8
#     4   9  16  25  39  61  89 121 155 190 228 269
#     4  10  19  31  49  71  94 120 152 192 238 287
#     4   9  17  29  46  70  94 120 156 196 237 277
#     4  10  18  27  41  64  94 125 154 186 229 280
#     4  10  17  26  43  66  92 120 152 193 234 272
#     4  10  20  32  48  71  96 124 157 194 237 282
#     4   9  17  31  50  69  92 122 158 199 237 279
#     4   9  16  25  38  59  90 125 155 184 223 273
#
# _framework density 18.364750999999998
#
# number of rings (size 3 to 8) (size 9 to 14) (size 15 to 20)
#    0.000    2.500    1.250    3.750    0.000    4.250 
#    0.000    0.000    0.000    2.250    0.000    0.875 
#    0.000    7.000    0.000    0.000    0.000    0.000 
#
# Total GULP energy -178308.756344 kJ/mol
# GULP energy per Si atom -5572.148636 kJ/mol
# Density = 1.832295 g / cm^3
# Si number density = 18.364751 Si / 1000 Ang^3
#
#
#
# Elastic Constant Matrix: (Units=GPa)
#
#
# Indices 1 2 3 4 5 6 
#
# 1 179.0848 -2.2953 45.4025 0.0000 0.0000 0.0000
# 2 -2.2953 8.8285 -8.1238 0.0000 0.0000 0.0000
# 3 45.4025 -8.1238 78.4132 0.0000 0.0000 0.0000
# 4 0.0000 0.0000 0.0000 10.6476 0.0000 0.0000
# 5 0.0000 0.0000 0.0000 0.0000 18.3272 0.0000
# 6 0.0000 0.0000 0.0000 0.0000 0.0000 17.3958
#
#
#
# Elastic Compliance Matrix: (Units=1/GPa)
#
#
# Indices 1 2 3 4 5 6 
#
# 1 0.006576 -0.001983 -0.004013 0.000000 0.000000 0.000000
# 2 -0.001983 0.125803 0.014182 0.000000 0.000000 0.000000
# 3 -0.004013 0.014182 0.016546 0.000000 0.000000 0.000000
# 4 0.000000 0.000000 0.000000 0.093918 0.000000 0.000000
# 5 0.000000 0.000000 0.000000 0.000000 0.054564 0.000000
# 6 0.000000 0.000000 0.000000 0.000000 0.000000 0.057485
#
#
# Mechanical properties :
#
#
# Convention : Reuss Voigt Hill
#
# Bulk Modulus (GPa) = 6.04976 37.36594 21.70785
# Shear Modulus (GPa) = 12.70264 24.69700 18.69982
#
# Velocity S-wave (km/s) = 2.63285 3.67114 3.19446
# Velocity P-wave (km/s) = 3.54173 6.19358 5.04501
#
# Compressibility (1/GPa) = 0.16529587
#
# Stress axis : x y z
#
# Youngs Moduli (GPa) = 152.06977 7.94894 60.43837
#
# Poissons Ratio (x) = 0.01576 0.24254
# Poissons Ratio (y) = 0.30155 -0.85711
# Poissons Ratio (z) = 0.61026 -0.11273
#
# Static dielectric constant tensor:
#      x y z
#    x 1.694040 0.000000 0.000000 
#    y 0.000000 1.393010 0.000000 
#    z 0.000000 0.000000 1.593430 
# 
# From -- ./inp_files/21534.got.cif
#   From: 2010.05.17/outbox.cif.g08.bks.cpg/sg38_11_cif.got.tgz:21534.got - 2010.06.03 18:07:57.
