data_PCOD9355796
_publ_section_title
;
Structure prediction by ZEFSAII (Michael W. Deem and Ramdas Pophale) SiO2 
 PCOD9355796
Probable space group: A M M 2
;
_chemical_formula_sum "Si O2"
_cell_formula_units_Z 60
_cell_length_a 25.837159
_cell_length_b 25.833755
_cell_length_c 5.383669
_cell_angle_alpha 90.000000
_cell_angle_beta 90.000000
_cell_angle_gamma 90.000000
_cell_volume 3593.442045
_symmetry_space_group_name_H-M "A M M 2"
_symmetry_group_IT_number 38
_symmetry_cell_setting 'orthorhombic'
loop_
_space_group_symop_operation_xyz
x,y,z
-x,-y,z
-x,y,z
x,-y,z
x,1/2+y,1/2+z
-x,1/2-y,1/2+z
-x,1/2+y,1/2+z
x,1/2-y,1/2+z
loop_
_atom_site_type_symbol
_atom_site_label
_atom_site_fract_x
_atom_site_fract_y
_atom_site_fract_z
Si Si1 0.702208 0.940796 0.199730
Si Si2 0.105710 0.810983 0.699709
Si Si3 0.500000 0.715506 0.199722
Si Si4 0.423292 0.559581 0.699718
Si Si5 0.223736 0.716064 0.199176
Si Si6 0.061625 0.307118 0.699709
Si Si7 0.577073 0.378596 0.199722
Si Si8 0.701944 0.620067 0.199737
O O1 0.639420 0.942016 0.199707
O O2 0.716967 0.911141 0.451112
O O3 0.720446 0.000000 0.199617
O O4 0.716973 0.911095 0.948483
O O5 0.167377 0.810858 0.699438
O O6 0.086807 0.750567 0.699818
O O7 0.081856 0.833545 0.449165
O O8 0.081934 0.833550 0.950411
O O9 0.500000 0.750000 0.449723
O O10 0.450939 0.676659 0.199720
O O11 0.440869 0.500000 0.699724
O O12 0.437990 0.589834 0.448594
O O13 0.437987 0.589835 0.950844
O O14 0.226544 0.750080 0.448932
O O15 0.269182 0.674440 0.199545
O O16 0.000000 0.301508 0.699484
O O17 0.639528 0.373422 0.199733
#
# Coordination Sequence:
#
# PCOD9355796 Si02
#       8
#     8   8   4   8   8   8   8   8
#     4   9  17  33  54  77 100 123 154 201 247 302
#     4  10  16  27  37  56  83 117 159 202 230 268
#     4  12  26  42  59  70  97 140 176 212 252 270
#     4   9  17  33  59  83 107 126 141 185 258 313
#     4  12  21  33  45  63  98 136 166 207 236 276
#     4  10  16  25  41  58  79 114 170 205 227 275
#     4  10  21  38  54  78 102 123 167 208 235 302
#     4  10  21  33  53  77  96 127 169 200 245 296
#
# _framework density 16.697082000000002
#
# number of rings (size 3 to 8) (size 9 to 14) (size 15 to 20)
#    0.000    1.867    2.667    4.400    0.000    4.267 
#    0.000    2.000    0.000    0.000    0.000    0.000 
#    0.000    0.000    0.000    0.000    0.000   77.333 
#
# Total GULP energy -167334.810287 kJ/mol
# GULP energy per Si atom -5577.827010 kJ/mol
# Density = 1.665908 g / cm^3
# Si number density = 16.697082 Si / 1000 Ang^3
#
#
#
# Elastic Constant Matrix: (Units=GPa)
#
#
# Indices 1 2 3 4 5 6 
#
# 1 77.2667 26.4792 32.9408 0.0000 0.0000 0.0000
# 2 26.4792 70.0033 54.5355 0.0000 0.0000 0.0000
# 3 32.9408 54.5355 192.0474 0.0000 0.0000 0.0000
# 4 0.0000 0.0000 0.0000 22.0784 0.0000 0.0000
# 5 0.0000 0.0000 0.0000 0.0000 31.2353 0.0000
# 6 0.0000 0.0000 0.0000 0.0000 0.0000 -6.9330
#
#
#
# Elastic Compliance Matrix: (Units=1/GPa)
#
#
# Indices 1 2 3 4 5 6 
#
# 1 0.015097 -0.004742 -0.001243 0.000000 0.000000 0.000000
# 2 -0.004742 0.019833 -0.004818 0.000000 0.000000 0.000000
# 3 -0.001243 -0.004818 0.006789 0.000000 0.000000 0.000000
# 4 0.000000 0.000000 0.000000 0.045293 0.000000 0.000000
# 5 0.000000 0.000000 0.000000 0.000000 0.032015 0.000000
# 6 0.000000 0.000000 0.000000 0.000000 0.000000 -0.144237
#
#
# Mechanical properties :
#
#
# Convention : Reuss Voigt Hill
#
# Bulk Modulus (GPa) = 49.72385 63.02536 56.37460
# Shear Modulus (GPa) = 1612.66924 24.30027 818.48475
#
# Velocity S-wave (km/s) = 31.11167 3.81906 22.16440
# Velocity P-wave (km/s) = 36.33766 7.56804 26.24596
#
# Compressibility (1/GPa) = 0.02011107
#
# Stress axis : x y z
#
# Youngs Moduli (GPa) = 66.23716 50.42197 147.30789
#
# Poissons Ratio (x) = 0.23912 0.18308
# Poissons Ratio (y) = 0.31412 0.70979
# Poissons Ratio (z) = 0.08232 0.24295
#
# Static dielectric constant tensor:
#      x y z
#    x 1.554390 0.000000 0.000000 
#    y 0.000000 1.510410 0.000000 
#    z 0.000000 0.000000 1.797110 
# 
# From -- ./inp_files/2135.got.cif
#   From: 2010.05.17/outbox.cif.g08.bks.cpg/sg38_2_cif.got.tgz:2135.got - 2010.06.03 18:07:57.
