data_PCOD9355079
_publ_section_title
;
Structure prediction by ZEFSAII (Michael W. Deem and Ramdas Pophale) SiO2 
 PCOD9355079
Probable space group: C C C 2
;
_chemical_formula_sum "Si O2"
_cell_formula_units_Z 36
_cell_length_a 7.746944
_cell_length_b 20.557701
_cell_length_c 9.284354
_cell_angle_alpha 90.000000
_cell_angle_beta 90.000000
_cell_angle_gamma 90.000000
_cell_volume 1478.620261
_symmetry_space_group_name_H-M "C C C 2"
_symmetry_group_IT_number 37
_symmetry_cell_setting 'orthorhombic'
loop_
_space_group_symop_operation_xyz
x,y,z
-x,-y,z
-x,y,1/2+z
x,-y,1/2+z
1/2+x,1/2+y,z
1/2-x,1/2-y,z
1/2-x,1/2+y,1/2+z
1/2+x,1/2-y,1/2+z
loop_
_atom_site_type_symbol
_atom_site_label
_atom_site_fract_x
_atom_site_fract_y
_atom_site_fract_z
Si Si1 0.267533 0.455802 0.435300
Si Si2 0.348253 0.600541 0.445332
Si Si3 0.250000 0.750000 0.941717
Si Si4 0.850938 0.356507 0.715541
Si Si5 0.732669 0.853499 0.654607
O O1 0.244366 0.532393 0.440243
O O2 0.461408 0.427302 0.407482
O O3 0.150256 0.420561 0.316745
O O4 0.248457 0.426495 0.595005
O O5 0.301126 0.632710 0.598749
O O6 0.291601 0.648205 0.318027
O O7 0.161464 0.701448 0.830095
O O8 0.168036 0.802246 0.053157
O O9 0.029356 0.342103 0.636141
#
# Coordination Sequence:
#
# PCOD9355079 Si02
#       5
#     8   8   4   8   8
#     4  10  23  41  63  99 135 162 206 260 320 392
#     4  11  22  40  68  96 129 172 207 253 325 389
#     4  10  26  44  58  88 128 160 214 268 310 366
#     4  11  24  42  66  94 127 169 216 266 318 374
#     4  11  24  42  66  94 127 169 216 266 318 374
#
# _framework density 24.347021999999999
#
# number of rings (size 3 to 8) (size 9 to 14) (size 15 to 20)
#    0.000    1.333    0.000    5.333    0.000   16.889 
#    0.000    0.000    0.000    0.000    0.000    0.000 
#    0.000    0.000    0.000    0.000    0.000    0.000 
#
# Total GULP energy -100419.066260 kJ/mol
# GULP energy per Si atom -5578.837014 kJ/mol
# Density = 2.429161 g / cm^3
# Si number density = 24.347022 Si / 1000 Ang^3
#
#
#
# Elastic Constant Matrix: (Units=GPa)
#
#
# Indices 1 2 3 4 5 6 
#
# 1 61.1164 20.1709 19.2838 0.0000 0.0000 0.0000
# 2 20.1709 85.7822 25.4516 0.0000 0.0000 0.0000
# 3 19.2838 25.4516 138.8783 0.0000 0.0000 0.0000
# 4 0.0000 0.0000 0.0000 36.1603 0.0000 0.0000
# 5 0.0000 0.0000 0.0000 0.0000 27.5270 0.0000
# 6 0.0000 0.0000 0.0000 0.0000 0.0000 4.5489
#
#
#
# Elastic Compliance Matrix: (Units=1/GPa)
#
#
# Indices 1 2 3 4 5 6 
#
# 1 0.018173 -0.003727 -0.001840 0.000000 0.000000 0.000000
# 2 -0.003727 0.013092 -0.001882 0.000000 0.000000 0.000000
# 3 -0.001840 -0.001882 0.007801 0.000000 0.000000 0.000000
# 4 0.000000 0.000000 0.000000 0.027655 0.000000 0.000000
# 5 0.000000 0.000000 0.000000 0.000000 0.036328 0.000000
# 6 0.000000 0.000000 0.000000 0.000000 0.000000 0.219835
#
#
# Mechanical properties :
#
#
# Convention : Reuss Voigt Hill
#
# Bulk Modulus (GPa) = 41.37789 46.17661 43.77725
# Shear Modulus (GPa) = 14.45763 28.37194 21.41478
#
# Velocity S-wave (km/s) = 2.43948 3.41737 2.96896
# Velocity P-wave (km/s) = 4.99667 5.88034 5.45642
#
# Compressibility (1/GPa) = 0.02416750
#
# Stress axis : x y z
#
# Youngs Moduli (GPa) = 55.02662 76.38152 128.18942
#
# Poissons Ratio (x) = 0.28469 0.23591
# Poissons Ratio (y) = 0.20509 0.24123
# Poissons Ratio (z) = 0.10127 0.14374
#
# Static dielectric constant tensor:
#      x y z
#    x 2.002290 0.000000 0.000000 
#    y 0.000000 1.946040 0.000000 
#    z 0.000000 0.000000 1.888460 
# 
# From -- ./inp_files/2137.got.cif
#   From: 2010.05.17/outbox.cif.g08.bks.cpg/sg37_2_cif.got.tgz:2137.got - 2010.06.03 17:53:42.
