data_PCOD9355558
_publ_section_title
;
Structure prediction by ZEFSAII (Michael W. Deem and Ramdas Pophale) SiO2 
 PCOD9355558
Probable space group: C C C 2
;
_chemical_formula_sum "Si O2"
_cell_formula_units_Z 64
_cell_length_a 9.188824
_cell_length_b 20.999179
_cell_length_c 14.762389
_cell_angle_alpha 90.000000
_cell_angle_beta 90.000000
_cell_angle_gamma 90.000000
_cell_volume 2848.517513
_symmetry_space_group_name_H-M "C C C 2"
_symmetry_group_IT_number 37
_symmetry_cell_setting 'orthorhombic'
loop_
_space_group_symop_operation_xyz
x,y,z
-x,-y,z
-x,y,1/2+z
x,-y,1/2+z
1/2+x,1/2+y,z
1/2-x,1/2-y,z
1/2-x,1/2+y,1/2+z
1/2+x,1/2-y,1/2+z
loop_
_atom_site_type_symbol
_atom_site_label
_atom_site_fract_x
_atom_site_fract_y
_atom_site_fract_z
Si Si1 0.079345 0.090350 0.991500
Si Si2 0.965826 0.243618 0.739691
Si Si3 0.816242 0.912900 0.629391
Si Si4 0.149490 0.534170 0.589534
Si Si5 0.226252 0.642610 0.722967
Si Si6 0.007312 0.071723 0.287766
Si Si7 0.084678 0.232698 0.936553
Si Si8 0.626881 0.794690 0.566505
O O1 0.041730 0.071865 0.890083
O O2 0.083786 0.166959 0.991927
O O3 0.231207 0.057050 0.016725
O O4 0.949124 0.073810 0.060263
O O5 0.890340 0.310950 0.766159
O O6 0.849491 0.194885 0.694605
O O7 0.014831 0.219515 0.838013
O O8 0.079036 0.262523 0.661657
O O9 0.895531 0.891012 0.721639
O O10 0.704950 0.861335 0.587583
O O11 0.726388 0.977191 0.644657
O O12 0.142802 0.597887 0.651225
O O13 0.000000 0.500000 0.558054
O O14 0.328056 0.596620 0.781275
O O15 0.000000 0.000000 0.251844
O O16 0.250000 0.250000 0.919358
O O17 0.006326 0.287479 0.996472
O O18 0.750000 0.750000 0.523083
#
# Coordination Sequence:
#
# PCOD9355558 Si02
#       8
#     8   8   8   8   8   8   8   8
#     4  12  26  47  75 105 145 205 249 306 372 451
#     4  11  26  46  74 110 152 191 251 313 379 454
#     4  12  25  46  75 105 146 192 253 308 363 455
#     4  12  26  49  73 111 151 195 246 315 379 446
#     4  11  23  44  76 103 145 194 244 311 379 435
#     4  12  23  44  75 105 144 197 253 296 373 451
#     4  12  29  46  73 109 155 192 249 317 378 449
#     4  12  26  45  74 108 143 198 252 303 380 452
#
# _framework density 22.467825999999999
#
# number of rings (size 3 to 8) (size 9 to 14) (size 15 to 20)
#    0.000    0.250    5.000    3.750   10.500    0.000 
#    0.000    0.625    0.000    0.000    0.000    0.000 
#    0.000    0.000    0.000    0.000    0.000    0.000 
#
# Total GULP energy -178728.116146 kJ/mol
# GULP energy per Si atom -5585.253630 kJ/mol
# Density = 2.241669 g / cm^3
# Si number density = 22.467826 Si / 1000 Ang^3
#
#
#
# Elastic Constant Matrix: (Units=GPa)
#
#
# Indices 1 2 3 4 5 6 
#
# 1 111.3005 34.7697 42.1808 0.0000 0.0000 0.0000
# 2 34.7697 118.1991 17.8824 0.0000 0.0000 0.0000
# 3 42.1808 17.8824 113.8410 0.0000 0.0000 0.0000
# 4 0.0000 0.0000 0.0000 25.3416 0.0000 0.0000
# 5 0.0000 0.0000 0.0000 0.0000 12.8578 0.0000
# 6 0.0000 0.0000 0.0000 0.0000 0.0000 53.3342
#
#
#
# Elastic Compliance Matrix: (Units=1/GPa)
#
#
# Indices 1 2 3 4 5 6 
#
# 1 0.011260 -0.002746 -0.003741 0.000000 0.000000 0.000000
# 2 -0.002746 0.009336 -0.000449 0.000000 0.000000 0.000000
# 3 -0.003741 -0.000449 0.010241 0.000000 0.000000 0.000000
# 4 0.000000 0.000000 0.000000 0.039461 0.000000 0.000000
# 5 0.000000 0.000000 0.000000 0.000000 0.077774 0.000000
# 6 0.000000 0.000000 0.000000 0.000000 0.000000 0.018750
#
#
# Mechanical properties :
#
#
# Convention : Reuss Voigt Hill
#
# Bulk Modulus (GPa) = 58.94518 59.22291 59.08405
# Shear Modulus (GPa) = 26.83141 34.87391 30.85266
#
# Velocity S-wave (km/s) = 3.45949 3.94403 3.70968
# Velocity P-wave (km/s) = 6.49998 6.86708 6.68605
#
# Compressibility (1/GPa) = 0.01696491
#
# Stress axis : x y z
#
# Youngs Moduli (GPa) = 88.80722 107.11103 97.64901
#
# Poissons Ratio (x) = 0.29417 0.36529
# Poissons Ratio (y) = 0.24390 0.04384
# Poissons Ratio (z) = 0.33221 0.04808
#
# Static dielectric constant tensor:
#      x y z
#    x 1.862780 0.000000 0.000000 
#    y 0.000000 1.915580 0.000000 
#    z 0.000000 0.000000 1.797460 
# 
# From -- ./inp_files/11005.got.cif
#   From: 2010.05.17/outbox.cif.g08.bks.cpg/sg37_6_cif.got.tgz:11005.got - 2010.06.03 17:53:42.
