data_PCOD9355505
_publ_section_title
;
Structure prediction by ZEFSAII (Michael W. Deem and Ramdas Pophale) SiO2 
 PCOD9355505
Probable space group: C C C 2
;
_chemical_formula_sum "Si O2"
_cell_formula_units_Z 52
_cell_length_a 13.567989
_cell_length_b 21.206135
_cell_length_c 8.125239
_cell_angle_alpha 90.000000
_cell_angle_beta 90.000000
_cell_angle_gamma 90.000000
_cell_volume 2337.831193
_symmetry_space_group_name_H-M "C C C 2"
_symmetry_group_IT_number 37
_symmetry_cell_setting 'orthorhombic'
loop_
_space_group_symop_operation_xyz
x,y,z
-x,-y,z
-x,y,1/2+z
x,-y,1/2+z
1/2+x,1/2+y,z
1/2-x,1/2-y,z
1/2-x,1/2+y,1/2+z
1/2+x,1/2-y,1/2+z
loop_
_atom_site_type_symbol
_atom_site_label
_atom_site_fract_x
_atom_site_fract_y
_atom_site_fract_z
Si Si1 0.976166 0.573093 0.418190
Si Si2 0.978009 0.073692 0.251552
Si Si3 0.135622 0.852617 0.540829
Si Si4 0.750000 0.250000 0.364608
Si Si5 0.210020 0.574463 0.700501
Si Si6 0.795323 0.950631 0.555178
Si Si7 0.356768 0.132367 0.718408
O O1 0.902475 0.570492 0.259143
O O2 0.920479 0.615108 0.554803
O O3 0.000000 0.500000 0.462879
O O4 0.075613 0.607398 0.365358
O O5 0.912665 0.107369 0.391613
O O6 0.907928 0.061643 0.093068
O O7 0.063439 0.122252 0.189121
O O8 0.000000 0.000000 0.297020
O O9 0.161033 0.783563 0.468185
O O10 0.246475 0.866409 0.606725
O O11 0.690191 0.200060 0.251475
O O12 0.251567 0.519322 0.585590
O O13 0.266844 0.568460 0.873382
O O14 0.736643 0.911551 0.691041
#
# Coordination Sequence:
#
# PCOD9355505 Si02
#       7
#     8   8   8   4   8   8   8
#     4  11  24  44  80 118 145 181 247 314 402 446
#     4  12  24  42  75 110 140 183 239 311 383 437
#     4  12  27  47  72 104 149 196 250 305 368 445
#     4  12  30  52  68  98 152 212 262 302 362 440
#     4  11  24  40  70 113 148 186 226 305 382 450
#     4  11  22  42  70 108 153 176 230 303 379 442
#     4  11  26  45  72 104 150 196 242 308 363 456
#
# _framework density 22.242837000000002
#
# number of rings (size 3 to 8) (size 9 to 14) (size 15 to 20)
#    0.000    0.615    4.615    2.769    4.308    1.231 
#    0.000    3.077    0.000    0.000    0.000    0.000 
#    0.000    0.000    0.000    0.000    0.000    0.000 
#
# Total GULP energy -144988.418013 kJ/mol
# GULP energy per Si atom -5576.477616 kJ/mol
# Density = 2.219221 g / cm^3
# Si number density = 22.242837 Si / 1000 Ang^3
#
#
#
# Elastic Constant Matrix: (Units=GPa)
#
#
# Indices 1 2 3 4 5 6 
#
# 1 119.4818 22.6189 35.8897 0.0000 0.0000 0.0000
# 2 22.6189 75.3726 10.9842 0.0000 0.0000 0.0000
# 3 35.8897 10.9842 75.9220 0.0000 0.0000 0.0000
# 4 0.0000 0.0000 0.0000 18.3594 0.0000 0.0000
# 5 0.0000 0.0000 0.0000 0.0000 52.2791 0.0000
# 6 0.0000 0.0000 0.0000 0.0000 0.0000 47.4750
#
#
#
# Elastic Compliance Matrix: (Units=1/GPa)
#
#
# Indices 1 2 3 4 5 6 
#
# 1 0.010163 -0.002400 -0.004457 0.000000 0.000000 0.000000
# 2 -0.002400 0.014120 -0.000908 0.000000 0.000000 0.000000
# 3 -0.004457 -0.000908 0.015410 0.000000 0.000000 0.000000
# 4 0.000000 0.000000 0.000000 0.054468 0.000000 0.000000
# 5 0.000000 0.000000 0.000000 0.000000 0.019128 0.000000
# 6 0.000000 0.000000 0.000000 0.000000 0.000000 0.021064
#
#
# Mechanical properties :
#
#
# Convention : Reuss Voigt Hill
#
# Bulk Modulus (GPa) = 41.38766 45.52911 43.45839
# Shear Modulus (GPa) = 31.65828 37.04160 34.34994
#
# Velocity S-wave (km/s) = 3.77676 4.08527 3.93404
# Velocity P-wave (km/s) = 6.13727 6.53958 6.34162
#
# Compressibility (1/GPa) = 0.02416179
#
# Stress axis : x y z
#
# Youngs Moduli (GPa) = 98.40024 70.82115 64.89457
#
# Poissons Ratio (x) = 0.16999 0.28922
# Poissons Ratio (y) = 0.23618 0.05894
# Poissons Ratio (z) = 0.43855 0.06432
#
# Static dielectric constant tensor:
#      x y z
#    x 1.929750 0.000000 0.000000 
#    y 0.000000 2.624510 0.000000 
#    z 0.000000 0.000000 1.864290 
# 
# From -- ./inp_files/3606.got.cif
#   From: 2010.05.17/outbox.cif.g08.bks.cpg/sg37_2_cif.got.tgz:3606.got - 2010.06.03 17:53:42.
