data_PCOD9355111
_publ_section_title
;
Structure prediction by ZEFSAII (Michael W. Deem and Ramdas Pophale) SiO2 
 PCOD9355111
Probable space group: C C C 2
;
_chemical_formula_sum "Si O2"
_cell_formula_units_Z 56
_cell_length_a 5.396571
_cell_length_b 31.280080
_cell_length_c 14.303564
_cell_angle_alpha 90.000000
_cell_angle_beta 90.000000
_cell_angle_gamma 90.000000
_cell_volume 2414.515590
_symmetry_space_group_name_H-M "C C C 2"
_symmetry_group_IT_number 37
_symmetry_cell_setting 'orthorhombic'
loop_
_space_group_symop_operation_xyz
x,y,z
-x,-y,z
-x,y,1/2+z
x,-y,1/2+z
1/2+x,1/2+y,z
1/2-x,1/2-y,z
1/2-x,1/2+y,1/2+z
1/2+x,1/2-y,1/2+z
loop_
_atom_site_type_symbol
_atom_site_label
_atom_site_fract_x
_atom_site_fract_y
_atom_site_fract_z
Si Si1 0.727045 0.637936 0.055270
Si Si2 0.032116 0.626751 0.744223
Si Si3 0.499700 0.224548 0.513353
Si Si4 0.500000 0.500000 0.182069
Si Si5 0.000000 0.500000 0.305570
Si Si6 0.328733 0.411407 0.608753
Si Si7 0.997498 0.274747 0.788357
Si Si8 0.495549 0.917108 0.926514
O O1 0.434336 0.634621 0.069570
O O2 0.790653 0.618201 0.156728
O O3 0.911215 0.677524 0.044796
O O4 0.769291 0.609249 0.963826
O O5 0.792602 0.600713 0.708495
O O6 0.989798 0.677233 0.751394
O O7 0.127247 0.611148 0.844299
O O8 0.750000 0.250000 0.536911
O O9 0.480380 0.222744 0.400880
O O10 0.250000 0.250000 0.545344
O O11 0.752801 0.504941 0.242753
O O12 0.524283 0.455798 0.124037
O O13 0.046979 0.539442 0.374164
O O14 0.147948 0.423325 0.523121
O O15 0.250000 0.250000 0.765119
O O16 0.750000 0.250000 0.755693
#
# Coordination Sequence:
#
# PCOD9355111 Si02
#       8
#     8   8   8   4   4   8   8   8
#     4  11  26  44  72 109 146 201 254 318 383 464
#     4  11  24  48  70 106 149 196 257 316 382 462
#     4  10  23  43  71 104 145 189 246 311 379 453
#     4  12  28  52  78 118 160 196 268 318 388 456
#     4  12  28  50  80 112 152 210 254 324 386 458
#     4  11  28  45  78 111 156 205 256 330 382 467
#     4  10  23  42  71 106 142 194 249 311 378 455
#     4  11  26  47  75 108 150 203 258 310 398 457
#
# _framework density 23.193058000000001
#
# number of rings (size 3 to 8) (size 9 to 14) (size 15 to 20)
#    0.000    1.143    2.857    0.857   12.000    3.429 
#    0.000    0.000    0.000    0.000    0.000    0.000 
#    0.000    0.000    0.000    0.000    0.000    0.000 
#
# Total GULP energy -156029.711035 kJ/mol
# GULP energy per Si atom -5572.489680 kJ/mol
# Density = 2.314027 g / cm^3
# Si number density = 23.193058 Si / 1000 Ang^3
#
#
#
# Elastic Constant Matrix: (Units=GPa)
#
#
# Indices 1 2 3 4 5 6 
#
# 1 104.2598 42.2869 27.2352 0.0000 0.0000 0.0000
# 2 42.2869 137.6771 33.5379 0.0000 0.0000 0.0000
# 3 27.2352 33.5379 136.4562 0.0000 0.0000 0.0000
# 4 0.0000 0.0000 0.0000 38.7960 0.0000 0.0000
# 5 0.0000 0.0000 0.0000 0.0000 -10.2734 0.0000
# 6 0.0000 0.0000 0.0000 0.0000 0.0000 25.4362
#
#
#
# Elastic Compliance Matrix: (Units=1/GPa)
#
#
# Indices 1 2 3 4 5 6 
#
# 1 0.011231 -0.003089 -0.001483 0.000000 0.000000 0.000000
# 2 -0.003089 0.008575 -0.001491 0.000000 0.000000 0.000000
# 3 -0.001483 -0.001491 0.007991 0.000000 0.000000 0.000000
# 4 0.000000 0.000000 0.000000 0.025776 0.000000 0.000000
# 5 0.000000 0.000000 0.000000 0.000000 -0.097338 0.000000
# 6 0.000000 0.000000 0.000000 0.000000 0.000000 0.039314
#
#
# Mechanical properties :
#
#
# Convention : Reuss Voigt Hill
#
# Bulk Modulus (GPa) = 63.80455 64.94591 64.37523
# Shear Modulus (GPa) = 387.66693 29.14730 208.40712
#
# Velocity S-wave (km/s) = 12.94259 3.54888 9.48961
# Velocity P-wave (km/s) = 15.84038 6.69745 12.16087
#
# Compressibility (1/GPa) = 0.01567286
#
# Stress axis : x y z
#
# Youngs Moduli (GPa) = 89.03616 116.61472 125.14455
#
# Poissons Ratio (x) = 0.36017 0.18554
# Poissons Ratio (y) = 0.27499 0.18661
# Poissons Ratio (z) = 0.13200 0.17389
#
# Static dielectric constant tensor:
#      x y z
#    x 2.153080 0.000000 0.000000 
#    y 0.000000 1.919720 0.000000 
#    z 0.000000 0.000000 1.817940 
# 
# From -- ./inp_files/9945.got.cif
#   From: 2010.05.17/outbox.cif.g08.bks.cpg/sg37_5_cif.got.tgz:9945.got - 2010.06.03 17:53:42.
