data_PCOD9355363
_publ_section_title
;
Structure prediction by ZEFSAII (Michael W. Deem and Ramdas Pophale) SiO2 
 PCOD9355363
Probable space group: C C C 2
;
_chemical_formula_sum "Si O2"
_cell_formula_units_Z 60
_cell_length_a 19.275549
_cell_length_b 11.794631
_cell_length_c 11.460420
_cell_angle_alpha 90.000000
_cell_angle_beta 90.000000
_cell_angle_gamma 90.000000
_cell_volume 2605.503426
_symmetry_space_group_name_H-M "C C C 2"
_symmetry_group_IT_number 37
_symmetry_cell_setting 'orthorhombic'
loop_
_space_group_symop_operation_xyz
x,y,z
-x,-y,z
-x,y,1/2+z
x,-y,1/2+z
1/2+x,1/2+y,z
1/2-x,1/2-y,z
1/2-x,1/2+y,1/2+z
1/2+x,1/2-y,1/2+z
loop_
_atom_site_type_symbol
_atom_site_label
_atom_site_fract_x
_atom_site_fract_y
_atom_site_fract_z
Si Si1 0.181074 0.947024 0.173560
Si Si2 0.879897 0.688386 0.365187
Si Si3 0.669377 0.961005 0.750200
Si Si4 0.532943 0.614922 0.770866
Si Si5 0.088449 0.685369 0.415347
Si Si6 0.564756 0.954996 0.547440
Si Si7 0.250000 0.250000 0.517633
Si Si8 0.597244 0.662939 0.138697
O O1 0.248664 0.981251 0.247254
O O2 0.113408 0.907086 0.243552
O O3 0.212347 0.847155 0.094036
O O4 0.148233 0.058146 0.112907
O O5 0.868807 0.572834 0.294945
O O6 0.934198 0.658704 0.469527
O O7 0.809252 0.705709 0.433649
O O8 0.888919 0.785412 0.268092
O O9 0.650490 0.851913 0.828446
O O10 0.633667 0.944599 0.624425
O O11 0.500000 0.500000 0.827720
O O12 0.537837 0.731185 0.843388
O O13 0.484086 0.630621 0.656581
O O14 0.064948 0.562239 0.460540
O O15 0.107312 0.749839 0.534268
O O16 0.500000 0.000000 0.626112
#
# Coordination Sequence:
#
# PCOD9355363 Si02
#       8
#     8   8   8   8   8   8   4   8
#     4  11  25  47  72 104 147 191 247 307 366 458
#     4  11  24  44  69 104 144 186 239 304 373 438
#     4  11  24  47  68 109 143 187 251 296 377 427
#     4  10  25  46  71 106 147 194 243 303 375 442
#     4  11  25  44  76 106 144 192 247 310 362 448
#     4  11  24  43  73 104 142 191 243 305 365 443
#     4  12  24  44  74 104 138 208 236 304 384 444
#     4  11  25  47  72 108 145 192 245 309 372 440
#
# _framework density 23.028179000000002
#
# number of rings (size 3 to 8) (size 9 to 14) (size 15 to 20)
#    0.000    1.067    2.667    2.400    1.867    8.000 
#    2.400    0.000    0.000    0.000    0.000    0.000 
#    0.000    0.000    0.000    0.000    0.000    0.000 
#
# Total GULP energy -167280.597385 kJ/mol
# GULP energy per Si atom -5576.019913 kJ/mol
# Density = 2.297577 g / cm^3
# Si number density = 23.028179 Si / 1000 Ang^3
#
#
#
# Elastic Constant Matrix: (Units=GPa)
#
#
# Indices 1 2 3 4 5 6 
#
# 1 143.1669 17.1988 29.5301 0.0000 0.0000 0.0000
# 2 17.1988 89.0845 20.0109 0.0000 0.0000 0.0000
# 3 29.5301 20.0109 29.1015 0.0000 0.0000 0.0000
# 4 0.0000 0.0000 0.0000 156.5893 0.0000 0.0000
# 5 0.0000 0.0000 0.0000 0.0000 27.4368 0.0000
# 6 0.0000 0.0000 0.0000 0.0000 0.0000 75.4238
#
#
#
# Elastic Compliance Matrix: (Units=1/GPa)
#
#
# Indices 1 2 3 4 5 6 
#
# 1 0.008844 0.000365 -0.009225 0.000000 0.000000 0.000000
# 2 0.000365 0.013291 -0.009509 0.000000 0.000000 0.000000
# 3 -0.009225 -0.009509 0.050262 0.000000 0.000000 0.000000
# 4 0.000000 0.000000 0.000000 0.006386 0.000000 0.000000
# 5 0.000000 0.000000 0.000000 0.000000 0.036447 0.000000
# 6 0.000000 0.000000 0.000000 0.000000 0.000000 0.013258
#
#
# Mechanical properties :
#
#
# Convention : Reuss Voigt Hill
#
# Bulk Modulus (GPa) = 28.04424 43.87028 35.95726
# Shear Modulus (GPa) = 28.23051 64.86419 46.54735
#
# Velocity S-wave (km/s) = 3.50510 5.31305 4.50079
# Velocity P-wave (km/s) = 5.34655 7.53193 6.53130
#
# Compressibility (1/GPa) = 0.03565794
#
# Stress axis : x y z
#
# Youngs Moduli (GPa) = 113.07380 75.23933 19.89577
#
# Poissons Ratio (x) = -0.02744 0.18354
# Poissons Ratio (y) = -0.04124 0.18919
# Poissons Ratio (z) = 1.04309 0.71547
#
# Static dielectric constant tensor:
#      x y z
#    x 1.936800 0.000000 0.000000 
#    y 0.000000 1.696000 0.000000 
#    z 0.000000 0.000000 1.953620 
# 
# From -- ./inp_files/8632.got.cif
#   From: 2010.05.17/outbox.cif.g08.bks.cpg/sg37_5_cif.got.tgz:8632.got - 2010.06.03 17:53:42.
