data_PCOD9355252
_publ_section_title
;
Structure prediction by ZEFSAII (Michael W. Deem and Ramdas Pophale) SiO2 
 PCOD9355252
Probable space group: C C C 2
;
_chemical_formula_sum "Si O2"
_cell_formula_units_Z 36
_cell_length_a 15.088122
_cell_length_b 4.867394
_cell_length_c 20.258781
_cell_angle_alpha 90.000000
_cell_angle_beta 90.000000
_cell_angle_gamma 90.000000
_cell_volume 1487.801524
_symmetry_space_group_name_H-M "C C C 2"
_symmetry_group_IT_number 37
_symmetry_cell_setting 'orthorhombic'
loop_
_space_group_symop_operation_xyz
x,y,z
-x,-y,z
-x,y,1/2+z
x,-y,1/2+z
1/2+x,1/2+y,z
1/2-x,1/2-y,z
1/2-x,1/2+y,1/2+z
1/2+x,1/2-y,1/2+z
loop_
_atom_site_type_symbol
_atom_site_label
_atom_site_fract_x
_atom_site_fract_y
_atom_site_fract_z
Si Si1 0.159902 0.371294 0.738970
Si Si2 0.098286 0.101999 0.165844
Si Si3 0.000000 0.500000 0.828755
Si Si4 0.348932 0.272333 0.026326
Si Si5 0.082198 0.684466 0.954575
O O1 0.250000 0.250000 0.770610
O O2 0.145576 0.683728 0.715044
O O3 0.074647 0.344128 0.786885
O O4 0.151242 0.181037 0.673753
O O5 0.095452 0.235254 0.093971
O O6 0.000000 0.000000 0.182959
O O7 0.946122 0.299718 0.878742
O O8 0.250000 0.250000 0.054781
O O9 0.389794 0.535492 0.988490
O O10 0.342549 0.032542 0.971622
O O11 0.000000 0.500000 0.983991
#
# Coordination Sequence:
#
# PCOD9355252 Si02
#       5
#     8   8   4   8   8
#     4  12  25  46  73 109 142 192 243 310 372 451
#     4  12  24  44  73 105 147 188 238 301 390 452
#     4  10  26  48  70 102 142 196 256 306 364 456
#     4  12  24  43  68 107 142 183 239 312 373 456
#     4  10  24  43  69  93 139 190 245 290 373 439
#
# _framework density 24.196774000000001
#
# number of rings (size 3 to 8) (size 9 to 14) (size 15 to 20)
#    0.667    0.000    2.222    6.000    0.000    4.444 
#    0.000    2.222    0.000    0.000    0.000    0.000 
#    0.000    0.000    0.000    0.000    0.000    0.000 
#
# Total GULP energy -100223.164768 kJ/mol
# GULP energy per Si atom -5567.953598 kJ/mol
# Density = 2.414170 g / cm^3
# Si number density = 24.196774 Si / 1000 Ang^3
#
#
#
# Elastic Constant Matrix: (Units=GPa)
#
#
# Indices 1 2 3 4 5 6 
#
# 1 130.8015 36.5323 45.1404 0.0000 0.0000 0.0000
# 2 36.5323 133.1830 38.9837 0.0000 0.0000 0.0000
# 3 45.1404 38.9837 115.8696 0.0000 0.0000 0.0000
# 4 0.0000 0.0000 0.0000 66.8406 0.0000 0.0000
# 5 0.0000 0.0000 0.0000 0.0000 -6.6302 0.0000
# 6 0.0000 0.0000 0.0000 0.0000 0.0000 36.1197
#
#
#
# Elastic Compliance Matrix: (Units=1/GPa)
#
#
# Indices 1 2 3 4 5 6 
#
# 1 0.009139 -0.001625 -0.003014 0.000000 0.000000 0.000000
# 2 -0.001625 0.008618 -0.002266 0.000000 0.000000 0.000000
# 3 -0.003014 -0.002266 0.010567 0.000000 0.000000 0.000000
# 4 0.000000 0.000000 0.000000 0.014961 0.000000 0.000000
# 5 0.000000 0.000000 0.000000 0.000000 -0.150824 0.000000
# 6 0.000000 0.000000 0.000000 0.000000 0.000000 0.027686
#
#
# Mechanical properties :
#
#
# Convention : Reuss Voigt Hill
#
# Bulk Modulus (GPa) = 68.89954 69.01855 68.95905
# Shear Modulus (GPa) = -81.69090 36.54586 -22.57252
#
# Velocity S-wave (km/s) = -5.81673 3.89055 -3.05761
# Velocity P-wave (km/s) = 4.07136 6.98338 4.01196
#
# Compressibility (1/GPa) = 0.01451388
#
# Stress axis : x y z
#
# Youngs Moduli (GPa) = 109.42110 116.04283 94.63432
#
# Poissons Ratio (x) = 0.18853 0.28520
# Poissons Ratio (y) = 0.17778 0.21448
# Poissons Ratio (z) = 0.32977 0.26300
#
# Static dielectric constant tensor:
#      x y z
#    x 2.477480 0.000000 0.000000 
#    y 0.000000 2.089130 0.000000 
#    z 0.000000 0.000000 1.843170 
# 
# From -- ./inp_files/17026.got.cif
#   From: 2010.05.17/outbox.cif.g08.bks.cpg/sg37_9_cif.got.tgz:17026.got - 2010.06.03 17:53:42.
