data_PCOD9355583
_publ_section_title
;
Structure prediction by ZEFSAII (Michael W. Deem and Ramdas Pophale) SiO2 
 PCOD9355583
Probable space group: C C C 2
;
_chemical_formula_sum "Si O2"
_cell_formula_units_Z 56
_cell_length_a 12.388865
_cell_length_b 20.161852
_cell_length_c 11.224714
_cell_angle_alpha 90.000000
_cell_angle_beta 90.000000
_cell_angle_gamma 90.000000
_cell_volume 2803.736705
_symmetry_space_group_name_H-M "C C C 2"
_symmetry_group_IT_number 37
_symmetry_cell_setting 'orthorhombic'
loop_
_space_group_symop_operation_xyz
x,y,z
-x,-y,z
-x,y,1/2+z
x,-y,1/2+z
1/2+x,1/2+y,z
1/2-x,1/2-y,z
1/2-x,1/2+y,1/2+z
1/2+x,1/2-y,1/2+z
loop_
_atom_site_type_symbol
_atom_site_label
_atom_site_fract_x
_atom_site_fract_y
_atom_site_fract_z
Si Si1 0.000001 0.806578 0.846120
Si Si2 0.872360 0.578741 0.335738
Si Si3 0.722115 0.138802 0.596120
Si Si4 0.714893 0.325285 0.956515
Si Si5 0.285108 0.325285 0.735725
Si Si6 0.081498 0.229569 0.096120
Si Si7 0.127641 0.421260 0.856502
O O1 0.889249 0.844035 0.814819
O O2 0.110753 0.844035 0.877420
O O3 0.018820 0.767750 0.721904
O O4 0.981182 0.767751 0.970336
O O5 0.818510 0.600570 0.211864
O O6 0.809944 0.623160 0.432235
O O7 0.857817 0.500000 0.346120
O O8 0.000001 0.592647 0.346120
O O9 0.847056 0.161889 0.596120
O O10 0.658469 0.207840 0.596118
O O11 0.681491 0.100569 0.480377
O O12 0.750000 0.250000 0.921582
O O13 0.687861 0.324697 0.096120
O O14 0.250000 0.250000 0.770659
O O15 0.190057 0.376841 0.760006
#
# Coordination Sequence:
#
# PCOD9355583 Si02
#       7
#     8   8   8   8   8   8   8
#     4  12  22  42  65 104 133 176 218 288 342 396
#     4  11  27  44  68  99 138 180 223 276 340 410
#     4  11  24  43  68  97 137 184 221 277 338 419
#     4  11  25  41  67 100 135 175 224 281 334 395
#     4  11  25  41  67 100 135 175 224 281 334 395
#     4  11  24  40  69 104 141 173 229 279 351 398
#     4  11  27  44  68  99 138 180 223 276 340 410
#
# _framework density 19.973344999999998
#
# number of rings (size 3 to 8) (size 9 to 14) (size 15 to 20)
#    0.000    0.857    4.286    1.714   12.000    1.143 
#    0.000    0.714    0.000    3.429    0.000    0.000 
#    0.000    0.000    0.000    0.000    0.000    0.000 
#
# Total GULP energy -156345.506069 kJ/mol
# GULP energy per Si atom -5583.768074 kJ/mol
# Density = 1.992788 g / cm^3
# Si number density = 19.973345 Si / 1000 Ang^3
#
#
#
# Elastic Constant Matrix: (Units=GPa)
#
#
# Indices 1 2 3 4 5 6 
#
# 1 115.2921 58.3968 33.2118 0.0000 0.0000 0.0000
# 2 58.3968 94.3155 24.6791 0.0000 0.0000 0.0000
# 3 33.2118 24.6791 131.4700 0.0000 0.0000 0.0000
# 4 0.0000 0.0000 0.0000 34.1159 0.0000 0.0000
# 5 0.0000 0.0000 0.0000 0.0000 -266.9829 0.0000
# 6 0.0000 0.0000 0.0000 0.0000 0.0000 27.1189
#
#
#
# Elastic Compliance Matrix: (Units=1/GPa)
#
#
# Indices 1 2 3 4 5 6 
#
# 1 0.013061 -0.007597 -0.001873 0.000000 0.000000 0.000000
# 2 -0.007597 0.015569 -0.001003 0.000000 0.000000 0.000000
# 3 -0.001873 -0.001003 0.008268 0.000000 0.000000 0.000000
# 4 0.000000 0.000000 0.000000 0.029312 0.000000 0.000000
# 5 0.000000 0.000000 0.000000 0.000000 -0.003746 0.000000
# 6 0.000000 0.000000 0.000000 0.000000 0.000000 0.036875
#
#
# Mechanical properties :
#
#
# Convention : Reuss Voigt Hill
#
# Bulk Modulus (GPa) = 62.69341 63.73922 63.21632
# Shear Modulus (GPa) = 39.80788 -26.16362 6.82213
#
# Velocity S-wave (km/s) = 4.46920 -3.62322 1.85014
# Velocity P-wave (km/s) = 7.62157 3.80497 6.02354
#
# Compressibility (1/GPa) = 0.01595064
#
# Stress axis : x y z
#
# Youngs Moduli (GPa) = 76.56284 64.23042 120.94924
#
# Poissons Ratio (x) = 0.48795 0.22659
# Poissons Ratio (y) = 0.58163 0.12137
# Poissons Ratio (z) = 0.14344 0.06445
#
# Static dielectric constant tensor:
#      x y z
#    x 1.760750 0.000000 0.000000 
#    y 0.000000 1.683400 0.000000 
#    z 0.000000 0.000000 1.736230 
# 
# From -- ./inp_files/7289.got.cif
#   From: 2010.05.17/outbox.cif.g08.bks.cpg/sg37_4_cif.got.tgz:7289.got - 2010.06.03 17:53:42.
