data_PCOD9355578
_publ_section_title
;
Structure prediction by ZEFSAII (Michael W. Deem and Ramdas Pophale) SiO2 
 PCOD9355578
Probable space group: C C C 2
;
_chemical_formula_sum "Si O2"
_cell_formula_units_Z 64
_cell_length_a 13.479851
_cell_length_b 22.779137
_cell_length_c 8.006057
_cell_angle_alpha 90.000000
_cell_angle_beta 90.000000
_cell_angle_gamma 90.000000
_cell_volume 2458.334840
_symmetry_space_group_name_H-M "C C C 2"
_symmetry_group_IT_number 37
_symmetry_cell_setting 'orthorhombic'
loop_
_space_group_symop_operation_xyz
x,y,z
-x,-y,z
-x,y,1/2+z
x,-y,1/2+z
1/2+x,1/2+y,z
1/2-x,1/2-y,z
1/2-x,1/2+y,1/2+z
1/2+x,1/2-y,1/2+z
loop_
_atom_site_type_symbol
_atom_site_label
_atom_site_fract_x
_atom_site_fract_y
_atom_site_fract_z
Si Si1 0.346911 0.172792 0.897240
Si Si2 0.704086 0.651720 0.637339
Si Si3 0.648087 0.733608 0.334298
Si Si4 0.528157 0.177940 0.060235
Si Si5 0.916113 0.049595 0.580603
Si Si6 0.135008 0.430395 0.469876
Si Si7 0.003381 0.129766 0.802567
Si Si8 0.688421 0.051744 0.584641
O O1 0.243679 0.185258 0.803183
O O2 0.423338 0.180522 0.742055
O O3 0.414833 0.200392 0.045203
O O4 0.326352 0.107957 0.968211
O O5 0.695837 0.694239 0.482090
O O6 0.780136 0.600979 0.583187
O O7 0.594801 0.629521 0.674160
O O8 0.750000 0.750000 0.233391
O O9 0.595916 0.786551 0.431707
O O10 0.557493 0.690106 0.281252
O O11 0.539621 0.110359 0.002626
O O12 0.927196 0.077259 0.764083
O O13 0.802958 0.031247 0.558967
O O14 0.939578 0.106411 0.466098
O O15 0.000000 0.000000 0.561433
O O16 0.123543 0.496457 0.530673
O O17 0.166388 0.430874 0.276012
#
# Coordination Sequence:
#
# PCOD9355578 Si02
#       8
#     8   8   8   8   8   8   8   8
#     4  11  24  47  74 107 150 186 258 305 385 451
#     4  11  23  48  73 105 152 197 247 323 368 457
#     4  12  25  46  76 101 149 204 256 313 387 436
#     4  11  26  46  76 107 144 198 252 316 372 453
#     4  12  27  41  72 106 153 194 248 302 382 455
#     4  11  24  45  74 106 155 192 254 304 385 453
#     4  12  26  46  70 112 149 200 255 311 379 465
#     4  12  26  43  74 111 147 203 240 312 382 456
#
# _framework density 26.033882999999999
#
# number of rings (size 3 to 8) (size 9 to 14) (size 15 to 20)
#    0.000    0.500    5.000    4.125    5.250    0.500 
#    0.000    3.750    0.000    1.500    0.000    0.000 
#    0.000    0.000    0.000    0.000    0.000    0.000 
#
# Total GULP energy -178849.039496 kJ/mol
# GULP energy per Si atom -5589.032484 kJ/mol
# Density = 2.597463 g / cm^3
# Si number density = 26.033883 Si / 1000 Ang^3
#
#
#
# Elastic Constant Matrix: (Units=GPa)
#
#
# Indices 1 2 3 4 5 6 
#
# 1 119.3803 -6.1028 5.6205 0.0000 0.0000 0.0000
# 2 -6.1028 63.1546 2.2764 0.0000 0.0000 0.0000
# 3 5.6205 2.2764 60.8791 0.0000 0.0000 0.0000
# 4 0.0000 0.0000 0.0000 -43.2170 0.0000 0.0000
# 5 0.0000 0.0000 0.0000 0.0000 44.8477 0.0000
# 6 0.0000 0.0000 0.0000 0.0000 0.0000 41.9783
#
#
#
# Elastic Compliance Matrix: (Units=1/GPa)
#
#
# Indices 1 2 3 4 5 6 
#
# 1 0.008458 0.000847 -0.000813 0.000000 0.000000 0.000000
# 2 0.000847 0.015940 -0.000674 0.000000 0.000000 0.000000
# 3 -0.000813 -0.000674 0.016526 0.000000 0.000000 0.000000
# 4 0.000000 0.000000 0.000000 -0.023139 0.000000 0.000000
# 5 0.000000 0.000000 0.000000 0.000000 0.022298 0.000000
# 6 0.000000 0.000000 0.000000 0.000000 0.000000 0.023822
#
#
# Mechanical properties :
#
#
# Convention : Reuss Voigt Hill
#
# Bulk Modulus (GPa) = 25.22424 27.44468 26.33446
# Shear Modulus (GPa) = 63.77538 24.82978 44.30258
#
# Velocity S-wave (km/s) = 4.95482 3.09163 4.12968
# Velocity P-wave (km/s) = 6.51488 4.82794 5.73379
#
# Compressibility (1/GPa) = 0.03964440
#
# Stress axis : x y z
#
# Youngs Moduli (GPa) = 118.22946 62.73418 60.50989
#
# Poissons Ratio (x) = -0.05311 0.04917
# Poissons Ratio (y) = -0.10010 0.04080
# Poissons Ratio (z) = 0.09607 0.04230
#
# Static dielectric constant tensor:
#      x y z
#    x 2.088910 0.000000 0.000000 
#    y 0.000000 2.259230 0.000000 
#    z 0.000000 0.000000 2.247310 
# 
# From -- ./inp_files/3759.got.cif
#   From: 2010.05.17/outbox.cif.g08.bks.cpg/sg37_2_cif.got.tgz:3759.got - 2010.06.03 17:53:42.
