data_PCOD9355523
_publ_section_title
;
Structure prediction by ZEFSAII (Michael W. Deem and Ramdas Pophale) SiO2 
 PCOD9355523
Probable space group: C C C 2
;
_chemical_formula_sum "Si O2"
_cell_formula_units_Z 56
_cell_length_a 19.604847
_cell_length_b 8.840753
_cell_length_c 14.464053
_cell_angle_alpha 90.000000
_cell_angle_beta 90.000000
_cell_angle_gamma 90.000000
_cell_volume 2506.932952
_symmetry_space_group_name_H-M "C C C 2"
_symmetry_group_IT_number 37
_symmetry_cell_setting 'orthorhombic'
loop_
_space_group_symop_operation_xyz
x,y,z
-x,-y,z
-x,y,1/2+z
x,-y,1/2+z
1/2+x,1/2+y,z
1/2-x,1/2-y,z
1/2-x,1/2+y,1/2+z
1/2+x,1/2-y,1/2+z
loop_
_atom_site_type_symbol
_atom_site_label
_atom_site_fract_x
_atom_site_fract_y
_atom_site_fract_z
Si Si1 0.180387 0.990811 0.389560
Si Si2 0.454883 0.346015 0.868704
Si Si3 0.723996 0.579149 0.185889
Si Si4 0.503951 0.318062 0.173422
Si Si5 0.556083 0.129016 0.536508
Si Si6 0.634361 0.641710 0.559363
Si Si7 0.304776 0.038635 0.532002
O O1 0.127953 0.860913 0.356246
O O2 0.206708 0.064487 0.294316
O O3 0.125663 0.068907 0.458872
O O4 0.245402 0.981754 0.460202
O O5 0.500000 0.500000 0.872868
O O6 0.482648 0.266501 0.776593
O O7 0.465870 0.244792 0.957480
O O8 0.750000 0.750000 0.166030
O O9 0.664284 0.490248 0.127455
O O10 0.786126 0.487966 0.139731
O O11 0.500000 0.500000 0.172452
O O12 0.569280 0.289645 0.109220
O O13 0.440870 0.231209 0.128716
O O14 0.500000 0.000000 0.549186
O O15 0.627523 0.054362 0.511247
O O16 0.681093 0.783566 0.530918
#
# Coordination Sequence:
#
# PCOD9355523 Si02
#       7
#     8   8   8   8   8   8   8
#     4  11  23  45  73 100 143 184 240 290 360 432
#     4  11  26  46  76 106 135 193 246 303 370 443
#     4  11  24  41  68 105 136 184 239 296 347 435
#     4  11  24  46  74 101 139 196 246 303 368 445
#     4  12  26  47  70 107 147 187 244 307 368 442
#     4  11  22  47  67  98 146 188 232 295 372 423
#     4  11  27  44  69 103 145 193 229 295 371 433
#
# _framework density 22.338052000000001
#
# number of rings (size 3 to 8) (size 9 to 14) (size 15 to 20)
#    0.000    0.857    2.857    4.714    6.000    1.714 
#    5.143    0.000    0.000    0.000    0.000    0.000 
#    0.000    0.000    0.000    0.000    0.000    0.000 
#
# Total GULP energy -155930.667244 kJ/mol
# GULP energy per Si atom -5568.952402 kJ/mol
# Density = 2.228721 g / cm^3
# Si number density = 22.338052 Si / 1000 Ang^3
#
#
#
# Elastic Constant Matrix: (Units=GPa)
#
#
# Indices 1 2 3 4 5 6 
#
# 1 100.1355 26.1764 27.6365 0.0000 0.0000 0.0000
# 2 26.1764 60.6095 23.3645 0.0000 0.0000 0.0000
# 3 27.6365 23.3645 139.9403 0.0000 0.0000 0.0000
# 4 0.0000 0.0000 0.0000 15.3512 0.0000 0.0000
# 5 0.0000 0.0000 0.0000 0.0000 15.4052 0.0000
# 6 0.0000 0.0000 0.0000 0.0000 0.0000 23.2339
#
#
#
# Elastic Compliance Matrix: (Units=1/GPa)
#
#
# Indices 1 2 3 4 5 6 
#
# 1 0.011563 -0.004397 -0.001550 0.000000 0.000000 0.000000
# 2 -0.004397 0.019306 -0.002355 0.000000 0.000000 0.000000
# 3 -0.001550 -0.002355 0.007845 0.000000 0.000000 0.000000
# 4 0.000000 0.000000 0.000000 0.065142 0.000000 0.000000
# 5 0.000000 0.000000 0.000000 0.000000 0.064913 0.000000
# 6 0.000000 0.000000 0.000000 0.000000 0.000000 0.043041
#
#
# Mechanical properties :
#
#
# Convention : Reuss Voigt Hill
#
# Bulk Modulus (GPa) = 45.22483 50.56002 47.89243
# Shear Modulus (GPa) = 21.20594 25.69858 23.45226
#
# Velocity S-wave (km/s) = 3.08445 3.39549 3.24370
# Velocity P-wave (km/s) = 5.74236 6.16893 5.95946
#
# Compressibility (1/GPa) = 0.02211175
#
# Stress axis : x y z
#
# Youngs Moduli (GPa) = 86.47904 51.79788 127.46791
#
# Poissons Ratio (x) = 0.22774 0.19752
# Poissons Ratio (y) = 0.38023 0.30019
# Poissons Ratio (z) = 0.13400 0.12198
#
# Static dielectric constant tensor:
#      x y z
#    x 1.948220 0.000000 0.000000 
#    y 0.000000 1.670470 0.000000 
#    z 0.000000 0.000000 1.820390 
# 
# From -- ./inp_files/12925.got.cif
#   From: 2010.05.17/outbox.cif.g08.bks.cpg/sg37_7_cif.got.tgz:12925.got - 2010.06.03 17:53:42.
