data_PCOD9355159
_publ_section_title
;
Structure prediction by ZEFSAII (Michael W. Deem and Ramdas Pophale) SiO2 
 PCOD9355159
Probable space group: C C C 2
;
_chemical_formula_sum "Si O2"
_cell_formula_units_Z 48
_cell_length_a 17.806621
_cell_length_b 8.375832
_cell_length_c 14.337850
_cell_angle_alpha 90.000000
_cell_angle_beta 90.000000
_cell_angle_gamma 90.000000
_cell_volume 2138.422452
_symmetry_space_group_name_H-M "C C C 2"
_symmetry_group_IT_number 37
_symmetry_cell_setting 'orthorhombic'
loop_
_space_group_symop_operation_xyz
x,y,z
-x,-y,z
-x,y,1/2+z
x,-y,1/2+z
1/2+x,1/2+y,z
1/2-x,1/2-y,z
1/2-x,1/2+y,1/2+z
1/2+x,1/2-y,1/2+z
loop_
_atom_site_type_symbol
_atom_site_label
_atom_site_fract_x
_atom_site_fract_y
_atom_site_fract_z
Si Si1 0.720340 0.428302 0.548800
Si Si2 0.469194 0.180216 0.743759
Si Si3 0.562145 0.374743 0.601167
Si Si4 0.929328 0.390669 0.445555
Si Si5 0.804887 0.389271 0.194196
Si Si6 0.278753 0.931284 0.878862
O O1 0.750000 0.250000 0.562346
O O2 0.643261 0.456083 0.604506
O O3 0.779143 0.549400 0.594402
O O4 0.718234 0.465605 0.438490
O O5 0.527452 0.299126 0.695103
O O6 0.450309 0.208045 0.852037
O O7 0.389510 0.172869 0.692164
O O8 0.500000 0.000000 0.739513
O O9 0.500000 0.500000 0.566236
O O10 0.579303 0.230963 0.529916
O O11 0.858338 0.503071 0.420819
O O12 0.000000 0.500000 0.468719
O O13 0.750000 0.250000 0.226051
O O14 0.791145 0.528166 0.270176
O O15 0.250000 0.750000 0.889008
#
# Coordination Sequence:
#
# PCOD9355159 Si02
#       6
#     8   8   8   8   8   8
#     4  12  24  43  68 102 138 177 226 289 345 411
#     4  10  23  45  68  94 132 182 225 273 339 417
#     4  12  26  42  67 103 138 176 227 285 348 410
#     4  10  24  44  69  98 135 184 228 281 347 421
#     4  11  24  43  71 100 135 177 225 283 346 417
#     4  11  25  44  70 100 137 181 234 284 354 420
#
# _framework density 22.446453999999999
#
# number of rings (size 3 to 8) (size 9 to 14) (size 15 to 20)
#    0.000    1.000    1.667    4.000    7.000    3.333 
#    0.000    0.000    0.000    0.000    0.000    0.000 
#    0.000    0.000    0.000    0.000    0.000    0.000 
#
# Total GULP energy -134143.066772 kJ/mol
# GULP energy per Si atom -5589.294449 kJ/mol
# Density = 2.239536 g / cm^3
# Si number density = 22.446454 Si / 1000 Ang^3
#
#
#
# Elastic Constant Matrix: (Units=GPa)
#
#
# Indices 1 2 3 4 5 6 
#
# 1 82.4836 1.6540 18.2537 0.0000 0.0000 0.0000
# 2 1.6540 58.3124 6.7000 0.0000 0.0000 0.0000
# 3 18.2537 6.7000 83.0898 0.0000 0.0000 0.0000
# 4 0.0000 0.0000 0.0000 79.6862 0.0000 0.0000
# 5 0.0000 0.0000 0.0000 0.0000 21.6128 0.0000
# 6 0.0000 0.0000 0.0000 0.0000 0.0000 26.9322
#
#
#
# Elastic Compliance Matrix: (Units=1/GPa)
#
#
# Indices 1 2 3 4 5 6 
#
# 1 0.012743 -0.000040 -0.002796 0.000000 0.000000 0.000000
# 2 -0.000040 0.017310 -0.001387 0.000000 0.000000 0.000000
# 3 -0.002796 -0.001387 0.012761 0.000000 0.000000 0.000000
# 4 0.000000 0.000000 0.000000 0.012549 0.000000 0.000000
# 5 0.000000 0.000000 0.000000 0.000000 0.046269 0.000000
# 6 0.000000 0.000000 0.000000 0.000000 0.000000 0.037130
#
#
# Mechanical properties :
#
#
# Convention : Reuss Voigt Hill
#
# Bulk Modulus (GPa) = 29.09744 30.78902 29.94323
# Shear Modulus (GPa) = 31.51295 38.79811 35.15553
#
# Velocity S-wave (km/s) = 3.75095 4.16200 3.96181
# Velocity P-wave (km/s) = 5.63478 6.06983 5.85634
#
# Compressibility (1/GPa) = 0.03436729
#
# Stress axis : x y z
#
# Youngs Moduli (GPa) = 78.47292 57.77170 78.36180
#
# Poissons Ratio (x) = 0.00232 0.21912
# Poissons Ratio (y) = 0.00315 0.10868
# Poissons Ratio (z) = 0.21943 0.08013
#
# Static dielectric constant tensor:
#      x y z
#    x 1.915700 0.000000 0.000000 
#    y 0.000000 1.563070 0.000000 
#    z 0.000000 0.000000 1.823820 
# 
# From -- ./inp_files/10609.got.cif
#   From: 2010.05.17/outbox.cif.g08.bks.cpg/sg37_6_cif.got.tgz:10609.got - 2010.06.03 17:53:42.
