data_PCOD9355299
_publ_section_title
;
Structure prediction by ZEFSAII (Michael W. Deem and Ramdas Pophale) SiO2 
 PCOD9355299
Probable space group: C C C 2
;
_chemical_formula_sum "Si O2"
_cell_formula_units_Z 24
_cell_length_a 5.232112
_cell_length_b 20.479930
_cell_length_c 9.937450
_cell_angle_alpha 90.000000
_cell_angle_beta 90.000000
_cell_angle_gamma 90.000000
_cell_volume 1064.830437
_symmetry_space_group_name_H-M "C C C 2"
_symmetry_group_IT_number 37
_symmetry_cell_setting 'orthorhombic'
loop_
_space_group_symop_operation_xyz
x,y,z
-x,-y,z
-x,y,1/2+z
x,-y,1/2+z
1/2+x,1/2+y,z
1/2-x,1/2-y,z
1/2-x,1/2+y,1/2+z
1/2+x,1/2-y,1/2+z
loop_
_atom_site_type_symbol
_atom_site_label
_atom_site_fract_x
_atom_site_fract_y
_atom_site_fract_z
Si Si1 0.206172 0.677054 0.442020
Si Si2 0.543561 0.884246 0.692591
Si Si3 0.968693 0.070647 0.826063
O O1 0.250000 0.750000 0.490253
O O2 0.027969 0.638254 0.545100
O O3 0.457068 0.631909 0.420979
O O4 0.083377 0.677401 0.293202
O O5 0.804737 0.923835 0.714055
O O6 0.303984 0.921641 0.757411
O O7 0.000000 0.000000 0.892813
#
# Coordination Sequence:
#
# PCOD9355299 Si02
#       3
#     8   8   8
#     4  10  26  44  74  99 145 180 238 287 351 416
#     4  10  25  44  69 104 131 188 228 287 347 413
#     4  10  24  46  69 103 138 181 233 285 350 418
#
# _framework density 22.538799000000001
#
# number of rings (size 3 to 8) (size 9 to 14) (size 15 to 20)
#    2.000    0.000    0.000    1.000    9.333    1.333 
#    6.000    0.000    0.000    0.000    0.000    0.000 
#    0.000    0.000    0.000    0.000    0.000    0.000 
#
# Total GULP energy -66887.424360 kJ/mol
# GULP energy per Si atom -5573.952030 kJ/mol
# Density = 2.248750 g / cm^3
# Si number density = 22.538799 Si / 1000 Ang^3
#
#
#
# Elastic Constant Matrix: (Units=GPa)
#
#
# Indices 1 2 3 4 5 6 
#
# 1 103.7622 3.9670 -5.7200 0.0000 0.0000 0.0000
# 2 3.9670 112.2626 -12.2953 0.0000 0.0000 0.0000
# 3 -5.7200 -12.2953 57.2145 0.0000 0.0000 0.0000
# 4 0.0000 0.0000 0.0000 6.1750 0.0000 0.0000
# 5 0.0000 0.0000 0.0000 0.0000 26.2629 0.0000
# 6 0.0000 0.0000 0.0000 0.0000 0.0000 16.6050
#
#
#
# Elastic Compliance Matrix: (Units=1/GPa)
#
#
# Indices 1 2 3 4 5 6 
#
# 1 0.009697 -0.000242 0.000917 0.000000 0.000000 0.000000
# 2 -0.000242 0.009128 0.001937 0.000000 0.000000 0.000000
# 3 0.000917 0.001937 0.017986 0.000000 0.000000 0.000000
# 4 0.000000 0.000000 0.000000 0.161944 0.000000 0.000000
# 5 0.000000 0.000000 0.000000 0.000000 0.038077 0.000000
# 6 0.000000 0.000000 0.000000 0.000000 0.000000 0.060223
#
#
# Mechanical properties :
#
#
# Convention : Reuss Voigt Hill
#
# Bulk Modulus (GPa) = 23.78841 27.23808 25.51324
# Shear Modulus (GPa) = 16.34831 28.96107 22.65469
#
# Velocity S-wave (km/s) = 2.69614 3.58850 3.17384
# Velocity P-wave (km/s) = 4.50217 5.41119 4.97748
#
# Compressibility (1/GPa) = 0.04203728
#
# Stress axis : x y z
#
# Youngs Moduli (GPa) = 103.12193 109.54773 55.59832
#
# Poissons Ratio (x) = 0.02653 -0.05101
# Poissons Ratio (y) = 0.02498 -0.10772
# Poissons Ratio (z) = -0.09461 -0.21225
#
# Static dielectric constant tensor:
#      x y z
#    x 1.840770 0.000000 0.000000 
#    y 0.000000 1.857360 0.000000 
#    z 0.000000 0.000000 1.812660 
# 
# From -- ./inp_files/1638.got.cif
#   From: 2010.05.17/outbox.cif.g08.bks.cpg/sg37_1_cif.got.tgz:1638.got - 2010.06.03 17:53:42.
