data_PCOD9355711
_publ_section_title
;
Structure prediction by ZEFSAII (Michael W. Deem and Ramdas Pophale) SiO2 
 PCOD9355711
Probable space group: C C C 2
;
_chemical_formula_sum "Si O2"
_cell_formula_units_Z 32
_cell_length_a 4.898165
_cell_length_b 20.256044
_cell_length_c 11.495499
_cell_angle_alpha 90.000000
_cell_angle_beta 90.000000
_cell_angle_gamma 90.000000
_cell_volume 1140.554049
_symmetry_space_group_name_H-M "C C C 2"
_symmetry_group_IT_number 37
_symmetry_cell_setting 'orthorhombic'
loop_
_space_group_symop_operation_xyz
x,y,z
-x,-y,z
-x,y,1/2+z
x,-y,1/2+z
1/2+x,1/2+y,z
1/2-x,1/2-y,z
1/2-x,1/2+y,1/2+z
1/2+x,1/2-y,1/2+z
loop_
_atom_site_type_symbol
_atom_site_label
_atom_site_fract_x
_atom_site_fract_y
_atom_site_fract_z
Si Si1 0.500000 0.000000 0.457580
Si Si2 0.229463 0.388014 0.529559
Si Si3 0.005944 0.298002 0.326721
Si Si4 0.255575 0.102072 0.162429
Si Si5 0.500000 0.500000 0.349339
O O1 0.818407 0.954481 0.462769
O O2 0.690500 0.044793 0.369233
O O3 0.499941 0.365343 0.595007
O O4 0.098448 0.333887 0.446305
O O5 0.962728 0.434534 0.573040
O O6 0.750000 0.250000 0.339658
O O7 0.250000 0.250000 0.296645
O O8 0.022998 0.347289 0.215915
O O9 0.124198 0.053630 0.249816
#
# Coordination Sequence:
#
# PCOD9355711 Si02
#       5
#     4   8   8   8   4
#     4  12  24  44  78 112 160 202 248 320 408 474
#     4  12  26  47  77 112 152 202 257 324 395 470
#     4  12  28  50  76 106 152 208 265 325 382 459
#     4  12  26  47  77 114 153 202 259 323 396 471
#     4  12  24  44  78 112 160 202 250 322 408 476
#
# _framework density 28.056539000000001
#
# number of rings (size 3 to 8) (size 9 to 14) (size 15 to 20)
#    0.000    0.000    2.500    7.500    3.500    4.000 
#    0.000    0.000    0.000    0.000    0.000    0.000 
#    0.000    0.000    0.000    0.000    0.000    0.000 
#
# Total GULP energy -89068.960900 kJ/mol
# GULP energy per Si atom -5566.810056 kJ/mol
# Density = 2.799268 g / cm^3
# Si number density = 28.056539 Si / 1000 Ang^3
#
#
#
# Elastic Constant Matrix: (Units=GPa)
#
#
# Indices 1 2 3 4 5 6 
#
# 1 310.2095 81.4410 111.9798 0.0000 0.0000 0.0000
# 2 81.4410 111.9468 26.8847 0.0000 0.0000 0.0000
# 3 111.9798 26.8847 100.4620 0.0000 0.0000 0.0000
# 4 0.0000 0.0000 0.0000 -14.2587 0.0000 0.0000
# 5 0.0000 0.0000 0.0000 0.0000 -27.0719 0.0000
# 6 0.0000 0.0000 0.0000 0.0000 0.0000 82.8052
#
#
#
# Elastic Compliance Matrix: (Units=1/GPa)
#
#
# Indices 1 2 3 4 5 6 
#
# 1 0.006246 -0.003069 -0.006141 0.000000 0.000000 0.000000
# 2 -0.003069 0.011055 0.000463 0.000000 0.000000 0.000000
# 3 -0.006141 0.000463 0.016675 0.000000 0.000000 0.000000
# 4 0.000000 0.000000 0.000000 -0.070133 0.000000 0.000000
# 5 0.000000 0.000000 0.000000 0.000000 -0.036939 0.000000
# 6 0.000000 0.000000 0.000000 0.000000 0.000000 0.012077
#
#
# Mechanical properties :
#
#
# Convention : Reuss Voigt Hill
#
# Bulk Modulus (GPa) = 60.67538 107.02550 83.85044
# Shear Modulus (GPa) = -131.47377 28.44910 -51.51234
#
# Velocity S-wave (km/s) = -6.85288 3.18778 -4.28953
# Velocity P-wave (km/s) = 6.39867 7.19572 2.32760
#
# Compressibility (1/GPa) = 0.01648115
#
# Stress axis : x y z
#
# Youngs Moduli (GPa) = 160.09764 90.46041 59.96963
#
# Poissons Ratio (x) = 0.27765 0.36827
# Poissons Ratio (y) = 0.49139 -0.02776
# Poissons Ratio (z) = 0.98315 -0.04187
#
# Static dielectric constant tensor:
#      x y z
#    x 2.553160 0.000000 0.000000 
#    y 0.000000 2.977280 0.000000 
#    z 0.000000 0.000000 2.396660 
# 
# From -- ./inp_files/5382.got.cif
#   From: 2010.05.17/outbox.cif.g08.bks.cpg/sg37_3_cif.got.tgz:5382.got - 2010.06.03 17:53:42.
