data_PCOD9355134
_publ_section_title
;
Structure prediction by ZEFSAII (Michael W. Deem and Ramdas Pophale) SiO2 
 PCOD9355134
Probable space group: C C C 2
;
_chemical_formula_sum "Si O2"
_cell_formula_units_Z 40
_cell_length_a 20.964496
_cell_length_b 7.460355
_cell_length_c 9.256933
_cell_angle_alpha 90.000000
_cell_angle_beta 90.000000
_cell_angle_gamma 90.000000
_cell_volume 1447.808228
_symmetry_space_group_name_H-M "C C C 2"
_symmetry_group_IT_number 37
_symmetry_cell_setting 'orthorhombic'
loop_
_space_group_symop_operation_xyz
x,y,z
-x,-y,z
-x,y,1/2+z
x,-y,1/2+z
1/2+x,1/2+y,z
1/2-x,1/2-y,z
1/2-x,1/2+y,1/2+z
1/2+x,1/2-y,1/2+z
loop_
_atom_site_type_symbol
_atom_site_label
_atom_site_fract_x
_atom_site_fract_y
_atom_site_fract_z
Si Si1 0.582478 0.271743 0.527470
Si Si2 0.282990 0.575899 0.461950
Si Si3 0.009981 0.284048 0.291044
Si Si4 0.167170 0.481401 0.664252
Si Si5 0.647369 0.761438 0.422293
O O1 0.648579 0.374169 0.529730
O O2 0.553196 0.281224 0.369895
O O3 0.525311 0.303657 0.638094
O O4 0.607090 0.078996 0.585099
O O5 0.250000 0.750000 0.383541
O O6 0.232522 0.538182 0.587762
O O7 0.304815 0.397592 0.377869
O O8 0.073648 0.235488 0.382269
O O9 0.000000 0.500000 0.285820
O O10 0.157383 0.286094 0.594720
O O11 0.164835 0.560503 0.825372
#
# Coordination Sequence:
#
# PCOD9355134 Si02
#       5
#     8   8   8   8   8
#     4  10  23  43  72 109 148 208 255 328 398 482
#     4  10  24  49  74 112 161 205 269 329 411 492
#     4  11  22  42  77 107 155 196 269 324 401 480
#     4  10  23  46  78 113 150 199 266 331 411 483
#     4  11  24  45  82 115 154 209 261 340 408 492
#
# _framework density 27.627965
#
# number of rings (size 3 to 8) (size 9 to 14) (size 15 to 20)
#    0.000    1.600    2.000    1.200    2.800    8.800 
#    0.000   30.000    0.000    0.000    0.000    1.400 
#    0.000    0.000    0.000    0.000    0.000    0.000 
#
# Total GULP energy -111773.642310 kJ/mol
# GULP energy per Si atom -5588.682116 kJ/mol
# Density = 2.756508 g / cm^3
# Si number density = 27.627965 Si / 1000 Ang^3
#
#
#
# Elastic Constant Matrix: (Units=GPa)
#
#
# Indices 1 2 3 4 5 6 
#
# 1 163.9616 36.1788 57.2301 0.0000 0.0000 0.0000
# 2 36.1788 119.7947 25.9642 0.0000 0.0000 0.0000
# 3 57.2301 25.9642 139.9884 0.0000 0.0000 0.0000
# 4 0.0000 0.0000 0.0000 4.6127 0.0000 0.0000
# 5 0.0000 0.0000 0.0000 0.0000 54.4887 0.0000
# 6 0.0000 0.0000 0.0000 0.0000 0.0000 36.5106
#
#
#
# Elastic Compliance Matrix: (Units=1/GPa)
#
#
# Indices 1 2 3 4 5 6 
#
# 1 0.007414 -0.001648 -0.002725 0.000000 0.000000 0.000000
# 2 -0.001648 0.009064 -0.001007 0.000000 0.000000 0.000000
# 3 -0.002725 -0.001007 0.008444 0.000000 0.000000 0.000000
# 4 0.000000 0.000000 0.000000 0.216794 0.000000 0.000000
# 5 0.000000 0.000000 0.000000 0.000000 0.018352 0.000000
# 6 0.000000 0.000000 0.000000 0.000000 0.000000 0.027389
#
#
# Mechanical properties :
#
#
# Convention : Reuss Voigt Hill
#
# Bulk Modulus (GPa) = 70.61936 73.61012 72.11474
# Shear Modulus (GPa) = 16.50494 39.41384 27.95939
#
# Velocity S-wave (km/s) = 2.44683 3.78112 3.18464
# Velocity P-wave (km/s) = 5.79646 6.76489 6.29931
#
# Compressibility (1/GPa) = 0.01416042
#
# Stress axis : x y z
#
# Youngs Moduli (GPa) = 134.88098 110.32975 118.42186
#
# Poissons Ratio (x) = 0.18187 0.32273
# Poissons Ratio (y) = 0.22234 0.11927
# Poissons Ratio (z) = 0.36758 0.11112
#
# Static dielectric constant tensor:
#      x y z
#    x 2.078180 0.000000 0.000000 
#    y 0.000000 2.419030 0.000000 
#    z 0.000000 0.000000 2.204010 
# 
# From -- ./inp_files/7711.got.cif
#   From: 2010.05.17/outbox.cif.g08.bks.cpg/sg37_4_cif.got.tgz:7711.got - 2010.06.03 17:53:42.
