data_PCOD9355587
_publ_section_title
;
Structure prediction by ZEFSAII (Michael W. Deem and Ramdas Pophale) SiO2 
 PCOD9355587
Probable space group: C C C 2
;
_chemical_formula_sum "Si O2"
_cell_formula_units_Z 60
_cell_length_a 6.465176
_cell_length_b 24.540272
_cell_length_c 18.063904
_cell_angle_alpha 90.000000
_cell_angle_beta 90.000000
_cell_angle_gamma 90.000000
_cell_volume 2865.968024
_symmetry_space_group_name_H-M "C C C 2"
_symmetry_group_IT_number 37
_symmetry_cell_setting 'orthorhombic'
loop_
_space_group_symop_operation_xyz
x,y,z
-x,-y,z
-x,y,1/2+z
x,-y,1/2+z
1/2+x,1/2+y,z
1/2-x,1/2-y,z
1/2-x,1/2+y,1/2+z
1/2+x,1/2-y,1/2+z
loop_
_atom_site_type_symbol
_atom_site_label
_atom_site_fract_x
_atom_site_fract_y
_atom_site_fract_z
Si Si1 0.508361 0.897674 0.431590
Si Si2 0.140969 0.135139 0.193137
Si Si3 0.291361 0.685645 0.843503
Si Si4 0.524608 0.904894 0.596630
Si Si5 0.849988 0.810142 0.939877
Si Si6 0.671339 0.460838 0.206418
Si Si7 0.647203 0.308314 0.081554
Si Si8 0.000000 0.500000 0.322233
O O1 0.673156 0.853221 0.401472
O O2 0.528243 0.924878 0.512272
O O3 0.309378 0.859365 0.443425
O O4 0.507997 0.945691 0.371698
O O5 0.255146 0.162861 0.262175
O O6 0.306577 0.108130 0.136554
O O7 0.969507 0.092271 0.223653
O O8 0.012688 0.179698 0.147358
O O9 0.250000 0.750000 0.851931
O O10 0.532530 0.682258 0.862568
O O11 0.652303 0.944235 0.649570
O O12 0.664646 0.850542 0.589523
O O13 0.750000 0.750000 0.943930
O O14 0.014305 0.814101 0.006596
O O15 0.500000 0.500000 0.171813
O O16 0.793364 0.491077 0.272528
O O17 0.750000 0.250000 0.083727
#
# Coordination Sequence:
#
# PCOD9355587 Si02
#       8
#     8   8   8   8   8   8   8   4
#     4  12  25  46  72 106 141 191 245 297 367 432
#     4  11  26  43  69 104 146 189 242 305 364 440
#     4  12  25  42  66 105 146 188 238 299 361 436
#     4  11  24  46  72 103 142 184 249 301 359 443
#     4  12  23  43  71 103 148 194 241 301 369 434
#     4  11  24  48  71  99 137 187 234 300 373 432
#     4  11  24  41  69 105 143 195 245 299 365 438
#     4  12  28  48  74 102 146 190 240 310 364 454
#
# _framework density 20.935334999999998
#
# number of rings (size 3 to 8) (size 9 to 14) (size 15 to 20)
#    0.000    0.533    4.000    4.400    1.867    3.200 
#    0.000    0.000    0.000    0.000    0.000    0.000 
#    0.000    0.000    0.000    0.000    0.000    0.000 
#
# Total GULP energy -167549.798810 kJ/mol
# GULP energy per Si atom -5584.993294 kJ/mol
# Density = 2.088769 g / cm^3
# Si number density = 20.935335 Si / 1000 Ang^3
#
#
#
# Elastic Constant Matrix: (Units=GPa)
#
#
# Indices 1 2 3 4 5 6 
#
# 1 108.2395 50.8536 45.1196 0.0000 0.0000 0.0000
# 2 50.8536 124.6884 45.3281 0.0000 0.0000 0.0000
# 3 45.1196 45.3281 107.0143 0.0000 0.0000 0.0000
# 4 0.0000 0.0000 0.0000 29.3797 0.0000 0.0000
# 5 0.0000 0.0000 0.0000 0.0000 36.9811 0.0000
# 6 0.0000 0.0000 0.0000 0.0000 0.0000 29.7174
#
#
#
# Elastic Compliance Matrix: (Units=1/GPa)
#
#
# Indices 1 2 3 4 5 6 
#
# 1 0.012553 -0.003777 -0.003693 0.000000 0.000000 0.000000
# 2 -0.003777 0.010616 -0.002904 0.000000 0.000000 0.000000
# 3 -0.003693 -0.002904 0.012132 0.000000 0.000000 0.000000
# 4 0.000000 0.000000 0.000000 0.034037 0.000000 0.000000
# 5 0.000000 0.000000 0.000000 0.000000 0.027041 0.000000
# 6 0.000000 0.000000 0.000000 0.000000 0.000000 0.033650
#
#
# Mechanical properties :
#
#
# Convention : Reuss Voigt Hill
#
# Bulk Modulus (GPa) = 68.71643 69.17167 68.94405
# Shear Modulus (GPa) = 32.12802 32.45837 32.29320
#
# Velocity S-wave (km/s) = 3.92169 3.94180 3.93176
# Velocity P-wave (km/s) = 7.30757 7.33685 7.32223
#
# Compressibility (1/GPa) = 0.01455256
#
# Stress axis : x y z
#
# Youngs Moduli (GPa) = 79.66463 94.19517 82.42968
#
# Poissons Ratio (x) = 0.35579 0.30438
# Poissons Ratio (y) = 0.30091 0.23939
# Poissons Ratio (z) = 0.29417 0.27356
#
# Static dielectric constant tensor:
#      x y z
#    x 1.766160 0.000000 0.000000 
#    y 0.000000 1.677000 0.000000 
#    z 0.000000 0.000000 1.779080 
# 
# From -- ./inp_files/14024.got.cif
#   From: 2010.05.17/outbox.cif.g08.bks.cpg/sg37_8_cif.got.tgz:14024.got - 2010.06.03 17:53:42.
