data_PCOD9355774
_publ_section_title
;
Structure prediction by ZEFSAII (Michael W. Deem and Ramdas Pophale) SiO2 
 PCOD9355774
Probable space group: C C C 2
;
_chemical_formula_sum "Si O2"
_cell_formula_units_Z 32
_cell_length_a 9.000000
_cell_length_b 24.000000
_cell_length_c 15.000000
_cell_angle_alpha 90.000000
_cell_angle_beta 90.000000
_cell_angle_gamma 90.000000
_cell_volume 3240.000000
_symmetry_space_group_name_H-M "C C C 2"
_symmetry_group_IT_number 37
_symmetry_cell_setting 'orthorhombic'
loop_
_space_group_symop_operation_xyz
x,y,z
-x,-y,z
-x,y,1/2+z
x,-y,1/2+z
1/2+x,1/2+y,z
1/2-x,1/2-y,z
1/2-x,1/2+y,1/2+z
1/2+x,1/2-y,1/2+z
loop_
_atom_site_type_symbol
_atom_site_label
_atom_site_fract_x
_atom_site_fract_y
_atom_site_fract_z
Si Si1 0.711497 0.686804 0.684760
Si Si2 0.804110 0.841470 0.244677
Si Si3 0.447984 0.332987 0.056656
Si Si4 0.862471 0.040754 0.525362
Si Si5 0.139305 0.462092 0.864227
Si Si6 0.966135 0.218987 0.360447
Si Si7 0.159757 0.028432 0.227210
Si Si8 0.537685 0.155664 0.292410
O O1 0.750000 0.750000 0.662501
O O2 0.607221 0.666295 0.606249
O O3 0.635663 0.688700 0.783892
O O4 0.862410 0.655226 0.703252
O O5 0.844837 0.819443 0.144371
O O6 0.876665 0.802899 0.321430
O O7 0.856482 0.906112 0.252382
O O8 0.630728 0.844769 0.261442
O O9 0.413762 0.395514 0.028216
O O10 0.441903 0.297337 0.964431
O O11 0.747425 0.035659 0.447185
O O12 0.799077 0.027392 0.623035
O O13 0.000000 0.000000 0.509378
O O14 0.224138 0.492356 0.782864
O O15 0.086491 0.399113 0.845336
O O16 0.000000 0.500000 0.884388
O O17 0.943298 0.285122 0.344255
O O18 0.000000 0.000000 0.237637
#
# Coordination Sequence:
#
# PCOD9355774 Si02
#       8
#     8   8   8   8   8   8   8   8
#     4   9  21  41  64  96 129 168 219 270 324 387
#     4  10  22  43  66  99 133 173 222 275 332 399
#     4  10  22  42  69  95 126 175 225 273 320 394
#     4  10  24  42  65 101 126 172 231 272 319 401
#     4  12  25  42  67  97 139 173 212 273 344 393
#     4  10  22  42  68  92 130 173 226 265 319 399
#     4  10  23  43  70  93 128 179 223 270 330 391
#     4  11  23  42  65  97 137 177 207 276 341 395
#
# _framework density 9.8765429999999999
#
# number of rings (size 3 to 8) (size 9 to 14) (size 15 to 20)
#    0.000    1.750    1.250    1.500   10.500    1.500 
#    0.000   27.500    0.000    0.000    0.000    0.000 
#    0.000    0.000    0.000    0.000    0.000    0.000 
#
# Total GULP energy -178501.113008 kJ/mol
# GULP energy per Si atom -5578.159781 kJ/mol
# Density = 0.985406 g / cm^3
# Si number density = 9.876543 Si / 1000 Ang^3
#
#
#
# Elastic Constant Matrix: (Units=GPa)
#
#
# Indices 1 2 3 4 5 6 
#
# 1 77.8406 47.0515 71.4952 0.0000 0.0000 0.0000
# 2 47.0515 105.3302 75.7159 0.0000 0.0000 0.0000
# 3 71.4952 75.7159 144.3013 0.0000 0.0000 0.0000
# 4 0.0000 0.0000 0.0000 -3.1746 0.0000 0.0000
# 5 0.0000 0.0000 0.0000 0.0000 26.6776 0.0000
# 6 0.0000 0.0000 0.0000 0.0000 0.0000 30.2382
#
#
#
# Elastic Compliance Matrix: (Units=1/GPa)
#
#
# Indices 1 2 3 4 5 6 
#
# 1 0.024372 -0.003543 -0.010216 0.000000 0.000000 0.000000
# 2 -0.003543 0.015759 -0.006513 0.000000 0.000000 0.000000
# 3 -0.010216 -0.006513 0.015409 0.000000 0.000000 0.000000
# 4 0.000000 0.000000 0.000000 -0.315001 0.000000 0.000000
# 5 0.000000 0.000000 0.000000 0.000000 0.037485 0.000000
# 6 0.000000 0.000000 0.000000 0.000000 0.000000 0.033071
#
#
# Mechanical properties :
#
#
# Convention : Reuss Voigt Hill
#
# Bulk Modulus (GPa) = 66.69054 79.55526 73.12290
# Shear Modulus (GPa) = -34.87638 19.62888 -7.62375
#
# Velocity S-wave (km/s) = -4.20648 3.15574 -1.96670
# Velocity P-wave (km/s) = 3.20042 7.32397 5.65169
#
# Compressibility (1/GPa) = 0.01499463
#
# Stress axis : x y z
#
# Youngs Moduli (GPa) = 41.03116 63.45706 64.89699
#
# Poissons Ratio (x) = 0.22485 0.66299
# Poissons Ratio (y) = 0.14538 0.42268
# Poissons Ratio (z) = 0.41917 0.41331
#
# Static dielectric constant tensor:
#      x y z
#    x 1.758940 0.000000 0.000000 
#    y 0.000000 1.711730 0.000000 
#    z 0.000000 0.000000 1.665790 
# 
# From -- ./inp_files/10984.got.cif
#   From: 2010.05.17/outbox.ucp.g08.bks.cvg/sg37_6_cif.got.tgz:10984.got - 2010.06.11 10:38:43.
