data_PCOD9355366
_publ_section_title
;
Structure prediction by ZEFSAII (Michael W. Deem and Ramdas Pophale) SiO2 
 PCOD9355366
Probable space group: C C C 2
;
_chemical_formula_sum "Si O2"
_cell_formula_units_Z 52
_cell_length_a 13.069285
_cell_length_b 9.021911
_cell_length_c 19.213741
_cell_angle_alpha 90.000000
_cell_angle_beta 90.000000
_cell_angle_gamma 90.000000
_cell_volume 2265.490781
_symmetry_space_group_name_H-M "C C C 2"
_symmetry_group_IT_number 37
_symmetry_cell_setting 'orthorhombic'
loop_
_space_group_symop_operation_xyz
x,y,z
-x,-y,z
-x,y,1/2+z
x,-y,1/2+z
1/2+x,1/2+y,z
1/2-x,1/2-y,z
1/2-x,1/2+y,1/2+z
1/2+x,1/2-y,1/2+z
loop_
_atom_site_type_symbol
_atom_site_label
_atom_site_fract_x
_atom_site_fract_y
_atom_site_fract_z
Si Si1 0.415293 0.282147 0.358450
Si Si2 0.995438 0.830724 0.995755
Si Si3 0.310502 0.121092 0.046516
Si Si4 0.250000 0.750000 0.290830
Si Si5 0.222704 0.509627 0.893981
Si Si6 0.539487 0.335278 0.220583
Si Si7 0.081714 0.370595 0.591906
O O1 0.502986 0.324306 0.413099
O O2 0.325217 0.401755 0.371693
O O3 0.462625 0.285229 0.282051
O O4 0.369295 0.124846 0.381722
O O5 0.903961 0.728154 0.021835
O O6 0.092243 0.744564 0.028860
O O7 0.000000 0.000000 0.018879
O O8 0.250000 0.250000 0.085314
O O9 0.270550 0.053429 0.972792
O O10 0.321504 0.978188 0.096150
O O11 0.205909 0.624294 0.341228
O O12 0.343405 0.676872 0.247961
O O13 0.500000 0.500000 0.201192
O O14 0.541040 0.221349 0.156544
O O15 0.000000 0.500000 0.574554
#
# Coordination Sequence:
#
# PCOD9355366 Si02
#       7
#     8   8   8   4   8   8   8
#     4  11  24  42  73 102 146 181 245 302 369 439
#     4  11  22  41  69 101 135 185 232 297 371 428
#     4  11  22  43  68 103 146 178 245 306 365 443
#     4  12  26  44  72 108 140 184 250 300 388 434
#     4  11  23  42  69 114 137 185 237 309 375 440
#     4  12  26  50  71 103 149 196 247 308 368 455
#     4  10  25  47  68  97 139 198 244 292 374 446
#
# _framework density 22.953085000000002
#
# number of rings (size 3 to 8) (size 9 to 14) (size 15 to 20)
#    0.000    0.923    3.846    2.769    2.154    1.231 
#   11.077    0.000    0.000    0.000    0.000    0.000 
#    0.000    0.000    0.000    0.000    0.000    0.000 
#
# Total GULP energy -145096.823203 kJ/mol
# GULP energy per Si atom -5580.647046 kJ/mol
# Density = 2.290084 g / cm^3
# Si number density = 22.953085 Si / 1000 Ang^3
#
#
#
# Elastic Constant Matrix: (Units=GPa)
#
#
# Indices 1 2 3 4 5 6 
#
# 1 47.5176 38.5469 5.9809 0.0000 0.0000 0.0000
# 2 38.5469 208.5862 72.1927 0.0000 0.0000 0.0000
# 3 5.9809 72.1927 85.3378 0.0000 0.0000 0.0000
# 4 0.0000 0.0000 0.0000 39.1718 0.0000 0.0000
# 5 0.0000 0.0000 0.0000 0.0000 1.2077 0.0000
# 6 0.0000 0.0000 0.0000 0.0000 0.0000 42.3576
#
#
#
# Elastic Compliance Matrix: (Units=1/GPa)
#
#
# Indices 1 2 3 4 5 6 
#
# 1 0.025319 -0.005748 0.003088 0.000000 0.000000 0.000000
# 2 -0.005748 0.008084 -0.006436 0.000000 0.000000 0.000000
# 3 0.003088 -0.006436 0.016946 0.000000 0.000000 0.000000
# 4 0.000000 0.000000 0.000000 0.025529 0.000000 0.000000
# 5 0.000000 0.000000 0.000000 0.000000 0.827988 0.000000
# 6 0.000000 0.000000 0.000000 0.000000 0.000000 0.023609
#
#
# Mechanical properties :
#
#
# Convention : Reuss Voigt Hill
#
# Bulk Modulus (GPa) = 31.09693 63.87586 47.48639
# Shear Modulus (GPa) = 5.22802 31.52884 18.37843
#
# Velocity S-wave (km/s) = 1.51084 3.71026 2.83273
# Velocity P-wave (km/s) = 4.07688 6.80029 5.60647
#
# Compressibility (1/GPa) = 0.03215751
#
# Stress axis : x y z
#
# Youngs Moduli (GPa) = 39.49641 123.70420 59.01047
#
# Poissons Ratio (x) = 0.71101 -0.18221
# Poissons Ratio (y) = 0.22701 0.37978
# Poissons Ratio (z) = -0.12196 0.79613
#
# Static dielectric constant tensor:
#      x y z
#    x 2.449430 0.000000 0.000000 
#    y 0.000000 1.892980 0.000000 
#    z 0.000000 0.000000 1.837740 
# 
# From -- ./inp_files/17125.got.cif
#   From: 2010.05.17/outbox.cif.g08.bks.cpg/sg37_9_cif.got.tgz:17125.got - 2010.06.03 17:53:42.
