data_PCOD9355244
_publ_section_title
;
Structure prediction by ZEFSAII (Michael W. Deem and Ramdas Pophale) SiO2 
 PCOD9355244
Probable space group: C C C 2
;
_chemical_formula_sum "Si O2"
_cell_formula_units_Z 64
_cell_length_a 27.185581
_cell_length_b 12.348229
_cell_length_c 8.560380
_cell_angle_alpha 90.000000
_cell_angle_beta 90.000000
_cell_angle_gamma 90.000000
_cell_volume 2873.666318
_symmetry_space_group_name_H-M "C C C 2"
_symmetry_group_IT_number 37
_symmetry_cell_setting 'orthorhombic'
loop_
_space_group_symop_operation_xyz
x,y,z
-x,-y,z
-x,y,1/2+z
x,-y,1/2+z
1/2+x,1/2+y,z
1/2-x,1/2-y,z
1/2-x,1/2+y,1/2+z
1/2+x,1/2-y,1/2+z
loop_
_atom_site_type_symbol
_atom_site_label
_atom_site_fract_x
_atom_site_fract_y
_atom_site_fract_z
Si Si1 0.017611 0.661900 0.889740
Si Si2 0.191715 0.754042 0.936733
Si Si3 0.535863 0.406545 0.871118
Si Si4 0.651924 0.680665 0.100561
Si Si5 0.614538 0.895799 0.576314
Si Si6 0.099383 0.031720 0.641426
Si Si7 0.074911 0.374820 0.080131
Si Si8 0.653932 0.716045 0.771754
O O1 0.011612 0.790460 0.861275
O O2 0.040787 0.615681 0.733042
O O3 0.060859 0.643838 0.017700
O O4 0.965097 0.617824 0.942131
O O5 0.250000 0.750000 0.924822
O O6 0.173888 0.801948 0.772270
O O7 0.157407 0.646962 0.959616
O O8 0.182021 0.808336 0.108170
O O9 0.500000 0.500000 0.926988
O O10 0.558159 0.452906 0.712541
O O11 0.580215 0.401414 0.994243
O O12 0.640861 0.553076 0.094926
O O13 0.604440 0.761488 0.088502
O O14 0.679920 0.711762 0.939216
O O15 0.628955 0.831970 0.735014
O O16 0.611642 0.024199 0.582994
O O17 0.113970 0.119591 0.770955
#
# Coordination Sequence:
#
# PCOD9355244 Si02
#       8
#     8   8   8   8   8   8   8   8
#     4  12  26  43  62 101 144 203 258 300 372 445
#     4  10  24  51  78 105 147 188 245 326 401 459
#     4  12  24  36  61  93 142 185 244 308 356 416
#     4  12  24  44  75 105 146 193 247 304 385 451
#     4  10  24  47  69  94 144 190 246 312 369 442
#     4  12  21  42  63  96 136 186 236 300 366 432
#     4  12  27  43  69 104 148 208 258 306 367 455
#     4  10  24  42  74 103 141 183 244 298 387 447
#
# _framework density 22.271201000000001
#
# number of rings (size 3 to 8) (size 9 to 14) (size 15 to 20)
#    0.750    0.000    5.000    2.250    5.250    1.500 
#    0.000    1.250    0.000    0.000    0.000    0.000 
#    0.000    0.000    0.000    0.000    0.000    0.000 
#
# Total GULP energy -178594.841249 kJ/mol
# GULP energy per Si atom -5581.088789 kJ/mol
# Density = 2.222051 g / cm^3
# Si number density = 22.271201 Si / 1000 Ang^3
#
#
#
# Elastic Constant Matrix: (Units=GPa)
#
#
# Indices 1 2 3 4 5 6 
#
# 1 70.3656 13.5361 20.0950 0.0000 0.0000 0.0000
# 2 13.5361 119.8196 9.6270 0.0000 0.0000 0.0000
# 3 20.0950 9.6270 143.6832 0.0000 0.0000 0.0000
# 4 0.0000 0.0000 0.0000 16.2825 0.0000 0.0000
# 5 0.0000 0.0000 0.0000 0.0000 -9.8536 0.0000
# 6 0.0000 0.0000 0.0000 0.0000 0.0000 5.9648
#
#
#
# Elastic Compliance Matrix: (Units=1/GPa)
#
#
# Indices 1 2 3 4 5 6 
#
# 1 0.015081 -0.001543 -0.002006 0.000000 0.000000 0.000000
# 2 -0.001543 0.008549 -0.000357 0.000000 0.000000 0.000000
# 3 -0.002006 -0.000357 0.007264 0.000000 0.000000 0.000000
# 4 0.000000 0.000000 0.000000 0.061416 0.000000 0.000000
# 5 0.000000 0.000000 0.000000 0.000000 -0.101486 0.000000
# 6 0.000000 0.000000 0.000000 0.000000 0.000000 0.167649
#
#
# Mechanical properties :
#
#
# Convention : Reuss Voigt Hill
#
# Bulk Modulus (GPa) = 43.32149 46.70940 45.01545
# Shear Modulus (GPa) = 28.73917 21.85276 25.29596
#
# Velocity S-wave (km/s) = 3.59614 3.13583 3.37384
# Velocity P-wave (km/s) = 6.06110 5.84207 5.95259
#
# Compressibility (1/GPa) = 0.02308323
#
# Stress axis : x y z
#
# Youngs Moduli (GPa) = 66.30832 116.97511 137.66126
#
# Poissons Ratio (x) = 0.18044 0.27613
# Poissons Ratio (y) = 0.10228 0.04915
# Poissons Ratio (z) = 0.13300 0.04177
#
# Static dielectric constant tensor:
#      x y z
#    x 2.700720 0.000000 0.000000 
#    y 0.000000 1.818140 0.000000 
#    z 0.000000 0.000000 1.901640 
# 
# From -- ./inp_files/5010.got.cif
#   From: 2010.05.17/outbox.cif.g08.bks.cpg/sg37_3_cif.got.tgz:5010.got - 2010.06.03 17:53:42.
