data_PCOD9355146
_publ_section_title
;
Structure prediction by ZEFSAII (Michael W. Deem and Ramdas Pophale) SiO2 
 PCOD9355146
Probable space group: C C C 2
;
_chemical_formula_sum "Si O2"
_cell_formula_units_Z 48
_cell_length_a 13.228155
_cell_length_b 13.478556
_cell_length_c 12.638192
_cell_angle_alpha 90.000000
_cell_angle_beta 90.000000
_cell_angle_gamma 90.000000
_cell_volume 2253.344489
_symmetry_space_group_name_H-M "C C C 2"
_symmetry_group_IT_number 37
_symmetry_cell_setting 'orthorhombic'
loop_
_space_group_symop_operation_xyz
x,y,z
-x,-y,z
-x,y,1/2+z
x,-y,1/2+z
1/2+x,1/2+y,z
1/2-x,1/2-y,z
1/2-x,1/2+y,1/2+z
1/2+x,1/2-y,1/2+z
loop_
_atom_site_type_symbol
_atom_site_label
_atom_site_fract_x
_atom_site_fract_y
_atom_site_fract_z
Si Si1 0.559669 0.269396 0.546470
Si Si2 0.609911 0.040884 0.515843
Si Si3 0.265291 0.455260 0.656827
Si Si4 0.834226 0.836385 0.237702
Si Si5 0.654134 0.677450 0.478709
Si Si6 0.784952 0.135667 0.386404
O O1 0.598828 0.156322 0.547912
O O2 0.571032 0.305210 0.666850
O O3 0.446520 0.264875 0.506895
O O4 0.621187 0.345920 0.468407
O O5 0.701900 0.056856 0.431965
O O6 0.500000 0.000000 0.479134
O O7 0.651858 0.967227 0.607679
O O8 0.291211 0.567525 0.682298
O O9 0.330546 0.408549 0.563182
O O10 0.291804 0.395998 0.763755
O O11 0.750000 0.750000 0.232951
O O12 0.856024 0.858791 0.358978
O O13 0.750000 0.750000 0.485815
O O14 0.750000 0.250000 0.382720
#
# Coordination Sequence:
#
# PCOD9355146 Si02
#       6
#     8   8   8   8   8   8
#     4  11  23  48  72  98 144 190 232 288 369 428
#     4  11  23  44  72 104 140 188 243 290 357 429
#     4  12  23  44  69 105 139 178 241 296 352 417
#     4  11  23  47  72  95 141 190 228 291 360 431
#     4  11  27  45  70 106 144 181 239 301 354 426
#     4  10  23  44  70 101 142 187 233 298 356 428
#
# _framework density 21.301669
#
# number of rings (size 3 to 8) (size 9 to 14) (size 15 to 20)
#    0.000    1.000    3.333    3.000    2.333    2.667 
#    3.000    0.000    0.000    0.000    0.000    0.000 
#    0.000    0.000    0.000    0.000    0.000    0.000 
#
# Total GULP energy -133812.000697 kJ/mol
# GULP energy per Si atom -5575.500029 kJ/mol
# Density = 2.125319 g / cm^3
# Si number density = 21.301669 Si / 1000 Ang^3
#
#
#
# Elastic Constant Matrix: (Units=GPa)
#
#
# Indices 1 2 3 4 5 6 
#
# 1 67.3007 0.5269 47.5060 0.0000 0.0000 0.0000
# 2 0.5269 51.2561 39.7792 0.0000 0.0000 0.0000
# 3 47.5060 39.7792 168.3567 0.0000 0.0000 0.0000
# 4 0.0000 0.0000 0.0000 -3.3431 0.0000 0.0000
# 5 0.0000 0.0000 0.0000 0.0000 11.1596 0.0000
# 6 0.0000 0.0000 0.0000 0.0000 0.0000 35.0998
#
#
#
# Elastic Compliance Matrix: (Units=1/GPa)
#
#
# Indices 1 2 3 4 5 6 
#
# 1 0.019546 0.004996 -0.006696 0.000000 0.000000 0.000000
# 2 0.004996 0.025168 -0.007356 0.000000 0.000000 0.000000
# 3 -0.006696 -0.007356 0.009567 0.000000 0.000000 0.000000
# 4 0.000000 0.000000 0.000000 -0.299121 0.000000 0.000000
# 5 0.000000 0.000000 0.000000 0.000000 0.089609 0.000000
# 6 0.000000 0.000000 0.000000 0.000000 0.000000 0.028490
#
#
# Mechanical properties :
#
#
# Convention : Reuss Voigt Hill
#
# Bulk Modulus (GPa) = 27.64877 51.39310 39.52093
# Shear Modulus (GPa) = -51.77477 21.85668 -14.95905
#
# Velocity S-wave (km/s) = -4.93541 3.20668 -2.65287
# Velocity P-wave (km/s) = 4.41247 6.15541 3.03474
#
# Compressibility (1/GPa) = 0.03616798
#
# Stress axis : x y z
#
# Youngs Moduli (GPa) = 51.16160 39.73366 104.52330
#
# Poissons Ratio (x) = -0.19849 0.69986
# Poissons Ratio (y) = -0.25558 0.76889
# Poissons Ratio (z) = 0.34256 0.29229
#
# Static dielectric constant tensor:
#      x y z
#    x 1.836400 0.000000 0.000000 
#    y 0.000000 1.806770 0.000000 
#    z 0.000000 0.000000 1.796060 
# 
# From -- ./inp_files/7784.got.cif
#   From: 2010.05.17/outbox.cif.g08.bks.cpg/sg37_4_cif.got.tgz:7784.got - 2010.06.03 17:53:42.
