data_PCOD9355904
_publ_section_title
;
Structure prediction by ZEFSAII (Michael W. Deem and Ramdas Pophale) SiO2 
 PCOD9355904
Probable space group: A M M 2
;
_chemical_formula_sum "Si O2"
_cell_formula_units_Z 64
_cell_length_a 15.207733
_cell_length_b 8.058809
_cell_length_c 25.383008
_cell_angle_alpha 90.000000
_cell_angle_beta 90.000000
_cell_angle_gamma 90.000000
_cell_volume 3110.845400
_symmetry_space_group_name_H-M "A M M 2"
_symmetry_group_IT_number 38
_symmetry_cell_setting 'orthorhombic'
loop_
_space_group_symop_operation_xyz
x,y,z
-x,-y,z
-x,y,z
x,-y,z
x,1/2+y,1/2+z
-x,1/2-y,1/2+z
-x,1/2+y,1/2+z
x,1/2-y,1/2+z
loop_
_atom_site_type_symbol
_atom_site_label
_atom_site_fract_x
_atom_site_fract_y
_atom_site_fract_z
Si Si1 0.130693 0.808790 0.002670
Si Si2 0.725785 0.805739 0.168928
Si Si3 0.680960 0.305558 0.978786
Si Si4 0.096691 0.796896 0.121423
Si Si5 0.404608 0.198710 0.583355
Si Si6 0.096015 0.305269 0.886663
Si Si7 0.600927 0.698723 0.760929
Si Si8 0.706698 0.304126 0.363582
O O1 0.105408 0.742968 0.060236
O O2 0.102126 0.000000 0.998976
O O3 0.235595 0.798711 0.997822
O O4 0.098605 0.717672 0.950129
O O5 0.822419 0.735358 0.156766
O O6 0.671768 0.787310 0.115021
O O7 0.662825 0.732497 0.214013
O O8 0.738007 0.000000 0.181718
O O9 0.704940 0.500000 0.982882
O O10 0.666879 0.265996 0.917995
O O11 0.605268 0.273888 0.020953
O O12 0.000000 0.751550 0.141029
O O13 0.102179 0.000000 0.119820
O O14 0.500000 0.254641 0.602402
O O15 0.396966 0.000000 0.591906
O O16 0.098639 0.500000 0.874611
O O17 0.187815 0.232076 0.864924
O O18 0.000000 0.238800 0.868697
O O19 0.500000 0.762793 0.761225
O O20 0.594498 0.500000 0.753564
O O21 0.653855 0.730915 0.814580
O O22 0.695718 0.500000 0.363295
#
# Coordination Sequence:
#
# PCOD9355904 Si02
#       8
#     8   8   8   8   8   8   8   8
#     4  10  17  28  49  77 113 154 193 232 276 326
#     4  10  20  37  60  84 112 146 191 239 280 331
#     4  10  19  33  53  78 114 153 188 228 280 341
#     4   9  17  29  49  80 116 150 184 225 275 329
#     4  10  21  35  53  80 114 150 183 223 284 347
#     4  10  20  34  54  82 117 156 196 234 277 336
#     4  10  22  41  63  84 108 144 190 242 298 352
#     4  11  23  38  59  85 114 147 189 243 294 341
#
# _framework density 20.573184000000001
#
# number of rings (size 3 to 8) (size 9 to 14) (size 15 to 20)
#    0.000    2.000    1.250    4.500    0.000    4.000 
#    0.000    1.875    0.000    3.375    0.000    0.000 
#    0.000    0.000    0.000    0.000    0.000    0.000 
#
# Total GULP energy -178507.263503 kJ/mol
# GULP energy per Si atom -5578.351984 kJ/mol
# Density = 2.052636 g / cm^3
# Si number density = 20.573184 Si / 1000 Ang^3
#
#
#
# Elastic Constant Matrix: (Units=GPa)
#
#
# Indices 1 2 3 4 5 6 
#
# 1 155.1093 0.9150 64.8759 0.0000 0.0000 0.0000
# 2 0.9150 23.0509 -5.3206 0.0000 0.0000 0.0000
# 3 64.8759 -5.3206 102.2991 0.0000 0.0000 0.0000
# 4 0.0000 0.0000 0.0000 18.0918 0.0000 0.0000
# 5 0.0000 0.0000 0.0000 0.0000 130.7115 0.0000
# 6 0.0000 0.0000 0.0000 0.0000 0.0000 12.2166
#
#
#
# Elastic Compliance Matrix: (Units=1/GPa)
#
#
# Indices 1 2 3 4 5 6 
#
# 1 0.008837 -0.001664 -0.005691 0.000000 0.000000 0.000000
# 2 -0.001664 0.044223 0.003356 0.000000 0.000000 0.000000
# 3 -0.005691 0.003356 0.013559 0.000000 0.000000 0.000000
# 4 0.000000 0.000000 0.000000 0.055274 0.000000 0.000000
# 5 0.000000 0.000000 0.000000 0.000000 0.007650 0.000000
# 6 0.000000 0.000000 0.000000 0.000000 0.000000 0.081856
#
#
# Mechanical properties :
#
#
# Convention : Reuss Voigt Hill
#
# Bulk Modulus (GPa) = 17.05925 44.60001 30.82963
# Shear Modulus (GPa) = 20.92598 46.86993 33.89796
#
# Velocity S-wave (km/s) = 3.19274 4.77823 4.06356
# Velocity P-wave (km/s) = 4.67989 7.22273 6.08561
#
# Compressibility (1/GPa) = 0.05861924
#
# Stress axis : x y z
#
# Youngs Moduli (GPa) = 113.15868 22.61280 73.75279
#
# Poissons Ratio (x) = 0.03764 0.41972
# Poissons Ratio (y) = 0.18834 -0.24748
# Poissons Ratio (z) = 0.64397 -0.07588
#
# Static dielectric constant tensor:
#      x y z
#    x 1.731620 0.000000 0.000000 
#    y 0.000000 1.727660 0.000000 
#    z 0.000000 0.000000 1.726140 
# 
# From -- ./inp_files/22948.got.cif
#   From: 2010.05.17/outbox.cif.g08.bks.cpg/sg38_12_cif.got.tgz:22948.got - 2010.06.03 18:07:57.
