data_PCOD9355129
_publ_section_title
;
Structure prediction by ZEFSAII (Michael W. Deem and Ramdas Pophale) SiO2 
 PCOD9355129
Probable space group: C C C 2
;
_chemical_formula_sum "Si O2"
_cell_formula_units_Z 48
_cell_length_a 29.481875
_cell_length_b 7.180794
_cell_length_c 8.759755
_cell_angle_alpha 90.000000
_cell_angle_beta 90.000000
_cell_angle_gamma 90.000000
_cell_volume 1854.468788
_symmetry_space_group_name_H-M "C C C 2"
_symmetry_group_IT_number 37
_symmetry_cell_setting 'orthorhombic'
loop_
_space_group_symop_operation_xyz
x,y,z
-x,-y,z
-x,y,1/2+z
x,-y,1/2+z
1/2+x,1/2+y,z
1/2-x,1/2-y,z
1/2-x,1/2+y,1/2+z
1/2+x,1/2-y,1/2+z
loop_
_atom_site_type_symbol
_atom_site_label
_atom_site_fract_x
_atom_site_fract_y
_atom_site_fract_z
Si Si1 0.991419 0.685928 0.216940
Si Si2 0.942518 0.879298 0.484281
Si Si3 0.409865 0.220453 0.040264
Si Si4 0.851760 0.864795 0.324460
Si Si5 0.830699 0.694286 0.834556
Si Si6 0.791882 0.384286 0.013267
O O1 0.967936 0.826862 0.330688
O O2 0.000000 0.500000 0.313121
O O3 0.031441 0.787449 0.125346
O O4 0.950071 0.603392 0.112440
O O5 0.890008 0.830751 0.454442
O O6 0.939277 0.100945 0.491550
O O7 0.334916 0.420346 0.828529
O O8 0.379488 0.136942 0.906448
O O9 0.874779 0.802633 0.166317
O O10 0.811504 0.731303 0.370740
O O11 0.793344 0.594971 0.945502
O O12 0.822469 0.621236 0.664834
O O13 0.750000 0.250000 0.060182
#
# Coordination Sequence:
#
# PCOD9355129 Si02
#       6
#     8   8   8   8   8   8
#     4  11  24  41  68 110 154 198 258 322 375 446
#     4  10  23  43  68 105 147 202 254 309 379 445
#     4  10  23  47  76 104 149 210 255 315 381 461
#     4  10  24  50  77 108 149 199 257 311 388 464
#     4  11  25  50  75 111 151 194 244 312 385 465
#     4  12  29  48  80 115 146 196 248 320 392 475
#
# _framework density 25.883421999999999
#
# number of rings (size 3 to 8) (size 9 to 14) (size 15 to 20)
#    0.000    1.333    0.000    4.000    4.667    8.000 
#    6.000    0.000    0.000    0.000    0.000    0.000 
#    0.000    0.000    0.000    0.000    0.000    0.000 
#
# Total GULP energy -134150.158428 kJ/mol
# GULP energy per Si atom -5589.589935 kJ/mol
# Density = 2.582451 g / cm^3
# Si number density = 25.883422 Si / 1000 Ang^3
#
#
#
# Elastic Constant Matrix: (Units=GPa)
#
#
# Indices 1 2 3 4 5 6 
#
# 1 49.6789 42.2213 35.2222 0.0000 0.0000 0.0000
# 2 42.2213 122.4565 41.9051 0.0000 0.0000 0.0000
# 3 35.2222 41.9051 133.1848 0.0000 0.0000 0.0000
# 4 0.0000 0.0000 0.0000 28.0082 0.0000 0.0000
# 5 0.0000 0.0000 0.0000 0.0000 20.1836 0.0000
# 6 0.0000 0.0000 0.0000 0.0000 0.0000 9.9124
#
#
#
# Elastic Compliance Matrix: (Units=1/GPa)
#
#
# Indices 1 2 3 4 5 6 
#
# 1 0.031756 -0.009049 -0.005551 0.000000 0.000000 0.000000
# 2 -0.009049 0.011730 -0.001298 0.000000 0.000000 0.000000
# 3 -0.005551 -0.001298 0.009385 0.000000 0.000000 0.000000
# 4 0.000000 0.000000 0.000000 0.035704 0.000000 0.000000
# 5 0.000000 0.000000 0.000000 0.000000 0.049545 0.000000
# 6 0.000000 0.000000 0.000000 0.000000 0.000000 0.100883
#
#
# Mechanical properties :
#
#
# Convention : Reuss Voigt Hill
#
# Bulk Modulus (GPa) = 47.44968 60.44637 53.94802
# Shear Modulus (GPa) = 17.99702 24.01897 21.00799
#
# Velocity S-wave (km/s) = 2.63974 3.04956 2.85202
# Velocity P-wave (km/s) = 5.25954 5.98362 5.63323
#
# Compressibility (1/GPa) = 0.02107496
#
# Stress axis : x y z
#
# Youngs Moduli (GPa) = 31.49038 85.24922 106.55724
#
# Poissons Ratio (x) = 0.77145 0.59148
# Poissons Ratio (y) = 0.28497 0.13827
# Poissons Ratio (z) = 0.17480 0.11062
#
# Static dielectric constant tensor:
#      x y z
#    x 2.133130 0.000000 0.000000 
#    y 0.000000 2.115990 0.000000 
#    z 0.000000 0.000000 2.022340 
# 
# From -- ./inp_files/4941.got.cif
#   From: 2010.05.17/outbox.cif.g08.bks.cpg/sg37_3_cif.got.tgz:4941.got - 2010.06.03 17:53:42.
