data_PCOD9355136
_publ_section_title
;
Structure prediction by ZEFSAII (Michael W. Deem and Ramdas Pophale) SiO2 
 PCOD9355136
Probable space group: C C C 2
;
_chemical_formula_sum "Si O2"
_cell_formula_units_Z 40
_cell_length_a 7.261229
_cell_length_b 7.299548
_cell_length_c 27.598095
_cell_angle_alpha 90.000000
_cell_angle_beta 90.000000
_cell_angle_gamma 90.000000
_cell_volume 1462.800862
_symmetry_space_group_name_H-M "C C C 2"
_symmetry_group_IT_number 37
_symmetry_cell_setting 'orthorhombic'
loop_
_space_group_symop_operation_xyz
x,y,z
-x,-y,z
-x,y,1/2+z
x,-y,1/2+z
1/2+x,1/2+y,z
1/2-x,1/2-y,z
1/2-x,1/2+y,1/2+z
1/2+x,1/2-y,1/2+z
loop_
_atom_site_type_symbol
_atom_site_label
_atom_site_fract_x
_atom_site_fract_y
_atom_site_fract_z
Si Si1 0.313571 0.941845 0.905160
Si Si2 0.286162 0.033957 0.153313
Si Si3 0.717604 0.030405 0.544987
Si Si4 0.500000 0.500000 0.732272
Si Si5 0.500000 0.500000 0.465730
Si Si6 0.970852 0.210953 0.323838
O O1 0.250000 0.750000 0.925070
O O2 0.151788 0.074231 0.925685
O O3 0.098205 0.644204 0.852945
O O4 0.500000 0.000000 0.929738
O O5 0.250000 0.250000 0.154045
O O6 0.230615 0.969402 0.099657
O O7 0.168295 0.957438 0.197345
O O8 0.500000 0.000000 0.160082
O O9 0.750000 0.250000 0.540279
O O10 0.500000 0.000000 0.539639
O O11 0.850195 0.937160 0.506129
O O12 0.475180 0.675995 0.767972
O O13 0.750000 0.250000 0.328477
O O14 0.000000 0.000000 0.341309
#
# Coordination Sequence:
#
# PCOD9355136 Si02
#       6
#     8   8   8   4   4   8
#     4  12  30  51  76 106 151 205 264 326 390 461
#     4  10  23  43  74 112 155 195 247 315 397 480
#     4  10  24  48  72 112 157 198 251 327 397 482
#     4  10  25  45  76 112 146 200 264 308 410 470
#     4  12  29  45  78 106 142 208 266 320 398 476
#     4  10  25  50  74 109 153 204 260 331 393 455
#
# _framework density 27.344802000000001
#
# number of rings (size 3 to 8) (size 9 to 14) (size 15 to 20)
#    0.600    0.800    0.000    2.400   12.600    0.800 
#    0.000    6.000    0.000    0.000    0.000    0.000 
#    0.000    0.000    0.000    0.000    0.000    0.000 
#
# Total GULP energy -111376.920543 kJ/mol
# GULP energy per Si atom -5568.846027 kJ/mol
# Density = 2.728256 g / cm^3
# Si number density = 27.344802 Si / 1000 Ang^3
#
#
#
# Elastic Constant Matrix: (Units=GPa)
#
#
# Indices 1 2 3 4 5 6 
#
# 1 264.2585 48.7244 105.5922 0.0000 0.0000 0.0000
# 2 48.7244 120.9024 27.5772 0.0000 0.0000 0.0000
# 3 105.5922 27.5772 278.2724 0.0000 0.0000 0.0000
# 4 0.0000 0.0000 0.0000 15.4132 0.0000 0.0000
# 5 0.0000 0.0000 0.0000 0.0000 -199.3148 0.0000
# 6 0.0000 0.0000 0.0000 0.0000 0.0000 63.5948
#
#
#
# Elastic Compliance Matrix: (Units=1/GPa)
#
#
# Indices 1 2 3 4 5 6 
#
# 1 0.004721 -0.001529 -0.001640 0.000000 0.000000 0.000000
# 2 -0.001529 0.008957 -0.000308 0.000000 0.000000 0.000000
# 3 -0.001640 -0.000308 0.004246 0.000000 0.000000 0.000000
# 4 0.000000 0.000000 0.000000 0.064879 0.000000 0.000000
# 5 0.000000 0.000000 0.000000 0.000000 -0.005017 0.000000
# 6 0.000000 0.000000 0.000000 0.000000 0.000000 0.015725
#
#
# Mechanical properties :
#
#
# Convention : Reuss Voigt Hill
#
# Bulk Modulus (GPa) = 91.13725 114.13564 102.63644
# Shear Modulus (GPa) = 48.02058 8.04127 28.03093
#
# Velocity S-wave (km/s) = 4.19515 1.71671 3.20518
# Velocity P-wave (km/s) = 7.54102 6.76458 7.16332
#
# Compressibility (1/GPa) = 0.01097246
#
# Stress axis : x y z
#
# Youngs Moduli (GPa) = 211.80335 111.64005 235.49260
#
# Poissons Ratio (x) = 0.17066 0.38622
# Poissons Ratio (y) = 0.32377 0.07244
# Poissons Ratio (z) = 0.34737 0.03434
#
# Static dielectric constant tensor:
#      x y z
#    x 3.527560 0.000000 0.000000 
#    y 0.000000 2.303370 0.000000 
#    z 0.000000 0.000000 2.192470 
# 
# From -- ./inp_files/20110.got.cif
#   From: 2010.05.17/outbox.cif.g08.bks.cpg/sg37_11_cif.got.tgz:20110.got - 2010.06.03 17:53:42.
