data_PCOD9355266
_publ_section_title
;
Structure prediction by ZEFSAII (Michael W. Deem and Ramdas Pophale) SiO2 
 PCOD9355266
Probable space group: C C C 2
;
_chemical_formula_sum "Si O2"
_cell_formula_units_Z 60
_cell_length_a 8.829709
_cell_length_b 11.087594
_cell_length_c 28.916233
_cell_angle_alpha 90.000000
_cell_angle_beta 90.000000
_cell_angle_gamma 90.000000
_cell_volume 2830.905819
_symmetry_space_group_name_H-M "C C C 2"
_symmetry_group_IT_number 37
_symmetry_cell_setting 'orthorhombic'
loop_
_space_group_symop_operation_xyz
x,y,z
-x,-y,z
-x,y,1/2+z
x,-y,1/2+z
1/2+x,1/2+y,z
1/2-x,1/2-y,z
1/2-x,1/2+y,1/2+z
1/2+x,1/2-y,1/2+z
loop_
_atom_site_type_symbol
_atom_site_label
_atom_site_fract_x
_atom_site_fract_y
_atom_site_fract_z
Si Si1 0.411582 0.248290 0.308280
Si Si2 0.865126 0.928998 0.696827
Si Si3 0.000000 0.000000 0.352672
Si Si4 0.689557 0.114599 0.643591
Si Si5 0.666044 0.064905 0.891024
Si Si6 0.442501 0.163659 0.717531
Si Si7 0.175403 0.626185 0.997112
Si Si8 0.159488 0.375930 0.037267
O O1 0.250000 0.250000 0.282402
O O2 0.481061 0.375232 0.324433
O O3 0.371134 0.165205 0.352245
O O4 0.514632 0.189393 0.269886
O O5 0.709819 0.911993 0.723257
O O6 0.913753 0.791265 0.691058
O O7 0.817232 0.013234 0.653690
O O8 0.000000 0.000000 0.721229
O O9 0.829777 0.000234 0.377954
O O10 0.750000 0.250000 0.647001
O O11 0.566532 0.108021 0.683914
O O12 0.630130 0.102619 0.591638
O O13 0.692345 0.117111 0.942009
O O14 0.500000 0.000000 0.893783
O O15 0.250000 0.750000 0.014297
O O16 0.235409 0.499288 0.018162
O O17 0.998875 0.633993 0.010570
O O18 0.250000 0.250000 0.031795
#
# Coordination Sequence:
#
# PCOD9355266 Si02
#       8
#     8   8   4   8   8   8   8   8
#     4  10  24  44  69 106 143 187 244 291 351 431
#     4  11  25  42  65  98 137 181 243 279 345 421
#     4  10  24  44  74 104 148 194 238 298 360 428
#     4  11  23  45  68  96 138 184 231 293 355 420
#     4  11  24  47  73 107 147 187 240 302 364 435
#     4  11  25  42  69  98 136 192 228 287 354 405
#     4  11  24  47  73 103 145 181 236 302 364 443
#     4  10  25  45  69 106 138 183 238 296 371 436
#
# _framework density 21.194631000000001
#
# number of rings (size 3 to 8) (size 9 to 14) (size 15 to 20)
#    0.000    1.333    2.667    2.000    4.667    8.533 
#    0.000    0.000    0.000    0.000    0.000    0.000 
#    0.000    0.000    0.000    0.000    0.000    0.000 
#
# Total GULP energy -167084.193976 kJ/mol
# GULP energy per Si atom -5569.473133 kJ/mol
# Density = 2.114639 g / cm^3
# Si number density = 21.194631 Si / 1000 Ang^3
#
#
#
# Elastic Constant Matrix: (Units=GPa)
#
#
# Indices 1 2 3 4 5 6 
#
# 1 127.4795 69.5230 41.9554 0.0000 0.0000 0.0000
# 2 69.5230 155.8028 44.6494 0.0000 0.0000 0.0000
# 3 41.9554 44.6494 107.5497 0.0000 0.0000 0.0000
# 4 0.0000 0.0000 0.0000 31.6684 0.0000 0.0000
# 5 0.0000 0.0000 0.0000 0.0000 11.6561 0.0000
# 6 0.0000 0.0000 0.0000 0.0000 0.0000 52.3771
#
#
#
# Elastic Compliance Matrix: (Units=1/GPa)
#
#
# Indices 1 2 3 4 5 6 
#
# 1 0.010949 -0.004156 -0.002546 0.000000 0.000000 0.000000
# 2 -0.004156 0.008863 -0.002058 0.000000 0.000000 0.000000
# 3 -0.002546 -0.002058 0.011146 0.000000 0.000000 0.000000
# 4 0.000000 0.000000 0.000000 0.031577 0.000000 0.000000
# 5 0.000000 0.000000 0.000000 0.000000 0.085792 0.000000
# 6 0.000000 0.000000 0.000000 0.000000 0.000000 0.019092
#
#
# Mechanical properties :
#
#
# Convention : Reuss Voigt Hill
#
# Bulk Modulus (GPa) = 74.41992 78.12084 76.27038
# Shear Modulus (GPa) = 26.39672 34.78726 30.59199
#
# Velocity S-wave (km/s) = 3.53291 4.05572 3.80331
# Velocity P-wave (km/s) = 7.19936 7.67272 7.43981
#
# Compressibility (1/GPa) = 0.01343726
#
# Stress axis : x y z
#
# Youngs Moduli (GPa) = 91.33393 112.83225 89.72194
#
# Poissons Ratio (x) = 0.46894 0.22841
# Poissons Ratio (y) = 0.37959 0.18465
# Poissons Ratio (z) = 0.23251 0.23222
#
# Static dielectric constant tensor:
#      x y z
#    x 1.855220 0.000000 0.000000 
#    y 0.000000 1.807230 0.000000 
#    z 0.000000 0.000000 1.732910 
# 
# From -- ./inp_files/19675.got.cif
#   From: 2010.05.17/outbox.cif.g08.bks.cpg/sg37_10_cif.got.tgz:19675.got - 2010.06.03 17:53:42.
