data_PCOD9355563
_publ_section_title
;
Structure prediction by ZEFSAII (Michael W. Deem and Ramdas Pophale) SiO2 
 PCOD9355563
Probable space group: C C C 2
;
_chemical_formula_sum "Si O2"
_cell_formula_units_Z 40
_cell_length_a 7.241920
_cell_length_b 21.396005
_cell_length_c 9.856586
_cell_angle_alpha 90.000000
_cell_angle_beta 90.000000
_cell_angle_gamma 90.000000
_cell_volume 1527.259830
_symmetry_space_group_name_H-M "C C C 2"
_symmetry_group_IT_number 37
_symmetry_cell_setting 'orthorhombic'
loop_
_space_group_symop_operation_xyz
x,y,z
-x,-y,z
-x,y,1/2+z
x,-y,1/2+z
1/2+x,1/2+y,z
1/2-x,1/2-y,z
1/2-x,1/2+y,1/2+z
1/2+x,1/2-y,1/2+z
loop_
_atom_site_type_symbol
_atom_site_label
_atom_site_fract_x
_atom_site_fract_y
_atom_site_fract_z
Si Si1 0.284096 0.057240 0.803030
Si Si2 0.963782 0.253884 0.685231
Si Si3 0.948219 0.606225 0.079295
Si Si4 0.093431 0.798859 0.941219
Si Si5 0.652408 0.421346 0.794960
O O1 0.069974 0.077136 0.784529
O O2 0.604763 0.933046 0.661865
O O3 0.248142 0.985179 0.846060
O O4 0.399489 0.092735 0.921661
O O5 0.750000 0.250000 0.723210
O O6 0.993866 0.321853 0.621731
O O7 0.042419 0.232371 0.829652
O O8 0.987603 0.197725 0.580854
O O9 0.756611 0.589306 0.154465
O O10 0.250000 0.750000 0.983041
O O11 0.183226 0.862587 0.892629
#
# Coordination Sequence:
#
# PCOD9355563 Si02
#       5
#     8   8   8   8   8
#     4  11  29  49  82 114 153 208 257 325 394 465
#     4  11  23  45  72 107 150 194 250 313 380 455
#     4  12  25  51  79 115 158 202 264 319 390 474
#     4  11  24  46  72 105 149 196 249 313 378 460
#     4  11  26  50  75 111 156 202 256 320 388 465
#
# _framework density 26.190698000000001
#
# number of rings (size 3 to 8) (size 9 to 14) (size 15 to 20)
#    0.000    0.800    4.000    3.000    0.000   10.400 
#    0.000    0.000    0.000    4.800    0.000    0.000 
#    0.000    0.000    0.000    0.000    0.000    0.000 
#
# Total GULP energy -111793.421340 kJ/mol
# GULP energy per Si atom -5589.671067 kJ/mol
# Density = 2.613109 g / cm^3
# Si number density = 26.190698 Si / 1000 Ang^3
#
#
#
# Elastic Constant Matrix: (Units=GPa)
#
#
# Indices 1 2 3 4 5 6 
#
# 1 120.9246 41.7611 35.2102 0.0000 0.0000 0.0000
# 2 41.7611 162.9342 10.2451 0.0000 0.0000 0.0000
# 3 35.2102 10.2451 116.6591 0.0000 0.0000 0.0000
# 4 0.0000 0.0000 0.0000 38.6347 0.0000 0.0000
# 5 0.0000 0.0000 0.0000 0.0000 20.3403 0.0000
# 6 0.0000 0.0000 0.0000 0.0000 0.0000 35.7827
#
#
#
# Elastic Compliance Matrix: (Units=1/GPa)
#
#
# Indices 1 2 3 4 5 6 
#
# 1 0.009894 -0.002361 -0.002779 0.000000 0.000000 0.000000
# 2 -0.002361 0.006735 0.000121 0.000000 0.000000 0.000000
# 3 -0.002779 0.000121 0.009400 0.000000 0.000000 0.000000
# 4 0.000000 0.000000 0.000000 0.025883 0.000000 0.000000
# 5 0.000000 0.000000 0.000000 0.000000 0.049163 0.000000
# 6 0.000000 0.000000 0.000000 0.000000 0.000000 0.027946
#
#
# Mechanical properties :
#
#
# Convention : Reuss Voigt Hill
#
# Bulk Modulus (GPa) = 62.53353 63.88340 63.20846
# Shear Modulus (GPa) = 34.62818 39.83830 37.23324
#
# Velocity S-wave (km/s) = 3.64009 3.90434 3.77453
# Velocity P-wave (km/s) = 6.44942 6.69102 6.57133
#
# Compressibility (1/GPa) = 0.01599142
#
# Stress axis : x y z
#
# Youngs Moduli (GPa) = 101.06917 148.47756 106.38209
#
# Poissons Ratio (x) = 0.35059 0.29563
# Poissons Ratio (y) = 0.23865 -0.01289
# Poissons Ratio (z) = 0.28086 -0.01799
#
# Static dielectric constant tensor:
#      x y z
#    x 2.098630 0.000000 0.000000 
#    y 0.000000 2.161070 0.000000 
#    z 0.000000 0.000000 2.100820 
# 
# From -- ./inp_files/6269.got.cif
#   From: 2010.05.17/outbox.cif.g08.bks.cpg/sg37_4_cif.got.tgz:6269.got - 2010.06.03 17:53:42.
