data_PCOD9355147
_publ_section_title
;
Structure prediction by ZEFSAII (Michael W. Deem and Ramdas Pophale) SiO2 
 PCOD9355147
Probable space group: C C C 2
;
_chemical_formula_sum "Si O2"
_cell_formula_units_Z 64
_cell_length_a 8.875564
_cell_length_b 11.382587
_cell_length_c 30.236773
_cell_angle_alpha 90.000000
_cell_angle_beta 90.000000
_cell_angle_gamma 90.000000
_cell_volume 3054.726819
_symmetry_space_group_name_H-M "C C C 2"
_symmetry_group_IT_number 37
_symmetry_cell_setting 'orthorhombic'
loop_
_space_group_symop_operation_xyz
x,y,z
-x,-y,z
-x,y,1/2+z
x,-y,1/2+z
1/2+x,1/2+y,z
1/2-x,1/2-y,z
1/2-x,1/2+y,1/2+z
1/2+x,1/2-y,1/2+z
loop_
_atom_site_type_symbol
_atom_site_label
_atom_site_fract_x
_atom_site_fract_y
_atom_site_fract_z
Si Si1 0.337295 0.369786 0.949140
Si Si2 0.122882 0.895369 0.188411
Si Si3 0.842772 0.045173 0.826570
Si Si4 0.178666 0.874264 0.087679
Si Si5 0.580239 0.716531 0.249003
Si Si6 0.681875 0.371430 0.918442
Si Si7 0.334853 0.370958 0.055306
Si Si8 0.632208 0.089704 0.267127
O O1 0.250000 0.250000 0.935986
O O2 0.504629 0.363522 0.929214
O O3 0.270026 0.498168 0.935806
O O4 0.348427 0.370222 0.002325
O O5 0.193873 0.882300 0.140728
O O6 0.247417 0.903297 0.227159
O O7 0.012888 0.791497 0.203846
O O8 0.000000 0.000000 0.188307
O O9 0.891179 0.107363 0.781021
O O10 0.780983 0.123550 0.866063
O O11 0.721852 0.951156 0.810342
O O12 0.000000 0.000000 0.845215
O O13 0.250000 0.750000 0.072407
O O14 0.001409 0.868066 0.076206
O O15 0.233642 0.000958 0.068762
O O16 0.750000 0.750000 0.238335
O O17 0.467127 0.796598 0.277128
O O18 0.750000 0.250000 0.937208
O O19 0.250000 0.250000 0.068540
O O20 0.500000 0.000000 0.253982
#
# Coordination Sequence:
#
# PCOD9355147 Si02
#       8
#     8   8   8   8   8   8   8   8
#     4  10  23  45  69  99 133 173 216 269 339 401
#     4  12  22  43  63  89 129 170 223 279 337 384
#     4  12  23  42  62  90 129 170 224 278 330 387
#     4  11  23  42  66  99 136 172 218 274 334 394
#     4  12  23  40  62  88 124 172 224 275 330 396
#     4  11  24  43  66  99 134 171 220 273 332 397
#     4  10  23  44  70  98 134 173 217 271 332 406
#     4  12  24  41  61  89 124 172 220 271 329 388
#
# _framework density 20.951136999999999
#
# number of rings (size 3 to 8) (size 9 to 14) (size 15 to 20)
#    0.000    0.750    6.250    3.000    0.000    4.500 
#    4.500    2.500    0.000    0.000    0.000    0.000 
#    0.000    0.000    0.000    0.000    0.000    0.000 
#
# Total GULP energy -178309.063416 kJ/mol
# GULP energy per Si atom -5572.158232 kJ/mol
# Density = 2.090345 g / cm^3
# Si number density = 20.951137 Si / 1000 Ang^3
#
#
#
# Elastic Constant Matrix: (Units=GPa)
#
#
# Indices 1 2 3 4 5 6 
#
# 1 91.1420 56.2283 18.4575 0.0000 0.0000 0.0000
# 2 56.2283 149.3344 24.3241 0.0000 0.0000 0.0000
# 3 18.4575 24.3241 78.4592 0.0000 0.0000 0.0000
# 4 0.0000 0.0000 0.0000 27.4791 0.0000 0.0000
# 5 0.0000 0.0000 0.0000 0.0000 9.0182 0.0000
# 6 0.0000 0.0000 0.0000 0.0000 0.0000 46.2845
#
#
#
# Elastic Compliance Matrix: (Units=1/GPa)
#
#
# Indices 1 2 3 4 5 6 
#
# 1 0.014533 -0.005177 -0.001814 0.000000 0.000000 0.000000
# 2 -0.005177 0.008896 -0.001540 0.000000 0.000000 0.000000
# 3 -0.001814 -0.001540 0.013650 0.000000 0.000000 0.000000
# 4 0.000000 0.000000 0.000000 0.036391 0.000000 0.000000
# 5 0.000000 0.000000 0.000000 0.000000 0.110887 0.000000
# 6 0.000000 0.000000 0.000000 0.000000 0.000000 0.021606
#
#
# Mechanical properties :
#
#
# Convention : Reuss Voigt Hill
#
# Bulk Modulus (GPa) = 49.95683 57.43950 53.69816
# Shear Modulus (GPa) = 21.76781 31.21806 26.49294
#
# Velocity S-wave (km/s) = 3.22682 3.86429 3.55985
# Velocity P-wave (km/s) = 6.14649 6.88373 6.52553
#
# Compressibility (1/GPa) = 0.02001728
#
# Stress axis : x y z
#
# Youngs Moduli (GPa) = 68.80991 112.40550 73.26147
#
# Poissons Ratio (x) = 0.58187 0.13290
# Poissons Ratio (y) = 0.35619 0.11284
# Poissons Ratio (z) = 0.12482 0.17314
#
# Static dielectric constant tensor:
#      x y z
#    x 1.721090 0.000000 0.000000 
#    y 0.000000 1.885210 0.000000 
#    z 0.000000 0.000000 1.725340 
# 
# From -- ./inp_files/20405.got.cif
#   From: 2010.05.17/outbox.cif.g08.bks.cpg/sg37_11_cif.got.tgz:20405.got - 2010.06.03 17:53:42.
