data_PCOD9355247
_publ_section_title
;
Structure prediction by ZEFSAII (Michael W. Deem and Ramdas Pophale) SiO2 
 PCOD9355247
Probable space group: C C C 2
;
_chemical_formula_sum "Si O2"
_cell_formula_units_Z 60
_cell_length_a 6.197352
_cell_length_b 21.070691
_cell_length_c 19.437598
_cell_angle_alpha 90.000000
_cell_angle_beta 90.000000
_cell_angle_gamma 90.000000
_cell_volume 2538.209927
_symmetry_space_group_name_H-M "C C C 2"
_symmetry_group_IT_number 37
_symmetry_cell_setting 'orthorhombic'
loop_
_space_group_symop_operation_xyz
x,y,z
-x,-y,z
-x,y,1/2+z
x,-y,1/2+z
1/2+x,1/2+y,z
1/2-x,1/2-y,z
1/2-x,1/2+y,1/2+z
1/2+x,1/2-y,1/2+z
loop_
_atom_site_type_symbol
_atom_site_label
_atom_site_fract_x
_atom_site_fract_y
_atom_site_fract_z
Si Si1 0.179297 0.956806 0.986060
Si Si2 0.827727 0.545454 0.624568
Si Si3 0.382210 0.356619 0.943066
Si Si4 0.983742 0.429930 0.369458
Si Si5 0.496890 0.362805 0.182895
Si Si6 0.192001 0.822217 0.823923
Si Si7 0.250000 0.750000 0.125905
Si Si8 0.388646 0.163997 0.073833
O O1 0.378746 0.943801 0.938247
O O2 0.052280 0.891223 0.994044
O O3 0.239569 0.990252 0.056933
O O4 0.000000 0.000000 0.950384
O O5 0.626723 0.572845 0.666204
O O6 0.000000 0.500000 0.660879
O O7 0.954820 0.603989 0.588629
O O8 0.533660 0.318253 0.890400
O O9 0.247625 0.404264 0.893417
O O10 0.209085 0.330632 0.997375
O O11 0.105420 0.369056 0.337420
O O12 0.000000 0.500000 0.333633
O O13 0.421773 0.356799 0.260462
O O14 0.671669 0.307871 0.171674
O O15 0.298937 0.347016 0.131024
O O16 0.250000 0.750000 0.804711
O O17 0.457269 0.775342 0.084785
#
# Coordination Sequence:
#
# PCOD9355247 Si02
#       8
#     8   8   8   8   8   8   4   8
#     4  11  19  36  70 104 146 187 228 288 377 449
#     4  11  23  38  70 111 142 180 242 301 364 445
#     4  11  23  42  70 105 146 187 240 307 375 436
#     4  11  23  44  73 107 145 188 245 304 371 439
#     4  11  25  49  73  94 142 200 239 295 379 450
#     4  11  28  50  72 102 143 202 252 296 371 463
#     4  10  24  42  74  98 134 182 256 294 366 454
#     4  11  22  44  68 107 138 186 237 310 367 433
#
# _framework density 23.638705999999999
#
# number of rings (size 3 to 8) (size 9 to 14) (size 15 to 20)
#    0.000    1.067    4.000    2.400    0.000    3.733 
#    7.200    4.000    0.000    0.000    0.000    0.000 
#    0.000    0.000    0.000    0.000    0.000    0.000 
#
# Total GULP energy -167525.132876 kJ/mol
# GULP energy per Si atom -5584.171096 kJ/mol
# Density = 2.358490 g / cm^3
# Si number density = 23.638706 Si / 1000 Ang^3
#
#
#
# Elastic Constant Matrix: (Units=GPa)
#
#
# Indices 1 2 3 4 5 6 
#
# 1 104.3832 33.5194 30.5999 0.0000 0.0000 0.0000
# 2 33.5194 90.6330 12.5856 0.0000 0.0000 0.0000
# 3 30.5999 12.5856 90.7592 0.0000 0.0000 0.0000
# 4 0.0000 0.0000 0.0000 11.1243 0.0000 0.0000
# 5 0.0000 0.0000 0.0000 0.0000 19.0447 0.0000
# 6 0.0000 0.0000 0.0000 0.0000 0.0000 50.8273
#
#
#
# Elastic Compliance Matrix: (Units=1/GPa)
#
#
# Indices 1 2 3 4 5 6 
#
# 1 0.011845 -0.003901 -0.003453 0.000000 0.000000 0.000000
# 2 -0.003901 0.012535 -0.000423 0.000000 0.000000 0.000000
# 3 -0.003453 -0.000423 0.012241 0.000000 0.000000 0.000000
# 4 0.000000 0.000000 0.000000 0.089894 0.000000 0.000000
# 5 0.000000 0.000000 0.000000 0.000000 0.052508 0.000000
# 6 0.000000 0.000000 0.000000 0.000000 0.000000 0.019674
#
#
# Mechanical properties :
#
#
# Convention : Reuss Voigt Hill
#
# Bulk Modulus (GPa) = 47.46680 48.79837 48.13259
# Shear Modulus (GPa) = 22.59651 30.13727 26.36689
#
# Velocity S-wave (km/s) = 3.09514 3.57446 3.34340
# Velocity P-wave (km/s) = 5.73558 6.14198 5.94226
#
# Compressibility (1/GPa) = 0.02106735
#
# Stress axis : x y z
#
# Youngs Moduli (GPa) = 84.42392 79.77620 81.69347
#
# Poissons Ratio (x) = 0.31123 0.28206
# Poissons Ratio (y) = 0.32936 0.03455
# Poissons Ratio (z) = 0.29148 0.03374
#
# Static dielectric constant tensor:
#      x y z
#    x 1.967780 0.000000 0.000000 
#    y 0.000000 2.021560 0.000000 
#    z 0.000000 0.000000 1.880980 
# 
# From -- ./inp_files/15966.got.cif
#   From: 2010.05.17/outbox.cif.g08.bks.cpg/sg37_8_cif.got.tgz:15966.got - 2010.06.03 17:53:42.
