data_PCOD9355938
_publ_section_title
;
Structure prediction by ZEFSAII (Michael W. Deem and Ramdas Pophale) SiO2 
 PCOD9355938
Probable space group: A M M 2
;
_chemical_formula_sum "Si O2"
_cell_formula_units_Z 56
_cell_length_a 22.239662
_cell_length_b 7.500236
_cell_length_c 15.877389
_cell_angle_alpha 90.000000
_cell_angle_beta 90.000000
_cell_angle_gamma 90.000000
_cell_volume 2648.391569
_symmetry_space_group_name_H-M "A M M 2"
_symmetry_group_IT_number 38
_symmetry_cell_setting 'orthorhombic'
loop_
_space_group_symop_operation_xyz
x,y,z
-x,-y,z
-x,y,z
x,-y,z
x,1/2+y,1/2+z
-x,1/2-y,1/2+z
-x,1/2+y,1/2+z
x,1/2-y,1/2+z
loop_
_atom_site_type_symbol
_atom_site_label
_atom_site_fract_x
_atom_site_fract_y
_atom_site_fract_z
Si Si1 0.151981 0.711737 0.588260
Si Si2 0.500000 0.790606 0.189072
Si Si3 0.930961 0.717708 0.739749
Si Si4 0.712397 0.286984 0.586343
Si Si5 0.370842 0.213858 0.427010
Si Si6 0.368819 0.718828 0.740798
Si Si7 0.068247 0.214599 0.430423
Si Si8 0.500000 0.215993 0.491057
O O1 0.156962 0.500000 0.602026
O O2 0.113831 0.782434 0.667527
O O3 0.219686 0.783650 0.582249
O O4 0.114657 0.735235 0.502605
O O5 0.562901 0.719448 0.223761
O O6 0.500000 0.000000 0.210873
O O7 0.500000 0.769992 0.088582
O O8 0.930226 0.500000 0.738966
O O9 0.915798 0.773536 0.835375
O O10 0.000000 0.770666 0.722224
O O11 0.716105 0.500000 0.596442
O O12 0.674759 0.256189 0.501660
O O13 0.674688 0.218895 0.666397
O O14 0.350786 0.274417 0.334619
O O15 0.438117 0.279326 0.448880
O O16 0.375073 0.000000 0.423100
O O17 0.369078 0.500000 0.737538
O O18 0.000000 0.276865 0.449434
O O19 0.066390 0.000000 0.428338
O O20 0.500000 0.000000 0.487567
#
# Coordination Sequence:
#
# PCOD9355938 Si02
#       8
#     8   4   8   8   8   8   8   4
#     4  10  20  33  52  76 104 137 172 210 251 298
#     4  10  17  31  57  78  98 132 169 207 257 310
#     4   8  15  30  52  76 101 131 167 206 250 300
#     4  10  21  36  51  74 105 136 174 214 248 296
#     4  10  20  35  55  77 102 133 169 212 260 306
#     4   9  18  33  54  76  98 131 174 212 251 304
#     4   9  18  33  54  80 106 131 166 212 255 300
#     4  10  19  31  51  80 108 126 157 213 265 306
#
# _framework density 21.144908000000001
#
# number of rings (size 3 to 8) (size 9 to 14) (size 15 to 20)
#    0.000    2.571    1.429    1.714    0.000    4.286 
#    0.000    5.000    0.000    1.714    0.000    0.000 
#    0.000    0.000    0.000    0.000    0.000    0.000 
#
# Total GULP energy -156346.153407 kJ/mol
# GULP energy per Si atom -5583.791193 kJ/mol
# Density = 2.109678 g / cm^3
# Si number density = 21.144908 Si / 1000 Ang^3
#
#
#
# Elastic Constant Matrix: (Units=GPa)
#
#
# Indices 1 2 3 4 5 6 
#
# 1 197.7989 6.7362 142.3164 0.0000 0.0000 0.0000
# 2 6.7362 53.9902 -2.4798 0.0000 0.0000 0.0000
# 3 142.3164 -2.4798 207.2567 0.0000 0.0000 0.0000
# 4 0.0000 0.0000 0.0000 22.6126 0.0000 0.0000
# 5 0.0000 0.0000 0.0000 0.0000 -4.2709 0.0000
# 6 0.0000 0.0000 0.0000 0.0000 0.0000 10.2305
#
#
#
# Elastic Compliance Matrix: (Units=1/GPa)
#
#
# Indices 1 2 3 4 5 6 
#
# 1 0.010126 -0.001584 -0.006972 0.000000 0.000000 0.000000
# 2 -0.001584 0.018780 0.001312 0.000000 0.000000 0.000000
# 3 -0.006972 0.001312 0.009628 0.000000 0.000000 0.000000
# 4 0.000000 0.000000 0.000000 0.044223 0.000000 0.000000
# 5 0.000000 0.000000 0.000000 0.000000 -0.234143 0.000000
# 6 0.000000 0.000000 0.000000 0.000000 0.000000 0.097747
#
#
# Mechanical properties :
#
#
# Convention : Reuss Voigt Hill
#
# Bulk Modulus (GPa) = 41.58588 83.57682 62.58135
# Shear Modulus (GPa) = -160.58410 26.54596 -67.01907
#
# Velocity S-wave (km/s) = -8.72407 3.54705 -5.63595
# Velocity P-wave (km/s) = 9.04265 7.50913 3.56248
#
# Compressibility (1/GPa) = 0.02404663
#
# Stress axis : x y z
#
# Youngs Moduli (GPa) = 98.75507 53.24886 103.86153
#
# Poissons Ratio (x) = 0.08433 0.72414
# Poissons Ratio (y) = 0.15639 -0.13628
# Poissons Ratio (z) = 0.68854 -0.06987
#
# Static dielectric constant tensor:
#      x y z
#    x 1.742940 0.000000 0.000000 
#    y 0.000000 1.841640 0.000000 
#    z 0.000000 0.000000 1.732580 
# 
# From -- ./inp_files/15518.got.cif
#   From: 2010.05.17/outbox.cif.g08.bks.cpg/sg38_8_cif.got.tgz:15518.got - 2010.06.03 18:07:57.
