data_PCOD9355687
_publ_section_title
;
Structure prediction by ZEFSAII (Michael W. Deem and Ramdas Pophale) SiO2 
 PCOD9355687
Probable space group: C C C 2
;
_chemical_formula_sum "Si O2"
_cell_formula_units_Z 48
_cell_length_a 4.952097
_cell_length_b 26.607124
_cell_length_c 17.418560
_cell_angle_alpha 90.000000
_cell_angle_beta 90.000000
_cell_angle_gamma 90.000000
_cell_volume 2295.087911
_symmetry_space_group_name_H-M "C C C 2"
_symmetry_group_IT_number 37
_symmetry_cell_setting 'orthorhombic'
loop_
_space_group_symop_operation_xyz
x,y,z
-x,-y,z
-x,y,1/2+z
x,-y,1/2+z
1/2+x,1/2+y,z
1/2-x,1/2-y,z
1/2-x,1/2+y,1/2+z
1/2+x,1/2-y,1/2+z
loop_
_atom_site_type_symbol
_atom_site_label
_atom_site_fract_x
_atom_site_fract_y
_atom_site_fract_z
Si Si1 0.518846 0.394641 0.270760
Si Si2 0.750000 0.750000 0.667970
Si Si3 0.635593 0.894255 0.015032
Si Si4 0.478830 0.849627 0.852901
Si Si5 0.500000 0.500000 0.339070
Si Si6 0.852499 0.858424 0.603265
Si Si7 0.000000 0.500000 0.446498
Si Si8 0.750000 0.750000 0.285024
O O1 0.226917 0.385180 0.306935
O O2 0.590659 0.452222 0.289247
O O3 0.529425 0.380236 0.182253
O O4 0.731732 0.358134 0.313225
O O5 0.777809 0.799936 0.616165
O O6 0.497193 0.745356 0.725419
O O7 0.428136 0.884818 0.083538
O O8 0.927257 0.872565 0.038443
O O9 0.521149 0.864901 0.940726
O O10 0.617651 0.953016 0.993882
O O11 0.346204 0.795570 0.838690
O O12 0.250699 0.484069 0.393132
#
# Coordination Sequence:
#
# PCOD9355687 Si02
#       8
#     8   4   8   8   4   8   4   4
#     4  12  23  43  71 104 136 184 243 290 344 429
#     4  12  24  45  74  99 136 194 228 290 378 415
#     4  12  26  44  69 104 151 182 233 300 363 431
#     4  12  23  44  71 106 135 184 244 288 346 428
#     4  12  22  42  74 104 134 188 246 298 346 426
#     4  12  26  45  69 106 145 185 230 301 363 429
#     4  12  24  44  72 100 140 198 232 286 382 422
#     4  12  22  43  76 103 134 184 244 296 342 427
#
# _framework density 20.914231999999998
#
# number of rings (size 3 to 8) (size 9 to 14) (size 15 to 20)
#    0.000    0.000    6.667    4.000    0.000    2.000 
#    0.000    1.667    0.000    0.000    0.000    0.000 
#    0.000    0.000    0.000    0.000    0.000    0.000 
#
# Total GULP energy -134157.431028 kJ/mol
# GULP energy per Si atom -5589.892959 kJ/mol
# Density = 2.086663 g / cm^3
# Si number density = 20.914232 Si / 1000 Ang^3
#
#
#
# Elastic Constant Matrix: (Units=GPa)
#
#
# Indices 1 2 3 4 5 6 
#
# 1 101.6874 -0.0325 10.8057 0.0000 0.0000 0.0000
# 2 -0.0325 158.1047 40.7566 0.0000 0.0000 0.0000
# 3 10.8057 40.7566 68.1309 0.0000 0.0000 0.0000
# 4 0.0000 0.0000 0.0000 48.2044 0.0000 0.0000
# 5 0.0000 0.0000 0.0000 0.0000 -6.4075 0.0000
# 6 0.0000 0.0000 0.0000 0.0000 0.0000 31.2383
#
#
#
# Elastic Compliance Matrix: (Units=1/GPa)
#
#
# Indices 1 2 3 4 5 6 
#
# 1 0.010034 0.000487 -0.001883 0.000000 0.000000 0.000000
# 2 0.000487 0.007502 -0.004565 0.000000 0.000000 0.000000
# 3 -0.001883 -0.004565 0.017707 0.000000 0.000000 0.000000
# 4 0.000000 0.000000 0.000000 0.020745 0.000000 0.000000
# 5 0.000000 0.000000 0.000000 0.000000 -0.156067 0.000000
# 6 0.000000 0.000000 0.000000 0.000000 0.000000 0.032012
#
#
# Mechanical properties :
#
#
# Convention : Reuss Voigt Hill
#
# Bulk Modulus (GPa) = 42.87782 47.88696 45.38239
# Shear Modulus (GPa) = -103.36545 33.03326 -35.16609
#
# Velocity S-wave (km/s) = -7.03781 3.97856 -4.10499
# Velocity P-wave (km/s) = 6.74498 6.63715 0.84942
#
# Compressibility (1/GPa) = 0.02332208
#
# Stress axis : x y z
#
# Youngs Moduli (GPa) = 99.65795 133.30158 56.47458
#
# Poissons Ratio (x) = -0.06498 0.10635
# Poissons Ratio (y) = -0.04858 0.25780
# Poissons Ratio (z) = 0.18766 0.60852
#
# Static dielectric constant tensor:
#      x y z
#    x 1.620120 0.000000 0.000000 
#    y 0.000000 1.582800 0.000000 
#    z 0.000000 0.000000 1.738870 
# 
# From -- ./inp_files/9819.got.cif
#   From: 2010.05.17/outbox.cif.g08.bks.cpg/sg37_5_cif.got.tgz:9819.got - 2010.06.03 17:53:42.
