data_PCOD9355380
_publ_section_title
;
Structure prediction by ZEFSAII (Michael W. Deem and Ramdas Pophale) SiO2 
 PCOD9355380
Probable space group: C C C 2
;
_chemical_formula_sum "Si O2"
_cell_formula_units_Z 64
_cell_length_a 17.182193
_cell_length_b 21.998991
_cell_length_c 9.239390
_cell_angle_alpha 90.000000
_cell_angle_beta 90.000000
_cell_angle_gamma 90.000000
_cell_volume 3492.405426
_symmetry_space_group_name_H-M "C C C 2"
_symmetry_group_IT_number 37
_symmetry_cell_setting 'orthorhombic'
loop_
_space_group_symop_operation_xyz
x,y,z
-x,-y,z
-x,y,1/2+z
x,-y,1/2+z
1/2+x,1/2+y,z
1/2-x,1/2-y,z
1/2-x,1/2+y,1/2+z
1/2+x,1/2-y,1/2+z
loop_
_atom_site_type_symbol
_atom_site_label
_atom_site_fract_x
_atom_site_fract_y
_atom_site_fract_z
Si Si1 0.671841 0.712665 0.222810
Si Si2 0.443333 0.356147 0.761664
Si Si3 0.390947 0.582779 0.726276
Si Si4 0.946116 0.746186 0.982934
Si Si5 0.671913 0.484292 0.002638
Si Si6 0.285850 0.577218 0.284358
Si Si7 0.309879 0.802375 0.301477
Si Si8 0.614705 0.255500 0.038493
O O1 0.750000 0.750000 0.185847
O O2 0.668285 0.639597 0.200497
O O3 0.653179 0.724985 0.389956
O O4 0.600475 0.738467 0.128158
O O5 0.522362 0.389835 0.719975
O O6 0.456762 0.308462 0.891214
O O7 0.375777 0.402414 0.805244
O O8 0.408034 0.315015 0.632713
O O9 0.376208 0.530416 0.607198
O O10 0.377447 0.555240 0.887463
O O11 0.889596 0.704114 0.889146
O O12 0.032272 0.722705 0.011297
O O13 0.718128 0.443742 0.118214
O O14 0.727021 0.523653 0.898068
O O15 0.231948 0.634094 0.314967
O O16 0.250000 0.750000 0.352466
O O17 0.330213 0.785690 0.136522
#
# Coordination Sequence:
#
# PCOD9355380 Si02
#       8
#     8   8   8   8   8   8   8   8
#     4  12  24  33  61  90 117 150 199 258 307 345
#     4  11  22  35  62  77 125 167 197 242 283 349
#     4  11  23  42  55  86 125 168 210 249 284 358
#     4  11  21  38  55  93 120 157 188 244 319 361
#     4  10  26  39  58  82 125 168 218 240 289 342
#     4  11  23  41  58  86 117 161 208 250 291 358
#     4  11  22  37  65  88 118 160 200 245 320 369
#     4  11  21  38  55  93 120 157 188 244 319 361
#
# _framework density 18.325478
#
# number of rings (size 3 to 8) (size 9 to 14) (size 15 to 20)
#    0.000    1.000    5.000    3.000    3.500    3.000 
#    0.000    0.000    0.000    0.000    0.000    2.625 
#    0.000    0.000    0.000    0.000    0.000    0.000 
#
# Total GULP energy -178850.583828 kJ/mol
# GULP energy per Si atom -5589.080745 kJ/mol
# Density = 1.828377 g / cm^3
# Si number density = 18.325478 Si / 1000 Ang^3
#
#
#
# Elastic Constant Matrix: (Units=GPa)
#
#
# Indices 1 2 3 4 5 6 
#
# 1 62.1141 20.6188 -8.0615 0.0000 0.0000 0.0000
# 2 20.6188 65.9843 -1.1458 0.0000 0.0000 0.0000
# 3 -8.0615 -1.1458 74.3783 0.0000 0.0000 0.0000
# 4 0.0000 0.0000 0.0000 22.0053 0.0000 0.0000
# 5 0.0000 0.0000 0.0000 0.0000 22.4249 0.0000
# 6 0.0000 0.0000 0.0000 0.0000 0.0000 24.6197
#
#
#
# Elastic Compliance Matrix: (Units=1/GPa)
#
#
# Indices 1 2 3 4 5 6 
#
# 1 0.018224 -0.005662 0.001888 0.000000 0.000000 0.000000
# 2 -0.005662 0.016918 -0.000353 0.000000 0.000000 0.000000
# 3 0.001888 -0.000353 0.013644 0.000000 0.000000 0.000000
# 4 0.000000 0.000000 0.000000 0.045444 0.000000 0.000000
# 5 0.000000 0.000000 0.000000 0.000000 0.044593 0.000000
# 6 0.000000 0.000000 0.000000 0.000000 0.000000 0.040618
#
#
# Mechanical properties :
#
#
# Convention : Reuss Voigt Hill
#
# Bulk Modulus (GPa) = 24.67169 25.03331 24.85250
# Shear Modulus (GPa) = 24.85022 26.54765 25.69893
#
# Velocity S-wave (km/s) = 3.68645 3.81027 3.74887
# Velocity P-wave (km/s) = 5.62247 5.74871 5.68594
#
# Compressibility (1/GPa) = 0.04053229
#
# Stress axis : x y z
#
# Youngs Moduli (GPa) = 54.87305 59.10799 73.29247
#
# Poissons Ratio (x) = 0.33466 -0.13837
# Poissons Ratio (y) = 0.31068 0.02588
# Poissons Ratio (z) = -0.10360 0.02087
#
# Static dielectric constant tensor:
#      x y z
#    x 1.634780 0.000000 0.000000 
#    y 0.000000 1.645510 0.000000 
#    z 0.000000 0.000000 1.683650 
# 
# From -- ./inp_files/4156.got.cif
#   From: 2010.05.17/outbox.cif.g08.bks.cpg/sg37_3_cif.got.tgz:4156.got - 2010.06.03 17:53:42.
