data_PCOD9355509
_publ_section_title
;
Structure prediction by ZEFSAII (Michael W. Deem and Ramdas Pophale) SiO2 
 PCOD9355509
Probable space group: C C C 2
;
_chemical_formula_sum "Si O2"
_cell_formula_units_Z 40
_cell_length_a 8.241202
_cell_length_b 12.069447
_cell_length_c 17.025550
_cell_angle_alpha 90.000000
_cell_angle_beta 90.000000
_cell_angle_gamma 90.000000
_cell_volume 1693.476138
_symmetry_space_group_name_H-M "C C C 2"
_symmetry_group_IT_number 37
_symmetry_cell_setting 'orthorhombic'
loop_
_space_group_symop_operation_xyz
x,y,z
-x,-y,z
-x,y,1/2+z
x,-y,1/2+z
1/2+x,1/2+y,z
1/2-x,1/2-y,z
1/2-x,1/2+y,1/2+z
1/2+x,1/2-y,1/2+z
loop_
_atom_site_type_symbol
_atom_site_label
_atom_site_fract_x
_atom_site_fract_y
_atom_site_fract_z
Si Si1 0.432148 0.218559 0.238920
Si Si2 0.000000 0.500000 0.833784
Si Si3 0.801742 0.629191 0.453063
Si Si4 0.250000 0.250000 0.712090
Si Si5 0.114139 0.669663 0.562382
Si Si6 0.675474 0.455624 0.102970
O O1 0.250000 0.250000 0.258341
O O2 0.593702 0.282238 0.264713
O O3 0.439584 0.227054 0.144033
O O4 0.481476 0.101535 0.274583
O O5 0.149747 0.532453 0.892089
O O6 0.750000 0.750000 0.421336
O O7 0.664694 0.593804 0.515078
O O8 0.965978 0.647226 0.504550
O O9 0.248410 0.359832 0.657040
O O10 0.250000 0.750000 0.525770
O O11 0.200922 0.557707 0.592411
O O12 0.500000 0.500000 0.129885
#
# Coordination Sequence:
#
# PCOD9355509 Si02
#       6
#     8   4   8   4   8   8
#     4  11  24  45  69 101 140 191 242 293 360 428
#     4  12  26  44  66  94 150 198 228 294 364 440
#     4  12  23  44  68 102 138 186 241 296 361 428
#     4  12  24  44  76 110 140 184 242 310 358 436
#     4  11  22  42  74 103 135 179 237 305 356 420
#     4  12  22  39  69 111 139 178 239 303 368 425
#
# _framework density 23.620054
#
# number of rings (size 3 to 8) (size 9 to 14) (size 15 to 20)
#    0.000    0.400    5.000    5.400    0.000    0.000 
#    1.800    2.000    0.000    0.000    0.000    0.000 
#    0.000    0.000    0.000    0.000    0.000    0.000 
#
# Total GULP energy -111478.281867 kJ/mol
# GULP energy per Si atom -5573.914093 kJ/mol
# Density = 2.356629 g / cm^3
# Si number density = 23.620054 Si / 1000 Ang^3
#
#
#
# Elastic Constant Matrix: (Units=GPa)
#
#
# Indices 1 2 3 4 5 6 
#
# 1 168.4171 47.6076 22.0819 0.0000 0.0000 0.0000
# 2 47.6076 113.1411 -2.4236 0.0000 0.0000 0.0000
# 3 22.0819 -2.4236 59.8770 0.0000 0.0000 0.0000
# 4 0.0000 0.0000 0.0000 15.2791 0.0000 0.0000
# 5 0.0000 0.0000 0.0000 0.0000 70.3660 0.0000
# 6 0.0000 0.0000 0.0000 0.0000 0.0000 46.3050
#
#
#
# Elastic Compliance Matrix: (Units=1/GPa)
#
#
# Indices 1 2 3 4 5 6 
#
# 1 0.007170 -0.003076 -0.002769 0.000000 0.000000 0.000000
# 2 -0.003076 0.010166 0.001546 0.000000 0.000000 0.000000
# 3 -0.002769 0.001546 0.017785 0.000000 0.000000 0.000000
# 4 0.000000 0.000000 0.000000 0.065449 0.000000 0.000000
# 5 0.000000 0.000000 0.000000 0.000000 0.014211 0.000000
# 6 0.000000 0.000000 0.000000 0.000000 0.000000 0.021596
#
#
# Mechanical properties :
#
#
# Convention : Reuss Voigt Hill
#
# Bulk Modulus (GPa) = 37.70373 52.88522 45.29448
# Shear Modulus (GPa) = 32.50625 44.66797 38.58711
#
# Velocity S-wave (km/s) = 3.71376 4.35340 4.04624
# Velocity P-wave (km/s) = 5.86401 6.90710 6.40682
#
# Compressibility (1/GPa) = 0.02652257
#
# Stress axis : x y z
#
# Youngs Moduli (GPa) = 139.46396 98.36568 56.22842
#
# Poissons Ratio (x) = 0.30262 0.15569
# Poissons Ratio (y) = 0.42905 -0.08693
# Poissons Ratio (z) = 0.38615 -0.15208
#
# Static dielectric constant tensor:
#      x y z
#    x 2.304970 0.000000 0.000000 
#    y 0.000000 1.965990 0.000000 
#    z 0.000000 0.000000 1.960980 
# 
# From -- ./inp_files/14255.got.cif
#   From: 2010.05.17/outbox.cif.g08.bks.cpg/sg37_8_cif.got.tgz:14255.got - 2010.06.03 17:53:42.
