data_PCOD9355939
_publ_section_title
;
Structure prediction by ZEFSAII (Michael W. Deem and Ramdas Pophale) SiO2 
 PCOD9355939
Probable space group: A M M 2
;
_chemical_formula_sum "Si O2"
_cell_formula_units_Z 56
_cell_length_a 21.839330
_cell_length_b 8.443665
_cell_length_c 15.949739
_cell_angle_alpha 90.000000
_cell_angle_beta 90.000000
_cell_angle_gamma 90.000000
_cell_volume 2941.195453
_symmetry_space_group_name_H-M "A M M 2"
_symmetry_group_IT_number 38
_symmetry_cell_setting 'orthorhombic'
loop_
_space_group_symop_operation_xyz
x,y,z
-x,-y,z
-x,y,z
x,-y,z
x,1/2+y,1/2+z
-x,1/2-y,1/2+z
-x,1/2+y,1/2+z
x,1/2-y,1/2+z
loop_
_atom_site_type_symbol
_atom_site_label
_atom_site_fract_x
_atom_site_fract_y
_atom_site_fract_z
Si Si1 0.366746 0.308461 0.090190
Si Si2 0.712557 0.308649 0.434798
Si Si3 0.929060 0.310269 0.094064
Si Si4 0.929037 0.189704 0.277197
Si Si5 0.146845 0.810237 0.935652
Si Si6 0.500000 0.808692 0.838322
Si Si7 0.632705 0.306633 0.276536
Si Si8 0.500000 0.808814 0.528803
O O1 0.365265 0.500000 0.087608
O O2 0.348105 0.256744 0.183519
O O3 0.437029 0.258435 0.072912
O O4 0.323801 0.245291 0.016924
O O5 0.712421 0.500000 0.433218
O O6 0.782756 0.254312 0.435504
O O7 0.676354 0.253141 0.351841
O O8 0.927842 0.500000 0.093768
O O9 0.909054 0.250252 0.185667
O O10 0.000000 0.258547 0.082120
O O11 0.888062 0.248165 0.018431
O O12 0.888143 0.252015 0.352887
O O13 0.000000 0.241337 0.289119
O O14 0.927848 0.000000 0.277389
O O15 0.146760 0.000000 0.935570
O O16 0.562893 0.756039 0.794930
O O17 0.500000 0.000000 0.836906
O O18 0.500000 0.752923 0.934074
O O19 0.632886 0.500000 0.277365
O O20 0.500000 0.000000 0.527882
#
# Coordination Sequence:
#
# PCOD9355939 Si02
#       8
#     8   8   8   8   8   4   8   4
#     4  10  20  35  56  80 108 143 181 228 282 334
#     4  10  22  39  55  78 110 145 189 233 270 324
#     4  10  21  38  61  88 116 148 190 239 288 341
#     4  10  21  38  61  89 119 150 187 233 286 345
#     4  11  23  37  56  83 118 156 194 240 287 335
#     4  10  17  31  59  80 100 142 183 219 273 336
#     4   9  18  34  56  79 103 138 184 224 268 330
#     4  10  19  31  51  82 114 134 169 231 287 330
#
# _framework density 19.039878000000002
#
# number of rings (size 3 to 8) (size 9 to 14) (size 15 to 20)
#    0.000    2.000    1.429    2.143    0.000    7.429 
#    0.000    2.857    0.000    0.857    0.000    0.000 
#    0.000    0.000    0.000    0.000    0.000    0.000 
#
# Total GULP energy -156378.325808 kJ/mol
# GULP energy per Si atom -5584.940207 kJ/mol
# Density = 1.899654 g / cm^3
# Si number density = 19.039878 Si / 1000 Ang^3
#
#
#
# Elastic Constant Matrix: (Units=GPa)
#
#
# Indices 1 2 3 4 5 6 
#
# 1 144.2218 27.1015 117.8320 0.0000 0.0000 0.0000
# 2 27.1015 18.5185 26.9657 0.0000 0.0000 0.0000
# 3 117.8320 26.9657 216.0757 0.0000 0.0000 0.0000
# 4 0.0000 0.0000 0.0000 34.9442 0.0000 0.0000
# 5 0.0000 0.0000 0.0000 0.0000 -3.9708 0.0000
# 6 0.0000 0.0000 0.0000 0.0000 0.0000 18.2181
#
#
#
# Elastic Compliance Matrix: (Units=1/GPa)
#
#
# Indices 1 2 3 4 5 6 
#
# 1 0.014322 -0.011716 -0.006348 0.000000 0.000000 0.000000
# 2 -0.011716 0.075577 -0.003043 0.000000 0.000000 0.000000
# 3 -0.006348 -0.003043 0.008469 0.000000 0.000000 0.000000
# 4 0.000000 0.000000 0.000000 0.028617 0.000000 0.000000
# 5 0.000000 0.000000 0.000000 0.000000 -0.251841 0.000000
# 6 0.000000 0.000000 0.000000 0.000000 0.000000 0.054890
#
#
# Mechanical properties :
#
#
# Convention : Reuss Voigt Hill
#
# Bulk Modulus (GPa) = 17.80795 80.29050 49.04923
# Shear Modulus (GPa) = -553.46545 23.63278 -264.91633
#
# Velocity S-wave (km/s) = -17.06806 3.52692 -11.80846
# Velocity P-wave (km/s) = 19.46924 7.67117 12.65316
#
# Compressibility (1/GPa) = 0.05615469
#
# Stress axis : x y z
#
# Youngs Moduli (GPa) = 69.82377 13.23154 118.07202
#
# Poissons Ratio (x) = 0.15502 0.74951
# Poissons Ratio (y) = 0.81807 0.35925
# Poissons Ratio (z) = 0.44323 0.04026
#
# Static dielectric constant tensor:
#      x y z
#    x 1.655550 0.000000 0.000000 
#    y 0.000000 1.659330 0.000000 
#    z 0.000000 0.000000 1.633400 
# 
# From -- ./inp_files/15545.got.cif
#   From: 2010.05.17/outbox.cif.g08.bks.cpg/sg38_8_cif.got.tgz:15545.got - 2010.06.03 18:07:57.
