data_PCOD9355198
_publ_section_title
;
Structure prediction by ZEFSAII (Michael W. Deem and Ramdas Pophale) SiO2 
 PCOD9355198
Probable space group: C C C 2
;
_chemical_formula_sum "Si O2"
_cell_formula_units_Z 40
_cell_length_a 16.371252
_cell_length_b 8.509133
_cell_length_c 11.924463
_cell_angle_alpha 90.000000
_cell_angle_beta 90.000000
_cell_angle_gamma 90.000000
_cell_volume 1661.139234
_symmetry_space_group_name_H-M "C C C 2"
_symmetry_group_IT_number 37
_symmetry_cell_setting 'orthorhombic'
loop_
_space_group_symop_operation_xyz
x,y,z
-x,-y,z
-x,y,1/2+z
x,-y,1/2+z
1/2+x,1/2+y,z
1/2-x,1/2-y,z
1/2-x,1/2+y,1/2+z
1/2+x,1/2-y,1/2+z
loop_
_atom_site_type_symbol
_atom_site_label
_atom_site_fract_x
_atom_site_fract_y
_atom_site_fract_z
Si Si1 0.637335 0.156943 0.805140
Si Si2 0.221707 0.530521 0.009405
Si Si3 0.338930 0.187059 0.725824
Si Si4 0.977257 0.177484 0.380840
Si Si5 0.141809 0.195540 0.069290
O O1 0.555503 0.212335 0.865729
O O2 0.650407 0.276200 0.701994
O O3 0.709524 0.110222 0.890199
O O4 0.626669 0.985888 0.752750
O O5 0.180586 0.653623 0.095037
O O6 0.177636 0.358899 0.016812
O O7 0.311818 0.467506 0.040016
O O8 0.250000 0.250000 0.768945
O O9 0.406493 0.289644 0.788669
O O10 0.944488 0.189588 0.508186
O O11 0.000000 0.000000 0.360655
#
# Coordination Sequence:
#
# PCOD9355198 Si02
#       5
#     8   8   8   8   8
#     4  11  25  48  82 111 158 213 260 328 416 470
#     4  10  23  48  80 110 151 207 269 327 393 483
#     4  11  25  48  77 111 155 206 267 327 396 496
#     4  12  28  47  78 112 163 204 264 337 403 483
#     4  10  24  49  75 114 159 203 267 332 391 489
#
# _framework density 24.079858999999999
#
# number of rings (size 3 to 8) (size 9 to 14) (size 15 to 20)
#    0.000    1.200    2.000    1.800    5.600    2.400 
#   14.400    0.000    0.000    0.000    0.000    0.000 
#    0.000    0.000    0.000    0.000    0.000    0.000 
#
# Total GULP energy -111558.927037 kJ/mol
# GULP energy per Si atom -5577.946352 kJ/mol
# Density = 2.402505 g / cm^3
# Si number density = 24.079859 Si / 1000 Ang^3
#
#
#
# Elastic Constant Matrix: (Units=GPa)
#
#
# Indices 1 2 3 4 5 6 
#
# 1 72.1497 50.1843 47.0878 0.0000 0.0000 0.0000
# 2 50.1843 97.4768 52.9438 0.0000 0.0000 0.0000
# 3 47.0878 52.9438 166.6741 0.0000 0.0000 0.0000
# 4 0.0000 0.0000 0.0000 26.1015 0.0000 0.0000
# 5 0.0000 0.0000 0.0000 0.0000 30.9633 0.0000
# 6 0.0000 0.0000 0.0000 0.0000 0.0000 59.1087
#
#
#
# Elastic Compliance Matrix: (Units=1/GPa)
#
#
# Indices 1 2 3 4 5 6 
#
# 1 0.023009 -0.010049 -0.003308 0.000000 0.000000 0.000000
# 2 -0.010049 0.016786 -0.002493 0.000000 0.000000 0.000000
# 3 -0.003308 -0.002493 0.007726 0.000000 0.000000 0.000000
# 4 0.000000 0.000000 0.000000 0.038312 0.000000 0.000000
# 5 0.000000 0.000000 0.000000 0.000000 0.032296 0.000000
# 6 0.000000 0.000000 0.000000 0.000000 0.000000 0.016918
#
#
# Mechanical properties :
#
#
# Convention : Reuss Voigt Hill
#
# Bulk Modulus (GPa) = 63.20776 70.74804 66.97790
# Shear Modulus (GPa) = 29.06602 35.64034 32.35318
#
# Velocity S-wave (km/s) = 3.47806 3.85137 3.66946
# Velocity P-wave (km/s) = 6.51424 7.01582 6.76968
#
# Compressibility (1/GPa) = 0.01582084
#
# Stress axis : x y z
#
# Youngs Moduli (GPa) = 43.46185 59.57176 129.42688
#
# Poissons Ratio (x) = 0.59862 0.42819
# Poissons Ratio (y) = 0.43674 0.32270
# Poissons Ratio (z) = 0.14379 0.14853
#
# Static dielectric constant tensor:
#      x y z
#    x 1.813540 0.000000 0.000000 
#    y 0.000000 1.802540 0.000000 
#    z 0.000000 0.000000 2.046300 
# 
# From -- ./inp_files/8161.got.cif
#   From: 2010.05.17/outbox.cif.g08.bks.cpg/sg37_5_cif.got.tgz:8161.got - 2010.06.03 17:53:42.
