data_PCOD9355645
_publ_section_title
;
Structure prediction by ZEFSAII (Michael W. Deem and Ramdas Pophale) SiO2 
 PCOD9355645
Probable space group: C C C 2
;
_chemical_formula_sum "Si O2"
_cell_formula_units_Z 40
_cell_length_a 6.526254
_cell_length_b 14.375659
_cell_length_c 20.008708
_cell_angle_alpha 90.000000
_cell_angle_beta 90.000000
_cell_angle_gamma 90.000000
_cell_volume 1877.201019
_symmetry_space_group_name_H-M "C C C 2"
_symmetry_group_IT_number 37
_symmetry_cell_setting 'orthorhombic'
loop_
_space_group_symop_operation_xyz
x,y,z
-x,-y,z
-x,y,1/2+z
x,-y,1/2+z
1/2+x,1/2+y,z
1/2-x,1/2-y,z
1/2-x,1/2+y,1/2+z
1/2+x,1/2-y,1/2+z
loop_
_atom_site_type_symbol
_atom_site_label
_atom_site_fract_x
_atom_site_fract_y
_atom_site_fract_z
Si Si1 0.408457 0.895820 0.301140
Si Si2 0.750000 0.250000 0.625016
Si Si3 0.454359 0.395529 0.557279
Si Si4 0.908457 0.395820 0.155258
Si Si5 0.454360 0.604471 0.399118
Si Si6 0.750000 0.250000 0.831381
O O1 0.297628 0.892549 0.228199
O O2 0.265870 0.874877 0.365327
O O3 0.588687 0.819984 0.297608
O O4 0.500000 0.000000 0.308397
O O5 0.609963 0.319962 0.583892
O O6 0.588687 0.180017 0.658789
O O7 0.500000 0.500000 0.582174
O O8 0.234131 0.374877 0.591070
O O9 0.499997 0.396806 0.478198
O O10 0.000000 0.500000 0.148001
O O11 0.500000 0.500000 0.374223
O O12 0.609963 0.680038 0.372505
#
# Coordination Sequence:
#
# PCOD9355645 Si02
#       6
#     8   4   8   8   8   4
#     4  11  25  47  73 106 144 185 234 292 353 419
#     4  12  25  44  76 104 137 194 228 290 351 424
#     4  11  26  47  70 104 146 188 234 290 347 419
#     4  11  25  47  73 106 144 185 234 292 353 419
#     4  11  26  47  70 104 146 188 234 290 347 419
#     4  12  25  44  76 104 137 194 228 290 351 424
#
# _framework density 21.308322
#
# number of rings (size 3 to 8) (size 9 to 14) (size 15 to 20)
#    0.000    0.800    4.000    1.800    5.600    5.600 
#    0.000    0.000    0.000    0.000    0.000    0.000 
#    0.000    0.000    0.000    0.000    0.000    0.000 
#
# Total GULP energy -111493.157023 kJ/mol
# GULP energy per Si atom -5574.657851 kJ/mol
# Density = 2.125982 g / cm^3
# Si number density = 21.308322 Si / 1000 Ang^3
#
#
#
# Elastic Constant Matrix: (Units=GPa)
#
#
# Indices 1 2 3 4 5 6 
#
# 1 111.9357 56.1269 69.6630 0.0000 0.0000 0.0000
# 2 56.1269 177.3480 51.8907 0.0000 0.0000 0.0000
# 3 69.6630 51.8907 125.4508 0.0000 0.0000 0.0000
# 4 0.0000 0.0000 0.0000 19.4884 0.0000 0.0000
# 5 0.0000 0.0000 0.0000 0.0000 5.7038 0.0000
# 6 0.0000 0.0000 0.0000 0.0000 0.0000 48.4221
#
#
#
# Elastic Compliance Matrix: (Units=1/GPa)
#
#
# Indices 1 2 3 4 5 6 
#
# 1 0.014606 -0.002559 -0.007052 0.000000 0.000000 0.000000
# 2 -0.002559 0.006863 -0.001418 0.000000 0.000000 0.000000
# 3 -0.007052 -0.001418 0.012474 0.000000 0.000000 0.000000
# 4 0.000000 0.000000 0.000000 0.051313 0.000000 0.000000
# 5 0.000000 0.000000 0.000000 0.000000 0.175322 0.000000
# 6 0.000000 0.000000 0.000000 0.000000 0.000000 0.020652
#
#
# Mechanical properties :
#
#
# Convention : Reuss Voigt Hill
#
# Bulk Modulus (GPa) = 84.14057 85.56617 84.85337
# Shear Modulus (GPa) = 16.27347 30.52646 23.39996
#
# Velocity S-wave (km/s) = 2.76654 3.78909 3.31745
# Velocity P-wave (km/s) = 7.05534 7.70625 7.38797
#
# Compressibility (1/GPa) = 0.01188487
#
# Stress axis : x y z
#
# Youngs Moduli (GPa) = 68.46655 145.70097 80.16832
#
# Poissons Ratio (x) = 0.37285 0.56535
# Poissons Ratio (y) = 0.17521 0.11367
# Poissons Ratio (z) = 0.48283 0.20659
#
# Static dielectric constant tensor:
#      x y z
#    x 1.768220 0.000000 0.000000 
#    y 0.000000 1.746890 0.000000 
#    z 0.000000 0.000000 1.816610 
# 
# From -- ./inp_files/17902.got.cif
#   From: 2010.05.17/outbox.cif.g08.bks.cpg/sg37_9_cif.got.tgz:17902.got - 2010.06.03 17:53:42.
