data_PCOD9355261
_publ_section_title
;
Structure prediction by ZEFSAII (Michael W. Deem and Ramdas Pophale) SiO2 
 PCOD9355261
Probable space group: C C C 2
;
_chemical_formula_sum "Si O2"
_cell_formula_units_Z 52
_cell_length_a 24.581061
_cell_length_b 5.224415
_cell_length_c 19.419120
_cell_angle_alpha 90.000000
_cell_angle_beta 90.000000
_cell_angle_gamma 90.000000
_cell_volume 2493.835700
_symmetry_space_group_name_H-M "C C C 2"
_symmetry_group_IT_number 37
_symmetry_cell_setting 'orthorhombic'
loop_
_space_group_symop_operation_xyz
x,y,z
-x,-y,z
-x,y,1/2+z
x,-y,1/2+z
1/2+x,1/2+y,z
1/2-x,1/2-y,z
1/2-x,1/2+y,1/2+z
1/2+x,1/2-y,1/2+z
loop_
_atom_site_type_symbol
_atom_site_label
_atom_site_fract_x
_atom_site_fract_y
_atom_site_fract_z
Si Si1 0.500000 0.000000 0.136001
Si Si2 0.316872 0.513129 0.576527
Si Si3 0.138841 0.567039 0.398350
Si Si4 0.388349 0.561174 0.812866
Si Si5 0.000000 0.000000 0.731528
Si Si6 0.112112 0.490527 0.554189
Si Si7 0.250000 0.750000 0.457292
Si Si8 0.718668 0.498742 0.228612
O O1 0.505285 0.250289 0.183684
O O2 0.553645 0.992689 0.089066
O O3 0.356252 0.270664 0.571200
O O4 0.279836 0.549978 0.508769
O O5 0.282428 0.493857 0.645845
O O6 0.352193 0.771389 0.580611
O O7 0.125481 0.333026 0.347755
O O8 0.110913 0.513162 0.471720
O O9 0.203007 0.610381 0.414114
O O10 0.117624 0.833848 0.367917
O O11 0.447117 0.546244 0.778344
O O12 0.342569 0.506580 0.755509
O O13 0.750000 0.750000 0.252484
O O14 0.750000 0.250000 0.254131
#
# Coordination Sequence:
#
# PCOD9355261 Si02
#       8
#     4   8   8   8   4   8   4   8
#     4  12  24  46  78 104 130 178 230 302 352 400
#     4  11  23  43  66 101 138 179 226 286 349 419
#     4  11  26  44  70 100 142 187 226 287 336 433
#     4  12  27  47  68 102 139 189 238 278 345 420
#     4  12  28  50  76  98 138 190 232 300 348 414
#     4  11  24  42  69 104 135 174 233 284 346 408
#     4  10  24  44  68 102 144 188 232 284 368 414
#     4  12  25  41  66  99 136 177 223 288 342 403
#
# _framework density 20.851413999999998
#
# number of rings (size 3 to 8) (size 9 to 14) (size 15 to 20)
#    0.000    0.615    0.769    7.385    5.385    3.692 
#    0.000    0.000    0.000    0.000    0.000    0.000 
#    0.000    0.000    0.000    0.000    0.000    0.000 
#
# Total GULP energy -145653.507015 kJ/mol
# GULP energy per Si atom -5602.057962 kJ/mol
# Density = 2.080396 g / cm^3
# Si number density = 20.851414 Si / 1000 Ang^3
#
#
#
# Elastic Constant Matrix: (Units=GPa)
#
#
# Indices 1 2 3 4 5 6 
#
# 1 180.7624 56.8585 63.0315 0.0000 0.0000 0.0000
# 2 56.8585 129.7868 27.4077 0.0000 0.0000 0.0000
# 3 63.0315 27.4077 81.5436 0.0000 0.0000 0.0000
# 4 0.0000 0.0000 0.0000 7.7161 0.0000 0.0000
# 5 0.0000 0.0000 0.0000 0.0000 42.8328 0.0000
# 6 0.0000 0.0000 0.0000 0.0000 0.0000 29.6455
#
#
#
# Elastic Compliance Matrix: (Units=1/GPa)
#
#
# Indices 1 2 3 4 5 6 
#
# 1 0.008231 -0.002435 -0.005544 0.000000 0.000000 0.000000
# 2 -0.002435 0.009014 -0.001147 0.000000 0.000000 0.000000
# 3 -0.005544 -0.001147 0.016935 0.000000 0.000000 0.000000
# 4 0.000000 0.000000 0.000000 0.129598 0.000000 0.000000
# 5 0.000000 0.000000 0.000000 0.000000 0.023347 0.000000
# 6 0.000000 0.000000 0.000000 0.000000 0.000000 0.033732
#
#
# Mechanical properties :
#
#
# Convention : Reuss Voigt Hill
#
# Bulk Modulus (GPa) = 62.78852 76.29870 69.54361
# Shear Modulus (GPa) = 20.45664 32.35855 26.40759
#
# Velocity S-wave (km/s) = 3.13560 3.94364 3.56260
# Velocity P-wave (km/s) = 6.57929 7.57677 7.09558
#
# Compressibility (1/GPa) = 0.01592648
#
# Stress axis : x y z
#
# Youngs Moduli (GPa) = 121.48630 110.93712 59.05103
#
# Poissons Ratio (x) = 0.27017 0.32739
# Poissons Ratio (y) = 0.29586 0.06775
# Poissons Ratio (z) = 0.67354 0.12728
#
# Static dielectric constant tensor:
#      x y z
#    x 1.557820 0.000000 0.000000 
#    y 0.000000 1.729870 0.000000 
#    z 0.000000 0.000000 1.753440 
# 
# From -- ./inp_files/17478.got.cif
#   From: 2010.05.17/outbox.cif.g08.bks.cpg/sg37_9_cif.got.tgz:17478.got - 2010.06.03 17:53:42.
