data_PCOD9355632
_publ_section_title
;
Structure prediction by ZEFSAII (Michael W. Deem and Ramdas Pophale) SiO2 
 PCOD9355632
Probable space group: C C C 2
;
_chemical_formula_sum "Si O2"
_cell_formula_units_Z 40
_cell_length_a 16.283454
_cell_length_b 5.220736
_cell_length_c 19.799032
_cell_angle_alpha 90.000000
_cell_angle_beta 90.000000
_cell_angle_gamma 90.000000
_cell_volume 1683.147676
_symmetry_space_group_name_H-M "C C C 2"
_symmetry_group_IT_number 37
_symmetry_cell_setting 'orthorhombic'
loop_
_space_group_symop_operation_xyz
x,y,z
-x,-y,z
-x,y,1/2+z
x,-y,1/2+z
1/2+x,1/2+y,z
1/2-x,1/2-y,z
1/2-x,1/2+y,1/2+z
1/2+x,1/2-y,1/2+z
loop_
_atom_site_type_symbol
_atom_site_label
_atom_site_fract_x
_atom_site_fract_y
_atom_site_fract_z
Si Si1 0.750000 0.750000 0.871930
Si Si2 0.000000 0.000000 0.264623
Si Si3 0.345155 0.294733 0.594780
Si Si4 0.069575 0.298868 0.884199
Si Si5 0.250000 0.750000 0.791546
Si Si6 0.877518 0.706420 0.180728
Si Si7 0.000000 0.000000 0.007747
O O1 0.835839 0.646867 0.902016
O O2 0.723419 0.492183 0.834237
O O3 0.963245 0.789663 0.213778
O O4 0.064259 0.884230 0.318206
O O5 0.250000 0.250000 0.569019
O O6 0.340895 0.533561 0.647189
O O7 0.421939 0.384368 0.548007
O O8 0.373347 0.029277 0.629623
O O9 0.000000 0.500000 0.863419
O O10 0.035911 0.202213 0.955406
O O11 0.178723 0.641025 0.744306
#
# Coordination Sequence:
#
# PCOD9355632 Si02
#       7
#     4   4   8   8   4   8   4
#     4  12  26  46  81 114 157 202 246 326 404 478
#     4  11  25  44  76 118 153 189 242 328 398 473
#     4  12  27  51  77 111 154 213 265 321 387 471
#     4  11  27  50  77 112 152 206 265 321 396 471
#     4  12  22  46  73 116 157 186 252 310 398 496
#     4  12  25  45  78 114 155 196 254 321 399 481
#     4  11  31  52  74 110 153 211 278 326 380 461
#
# _framework density 23.764997999999999
#
# number of rings (size 3 to 8) (size 9 to 14) (size 15 to 20)
#    0.000    0.400    4.000    3.000    8.400    3.200 
#    0.000    0.000    0.000    0.000    0.000    0.000 
#    0.000    0.000    0.000    0.000    0.000    0.000 
#
# Total GULP energy -111539.586761 kJ/mol
# GULP energy per Si atom -5576.979338 kJ/mol
# Density = 2.371091 g / cm^3
# Si number density = 23.764998 Si / 1000 Ang^3
#
#
#
# Elastic Constant Matrix: (Units=GPa)
#
#
# Indices 1 2 3 4 5 6 
#
# 1 217.1645 44.7322 51.0673 0.0000 0.0000 0.0000
# 2 44.7322 122.5259 32.5396 0.0000 0.0000 0.0000
# 3 51.0673 32.5396 45.5787 0.0000 0.0000 0.0000
# 4 0.0000 0.0000 0.0000 310.1701 0.0000 0.0000
# 5 0.0000 0.0000 0.0000 0.0000 157.3742 0.0000
# 6 0.0000 0.0000 0.0000 0.0000 0.0000 35.2483
#
#
#
# Elastic Compliance Matrix: (Units=1/GPa)
#
#
# Indices 1 2 3 4 5 6 
#
# 1 0.006279 -0.000523 -0.006662 0.000000 0.000000 0.000000
# 2 -0.000523 0.010115 -0.006635 0.000000 0.000000 0.000000
# 3 -0.006662 -0.006635 0.034141 0.000000 0.000000 0.000000
# 4 0.000000 0.000000 0.000000 0.003224 0.000000 0.000000
# 5 0.000000 0.000000 0.000000 0.000000 0.006354 0.000000
# 6 0.000000 0.000000 0.000000 0.000000 0.000000 0.028370
#
#
# Mechanical properties :
#
#
# Convention : Reuss Voigt Hill
#
# Bulk Modulus (GPa) = 43.67775 71.32748 57.50261
# Shear Modulus (GPa) = 40.40277 117.68719 79.04498
#
# Velocity S-wave (km/s) = 4.12769 7.04477 5.77350
# Velocity P-wave (km/s) = 6.41374 9.81073 8.28814
#
# Compressibility (1/GPa) = 0.02289495
#
# Stress axis : x y z
#
# Youngs Moduli (GPa) = 159.25830 98.86708 29.29058
#
# Poissons Ratio (x) = 0.05173 0.19512
# Poissons Ratio (y) = 0.08333 0.19434
# Poissons Ratio (z) = 1.06093 0.65596
#
# Static dielectric constant tensor:
#      x y z
#    x 1.821380 0.000000 0.000000 
#    y 0.000000 1.909070 0.000000 
#    z 0.000000 0.000000 1.876290 
# 
# From -- ./inp_files/18827.got.cif
#   From: 2010.05.17/outbox.cif.g08.bks.cpg/sg37_10_cif.got.tgz:18827.got - 2010.06.03 17:53:42.
