data_PCOD9355177
_publ_section_title
;
Structure prediction by ZEFSAII (Michael W. Deem and Ramdas Pophale) SiO2 
 PCOD9355177
Probable space group: C C C 2
;
_chemical_formula_sum "Si O2"
_cell_formula_units_Z 24
_cell_length_a 15.066810
_cell_length_b 4.954414
_cell_length_c 10.704631
_cell_angle_alpha 90.000000
_cell_angle_beta 90.000000
_cell_angle_gamma 90.000000
_cell_volume 799.070885
_symmetry_space_group_name_H-M "C C C 2"
_symmetry_group_IT_number 37
_symmetry_cell_setting 'orthorhombic'
loop_
_space_group_symop_operation_xyz
x,y,z
-x,-y,z
-x,y,1/2+z
x,-y,1/2+z
1/2+x,1/2+y,z
1/2-x,1/2-y,z
1/2-x,1/2+y,1/2+z
1/2+x,1/2-y,1/2+z
loop_
_atom_site_type_symbol
_atom_site_label
_atom_site_fract_x
_atom_site_fract_y
_atom_site_fract_z
Si Si1 0.500000 0.000000 0.783860
Si Si2 0.341389 0.260224 0.145470
Si Si3 0.750000 0.750000 0.536406
Si Si4 0.409211 0.471222 0.393622
O O1 0.585346 0.039545 0.699625
O O2 0.500821 0.272826 0.868694
O O3 0.367783 0.485337 0.254665
O O4 0.383601 0.349640 0.014188
O O5 0.259418 0.027743 0.118498
O O6 0.664973 0.762352 0.445890
#
# Coordination Sequence:
#
# PCOD9355177 Si02
#       4
#     4   8   4   8
#     4   8  22  46  74 102 152 220 256 334 394 480
#     4  10  24  45  74 105 160 204 271 334 404 470
#     4  12  26  44  76 124 150 214 272 338 402 488
#     4  10  23  46  73 105 160 209 263 336 400 476
#
# _framework density 30.034880000000001
#
# number of rings (size 3 to 8) (size 9 to 14) (size 15 to 20)
#    2.000    0.000    1.667    0.000    4.667    6.667 
#    3.000    0.000    0.000    0.000    0.000    0.000 
#    0.000    0.000    0.000    0.000    0.000    0.000 
#
# Total GULP energy -66854.166491 kJ/mol
# GULP energy per Si atom -5571.180541 kJ/mol
# Density = 2.996652 g / cm^3
# Si number density = 30.034880 Si / 1000 Ang^3
#
#
#
# Elastic Constant Matrix: (Units=GPa)
#
#
# Indices 1 2 3 4 5 6 
#
# 1 368.4791 79.9621 224.8314 0.0000 0.0000 0.0000
# 2 79.9621 288.3509 145.1467 0.0000 0.0000 0.0000
# 3 224.8314 145.1467 243.6717 0.0000 0.0000 0.0000
# 4 0.0000 0.0000 0.0000 53.0534 0.0000 0.0000
# 5 0.0000 0.0000 0.0000 0.0000 114.8652 0.0000
# 6 0.0000 0.0000 0.0000 0.0000 0.0000 58.4821
#
#
#
# Elastic Compliance Matrix: (Units=1/GPa)
#
#
# Indices 1 2 3 4 5 6 
#
# 1 0.006821 0.001823 -0.007379 0.000000 0.000000 0.000000
# 2 0.001823 0.005440 -0.004923 0.000000 0.000000 0.000000
# 3 -0.007379 -0.004923 0.013845 0.000000 0.000000 0.000000
# 4 0.000000 0.000000 0.000000 0.018849 0.000000 0.000000
# 5 0.000000 0.000000 0.000000 0.000000 0.008706 0.000000
# 6 0.000000 0.000000 0.000000 0.000000 0.000000 0.017099
#
#
# Mechanical properties :
#
#
# Convention : Reuss Voigt Hill
#
# Bulk Modulus (GPa) = 194.24698 200.04247 197.14472
# Shear Modulus (GPa) = 53.51318 75.31757 64.41538
#
# Velocity S-wave (km/s) = 4.22560 5.01310 4.63610
# Velocity P-wave (km/s) = 9.41391 10.01280 9.71797
#
# Compressibility (1/GPa) = 0.00514809
#
# Stress axis : x y z
#
# Youngs Moduli (GPa) = 146.60816 183.80921 72.22750
#
# Poissons Ratio (x) = -0.33510 0.53300
# Poissons Ratio (y) = -0.26728 0.35556
# Poissons Ratio (z) = 1.08189 0.90486
#
# Static dielectric constant tensor:
#      x y z
#    x 2.564470 0.000000 0.000000 
#    y 0.000000 2.573880 0.000000 
#    z 0.000000 0.000000 2.034920 
# 
# From -- ./inp_files/8060.got.cif
#   From: 2010.05.17/outbox.cif.g08.bks.cpg/sg37_5_cif.got.tgz:8060.got - 2010.06.03 17:53:42.
