data_PCOD9355319
_publ_section_title
;
Structure prediction by ZEFSAII (Michael W. Deem and Ramdas Pophale) SiO2 
 PCOD9355319
Probable space group: C C C 2
;
_chemical_formula_sum "Si O2"
_cell_formula_units_Z 48
_cell_length_a 20.392383
_cell_length_b 18.333997
_cell_length_c 5.280002
_cell_angle_alpha 90.000000
_cell_angle_beta 90.000000
_cell_angle_gamma 90.000000
_cell_volume 1974.054880
_symmetry_space_group_name_H-M "C C C 2"
_symmetry_group_IT_number 37
_symmetry_cell_setting 'orthorhombic'
loop_
_space_group_symop_operation_xyz
x,y,z
-x,-y,z
-x,y,1/2+z
x,-y,1/2+z
1/2+x,1/2+y,z
1/2-x,1/2-y,z
1/2-x,1/2+y,1/2+z
1/2+x,1/2-y,1/2+z
loop_
_atom_site_type_symbol
_atom_site_label
_atom_site_fract_x
_atom_site_fract_y
_atom_site_fract_z
Si Si1 0.153869 0.623533 0.910690
Si Si2 0.893903 0.785465 0.398853
Si Si3 0.526488 0.082210 0.192041
Si Si4 0.724130 0.670923 0.760818
Si Si5 0.482770 0.636866 0.572565
Si Si6 0.250344 0.453200 0.104226
O O1 0.098905 0.584957 0.079780
O O2 0.176468 0.575380 0.671151
O O3 0.126559 0.703242 0.842263
O O4 0.217452 0.637708 0.086684
O O5 0.838381 0.819355 0.579169
O O6 0.913250 0.830098 0.146933
O O7 0.963879 0.796986 0.541203
O O8 0.482379 0.116994 0.968030
O O9 0.500000 0.000000 0.230767
O O10 0.750000 0.750000 0.843556
O O11 0.716466 0.620733 0.006529
O O12 0.489289 0.594697 0.313603
O O13 0.265297 0.494020 0.366788
#
# Coordination Sequence:
#
# PCOD9355319 Si02
#       6
#     8   8   8   8   8   8
#     4  11  25  41  70  97 146 190 264 308 374 440
#     4   9  21  41  69 104 142 191 241 317 382 447
#     4  10  25  39  59  88 127 191 247 294 347 426
#     4  10  24  47  75 107 145 199 259 326 384 472
#     4   8  18  36  59  96 142 171 224 296 377 450
#     4  12  27  48  69 100 146 194 245 318 376 458
#
# _framework density 24.315432999999999
#
# number of rings (size 3 to 8) (size 9 to 14) (size 15 to 20)
#    1.000    1.000    1.667    0.000    9.333    6.000 
#    0.000    0.000    0.000    0.000    0.000    3.500 
#    0.000    0.000    0.000    0.000    0.000    0.000 
#
# Total GULP energy -133843.331099 kJ/mol
# GULP energy per Si atom -5576.805462 kJ/mol
# Density = 2.426009 g / cm^3
# Si number density = 24.315433 Si / 1000 Ang^3
#
#
#
# Elastic Constant Matrix: (Units=GPa)
#
#
# Indices 1 2 3 4 5 6 
#
# 1 100.9220 2.2220 -6.5629 0.0000 0.0000 0.0000
# 2 2.2220 40.3348 7.7164 0.0000 0.0000 0.0000
# 3 -6.5629 7.7164 144.4097 0.0000 0.0000 0.0000
# 4 0.0000 0.0000 0.0000 28.4052 0.0000 0.0000
# 5 0.0000 0.0000 0.0000 0.0000 74.3589 0.0000
# 6 0.0000 0.0000 0.0000 0.0000 0.0000 24.8601
#
#
#
# Elastic Compliance Matrix: (Units=1/GPa)
#
#
# Indices 1 2 3 4 5 6 
#
# 1 0.009954 -0.000641 0.000487 0.000000 0.000000 0.000000
# 2 -0.000641 0.025090 -0.001370 0.000000 0.000000 0.000000
# 3 0.000487 -0.001370 0.007020 0.000000 0.000000 0.000000
# 4 0.000000 0.000000 0.000000 0.035205 0.000000 0.000000
# 5 0.000000 0.000000 0.000000 0.000000 0.013448 0.000000
# 6 0.000000 0.000000 0.000000 0.000000 0.000000 0.040225
#
#
# Mechanical properties :
#
#
# Convention : Reuss Voigt Hill
#
# Bulk Modulus (GPa) = 25.63110 32.49082 29.06096
# Shear Modulus (GPa) = 34.01437 44.34426 39.17931
#
# Velocity S-wave (km/s) = 3.74422 4.27512 4.01845
# Velocity P-wave (km/s) = 5.40890 6.14493 5.78862
#
# Compressibility (1/GPa) = 0.03901511
#
# Stress axis : x y z
#
# Youngs Moduli (GPa) = 100.45793 39.85675 142.44909
#
# Poissons Ratio (x) = 0.02557 -0.06933
# Poissons Ratio (y) = 0.06444 0.19513
# Poissons Ratio (z) = -0.04889 0.05460
#
# Static dielectric constant tensor:
#      x y z
#    x 1.867780 0.000000 0.000000 
#    y 0.000000 1.974220 0.000000 
#    z 0.000000 0.000000 2.082390 
# 
# From -- ./inp_files/1195.got.cif
#   From: 2010.05.17/outbox.cif.g08.bks.cpg/sg37_1_cif.got.tgz:1195.got - 2010.06.03 17:53:42.
