data_PCOD9355559
_publ_section_title
;
Structure prediction by ZEFSAII (Michael W. Deem and Ramdas Pophale) SiO2 
 PCOD9355559
Probable space group: C C C 2
;
_chemical_formula_sum "Si O2"
_cell_formula_units_Z 48
_cell_length_a 21.523554
_cell_length_b 9.512260
_cell_length_c 8.732992
_cell_angle_alpha 90.000000
_cell_angle_beta 90.000000
_cell_angle_gamma 90.000000
_cell_volume 1787.972188
_symmetry_space_group_name_H-M "C C C 2"
_symmetry_group_IT_number 37
_symmetry_cell_setting 'orthorhombic'
loop_
_space_group_symop_operation_xyz
x,y,z
-x,-y,z
-x,y,1/2+z
x,-y,1/2+z
1/2+x,1/2+y,z
1/2-x,1/2-y,z
1/2-x,1/2+y,1/2+z
1/2+x,1/2-y,1/2+z
loop_
_atom_site_type_symbol
_atom_site_label
_atom_site_fract_x
_atom_site_fract_y
_atom_site_fract_z
Si Si1 0.916755 0.616369 0.159340
Si Si2 0.299616 0.152456 0.504761
Si Si3 0.368172 0.388695 0.277409
Si Si4 0.949389 0.338479 0.300407
Si Si5 0.906459 0.119957 0.072243
Si Si6 0.749300 0.089547 0.340610
O O1 0.865086 0.724828 0.222327
O O2 0.909268 0.451448 0.198047
O O3 0.978251 0.637727 0.264099
O O4 0.933754 0.644512 0.980566
O O5 0.250000 0.250000 0.415248
O O6 0.352164 0.266805 0.534888
O O7 0.268788 0.109685 0.665067
O O8 0.303322 0.003448 0.422552
O O9 0.386929 0.467233 0.123641
O O10 0.426101 0.396721 0.397107
O O11 0.312710 0.495249 0.337660
O O12 0.937867 0.190681 0.217156
O O13 0.750000 0.250000 0.404585
#
# Coordination Sequence:
#
# PCOD9355559 Si02
#       6
#     8   8   8   8   8   8
#     4  11  24  46  78 108 155 199 242 313 379 469
#     4  11  23  45  66 100 141 190 245 315 372 453
#     4  12  23  44  71 101 144 198 248 314 382 447
#     4  11  24  47  73 116 151 195 252 303 386 459
#     4  12  25  45  69 104 147 190 260 309 378 457
#     4  11  23  46  69  99 145 193 253 318 379 452
#
# _framework density 26.846053999999999
#
# number of rings (size 3 to 8) (size 9 to 14) (size 15 to 20)
#    0.000    0.667    5.000    5.000    0.000    4.000 
#    9.000    3.333    0.000    0.000    0.000    0.000 
#    0.000    0.000    0.000    0.000    0.000    0.000 
#
# Total GULP energy -133807.366368 kJ/mol
# GULP energy per Si atom -5575.306932 kJ/mol
# Density = 2.678495 g / cm^3
# Si number density = 26.846054 Si / 1000 Ang^3
#
#
#
# Elastic Constant Matrix: (Units=GPa)
#
#
# Indices 1 2 3 4 5 6 
#
# 1 71.9864 27.7757 8.3512 0.0000 0.0000 0.0000
# 2 27.7757 194.7692 19.1275 0.0000 0.0000 0.0000
# 3 8.3512 19.1275 138.5266 0.0000 0.0000 0.0000
# 4 0.0000 0.0000 0.0000 53.8908 0.0000 0.0000
# 5 0.0000 0.0000 0.0000 0.0000 24.2546 0.0000
# 6 0.0000 0.0000 0.0000 0.0000 0.0000 36.6623
#
#
#
# Elastic Compliance Matrix: (Units=1/GPa)
#
#
# Indices 1 2 3 4 5 6 
#
# 1 0.014751 -0.002044 -0.000607 0.000000 0.000000 0.000000
# 2 -0.002044 0.005488 -0.000635 0.000000 0.000000 0.000000
# 3 -0.000607 -0.000635 0.007343 0.000000 0.000000 0.000000
# 4 0.000000 0.000000 0.000000 0.018556 0.000000 0.000000
# 5 0.000000 0.000000 0.000000 0.000000 0.041229 0.000000
# 6 0.000000 0.000000 0.000000 0.000000 0.000000 0.027276
#
#
# Mechanical properties :
#
#
# Convention : Reuss Voigt Hill
#
# Bulk Modulus (GPa) = 47.59495 57.31013 52.45254
# Shear Modulus (GPa) = 38.99619 46.29673 42.64646
#
# Velocity S-wave (km/s) = 3.81541 4.15725 3.98999
# Velocity P-wave (km/s) = 6.09731 6.66616 6.38807
#
# Compressibility (1/GPa) = 0.02101063
#
# Stress axis : x y z
#
# Youngs Moduli (GPa) = 67.79395 182.21299 136.18330
#
# Poissons Ratio (x) = 0.37243 0.08267
# Poissons Ratio (y) = 0.13857 0.08642
# Poissons Ratio (z) = 0.04115 0.11563
#
# Static dielectric constant tensor:
#      x y z
#    x 2.301470 0.000000 0.000000 
#    y 0.000000 2.584280 0.000000 
#    z 0.000000 0.000000 2.123790 
# 
# From -- ./inp_files/4950.got.cif
#   From: 2010.05.17/outbox.cif.g08.bks.cpg/sg37_3_cif.got.tgz:4950.got - 2010.06.03 17:53:42.
