data_PCOD9355259
_publ_section_title
;
Structure prediction by ZEFSAII (Michael W. Deem and Ramdas Pophale) SiO2 
 PCOD9355259
Probable space group: C C C 2
;
_chemical_formula_sum "Si O2"
_cell_formula_units_Z 48
_cell_length_a 13.803950
_cell_length_b 16.619827
_cell_length_c 9.353232
_cell_angle_alpha 90.000000
_cell_angle_beta 90.000000
_cell_angle_gamma 90.000000
_cell_volume 2145.811573
_symmetry_space_group_name_H-M "C C C 2"
_symmetry_group_IT_number 37
_symmetry_cell_setting 'orthorhombic'
loop_
_space_group_symop_operation_xyz
x,y,z
-x,-y,z
-x,y,1/2+z
x,-y,1/2+z
1/2+x,1/2+y,z
1/2-x,1/2-y,z
1/2-x,1/2+y,1/2+z
1/2+x,1/2-y,1/2+z
loop_
_atom_site_type_symbol
_atom_site_label
_atom_site_fract_x
_atom_site_fract_y
_atom_site_fract_z
Si Si1 0.452744 0.245671 0.041440
Si Si2 0.750000 0.250000 0.681154
Si Si3 0.963660 0.147048 0.272890
Si Si4 0.711394 0.435562 0.113347
Si Si5 0.828410 0.916576 0.290447
Si Si6 0.580951 0.900792 0.551334
Si Si7 0.000000 0.500000 0.311033
O O1 0.342895 0.226560 0.085352
O O2 0.510436 0.274689 0.180563
O O3 0.514897 0.170199 0.989627
O O4 0.453241 0.320522 0.933002
O O5 0.783335 0.172643 0.772536
O O6 0.867993 0.107413 0.210956
O O7 0.057887 0.091116 0.253516
O O8 0.726830 0.522070 0.186670
O O9 0.809084 0.384482 0.094426
O O10 0.674305 0.445857 0.952652
O O11 0.579856 0.967234 0.423697
O O12 0.533759 0.932704 0.698410
#
# Coordination Sequence:
#
# PCOD9355259 Si02
#       7
#     8   4   8   8   8   8   4
#     4  11  25  46  72 102 148 198 244 314 380 452
#     4  10  28  48  74 100 154 196 246 308 390 446
#     4  11  25  47  71 108 143 195 247 315 378 447
#     4  12  27  44  78 109 146 194 259 306 379 459
#     4  11  27  48  75 105 151 196 249 318 383 447
#     4  11  25  43  71 105 147 195 246 308 375 451
#     4  10  24  44  64 102 152 186 244 308 372 442
#
# _framework density 22.369159
#
# number of rings (size 3 to 8) (size 9 to 14) (size 15 to 20)
#    0.000    1.000    1.667    2.500   16.333    4.667 
#    0.000    0.000    0.000    0.000    0.000    0.000 
#    0.000    0.000    0.000    0.000    0.000    0.000 
#
# Total GULP energy -134172.722470 kJ/mol
# GULP energy per Si atom -5590.530103 kJ/mol
# Density = 2.231825 g / cm^3
# Si number density = 22.369159 Si / 1000 Ang^3
#
#
#
# Elastic Constant Matrix: (Units=GPa)
#
#
# Indices 1 2 3 4 5 6 
#
# 1 101.4193 38.6839 25.2911 0.0000 0.0000 0.0000
# 2 38.6839 74.3808 26.0282 0.0000 0.0000 0.0000
# 3 25.2911 26.0282 113.7929 0.0000 0.0000 0.0000
# 4 0.0000 0.0000 0.0000 35.1237 0.0000 0.0000
# 5 0.0000 0.0000 0.0000 0.0000 27.5686 0.0000
# 6 0.0000 0.0000 0.0000 0.0000 0.0000 28.5875
#
#
#
# Elastic Compliance Matrix: (Units=1/GPa)
#
#
# Indices 1 2 3 4 5 6 
#
# 1 0.012503 -0.006011 -0.001404 0.000000 0.000000 0.000000
# 2 -0.006011 0.017504 -0.002668 0.000000 0.000000 0.000000
# 3 -0.001404 -0.002668 0.009710 0.000000 0.000000 0.000000
# 4 0.000000 0.000000 0.000000 0.028471 0.000000 0.000000
# 5 0.000000 0.000000 0.000000 0.000000 0.036273 0.000000
# 6 0.000000 0.000000 0.000000 0.000000 0.000000 0.034980
#
#
# Mechanical properties :
#
#
# Convention : Reuss Voigt Hill
#
# Bulk Modulus (GPa) = 51.14703 52.17774 51.66239
# Shear Modulus (GPa) = 30.09789 31.56194 30.82991
#
# Velocity S-wave (km/s) = 3.67210 3.76035 3.71648
# Velocity P-wave (km/s) = 6.39482 6.49846 6.44685
#
# Compressibility (1/GPa) = 0.01955148
#
# Stress axis : x y z
#
# Youngs Moduli (GPa) = 79.98082 57.12915 102.98537
#
# Poissons Ratio (x) = 0.34342 0.14458
# Poissons Ratio (y) = 0.48079 0.27474
# Poissons Ratio (z) = 0.11228 0.15241
#
# Static dielectric constant tensor:
#      x y z
#    x 1.842140 0.000000 0.000000 
#    y 0.000000 1.852010 0.000000 
#    z 0.000000 0.000000 1.763920 
# 
# From -- ./inp_files/3524.got.cif
#   From: 2010.05.17/outbox.cif.g08.bks.cpg/sg37_2_cif.got.tgz:3524.got - 2010.06.03 17:53:42.
