data_PCOD9355477
_publ_section_title
;
Structure prediction by ZEFSAII (Michael W. Deem and Ramdas Pophale) SiO2 
 PCOD9355477
Probable space group: C C C 2
;
_chemical_formula_sum "Si O2"
_cell_formula_units_Z 64
_cell_length_a 8.636826
_cell_length_b 20.140174
_cell_length_c 19.128290
_cell_angle_alpha 90.000000
_cell_angle_beta 90.000000
_cell_angle_gamma 90.000000
_cell_volume 3327.312074
_symmetry_space_group_name_H-M "C C C 2"
_symmetry_group_IT_number 37
_symmetry_cell_setting 'orthorhombic'
loop_
_space_group_symop_operation_xyz
x,y,z
-x,-y,z
-x,y,1/2+z
x,-y,1/2+z
1/2+x,1/2+y,z
1/2-x,1/2-y,z
1/2-x,1/2+y,1/2+z
1/2+x,1/2-y,1/2+z
loop_
_atom_site_type_symbol
_atom_site_label
_atom_site_fract_x
_atom_site_fract_y
_atom_site_fract_z
Si Si1 0.959488 0.922259 0.047240
Si Si2 0.653801 0.418445 0.695772
Si Si3 0.745472 0.459446 0.417415
Si Si4 0.314389 0.445530 0.757302
Si Si5 0.668756 0.816804 0.289855
Si Si6 0.232754 0.328260 0.551617
Si Si7 0.853231 0.684924 0.711627
Si Si8 0.590749 0.098038 0.926129
O O1 0.850548 0.905114 0.113300
O O2 0.106810 0.871927 0.048827
O O3 0.868334 0.926128 0.973863
O O4 0.000000 0.000000 0.061014
O O5 0.477535 0.427987 0.721762
O O6 0.739060 0.486907 0.718513
O O7 0.722339 0.358583 0.739008
O O8 0.674046 0.457874 0.339947
O O9 0.791373 0.535743 0.432985
O O10 0.913443 0.424805 0.419500
O O11 0.206257 0.382252 0.747619
O O12 0.750000 0.750000 0.314248
O O13 0.519552 0.800334 0.243372
O O14 0.629736 0.861416 0.356590
O O15 0.250000 0.250000 0.535806
O O16 0.161372 0.330399 0.629293
O O17 0.118800 0.359113 0.494849
O O18 0.750000 0.750000 0.725161
#
# Coordination Sequence:
#
# PCOD9355477 Si02
#       8
#     8   8   8   8   8   8   8   8
#     4  12  23  44  66 101 132 180 230 275 335 411
#     4  11  24  39  68 102 128 171 231 274 329 397
#     4  11  25  41  68  96 138 173 222 278 336 409
#     4  11  21  43  66  96 132 171 219 284 327 390
#     4  12  26  43  70  97 137 176 226 278 337 408
#     4  11  25  45  69  95 137 175 221 282 342 403
#     4  11  24  46  69  95 132 179 220 277 343 398
#     4  11  24  46  62 101 134 173 221 276 347 399
#
# _framework density 19.234746000000001
#
# number of rings (size 3 to 8) (size 9 to 14) (size 15 to 20)
#    0.000    0.750    6.250    1.125    7.000    0.500 
#    2.250    0.625    0.000    0.000    0.000    0.000 
#    0.000    0.000    0.000    0.000    0.000    0.000 
#
# Total GULP energy -178732.413240 kJ/mol
# GULP energy per Si atom -5585.387914 kJ/mol
# Density = 1.919097 g / cm^3
# Si number density = 19.234746 Si / 1000 Ang^3
#
#
#
# Elastic Constant Matrix: (Units=GPa)
#
#
# Indices 1 2 3 4 5 6 
#
# 1 47.9880 24.8433 22.5956 0.0000 0.0000 0.0000
# 2 24.8433 101.0433 30.9152 0.0000 0.0000 0.0000
# 3 22.5956 30.9152 96.1573 0.0000 0.0000 0.0000
# 4 0.0000 0.0000 0.0000 45.1587 0.0000 0.0000
# 5 0.0000 0.0000 0.0000 0.0000 20.3758 0.0000
# 6 0.0000 0.0000 0.0000 0.0000 0.0000 31.4919
#
#
#
# Elastic Compliance Matrix: (Units=1/GPa)
#
#
# Indices 1 2 3 4 5 6 
#
# 1 0.025454 -0.004911 -0.004402 0.000000 0.000000 0.000000
# 2 -0.004911 0.011924 -0.002680 0.000000 0.000000 0.000000
# 3 -0.004402 -0.002680 0.012296 0.000000 0.000000 0.000000
# 4 0.000000 0.000000 0.000000 0.022144 0.000000 0.000000
# 5 0.000000 0.000000 0.000000 0.000000 0.049078 0.000000
# 6 0.000000 0.000000 0.000000 0.000000 0.000000 0.031754
#
#
# Mechanical properties :
#
#
# Convention : Reuss Voigt Hill
#
# Bulk Modulus (GPa) = 38.92983 44.65519 41.79251
# Shear Modulus (GPa) = 26.99799 30.52757 28.76278
#
# Velocity S-wave (km/s) = 3.75054 3.98817 3.87118
# Velocity P-wave (km/s) = 6.24809 6.66886 6.46190
#
# Compressibility (1/GPa) = 0.02568724
#
# Stress axis : x y z
#
# Youngs Moduli (GPa) = 39.28655 83.86351 81.32995
#
# Poissons Ratio (x) = 0.41189 0.35804
# Poissons Ratio (y) = 0.19295 0.21793
# Poissons Ratio (z) = 0.17295 0.22472
#
# Static dielectric constant tensor:
#      x y z
#    x 1.663650 0.000000 0.000000 
#    y 0.000000 1.684590 0.000000 
#    z 0.000000 0.000000 1.657360 
# 
# From -- ./inp_files/14748.got.cif
#   From: 2010.05.17/outbox.cif.g08.bks.cpg/sg37_8_cif.got.tgz:14748.got - 2010.06.03 17:53:42.
