data_PCOD9355934
_publ_section_title
;
Structure prediction by ZEFSAII (Michael W. Deem and Ramdas Pophale) SiO2 
 PCOD9355934
Probable space group: A M M 2
;
_chemical_formula_sum "Si O2"
_cell_formula_units_Z 56
_cell_length_a 8.198485
_cell_length_b 19.756442
_cell_length_c 18.356140
_cell_angle_alpha 90.000000
_cell_angle_beta 90.000000
_cell_angle_gamma 90.000000
_cell_volume 2973.197107
_symmetry_space_group_name_H-M "A M M 2"
_symmetry_group_IT_number 38
_symmetry_cell_setting 'orthorhombic'
loop_
_space_group_symop_operation_xyz
x,y,z
-x,-y,z
-x,y,z
x,-y,z
x,1/2+y,1/2+z
-x,1/2-y,1/2+z
-x,1/2+y,1/2+z
x,1/2-y,1/2+z
loop_
_atom_site_type_symbol
_atom_site_label
_atom_site_fract_x
_atom_site_fract_y
_atom_site_fract_z
Si Si1 0.801850 0.072200 0.444810
Si Si2 0.805976 0.201175 0.187447
Si Si3 0.805106 0.577453 0.392859
Si Si4 0.198550 0.072723 0.274783
Si Si5 0.192312 0.220409 0.446517
Si Si6 0.314507 0.655420 0.530603
Si Si7 0.308363 0.210540 0.808430
O O1 0.756910 0.073053 0.359546
O O2 0.753386 0.146029 0.471658
O O3 0.000000 0.072009 0.448008
O O4 0.745051 0.000000 0.476289
O O5 0.738669 0.137648 0.233549
O O6 0.770062 0.178550 0.105121
O O7 0.733575 0.268503 0.225362
O O8 0.000000 0.206740 0.195409
O O9 0.748630 0.500000 0.379654
O O10 0.763336 0.600208 0.475927
O O11 0.736978 0.635319 0.337903
O O12 0.000000 0.579141 0.385432
O O13 0.000000 0.074950 0.272146
O O14 0.249142 0.000000 0.243088
O O15 0.302106 0.276659 0.483051
O O16 0.211469 0.236459 0.360566
O O17 0.000000 0.229792 0.464368
O O18 0.500000 0.636008 0.545547
O O19 0.500000 0.219857 0.819636
#
# Coordination Sequence:
#
# PCOD9355934 Si02
#       7
#     8   8   8   8   8   8   8
#     4   8  13  23  44  74 100 123 158 204 248 288
#     4  11  20  34  54  77 106 144 187 227 264 320
#     4  10  21  39  62  85 108 141 189 235 276 334
#     4   8  14  25  44  72 101 128 161 203 247 290
#     4  10  17  31  53  75  99 134 178 219 257 313
#     4  11  23  36  51  76 110 144 176 221 280 334
#     4  11  21  33  53  80 110 142 177 224 279 327
#
# _framework density 18.834942999999999
#
# number of rings (size 3 to 8) (size 9 to 14) (size 15 to 20)
#    0.000    2.143    1.429    6.429    0.000    1.714 
#    0.000    1.429    0.000    4.714    0.000    2.000 
#    0.000    0.000    0.000    0.000    0.000    0.000 
#
# Total GULP energy -155886.014659 kJ/mol
# GULP energy per Si atom -5567.357666 kJ/mol
# Density = 1.879207 g / cm^3
# Si number density = 18.834943 Si / 1000 Ang^3
#
#
#
# Elastic Constant Matrix: (Units=GPa)
#
#
# Indices 1 2 3 4 5 6 
#
# 1 54.4811 11.3435 5.5218 0.0000 0.0000 0.0000
# 2 11.3435 115.6364 15.0155 0.0000 0.0000 0.0000
# 3 5.5218 15.0155 45.0878 0.0000 0.0000 0.0000
# 4 0.0000 0.0000 0.0000 13.3675 0.0000 0.0000
# 5 0.0000 0.0000 0.0000 0.0000 19.6213 0.0000
# 6 0.0000 0.0000 0.0000 0.0000 0.0000 -18.3580
#
#
#
# Elastic Compliance Matrix: (Units=1/GPa)
#
#
# Indices 1 2 3 4 5 6 
#
# 1 0.018872 -0.001621 -0.001771 0.000000 0.000000 0.000000
# 2 -0.001621 0.009178 -0.002858 0.000000 0.000000 0.000000
# 3 -0.001771 -0.002858 0.023348 0.000000 0.000000 0.000000
# 4 0.000000 0.000000 0.000000 0.074809 0.000000 0.000000
# 5 0.000000 0.000000 0.000000 0.000000 0.050965 0.000000
# 6 0.000000 0.000000 0.000000 0.000000 0.000000 -0.054472
#
#
# Mechanical properties :
#
#
# Convention : Reuss Voigt Hill
#
# Bulk Modulus (GPa) = 25.70918 30.99633 28.35276
# Shear Modulus (GPa) = 33.74599 15.14778 24.44688
#
# Velocity S-wave (km/s) = 4.23740 2.83899 3.60662
# Velocity P-wave (km/s) = 6.13353 5.21910 5.69470
#
# Compressibility (1/GPa) = 0.03889661
#
# Stress axis : x y z
#
# Youngs Moduli (GPa) = 52.98831 108.95681 42.83087
#
# Poissons Ratio (x) = 0.17665 0.07587
# Poissons Ratio (y) = 0.08591 0.12241
# Poissons Ratio (z) = 0.09386 0.31139
#
# Static dielectric constant tensor:
#      x y z
#    x 1.644470 0.000000 0.000000 
#    y 0.000000 1.707690 0.000000 
#    z 0.000000 0.000000 1.696870 
# 
# From -- ./inp_files/17111.got.cif
#   From: 2010.05.17/outbox.cif.g08.bks.cpg/sg38_9_cif.got.tgz:17111.got - 2010.06.03 18:07:57.
