data_PCOD9355460
_publ_section_title
;
Structure prediction by ZEFSAII (Michael W. Deem and Ramdas Pophale) SiO2 
 PCOD9355460
Probable space group: C C C 2
;
_chemical_formula_sum "Si O2"
_cell_formula_units_Z 64
_cell_length_a 26.564786
_cell_length_b 14.186970
_cell_length_c 9.376096
_cell_angle_alpha 90.000000
_cell_angle_beta 90.000000
_cell_angle_gamma 90.000000
_cell_volume 3533.605135
_symmetry_space_group_name_H-M "C C C 2"
_symmetry_group_IT_number 37
_symmetry_cell_setting 'orthorhombic'
loop_
_space_group_symop_operation_xyz
x,y,z
-x,-y,z
-x,y,1/2+z
x,-y,1/2+z
1/2+x,1/2+y,z
1/2-x,1/2-y,z
1/2-x,1/2+y,1/2+z
1/2+x,1/2-y,1/2+z
loop_
_atom_site_type_symbol
_atom_site_label
_atom_site_fract_x
_atom_site_fract_y
_atom_site_fract_z
Si Si1 0.944232 0.609504 0.223830
Si Si2 0.268313 0.486324 0.811706
Si Si3 0.378466 0.849537 0.491292
Si Si4 0.302653 0.306688 0.310052
Si Si5 0.696985 0.303566 0.466715
Si Si6 0.560395 0.105102 0.221731
Si Si7 0.875707 0.670668 0.482821
Si Si8 0.696904 0.004078 0.054748
O O1 0.940262 0.502424 0.163284
O O2 0.909125 0.621826 0.360479
O O3 0.002499 0.627762 0.256550
O O4 0.921648 0.677177 0.102949
O O5 0.294857 0.584377 0.849351
O O6 0.298965 0.397730 0.872485
O O7 0.247073 0.488781 0.650535
O O8 0.215676 0.484743 0.895757
O O9 0.347957 0.764352 0.422801
O O10 0.405834 0.901092 0.362456
O O11 0.339014 0.914341 0.581665
O O12 0.250000 0.250000 0.331285
O O13 0.345226 0.254639 0.404255
O O14 0.310951 0.311398 0.138337
O O15 0.750000 0.250000 0.447605
O O16 0.584768 0.179684 0.112671
O O17 0.834599 0.599286 0.549872
#
# Coordination Sequence:
#
# PCOD9355460 Si02
#       8
#     8   8   8   8   8   8   8   8
#     4  11  21  38  59  82 127 162 193 245 304 367
#     4  12  23  39  55  83 121 157 205 244 282 348
#     4  12  21  38  59  83 121 163 197 237 300 361
#     4  11  22  39  58  83 115 160 199 237 296 357
#     4  11  23  38  59  82 116 160 198 237 296 357
#     4  11  23  35  56  94 120 153 203 250 297 358
#     4  12  22  36  59  87 119 164 197 239 301 362
#     4  12  21  35  58  84 119 159 197 235 286 350
#
# _framework density 18.111813999999999
#
# number of rings (size 3 to 8) (size 9 to 14) (size 15 to 20)
#    0.000    0.500    7.500    3.000    0.000    3.000 
#    0.000    0.000    0.000    0.000    0.000    5.250 
#    0.000    0.000    0.000    0.000    0.000    0.000 
#
# Total GULP energy -178435.887663 kJ/mol
# GULP energy per Si atom -5576.121489 kJ/mol
# Density = 1.807059 g / cm^3
# Si number density = 18.111814 Si / 1000 Ang^3
#
#
#
# Elastic Constant Matrix: (Units=GPa)
#
#
# Indices 1 2 3 4 5 6 
#
# 1 97.0466 53.6685 25.4531 0.0000 0.0000 0.0000
# 2 53.6685 110.5076 25.5378 0.0000 0.0000 0.0000
# 3 25.4531 25.5378 68.1130 0.0000 0.0000 0.0000
# 4 0.0000 0.0000 0.0000 21.9423 0.0000 0.0000
# 5 0.0000 0.0000 0.0000 0.0000 24.3147 0.0000
# 6 0.0000 0.0000 0.0000 0.0000 0.0000 20.0253
#
#
#
# Elastic Compliance Matrix: (Units=1/GPa)
#
#
# Indices 1 2 3 4 5 6 
#
# 1 0.014653 -0.006406 -0.003074 0.000000 0.000000 0.000000
# 2 -0.006406 0.012708 -0.002371 0.000000 0.000000 0.000000
# 3 -0.003074 -0.002371 0.016719 0.000000 0.000000 0.000000
# 4 0.000000 0.000000 0.000000 0.045574 0.000000 0.000000
# 5 0.000000 0.000000 0.000000 0.000000 0.041127 0.000000
# 6 0.000000 0.000000 0.000000 0.000000 0.000000 0.049937
#
#
# Mechanical properties :
#
#
# Convention : Reuss Voigt Hill
#
# Bulk Modulus (GPa) = 49.07043 53.88734 51.47888
# Shear Modulus (GPa) = 23.67276 24.65698 24.16487
#
# Velocity S-wave (km/s) = 3.61921 3.69369 3.65664
# Velocity P-wave (km/s) = 6.67958 6.92880 6.80533
#
# Compressibility (1/GPa) = 0.02037887
#
# Stress axis : x y z
#
# Youngs Moduli (GPa) = 68.24456 78.68956 59.81196
#
# Poissons Ratio (x) = 0.50409 0.18386
# Poissons Ratio (y) = 0.43718 0.14181
# Poissons Ratio (z) = 0.20978 0.18656
#
# Static dielectric constant tensor:
#      x y z
#    x 1.637100 0.000000 0.000000 
#    y 0.000000 1.649200 0.000000 
#    z 0.000000 0.000000 1.670950 
# 
# From -- ./inp_files/3753.got.cif
#   From: 2010.05.17/outbox.cif.g08.bks.cpg/sg37_2_cif.got.tgz:3753.got - 2010.06.03 17:53:42.
