data_PCOD9355043
_publ_section_title
;
Structure prediction by ZEFSAII (Michael W. Deem and Ramdas Pophale) SiO2 
 PCOD9355043
Probable space group: C C C 2
;
_chemical_formula_sum "Si O2"
_cell_formula_units_Z 32
_cell_length_a 14.681656
_cell_length_b 5.128078
_cell_length_c 17.175455
_cell_angle_alpha 90.000000
_cell_angle_beta 90.000000
_cell_angle_gamma 90.000000
_cell_volume 1293.117286
_symmetry_space_group_name_H-M "C C C 2"
_symmetry_group_IT_number 37
_symmetry_cell_setting 'orthorhombic'
loop_
_space_group_symop_operation_xyz
x,y,z
-x,-y,z
-x,y,1/2+z
x,-y,1/2+z
1/2+x,1/2+y,z
1/2-x,1/2-y,z
1/2-x,1/2+y,1/2+z
1/2+x,1/2-y,1/2+z
loop_
_atom_site_type_symbol
_atom_site_label
_atom_site_fract_x
_atom_site_fract_y
_atom_site_fract_z
Si Si1 0.403480 0.688445 0.750000
Si Si2 0.357447 0.201077 0.653962
Si Si3 0.902479 0.643713 0.474264
Si Si4 0.250000 0.250000 0.366214
Si Si5 0.000000 0.000000 0.882581
O O1 0.406156 0.458902 0.686625
O O2 0.318473 0.610859 0.805984
O O3 0.482558 0.715762 0.815454
O O4 0.384672 0.954630 0.705907
O O5 0.250000 0.250000 0.657666
O O6 0.382094 0.141472 0.564802
O O7 0.814960 0.571858 0.421347
O O8 0.919843 0.940367 0.443407
O O9 0.000000 0.500000 0.461209
#
# Coordination Sequence:
#
# PCOD9355043 Si02
#       5
#     8   8   8   4   4
#     4  11  26  46  77 107 151 201 265 319 401 467
#     4  12  25  48  73 112 151 208 258 330 396 481
#     4  11  27  47  75 110 157 207 265 325 406 474
#     4  10  22  52  72 110 146 206 262 330 376 488
#     4  10  28  46  72 114 154 206 258 332 392 484
#
# _framework density 24.746403999999998
#
# number of rings (size 3 to 8) (size 9 to 14) (size 15 to 20)
#    0.000    1.000    3.750    0.000   14.000    0.000 
#    0.000    0.000    0.000    0.000    0.000    0.000 
#    0.000    0.000    0.000    0.000    0.000    0.000 
#
# Total GULP energy -89165.082488 kJ/mol
# GULP energy per Si atom -5572.817656 kJ/mol
# Density = 2.469008 g / cm^3
# Si number density = 24.746404 Si / 1000 Ang^3
#
#
#
# Elastic Constant Matrix: (Units=GPa)
#
#
# Indices 1 2 3 4 5 6 
#
# 1 124.7889 59.3184 73.6351 0.0000 0.0000 0.0000
# 2 59.3184 130.5642 64.8874 0.0000 0.0000 0.0000
# 3 73.6351 64.8874 211.8588 0.0000 0.0000 0.0000
# 4 0.0000 0.0000 0.0000 18.1087 0.0000 0.0000
# 5 0.0000 0.0000 0.0000 0.0000 63.2797 0.0000
# 6 0.0000 0.0000 0.0000 0.0000 0.0000 31.4567
#
#
#
# Elastic Compliance Matrix: (Units=1/GPa)
#
#
# Indices 1 2 3 4 5 6 
#
# 1 0.011496 -0.003818 -0.002826 0.000000 0.000000 0.000000
# 2 -0.003818 0.010302 -0.001828 0.000000 0.000000 0.000000
# 3 -0.002826 -0.001828 0.006262 0.000000 0.000000 0.000000
# 4 0.000000 0.000000 0.000000 0.055222 0.000000 0.000000
# 5 0.000000 0.000000 0.000000 0.000000 0.015803 0.000000
# 6 0.000000 0.000000 0.000000 0.000000 0.000000 0.031790
#
#
# Mechanical properties :
#
#
# Convention : Reuss Voigt Hill
#
# Bulk Modulus (GPa) = 89.96608 95.87707 92.92157
# Shear Modulus (GPa) = 32.99746 40.52709 36.76227
#
# Velocity S-wave (km/s) = 3.65557 4.05124 3.85848
# Velocity P-wave (km/s) = 7.36558 7.79175 7.58166
#
# Compressibility (1/GPa) = 0.01111530
#
# Stress axis : x y z
#
# Youngs Moduli (GPa) = 86.98408 97.06395 159.68383
#
# Poissons Ratio (x) = 0.37064 0.45130
# Poissons Ratio (y) = 0.33215 0.29194
# Poissons Ratio (z) = 0.24584 0.17745
#
# Static dielectric constant tensor:
#      x y z
#    x 2.196650 0.000000 0.000000 
#    y 0.000000 2.074180 0.000000 
#    z 0.000000 0.000000 1.887900 
# 
# From -- ./inp_files/9453.got.cif
#   From: 2010.05.17/outbox.cif.g08.bks.cpg/sg37_5_cif.got.tgz:9453.got - 2010.06.03 17:53:42.
