data_PCOD9355612
_publ_section_title
;
Structure prediction by ZEFSAII (Michael W. Deem and Ramdas Pophale) SiO2 
 PCOD9355612
Probable space group: C C C 2
;
_chemical_formula_sum "Si O2"
_cell_formula_units_Z 36
_cell_length_a 21.306360
_cell_length_b 7.598596
_cell_length_c 9.148511
_cell_angle_alpha 90.000000
_cell_angle_beta 90.000000
_cell_angle_gamma 90.000000
_cell_volume 1481.129493
_symmetry_space_group_name_H-M "C C C 2"
_symmetry_group_IT_number 37
_symmetry_cell_setting 'orthorhombic'
loop_
_space_group_symop_operation_xyz
x,y,z
-x,-y,z
-x,y,1/2+z
x,-y,1/2+z
1/2+x,1/2+y,z
1/2-x,1/2-y,z
1/2-x,1/2+y,1/2+z
1/2+x,1/2-y,1/2+z
loop_
_atom_site_type_symbol
_atom_site_label
_atom_site_fract_x
_atom_site_fract_y
_atom_site_fract_z
Si Si1 0.858386 0.473146 0.856110
Si Si2 0.356883 0.660861 0.526684
Si Si3 0.067427 0.993205 0.271063
Si Si4 0.750000 0.250000 0.720938
Si Si5 0.439807 0.127750 0.602368
O O1 0.849711 0.647344 0.954364
O O2 0.796315 0.365651 0.819519
O O3 0.888353 0.538978 0.706633
O O4 0.910709 0.360783 0.941554
O O5 0.378794 0.541509 0.391172
O O6 0.409293 0.637043 0.653703
O O7 0.292572 0.628483 0.614155
O O8 0.054586 0.819018 0.172457
O O9 0.000000 0.000000 0.349977
O O10 0.500000 0.000000 0.599306
#
# Coordination Sequence:
#
# PCOD9355612 Si02
#       5
#     8   8   8   4   8
#     4  11  25  48  75 110 148 203 247 312 381 444
#     4  11  27  48  74 113 150 200 251 309 377 451
#     4  11  26  45  77 114 152 192 247 315 385 452
#     4  12  28  48  78 104 152 200 266 308 364 458
#     4  11  24  45  76 113 151 193 249 310 386 453
#
# _framework density 24.305776999999999
#
# number of rings (size 3 to 8) (size 9 to 14) (size 15 to 20)
#    0.000    0.889    2.222    2.667    6.222    3.556 
#    0.000    0.000    0.000    0.000    0.000    0.000 
#    0.000    0.000    0.000    0.000    0.000    0.000 
#
# Total GULP energy -100703.847149 kJ/mol
# GULP energy per Si atom -5594.658175 kJ/mol
# Density = 2.425046 g / cm^3
# Si number density = 24.305777 Si / 1000 Ang^3
#
#
#
# Elastic Constant Matrix: (Units=GPa)
#
#
# Indices 1 2 3 4 5 6 
#
# 1 138.9493 50.7410 41.1500 0.0000 0.0000 0.0000
# 2 50.7410 101.9433 33.2945 0.0000 0.0000 0.0000
# 3 41.1500 33.2945 135.4462 0.0000 0.0000 0.0000
# 4 0.0000 0.0000 0.0000 24.6218 0.0000 0.0000
# 5 0.0000 0.0000 0.0000 0.0000 58.2277 0.0000
# 6 0.0000 0.0000 0.0000 0.0000 0.0000 32.3469
#
#
#
# Elastic Compliance Matrix: (Units=1/GPa)
#
#
# Indices 1 2 3 4 5 6 
#
# 1 0.009187 -0.003981 -0.001813 0.000000 0.000000 0.000000
# 2 -0.003981 0.012391 -0.001836 0.000000 0.000000 0.000000
# 3 -0.001813 -0.001836 0.008385 0.000000 0.000000 0.000000
# 4 0.000000 0.000000 0.000000 0.040614 0.000000 0.000000
# 5 0.000000 0.000000 0.000000 0.000000 0.017174 0.000000
# 6 0.000000 0.000000 0.000000 0.000000 0.000000 0.030915
#
#
# Mechanical properties :
#
#
# Convention : Reuss Voigt Hill
#
# Bulk Modulus (GPa) = 68.01207 69.63444 68.82325
# Shear Modulus (GPa) = 36.01597 39.78284 37.89940
#
# Velocity S-wave (km/s) = 3.85357 4.05008 3.95305
# Velocity P-wave (km/s) = 6.91684 7.11213 7.01516
#
# Compressibility (1/GPa) = 0.01470327
#
# Stress axis : x y z
#
# Youngs Moduli (GPa) = 108.84439 80.70655 119.25901
#
# Poissons Ratio (x) = 0.32129 0.21618
# Poissons Ratio (y) = 0.43330 0.21900
# Poissons Ratio (z) = 0.19730 0.14820
#
# Static dielectric constant tensor:
#      x y z
#    x 1.967210 0.000000 0.000000 
#    y 0.000000 2.018960 0.000000 
#    z 0.000000 0.000000 1.957650 
# 
# From -- ./inp_files/4248.got.cif
#   From: 2010.05.17/outbox.cif.g08.bks.cpg/sg37_3_cif.got.tgz:4248.got - 2010.06.03 17:53:42.
