data_PCOD9355078
_publ_section_title
;
Structure prediction by ZEFSAII (Michael W. Deem and Ramdas Pophale) SiO2 
 PCOD9355078
Probable space group: C C C 2
;
_chemical_formula_sum "Si O2"
_cell_formula_units_Z 36
_cell_length_a 24.056117
_cell_length_b 5.135007
_cell_length_c 13.050069
_cell_angle_alpha 90.000000
_cell_angle_beta 90.000000
_cell_angle_gamma 90.000000
_cell_volume 1612.053219
_symmetry_space_group_name_H-M "C C C 2"
_symmetry_group_IT_number 37
_symmetry_cell_setting 'orthorhombic'
loop_
_space_group_symop_operation_xyz
x,y,z
-x,-y,z
-x,y,1/2+z
x,-y,1/2+z
1/2+x,1/2+y,z
1/2-x,1/2-y,z
1/2-x,1/2+y,1/2+z
1/2+x,1/2-y,1/2+z
loop_
_atom_site_type_symbol
_atom_site_label
_atom_site_fract_x
_atom_site_fract_y
_atom_site_fract_z
Si Si1 0.339773 0.189990 0.116310
Si Si2 0.750000 0.750000 0.292909
Si Si3 0.463909 0.238690 0.378311
Si Si4 0.250000 0.750000 0.438366
Si Si5 0.093455 0.188224 0.574744
Si Si6 0.000000 0.500000 0.182978
O O1 0.302904 0.239100 0.216732
O O2 0.388806 0.400454 0.104772
O O3 0.361745 0.895829 0.113845
O O4 0.302032 0.232891 0.015507
O O5 0.747526 0.499915 0.365603
O O6 0.500000 0.500000 0.377351
O O7 0.412296 0.285160 0.451804
O O8 0.500000 0.000000 0.423981
O O9 0.457213 0.139503 0.262581
O O10 0.034926 0.286162 0.621640
#
# Coordination Sequence:
#
# PCOD9355078 Si02
#       6
#     8   4   8   4   8   4
#     4  11  27  43  70 105 130 176 231 275 349 406
#     4  11  24  49  72 100 134 175 220 287 352 414
#     4  10  23  41  61  89 131 180 221 263 332 377
#     4  11  24  49  72  96 144 171 214 297 346 406
#     4  12  24  43  67  96 141 174 224 284 323 402
#     4  10  26  40  66  94 136 182 222 278 316 392
#
# _framework density 22.331769000000001
#
# number of rings (size 3 to 8) (size 9 to 14) (size 15 to 20)
#    0.667    0.444    1.111    4.000    3.111    8.889 
#    0.000    0.000    0.000    0.000    0.000    0.000 
#    0.000    0.000    0.000    0.000    0.000    0.000 
#
# Total GULP energy -100654.790344 kJ/mol
# GULP energy per Si atom -5591.932797 kJ/mol
# Density = 2.228094 g / cm^3
# Si number density = 22.331769 Si / 1000 Ang^3
#
#
#
# Elastic Constant Matrix: (Units=GPa)
#
#
# Indices 1 2 3 4 5 6 
#
# 1 34.3073 -18.1396 26.5428 0.0000 0.0000 0.0000
# 2 -18.1396 96.1923 26.9639 0.0000 0.0000 0.0000
# 3 26.5428 26.9639 135.3746 0.0000 0.0000 0.0000
# 4 0.0000 0.0000 0.0000 3.3267 0.0000 0.0000
# 5 0.0000 0.0000 0.0000 0.0000 20.2955 0.0000
# 6 0.0000 0.0000 0.0000 0.0000 0.0000 39.6306
#
#
#
# Elastic Compliance Matrix: (Units=1/GPa)
#
#
# Indices 1 2 3 4 5 6 
#
# 1 0.043364 0.011185 -0.010730 0.000000 0.000000 0.000000
# 2 0.011185 0.013896 -0.004961 0.000000 0.000000 0.000000
# 3 -0.010730 -0.004961 0.010479 0.000000 0.000000 0.000000
# 4 0.000000 0.000000 0.000000 0.300596 0.000000 0.000000
# 5 0.000000 0.000000 0.000000 0.000000 0.049272 0.000000
# 6 0.000000 0.000000 0.000000 0.000000 0.000000 0.025233
#
#
# Mechanical properties :
#
#
# Convention : Reuss Voigt Hill
#
# Bulk Modulus (GPa) = 17.02789 37.40092 27.21441
# Shear Modulus (GPa) = 10.60609 28.01772 19.31191
#
# Velocity S-wave (km/s) = 2.18166 3.54589 2.94389
# Velocity P-wave (km/s) = 3.74001 5.79212 4.87526
#
# Compressibility (1/GPa) = 0.05872718
#
# Stress axis : x y z
#
# Youngs Moduli (GPa) = 23.06050 71.96468 95.43004
#
# Poissons Ratio (x) = -0.80495 1.02399
# Poissons Ratio (y) = -0.25794 0.47341
# Poissons Ratio (z) = 0.24745 0.35700
#
# Static dielectric constant tensor:
#      x y z
#    x 1.839190 0.000000 0.000000 
#    y 0.000000 1.847630 0.000000 
#    z 0.000000 0.000000 1.815220 
# 
# From -- ./inp_files/5483.got.cif
#   From: 2010.05.17/outbox.cif.g08.bks.cpg/sg37_3_cif.got.tgz:5483.got - 2010.06.03 17:53:42.
