data_PCOD9355556
_publ_section_title
;
Structure prediction by ZEFSAII (Michael W. Deem and Ramdas Pophale) SiO2 
 PCOD9355556
Probable space group: C C C 2
;
_chemical_formula_sum "Si O2"
_cell_formula_units_Z 48
_cell_length_a 25.762291
_cell_length_b 8.045053
_cell_length_c 9.800631
_cell_angle_alpha 90.000000
_cell_angle_beta 90.000000
_cell_angle_gamma 90.000000
_cell_volume 2031.268946
_symmetry_space_group_name_H-M "C C C 2"
_symmetry_group_IT_number 37
_symmetry_cell_setting 'orthorhombic'
loop_
_space_group_symop_operation_xyz
x,y,z
-x,-y,z
-x,y,1/2+z
x,-y,1/2+z
1/2+x,1/2+y,z
1/2-x,1/2-y,z
1/2-x,1/2+y,1/2+z
1/2+x,1/2-y,1/2+z
loop_
_atom_site_type_symbol
_atom_site_label
_atom_site_fract_x
_atom_site_fract_y
_atom_site_fract_z
Si Si1 0.057000 0.974272 0.576300
Si Si2 0.725280 0.580115 0.472729
Si Si3 0.947988 0.388425 0.439788
Si Si4 0.769655 0.426892 0.225079
Si Si5 0.613964 0.003808 0.196132
Si Si6 0.385238 0.640449 0.836290
O O1 0.050185 0.797957 0.498062
O O2 0.097449 0.962139 0.701430
O O3 0.074596 0.105183 0.460319
O O4 0.000000 0.000000 0.637623
O O5 0.750000 0.750000 0.530840
O O6 0.766750 0.535658 0.359981
O O7 0.731995 0.482675 0.614044
O O8 0.669679 0.588434 0.403675
O O9 0.922742 0.384406 0.290434
O O10 0.910391 0.476644 0.548836
O O11 0.000000 0.500000 0.434410
O O12 0.750000 0.250000 0.280590
O O13 0.828967 0.422739 0.179565
O O14 0.616125 0.827873 0.277978
#
# Coordination Sequence:
#
# PCOD9355556 Si02
#       6
#     8   8   8   8   8   8
#     4  11  25  44  68 103 136 179 232 283 344 407
#     4  11  23  44  66  99 138 179 223 278 342 397
#     4  11  25  43  69 101 136 183 227 284 344 409
#     4  11  25  42  68 100 133 182 224 281 334 409
#     4  11  24  44  69  99 140 179 229 280 344 406
#     4  11  24  44  70 100 138 182 225 288 338 409
#
# _framework density 23.630547
#
# number of rings (size 3 to 8) (size 9 to 14) (size 15 to 20)
#    0.000    1.000    1.667    4.000    4.667    6.000 
#    0.000    0.000    0.000    0.000    0.000    0.000 
#    0.000    0.000    0.000    0.000    0.000    0.000 
#
# Total GULP energy -134103.746151 kJ/mol
# GULP energy per Si atom -5587.656090 kJ/mol
# Density = 2.357676 g / cm^3
# Si number density = 23.630547 Si / 1000 Ang^3
#
#
#
# Elastic Constant Matrix: (Units=GPa)
#
#
# Indices 1 2 3 4 5 6 
#
# 1 117.3006 8.9125 -6.1040 0.0000 0.0000 0.0000
# 2 8.9125 30.6971 -13.5188 0.0000 0.0000 0.0000
# 3 -6.1040 -13.5188 63.1404 0.0000 0.0000 0.0000
# 4 0.0000 0.0000 0.0000 5.5392 0.0000 0.0000
# 5 0.0000 0.0000 0.0000 0.0000 51.5571 0.0000
# 6 0.0000 0.0000 0.0000 0.0000 0.0000 29.4882
#
#
#
# Elastic Compliance Matrix: (Units=1/GPa)
#
#
# Indices 1 2 3 4 5 6 
#
# 1 0.008724 -0.002386 0.000332 0.000000 0.000000 0.000000
# 2 -0.002386 0.036621 0.007610 0.000000 0.000000 0.000000
# 3 0.000332 0.007610 0.017499 0.000000 0.000000 0.000000
# 4 0.000000 0.000000 0.000000 0.180533 0.000000 0.000000
# 5 0.000000 0.000000 0.000000 0.000000 0.019396 0.000000
# 6 0.000000 0.000000 0.000000 0.000000 0.000000 0.033912
#
#
# Mechanical properties :
#
#
# Convention : Reuss Voigt Hill
#
# Bulk Modulus (GPa) = 13.52163 21.07972 17.30068
# Shear Modulus (GPa) = 16.11738 32.10679 24.11208
#
# Velocity S-wave (km/s) = 2.61446 3.69005 3.19780
# Velocity P-wave (km/s) = 3.85336 5.20531 4.57950
#
# Compressibility (1/GPa) = 0.07395557
#
# Stress axis : x y z
#
# Youngs Moduli (GPa) = 114.62995 27.30701 57.14544
#
# Poissons Ratio (x) = 0.06517 -0.01899
# Poissons Ratio (y) = 0.27356 -0.43488
# Poissons Ratio (z) = -0.03810 -0.20781
#
# Static dielectric constant tensor:
#      x y z
#    x 1.985360 0.000000 0.000000 
#    y 0.000000 1.960500 0.000000 
#    z 0.000000 0.000000 1.861390 
# 
# From -- ./inp_files/4953.got.cif
#   From: 2010.05.17/outbox.cif.g08.bks.cpg/sg37_3_cif.got.tgz:4953.got - 2010.06.03 17:53:42.
