data_PCOD9355072
_publ_section_title
;
Structure prediction by ZEFSAII (Michael W. Deem and Ramdas Pophale) SiO2 
 PCOD9355072
Probable space group: C C C 2
;
_chemical_formula_sum "Si O2"
_cell_formula_units_Z 56
_cell_length_a 13.530896
_cell_length_b 14.029902
_cell_length_c 14.601189
_cell_angle_alpha 90.000000
_cell_angle_beta 90.000000
_cell_angle_gamma 90.000000
_cell_volume 2771.848031
_symmetry_space_group_name_H-M "C C C 2"
_symmetry_group_IT_number 37
_symmetry_cell_setting 'orthorhombic'
loop_
_space_group_symop_operation_xyz
x,y,z
-x,-y,z
-x,y,1/2+z
x,-y,1/2+z
1/2+x,1/2+y,z
1/2-x,1/2-y,z
1/2-x,1/2+y,1/2+z
1/2+x,1/2-y,1/2+z
loop_
_atom_site_type_symbol
_atom_site_label
_atom_site_fract_x
_atom_site_fract_y
_atom_site_fract_z
Si Si1 0.762282 0.135941 0.027920
Si Si2 0.818984 0.339167 0.366412
Si Si3 0.501170 0.740926 0.273638
Si Si4 0.675517 0.166160 0.677939
Si Si5 0.659562 0.413215 0.222912
Si Si6 0.383846 0.017706 0.025113
Si Si7 0.329130 0.605282 0.828057
O O1 0.750000 0.250000 0.029394
O O2 0.817233 0.092937 0.115957
O O3 0.655874 0.088920 0.029887
O O4 0.808308 0.094902 0.934632
O O5 0.750000 0.250000 0.401069
O O6 0.755671 0.376979 0.279827
O O7 0.840655 0.422001 0.439274
O O8 0.926616 0.304056 0.333284
O O9 0.565284 0.796173 0.198072
O O10 0.429411 0.659908 0.235856
O O11 0.588597 0.687113 0.326067
O O12 0.750000 0.250000 0.641997
O O13 0.659338 0.077736 0.610872
O O14 0.730425 0.135662 0.772212
O O15 0.634952 0.513690 0.270602
O O16 0.500000 0.000000 0.022582
#
# Coordination Sequence:
#
# PCOD9355072 Si02
#       7
#     8   8   8   8   8   8   8
#     4  12  26  45  70 103 141 183 232 295 351 402
#     4  10  23  44  68  96 141 183 222 289 346 417
#     4  10  23  40  71 100 132 184 232 271 353 412
#     4  10  23  44  68  96 141 183 222 289 346 417
#     4  11  23  45  70  97 140 181 232 287 341 414
#     4  12  27  41  69 106 136 180 238 284 355 419
#     4  11  23  45  70  97 140 181 232 287 341 414
#
# _framework density 20.203128
#
# number of rings (size 3 to 8) (size 9 to 14) (size 15 to 20)
#    0.000    1.143    2.857    3.429    8.000    0.000 
#    0.000    4.286    0.000    0.000    0.000    0.000 
#    0.000    0.000    0.000    0.000    0.000    0.000 
#
# Total GULP energy -156178.728630 kJ/mol
# GULP energy per Si atom -5577.811737 kJ/mol
# Density = 2.015715 g / cm^3
# Si number density = 20.203128 Si / 1000 Ang^3
#
#
#
# Elastic Constant Matrix: (Units=GPa)
#
#
# Indices 1 2 3 4 5 6 
#
# 1 109.3777 45.1647 38.9913 0.0000 0.0000 0.0000
# 2 45.1647 126.4573 34.4338 0.0000 0.0000 0.0000
# 3 38.9913 34.4338 119.3884 0.0000 0.0000 0.0000
# 4 0.0000 0.0000 0.0000 6.1655 0.0000 0.0000
# 5 0.0000 0.0000 0.0000 0.0000 7.6350 0.0000
# 6 0.0000 0.0000 0.0000 0.0000 0.0000 41.6955
#
#
#
# Elastic Compliance Matrix: (Units=1/GPa)
#
#
# Indices 1 2 3 4 5 6 
#
# 1 0.011525 -0.003355 -0.002796 0.000000 0.000000 0.000000
# 2 -0.003355 0.009558 -0.001661 0.000000 0.000000 0.000000
# 3 -0.002796 -0.001661 0.009768 0.000000 0.000000 0.000000
# 4 0.000000 0.000000 0.000000 0.162193 0.000000 0.000000
# 5 0.000000 0.000000 0.000000 0.000000 0.130976 0.000000
# 6 0.000000 0.000000 0.000000 0.000000 0.000000 0.023983
#
#
# Mechanical properties :
#
#
# Convention : Reuss Voigt Hill
#
# Bulk Modulus (GPa) = 65.67267 65.82256 65.74761
# Shear Modulus (GPa) = 13.56103 26.87476 20.21790
#
# Velocity S-wave (km/s) = 2.59363 3.65119 3.16687
# Velocity P-wave (km/s) = 6.44562 7.10113 6.78130
#
# Compressibility (1/GPa) = 0.01522703
#
# Stress axis : x y z
#
# Youngs Moduli (GPa) = 86.77017 104.62140 102.37097
#
# Poissons Ratio (x) = 0.35097 0.28626
# Poissons Ratio (y) = 0.29108 0.17006
# Poissons Ratio (z) = 0.24264 0.17379
#
# Static dielectric constant tensor:
#      x y z
#    x 1.700960 0.000000 0.000000 
#    y 0.000000 1.667360 0.000000 
#    z 0.000000 0.000000 1.749350 
# 
# From -- ./inp_files/11610.got.cif
#   From: 2010.05.17/outbox.cif.g08.bks.cpg/sg37_6_cif.got.tgz:11610.got - 2010.06.03 17:53:42.
