data_PCOD9355772
_publ_section_title
;
Structure prediction by ZEFSAII (Michael W. Deem and Ramdas Pophale) SiO2 
 PCOD9355772
Probable space group: C C C 2
;
_chemical_formula_sum "Si O2"
_cell_formula_units_Z 30
_cell_length_a 12.000000
_cell_length_b 27.000000
_cell_length_c 9.000000
_cell_angle_alpha 90.000000
_cell_angle_beta 90.000000
_cell_angle_gamma 90.000000
_cell_volume 2916.000000
_symmetry_space_group_name_H-M "C C C 2"
_symmetry_group_IT_number 37
_symmetry_cell_setting 'orthorhombic'
loop_
_space_group_symop_operation_xyz
x,y,z
-x,-y,z
-x,y,1/2+z
x,-y,1/2+z
1/2+x,1/2+y,z
1/2-x,1/2-y,z
1/2-x,1/2+y,1/2+z
1/2+x,1/2-y,1/2+z
loop_
_atom_site_type_symbol
_atom_site_label
_atom_site_fract_x
_atom_site_fract_y
_atom_site_fract_z
Si Si1 0.786939 0.070054 0.274990
Si Si2 0.620826 0.155331 0.200899
Si Si3 0.359555 0.677786 0.798216
Si Si4 0.401700 0.820202 0.886182
Si Si5 0.750000 0.250000 0.312436
Si Si6 0.966221 0.222959 0.502810
Si Si7 0.946037 0.069966 0.764648
Si Si8 0.841847 0.002226 0.020472
O O1 0.701606 0.115287 0.277871
O O2 0.771085 0.037455 0.127292
O O3 0.921325 0.082072 0.270356
O O4 0.773106 0.034353 0.415405
O O5 0.496253 0.161133 0.270291
O O6 0.688524 0.207163 0.220073
O O7 0.614048 0.143604 0.026145
O O8 0.226105 0.689048 0.823962
O O9 0.421324 0.711099 0.669565
O O10 0.376422 0.620640 0.752868
O O11 0.440235 0.684319 0.943171
O O12 0.465133 0.773425 0.966054
O O13 0.850679 0.226120 0.409496
O O14 0.911996 0.034015 0.629258
O O15 0.909912 0.038574 0.909661
#
# Coordination Sequence:
#
# PCOD9355772 Si02
#       8
#     8   8   8   8   4   8   8   8
#     4  11  21  39  68  96 138 176 230 288 355 423
#     4  11  26  45  69  97 134 186 235 282 357 415
#     4  12  28  42  71 104 140 184 238 285 346 428
#     4  11  27  47  69  97 145 184 236 292 348 415
#     4  10  24  42  68 100 138 174 232 284 336 410
#     4  11  26  44  69 101 139 184 231 283 347 410
#     4  11  22  38  65 100 139 173 228 285 360 414
#     4  10  22  39  63 103 141 179 222 299 364 421
#
# _framework density 10.288066000000001
#
# number of rings (size 3 to 8) (size 9 to 14) (size 15 to 20)
#    0.000    1.067    0.000    6.800   16.800    0.000 
#    0.000    0.000    0.000   13.600    0.000    0.000 
#    0.000    0.000    0.000    0.000    0.000    0.000 
#
# Total GULP energy -167565.007394 kJ/mol
# GULP energy per Si atom -5585.500246 kJ/mol
# Density = 1.026465 g / cm^3
# Si number density = 10.288066 Si / 1000 Ang^3
#
#
#
# Elastic Constant Matrix: (Units=GPa)
#
#
# Indices 1 2 3 4 5 6 
#
# 1 168.8182 40.5543 47.1450 0.0000 0.0000 0.0000
# 2 40.5543 87.8229 23.7569 0.0000 0.0000 0.0000
# 3 47.1450 23.7569 118.2467 0.0000 0.0000 0.0000
# 4 0.0000 0.0000 0.0000 20.4774 0.0000 0.0000
# 5 0.0000 0.0000 0.0000 0.0000 34.1911 0.0000
# 6 0.0000 0.0000 0.0000 0.0000 0.0000 38.1491
#
#
#
# Elastic Compliance Matrix: (Units=1/GPa)
#
#
# Indices 1 2 3 4 5 6 
#
# 1 0.007226 -0.002704 -0.002338 0.000000 0.000000 0.000000
# 2 -0.002704 0.013053 -0.001544 0.000000 0.000000 0.000000
# 3 -0.002338 -0.001544 0.009699 0.000000 0.000000 0.000000
# 4 0.000000 0.000000 0.000000 0.048834 0.000000 0.000000
# 5 0.000000 0.000000 0.000000 0.000000 0.029247 0.000000
# 6 0.000000 0.000000 0.000000 0.000000 0.000000 0.026213
#
#
# Mechanical properties :
#
#
# Convention : Reuss Voigt Hill
#
# Bulk Modulus (GPa) = 59.50384 66.42224 62.96304
# Shear Modulus (GPa) = 32.66962 36.12565 34.39764
#
# Velocity S-wave (km/s) = 3.98897 4.19466 4.09311
# Velocity P-wave (km/s) = 7.08502 7.47071 7.28042
#
# Compressibility (1/GPa) = 0.01680564
#
# Stress axis : x y z
#
# Youngs Moduli (GPa) = 138.38853 76.61011 103.10149
#
# Poissons Ratio (x) = 0.20719 0.24102
# Poissons Ratio (y) = 0.37426 0.15921
# Poissons Ratio (z) = 0.32351 0.11830
#
# Static dielectric constant tensor:
#      x y z
#    x 1.706870 0.000000 0.000000 
#    y 0.000000 1.785690 0.000000 
#    z 0.000000 0.000000 1.813430 
# 
# From -- ./inp_files/3068.got.cif
#   From: 2010.05.17/outbox.ucp.g08.bks.cvg/sg37_2_cif.got.tgz:3068.got - 2010.06.11 10:38:43.
