data_PCOD9355122
_publ_section_title
;
Structure prediction by ZEFSAII (Michael W. Deem and Ramdas Pophale) SiO2 
 PCOD9355122
Probable space group: C C C 2
;
_chemical_formula_sum "Si O2"
_cell_formula_units_Z 40
_cell_length_a 11.118642
_cell_length_b 7.834168
_cell_length_c 22.386184
_cell_angle_alpha 90.000000
_cell_angle_beta 90.000000
_cell_angle_gamma 90.000000
_cell_volume 1949.955483
_symmetry_space_group_name_H-M "C C C 2"
_symmetry_group_IT_number 37
_symmetry_cell_setting 'orthorhombic'
loop_
_space_group_symop_operation_xyz
x,y,z
-x,-y,z
-x,y,1/2+z
x,-y,1/2+z
1/2+x,1/2+y,z
1/2-x,1/2-y,z
1/2-x,1/2+y,1/2+z
1/2+x,1/2-y,1/2+z
loop_
_atom_site_type_symbol
_atom_site_label
_atom_site_fract_x
_atom_site_fract_y
_atom_site_fract_z
Si Si1 0.500000 0.500000 0.318650
Si Si2 0.590987 0.156433 0.381789
Si Si3 0.243525 0.560455 0.793196
Si Si4 0.366425 0.933025 0.664260
Si Si5 0.750000 0.750000 0.991269
Si Si6 0.136423 0.932745 0.600585
O O1 0.528893 0.330956 0.358210
O O2 0.618128 0.521681 0.278856
O O3 0.649389 0.179907 0.446460
O O4 0.500000 0.000000 0.383119
O O5 0.692565 0.082647 0.336977
O O6 0.250000 0.750000 0.821506
O O7 0.162734 0.568524 0.734448
O O8 0.251190 0.024427 0.632607
O O9 0.371114 0.743099 0.637752
O O10 0.500000 0.000000 0.653451
O O11 0.813738 0.886148 0.034793
O O12 0.000000 0.000000 0.598965
#
# Coordination Sequence:
#
# PCOD9355122 Si02
#       6
#     4   8   8   8   4   8
#     4  12  26  42  68  98 148 194 230 276 362 422
#     4  12  25  44  69 104 140 186 234 286 353 427
#     4  12  23  42  67 104 143 183 228 285 351 429
#     4  10  23  43  67 101 138 175 231 290 346 422
#     4  10  24  44  68 100 138 180 238 294 344 422
#     4  10  24  47  70  96 136 183 236 292 349 414
#
# _framework density 20.513289
#
# number of rings (size 3 to 8) (size 9 to 14) (size 15 to 20)
#    0.000    1.200    6.000    0.600    2.800    4.000 
#    3.600    0.000    0.000    0.000    0.000    0.000 
#    0.000    0.000    0.000    0.000    0.000    0.000 
#
# Total GULP energy -111539.418802 kJ/mol
# GULP energy per Si atom -5576.970940 kJ/mol
# Density = 2.046660 g / cm^3
# Si number density = 20.513289 Si / 1000 Ang^3
#
#
#
# Elastic Constant Matrix: (Units=GPa)
#
#
# Indices 1 2 3 4 5 6 
#
# 1 190.7695 44.4706 28.5575 0.0000 0.0000 0.0000
# 2 44.4706 103.8357 31.3429 0.0000 0.0000 0.0000
# 3 28.5575 31.3429 101.3194 0.0000 0.0000 0.0000
# 4 0.0000 0.0000 0.0000 13.7040 0.0000 0.0000
# 5 0.0000 0.0000 0.0000 0.0000 37.1248 0.0000
# 6 0.0000 0.0000 0.0000 0.0000 0.0000 43.4991
#
#
#
# Elastic Compliance Matrix: (Units=1/GPa)
#
#
# Indices 1 2 3 4 5 6 
#
# 1 0.005909 -0.002237 -0.000974 0.000000 0.000000 0.000000
# 2 -0.002237 0.011469 -0.002918 0.000000 0.000000 0.000000
# 3 -0.000974 -0.002918 0.011047 0.000000 0.000000 0.000000
# 4 0.000000 0.000000 0.000000 0.072971 0.000000 0.000000
# 5 0.000000 0.000000 0.000000 0.000000 0.026936 0.000000
# 6 0.000000 0.000000 0.000000 0.000000 0.000000 0.022989
#
#
# Mechanical properties :
#
#
# Convention : Reuss Voigt Hill
#
# Bulk Modulus (GPa) = 61.84596 67.18518 64.51557
# Shear Modulus (GPa) = 29.59154 38.30247 33.94700
#
# Velocity S-wave (km/s) = 3.80222 4.32580 4.07243
# Velocity P-wave (km/s) = 7.03495 7.60087 7.32338
#
# Compressibility (1/GPa) = 0.01616920
#
# Stress axis : x y z
#
# Youngs Moduli (GPa) = 169.23027 87.18958 90.52473
#
# Poissons Ratio (x) = 0.19503 0.08813
# Poissons Ratio (y) = 0.37855 0.26411
# Poissons Ratio (z) = 0.16475 0.25438
#
# Static dielectric constant tensor:
#      x y z
#    x 1.841180 0.000000 0.000000 
#    y 0.000000 1.763330 0.000000 
#    z 0.000000 0.000000 1.697420 
# 
# From -- ./inp_files/16243.got.cif
#   From: 2010.05.17/outbox.cif.g08.bks.cpg/sg37_9_cif.got.tgz:16243.got - 2010.06.03 17:53:42.
