data_PCOD9355379
_publ_section_title
;
Structure prediction by ZEFSAII (Michael W. Deem and Ramdas Pophale) SiO2 
 PCOD9355379
Probable space group: C C C 2
;
_chemical_formula_sum "Si O2"
_cell_formula_units_Z 24
_cell_length_a 17.799621
_cell_length_b 4.939578
_cell_length_c 9.404646
_cell_angle_alpha 90.000000
_cell_angle_beta 90.000000
_cell_angle_gamma 90.000000
_cell_volume 826.881082
_symmetry_space_group_name_H-M "C C C 2"
_symmetry_group_IT_number 37
_symmetry_cell_setting 'orthorhombic'
loop_
_space_group_symop_operation_xyz
x,y,z
-x,-y,z
-x,y,1/2+z
x,-y,1/2+z
1/2+x,1/2+y,z
1/2-x,1/2-y,z
1/2-x,1/2+y,1/2+z
1/2+x,1/2-y,1/2+z
loop_
_atom_site_type_symbol
_atom_site_label
_atom_site_fract_x
_atom_site_fract_y
_atom_site_fract_z
Si Si1 0.000000 0.500000 0.539490
Si Si2 0.628808 0.144165 0.345675
Si Si3 0.250000 0.250000 0.273905
Si Si4 0.392046 0.530299 0.604265
O O1 0.932751 0.544036 0.423012
O O2 0.963220 0.237936 0.618239
O O3 0.623940 0.420610 0.437475
O O4 0.607398 0.241648 0.186207
O O5 0.707911 0.991885 0.355055
O O6 0.317502 0.349010 0.175187
#
# Coordination Sequence:
#
# PCOD9355379 Si02
#       4
#     4   8   4   8
#     4   8  24  56  90 132 188 242 326 402 486 570
#     4  10  25  55  89 133 187 253 320 399 479 579
#     4  12  26  46  90 130 192 234 336 390 486 578
#     4  10  25  53  91 129 189 249 326 393 492 569
#
# _framework density 29.024729000000001
#
# number of rings (size 3 to 8) (size 9 to 14) (size 15 to 20)
#    2.000    0.000    0.000    1.000    4.667    4.000 
#    0.000   18.333    0.000    2.000    0.000    0.000 
#    0.000    0.000    0.000    0.000    0.000    0.000 
#
# Total GULP energy -66934.470195 kJ/mol
# GULP energy per Si atom -5577.872516 kJ/mol
# Density = 2.895867 g / cm^3
# Si number density = 29.024729 Si / 1000 Ang^3
#
#
#
# Elastic Constant Matrix: (Units=GPa)
#
#
# Indices 1 2 3 4 5 6 
#
# 1 235.6580 119.1125 42.3668 0.0000 0.0000 0.0000
# 2 119.1125 194.5835 62.4186 0.0000 0.0000 0.0000
# 3 42.3668 62.4186 180.7298 0.0000 0.0000 0.0000
# 4 0.0000 0.0000 0.0000 30.5507 0.0000 0.0000
# 5 0.0000 0.0000 0.0000 0.0000 52.0164 0.0000
# 6 0.0000 0.0000 0.0000 0.0000 0.0000 56.6147
#
#
#
# Elastic Compliance Matrix: (Units=1/GPa)
#
#
# Indices 1 2 3 4 5 6 
#
# 1 0.006149 -0.003713 -0.000159 0.000000 0.000000 0.000000
# 2 -0.003713 0.008021 -0.001900 0.000000 0.000000 0.000000
# 3 -0.000159 -0.001900 0.006227 0.000000 0.000000 0.000000
# 4 0.000000 0.000000 0.000000 0.032732 0.000000 0.000000
# 5 0.000000 0.000000 0.000000 0.000000 0.019225 0.000000
# 6 0.000000 0.000000 0.000000 0.000000 0.000000 0.017663
#
#
# Mechanical properties :
#
#
# Convention : Reuss Voigt Hill
#
# Bulk Modulus (GPa) = 112.95708 117.64079 115.29893
# Shear Modulus (GPa) = 47.84144 53.64126 50.74135
#
# Velocity S-wave (km/s) = 4.06433 4.30364 4.18570
# Velocity P-wave (km/s) = 7.81198 8.08173 7.94800
#
# Compressibility (1/GPa) = 0.00885292
#
# Stress axis : x y z
#
# Youngs Moduli (GPa) = 162.63684 124.66599 160.60094
#
# Poissons Ratio (x) = 0.46286 0.02555
# Poissons Ratio (y) = 0.60384 0.30514
# Poissons Ratio (z) = 0.02587 0.23686
#
# Static dielectric constant tensor:
#      x y z
#    x 2.290050 0.000000 0.000000 
#    y 0.000000 2.434880 0.000000 
#    z 0.000000 0.000000 2.230580 
# 
# From -- ./inp_files/8066.got.cif
#   From: 2010.05.17/outbox.cif.g08.bks.cpg/sg37_5_cif.got.tgz:8066.got - 2010.06.03 17:53:42.
