data_PCOD9355461
_publ_section_title
;
Structure prediction by ZEFSAII (Michael W. Deem and Ramdas Pophale) SiO2 
 PCOD9355461
Probable space group: C C C 2
;
_chemical_formula_sum "Si O2"
_cell_formula_units_Z 52
_cell_length_a 8.327062
_cell_length_b 14.601154
_cell_length_c 20.302712
_cell_angle_alpha 90.000000
_cell_angle_beta 90.000000
_cell_angle_gamma 90.000000
_cell_volume 2468.499445
_symmetry_space_group_name_H-M "C C C 2"
_symmetry_group_IT_number 37
_symmetry_cell_setting 'orthorhombic'
loop_
_space_group_symop_operation_xyz
x,y,z
-x,-y,z
-x,y,1/2+z
x,-y,1/2+z
1/2+x,1/2+y,z
1/2-x,1/2-y,z
1/2-x,1/2+y,1/2+z
1/2+x,1/2-y,1/2+z
loop_
_atom_site_type_symbol
_atom_site_label
_atom_site_fract_x
_atom_site_fract_y
_atom_site_fract_z
Si Si1 0.624039 0.870808 0.720860
Si Si2 0.842086 0.466711 0.361352
Si Si3 0.844434 0.844087 0.344645
Si Si4 0.500000 0.000000 0.114266
Si Si5 0.072810 0.896153 0.450951
Si Si6 0.518152 0.660744 0.711788
Si Si7 0.351902 0.572107 0.591964
O O1 0.612166 0.915270 0.793387
O O2 0.565515 0.766885 0.719201
O O3 0.809219 0.884892 0.699172
O O4 0.521938 0.916989 0.664482
O O5 0.758218 0.563596 0.347219
O O6 0.729328 0.403514 0.405283
O O7 0.000000 0.500000 0.399160
O O8 0.750000 0.750000 0.331603
O O9 0.943160 0.835649 0.412508
O O10 0.961598 0.865271 0.284235
O O11 0.323907 0.023537 0.082965
O O12 0.115504 0.870644 0.525215
O O13 0.000000 0.000000 0.452136
O O14 0.385817 0.632742 0.657554
O O15 0.500000 0.500000 0.594754
#
# Coordination Sequence:
#
# PCOD9355461 Si02
#       7
#     8   8   8   4   8   8   8
#     4  11  23  40  65  99 128 174 225 280 335 398
#     4  11  21  38  65  94 128 166 223 276 333 403
#     4  11  23  40  67  95 130 175 223 278 342 409
#     4  12  24  40  70 100 128 176 234 274 344 408
#     4   9  22  43  64  91 131 179 218 271 346 405
#     4  11  24  41  65  94 138 175 220 281 338 394
#     4  11  24  44  67  97 139 181 221 283 344 411
#
# _framework density 21.065429000000002
#
# number of rings (size 3 to 8) (size 9 to 14) (size 15 to 20)
#    0.000    1.231    3.846    1.846    3.231    0.000 
#    2.769    0.000   10.154    0.000    0.000    0.000 
#    0.000    0.000    0.000    0.000    0.000    0.000 
#
# Total GULP energy -144991.478943 kJ/mol
# GULP energy per Si atom -5576.595344 kJ/mol
# Density = 2.101748 g / cm^3
# Si number density = 21.065429 Si / 1000 Ang^3
#
#
#
# Elastic Constant Matrix: (Units=GPa)
#
#
# Indices 1 2 3 4 5 6 
#
# 1 109.3348 12.6579 20.9078 0.0000 0.0000 0.0000
# 2 12.6579 31.4242 6.5491 0.0000 0.0000 0.0000
# 3 20.9078 6.5491 96.0769 0.0000 0.0000 0.0000
# 4 0.0000 0.0000 0.0000 19.3343 0.0000 0.0000
# 5 0.0000 0.0000 0.0000 0.0000 22.3953 0.0000
# 6 0.0000 0.0000 0.0000 0.0000 0.0000 23.5413
#
#
#
# Elastic Compliance Matrix: (Units=1/GPa)
#
#
# Indices 1 2 3 4 5 6 
#
# 1 0.009929 -0.003600 -0.001915 0.000000 0.000000 0.000000
# 2 -0.003600 0.033587 -0.001506 0.000000 0.000000 0.000000
# 3 -0.001915 -0.001506 0.010928 0.000000 0.000000 0.000000
# 4 0.000000 0.000000 0.000000 0.051722 0.000000 0.000000
# 5 0.000000 0.000000 0.000000 0.000000 0.044652 0.000000
# 6 0.000000 0.000000 0.000000 0.000000 0.000000 0.042478
#
#
# Mechanical properties :
#
#
# Convention : Reuss Voigt Hill
#
# Bulk Modulus (GPa) = 24.75221 35.22948 29.99085
# Shear Modulus (GPa) = 22.64428 26.16893 24.40661
#
# Velocity S-wave (km/s) = 3.28220 3.52841 3.40753
# Velocity P-wave (km/s) = 5.11268 5.77578 5.45432
#
# Compressibility (1/GPa) = 0.04040043
#
# Stress axis : x y z
#
# Youngs Moduli (GPa) = 100.71191 29.77367 91.50984
#
# Poissons Ratio (x) = 0.10720 0.17527
# Poissons Ratio (y) = 0.36260 0.13781
# Poissons Ratio (z) = 0.19290 0.04484
#
# Static dielectric constant tensor:
#      x y z
#    x 1.865220 0.000000 0.000000 
#    y 0.000000 1.674610 0.000000 
#    z 0.000000 0.000000 1.752950 
# 
# From -- ./inp_files/16382.got.cif
#   From: 2010.05.17/outbox.cif.g08.bks.cpg/sg37_9_cif.got.tgz:16382.got - 2010.06.03 17:53:42.
