data_PCOD9355999
_publ_section_title
;
Structure prediction by ZEFSAII (Michael W. Deem and Ramdas Pophale) SiO2 
 PCOD9355999
Probable space group: A M M 2
;
_chemical_formula_sum "Si O2"
_cell_formula_units_Z 64
_cell_length_a 8.920770
_cell_length_b 26.710141
_cell_length_c 18.849213
_cell_angle_alpha 90.000000
_cell_angle_beta 90.000000
_cell_angle_gamma 90.000000
_cell_volume 4491.296690
_symmetry_space_group_name_H-M "A M M 2"
_symmetry_group_IT_number 38
_symmetry_cell_setting 'orthorhombic'
loop_
_space_group_symop_operation_xyz
x,y,z
-x,-y,z
-x,y,z
x,-y,z
x,1/2+y,1/2+z
-x,1/2-y,1/2+z
-x,1/2+y,1/2+z
x,1/2-y,1/2+z
loop_
_atom_site_type_symbol
_atom_site_label
_atom_site_fract_x
_atom_site_fract_y
_atom_site_fract_z
Si Si1 0.322309 0.559239 0.059790
Si Si2 0.679424 0.756895 0.714284
Si Si3 0.821471 0.058947 0.712927
Si Si4 0.319259 0.759737 0.550784
Si Si5 0.819033 0.355098 0.971029
Si Si6 0.827691 0.301293 0.834613
Si Si7 0.319938 0.644542 0.303786
Si Si8 0.173728 0.199801 0.929693
O O1 0.500000 0.569663 0.060714
O O2 0.300410 0.500000 0.047407
O O3 0.253133 0.571071 0.136970
O O4 0.241211 0.593144 0.001722
O O5 0.500000 0.755670 0.715439
O O6 0.727404 0.754255 0.632697
O O7 0.738726 0.712483 0.764137
O O8 0.724190 0.809664 0.750717
O O9 0.749446 0.094327 0.771914
O O10 0.000000 0.066929 0.708821
O O11 0.794508 0.000000 0.726710
O O12 0.500000 0.762005 0.546483
O O13 0.250689 0.810898 0.519138
O O14 0.257743 0.714936 0.501671
O O15 0.773538 0.343609 0.889482
O O16 0.000000 0.352189 0.974396
O O17 0.823545 0.250867 0.882734
O O18 0.000000 0.311342 0.816047
O O19 0.500000 0.641961 0.305853
O O20 0.255463 0.659142 0.380707
O O21 0.000000 0.187102 0.942206
#
# Coordination Sequence:
#
# PCOD9355999 Si02
#       8
#     8   8   8   8   8   8   8   8
#     4  10  20  32  45  62  84 111 144 180 215 251
#     4   9  18  28  40  60  84 110 140 172 207 248
#     4  10  20  32  45  62  85 113 144 179 216 251
#     4  10  18  28  42  62  87 113 143 177 211 250
#     4  10  19  30  44  62  83 111 145 177 213 254
#     4   8  16  28  41  58  80 106 137 171 205 245
#     4  10  18  29  45  63  84 113 146 178 214 252
#     4   9  17  29  42  59  83 111 143 176 211 251
#
# _framework density 14.249782
#
# number of rings (size 3 to 8) (size 9 to 14) (size 15 to 20)
#    0.000    2.500    0.000    3.750    0.000    7.500 
#    0.000    0.000    0.000    0.000    0.000    0.000 
#    0.000    1.000    0.000    7.000    0.000    5.500 
#
# Total GULP energy -178349.701958 kJ/mol
# GULP energy per Si atom -5573.428186 kJ/mol
# Density = 1.421735 g / cm^3
# Si number density = 14.249782 Si / 1000 Ang^3
#
#
#
# Elastic Constant Matrix: (Units=GPa)
#
#
# Indices 1 2 3 4 5 6 
#
# 1 59.1395 30.3311 38.8301 0.0000 0.0000 0.0000
# 2 30.3311 47.9521 32.1908 0.0000 0.0000 0.0000
# 3 38.8301 32.1908 92.7424 0.0000 0.0000 0.0000
# 4 0.0000 0.0000 0.0000 28.7313 0.0000 0.0000
# 5 0.0000 0.0000 0.0000 0.0000 24.0448 0.0000
# 6 0.0000 0.0000 0.0000 0.0000 0.0000 22.8406
#
#
#
# Elastic Compliance Matrix: (Units=1/GPa)
#
#
# Indices 1 2 3 4 5 6 
#
# 1 0.028442 -0.013033 -0.007385 0.000000 0.000000 0.000000
# 2 -0.013033 0.033162 -0.006054 0.000000 0.000000 0.000000
# 3 -0.007385 -0.006054 0.015976 0.000000 0.000000 0.000000
# 4 0.000000 0.000000 0.000000 0.034805 0.000000 0.000000
# 5 0.000000 0.000000 0.000000 0.000000 0.041589 0.000000
# 6 0.000000 0.000000 0.000000 0.000000 0.000000 0.043782
#
#
# Mechanical properties :
#
#
# Convention : Reuss Voigt Hill
#
# Bulk Modulus (GPa) = 40.58951 44.72643 42.65797
# Shear Modulus (GPa) = 19.31169 21.68881 20.50025
#
# Velocity S-wave (km/s) = 3.68534 3.90557 3.79705
# Velocity P-wave (km/s) = 6.83045 7.19678 7.01600
#
# Compressibility (1/GPa) = 0.02463691
#
# Stress axis : x y z
#
# Youngs Moduli (GPa) = 35.15912 30.15514 62.59540
#
# Poissons Ratio (x) = 0.39301 0.46224
# Poissons Ratio (y) = 0.45823 0.37893
# Poissons Ratio (z) = 0.25964 0.18255
#
# Static dielectric constant tensor:
#      x y z
#    x 1.478500 0.000000 0.000000 
#    y 0.000000 1.459530 0.000000 
#    z 0.000000 0.000000 1.465980 
# 
# From -- ./inp_files/17272.got.cif
#   From: 2010.05.17/outbox.cif.g08.bks.cpg/sg38_9_cif.got.tgz:17272.got - 2010.06.03 18:07:57.
