data_PCOD9355952
_publ_section_title
;
Structure prediction by ZEFSAII (Michael W. Deem and Ramdas Pophale) SiO2 
 PCOD9355952
Probable space group: A M M 2
;
_chemical_formula_sum "Si O2"
_cell_formula_units_Z 64
_cell_length_a 7.839669
_cell_length_b 27.406194
_cell_length_c 19.216398
_cell_angle_alpha 90.000000
_cell_angle_beta 90.000000
_cell_angle_gamma 90.000000
_cell_volume 4128.748599
_symmetry_space_group_name_H-M "A M M 2"
_symmetry_group_IT_number 38
_symmetry_cell_setting 'orthorhombic'
loop_
_space_group_symop_operation_xyz
x,y,z
-x,-y,z
-x,y,z
x,-y,z
x,1/2+y,1/2+z
-x,1/2-y,1/2+z
-x,1/2+y,1/2+z
x,1/2-y,1/2+z
loop_
_atom_site_type_symbol
_atom_site_label
_atom_site_fract_x
_atom_site_fract_y
_atom_site_fract_z
Si Si1 0.194925 0.194160 0.106600
Si Si2 0.796505 0.945081 0.488704
Si Si3 0.209377 0.255252 0.982728
Si Si4 0.793834 0.148749 0.568694
Si Si5 0.205909 0.258015 0.824143
Si Si6 0.205331 0.646359 0.740278
Si Si7 0.703592 0.055101 0.331141
Si Si8 0.302252 0.787579 0.688597
O O1 0.272370 0.156289 0.161970
O O2 0.195307 0.244707 0.151019
O O3 0.000000 0.178982 0.092855
O O4 0.270558 0.211490 0.033156
O O5 0.729729 0.902519 0.538613
O O6 0.768591 0.931111 0.408068
O O7 0.000000 0.947570 0.499486
O O8 0.726531 0.000000 0.498622
O O9 0.265614 0.252080 0.903120
O O10 0.000000 0.254397 0.983903
O O11 0.260407 0.306619 0.018077
O O12 0.737138 0.163546 0.646091
O O13 0.000000 0.148002 0.567639
O O14 0.265410 0.309429 0.790371
O O15 0.260654 0.216284 0.769880
O O16 0.000000 0.259141 0.825780
O O17 0.246227 0.594992 0.774611
O O18 0.000000 0.650764 0.736507
O O19 0.500000 0.053733 0.334769
O O20 0.766238 0.000000 0.316159
O O21 0.500000 0.775440 0.678590
#
# Coordination Sequence:
#
# PCOD9355952 Si02
#       8
#     8   8   8   8   8   8   8   8
#     4   8  15  28  42  57  77 101 130 163 198 234
#     4   9  17  29  45  62  78 100 134 172 204 235
#     4   8  13  23  41  59  75 100 131 158 187 231
#     4   9  16  28  43  57  77 105 134 163 197 234
#     4   9  16  27  42  59  79 104 132 160 195 235
#     4   9  16  26  41  58  77 104 137 167 194 231
#     4  10  20  30  39  55  81 109 135 166 202 236
#     4  10  18  26  37  56  80 105 133 162 191 226
#
# _framework density 15.501066
#
# number of rings (size 3 to 8) (size 9 to 14) (size 15 to 20)
#    0.000    3.000    0.000    3.750    0.000    5.250 
#    0.000    2.500    0.000    0.000    0.000    0.000 
#    0.000    1.000    0.000    7.250    0.000    2.125 
#
# Total GULP energy -178147.274450 kJ/mol
# GULP energy per Si atom -5567.102327 kJ/mol
# Density = 1.546578 g / cm^3
# Si number density = 15.501066 Si / 1000 Ang^3
#
#
#
# Elastic Constant Matrix: (Units=GPa)
#
#
# Indices 1 2 3 4 5 6 
#
# 1 23.6438 4.2756 6.0137 0.0000 0.0000 0.0000
# 2 4.2756 80.1515 56.6943 0.0000 0.0000 0.0000
# 3 6.0137 56.6943 122.0262 0.0000 0.0000 0.0000
# 4 0.0000 0.0000 0.0000 26.5654 0.0000 0.0000
# 5 0.0000 0.0000 0.0000 0.0000 -15.0609 0.0000
# 6 0.0000 0.0000 0.0000 0.0000 0.0000 3.0344
#
#
#
# Elastic Compliance Matrix: (Units=1/GPa)
#
#
# Indices 1 2 3 4 5 6 
#
# 1 0.042906 -0.001181 -0.001566 0.000000 0.000000 0.000000
# 2 -0.001181 0.018616 -0.008591 0.000000 0.000000 0.000000
# 3 -0.001566 -0.008591 0.012264 0.000000 0.000000 0.000000
# 4 0.000000 0.000000 0.000000 0.037643 0.000000 0.000000
# 5 0.000000 0.000000 0.000000 0.000000 -0.066397 0.000000
# 6 0.000000 0.000000 0.000000 0.000000 0.000000 0.329560
#
#
# Mechanical properties :
#
#
# Convention : Reuss Voigt Hill
#
# Bulk Modulus (GPa) = 19.56565 39.97653 29.77109
# Shear Modulus (GPa) = 12.06842 13.49695 12.78269
#
# Velocity S-wave (km/s) = 2.79329 2.95398 2.87476
# Velocity P-wave (km/s) = 4.80133 6.12211 5.50150
#
# Compressibility (1/GPa) = 0.05110999
#
# Stress axis : x y z
#
# Youngs Moduli (GPa) = 23.30663 53.71686 81.54241
#
# Poissons Ratio (x) = 0.06346 0.12767
# Poissons Ratio (y) = 0.02753 0.70053
# Poissons Ratio (z) = 0.03649 0.46148
#
# Static dielectric constant tensor:
#      x y z
#    x 1.561100 0.000000 0.000000 
#    y 0.000000 1.524780 0.000000 
#    z 0.000000 0.000000 1.538940 
# 
# From -- ./inp_files/17346.got.cif
#   From: 2010.05.17/outbox.cif.g08.bks.cpg/sg38_9_cif.got.tgz:17346.got - 2010.06.03 18:07:57.
