data_PCOD9355791
_publ_section_title
;
Structure prediction by ZEFSAII (Michael W. Deem and Ramdas Pophale) SiO2 
 PCOD9355791
Probable space group: A M M 2
;
_chemical_formula_sum "Si O2"
_cell_formula_units_Z 48
_cell_length_a 18.321355
_cell_length_b 14.875557
_cell_length_c 8.692031
_cell_angle_alpha 90.000000
_cell_angle_beta 90.000000
_cell_angle_gamma 90.000000
_cell_volume 2368.929263
_symmetry_space_group_name_H-M "A M M 2"
_symmetry_group_IT_number 38
_symmetry_cell_setting 'orthorhombic'
loop_
_space_group_symop_operation_xyz
x,y,z
-x,-y,z
-x,y,z
x,-y,z
x,1/2+y,1/2+z
-x,1/2-y,1/2+z
-x,1/2+y,1/2+z
x,1/2-y,1/2+z
loop_
_atom_site_type_symbol
_atom_site_label
_atom_site_fract_x
_atom_site_fract_y
_atom_site_fract_z
Si Si1 0.689360 0.350707 0.159070
Si Si2 0.851422 0.351591 0.527757
Si Si3 0.310640 0.649293 0.527879
Si Si4 0.851422 0.851591 0.659193
Si Si5 0.000000 0.352380 0.026800
Si Si6 0.415548 0.000000 0.527870
Si Si7 0.415548 0.500000 0.659079
Si Si8 0.000000 0.352381 0.660149
O O1 0.683886 0.347678 0.343474
O O2 0.770894 0.388168 0.122078
O O3 0.627516 0.413817 0.090681
O O4 0.683672 0.250000 0.093474
O O5 0.770894 0.388168 0.564871
O O6 0.848693 0.250000 0.593476
O O7 0.859658 0.349693 0.343475
O O8 0.924221 0.393535 0.599842
O O9 0.372484 0.586183 0.596268
O O10 0.924221 0.893535 0.587108
O O11 0.000000 0.349406 0.843475
O O12 0.000000 0.250000 0.093474
O O13 0.413056 0.000000 0.343475
O O14 0.500000 0.000000 0.576759
O O15 0.500000 0.500000 0.610189
#
# Coordination Sequence:
#
# PCOD9355791 Si02
#       8
#     8   8   8   8   4   4   4   4
#     4  10  21  38  62  89 118 154 194 238 289 344
#     4   9  16  27  45  72 106 144 186 230 277 328
#     4  10  21  38  62  89 118 154 194 238 289 344
#     4   9  16  27  45  72 106 144 186 230 277 328
#     4  10  16  22  38  67 104 145 187 230 274 321
#     4  11  25  43  63  88 117 150 189 235 290 351
#     4  11  25  43  63  88 117 150 189 235 290 351
#     4  10  16  22  38  67 104 145 187 230 274 321
#
# _framework density 20.262318
#
# number of rings (size 3 to 8) (size 9 to 14) (size 15 to 20)
#    0.000    2.167    0.000    6.000    0.000    6.000 
#    0.000    0.000    0.000    1.000    0.000    7.000 
#    0.000    0.000    0.000    0.000    0.000    0.000 
#
# Total GULP energy -133982.401916 kJ/mol
# GULP energy per Si atom -5582.600080 kJ/mol
# Density = 2.021620 g / cm^3
# Si number density = 20.262318 Si / 1000 Ang^3
#
#
#
# Elastic Constant Matrix: (Units=GPa)
#
#
# Indices 1 2 3 4 5 6 
#
# 1 251.1977 75.4118 91.5877 0.0000 0.0000 0.0000
# 2 75.4118 94.5879 30.1795 0.0000 0.0000 0.0000
# 3 91.5877 30.1795 105.6026 0.0000 0.0000 0.0000
# 4 0.0000 0.0000 0.0000 15.2756 0.0000 0.0000
# 5 0.0000 0.0000 0.0000 0.0000 35.9751 0.0000
# 6 0.0000 0.0000 0.0000 0.0000 0.0000 332.6494
#
#
#
# Elastic Compliance Matrix: (Units=1/GPa)
#
#
# Indices 1 2 3 4 5 6 
#
# 1 0.006966 -0.003990 -0.004901 0.000000 0.000000 0.000000
# 2 -0.003990 0.013918 -0.000517 0.000000 0.000000 0.000000
# 3 -0.004901 -0.000517 0.013868 0.000000 0.000000 0.000000
# 4 0.000000 0.000000 0.000000 0.065464 0.000000 0.000000
# 5 0.000000 0.000000 0.000000 0.000000 0.027797 0.000000
# 6 0.000000 0.000000 0.000000 0.000000 0.000000 0.003006
#
#
# Mechanical properties :
#
#
# Convention : Reuss Voigt Hill
#
# Bulk Modulus (GPa) = 62.75299 93.97178 78.36239
# Shear Modulus (GPa) = 32.22764 93.72730 62.97747
#
# Velocity S-wave (km/s) = 3.99246 6.80862 5.58109
# Velocity P-wave (km/s) = 7.23122 10.40616 8.96043
#
# Compressibility (1/GPa) = 0.01593550
#
# Stress axis : x y z
#
# Youngs Moduli (GPa) = 143.56297 71.84887 72.10920
#
# Poissons Ratio (x) = 0.28666 0.35340
# Poissons Ratio (y) = 0.57277 0.03731
# Poissons Ratio (z) = 0.70360 0.03717
#
# Static dielectric constant tensor:
#      x y z
#    x 1.761970 0.000000 0.000000 
#    y 0.000000 1.764770 0.000000 
#    z 0.000000 0.000000 1.668450 
# 
# From -- ./inp_files/6263.got.cif
#   From: 2010.05.17/outbox.cif.g08.bks.cpg/sg38_4_cif.got.tgz:6263.got - 2010.06.03 18:07:57.
