data_PCOD9355789
_publ_section_title
;
Structure prediction by ZEFSAII (Michael W. Deem and Ramdas Pophale) SiO2 
 PCOD9355789
Probable space group: A M M 2
;
_chemical_formula_sum "Si O2"
_cell_formula_units_Z 30
_cell_length_a 11.099217
_cell_length_b 16.061658
_cell_length_c 9.422766
_cell_angle_alpha 90.000000
_cell_angle_beta 90.000000
_cell_angle_gamma 90.000000
_cell_volume 1679.813715
_symmetry_space_group_name_H-M "A M M 2"
_symmetry_group_IT_number 38
_symmetry_cell_setting 'orthorhombic'
loop_
_space_group_symop_operation_xyz
x,y,z
-x,-y,z
-x,y,z
x,-y,z
x,1/2+y,1/2+z
-x,1/2-y,1/2+z
-x,1/2+y,1/2+z
x,1/2-y,1/2+z
loop_
_atom_site_type_symbol
_atom_site_label
_atom_site_fract_x
_atom_site_fract_y
_atom_site_fract_z
Si Si1 0.000000 0.904004 0.857030
Si Si2 0.643288 0.321413 0.068098
Si Si3 0.739401 0.331568 0.389354
Si Si4 0.000000 0.000000 0.579172
Si Si5 0.638733 0.000000 0.858740
Si Si6 0.733394 0.000000 0.544231
O O1 0.120222 0.855142 0.897008
O O2 0.000000 0.921151 0.686907
O O3 0.000000 0.000000 0.914538
O O4 0.500000 0.310346 0.075849
O O5 0.697995 0.318834 0.226518
O O6 0.671441 0.413231 0.005015
O O7 0.702924 0.248741 0.977208
O O8 0.668243 0.414931 0.438414
O O9 0.873134 0.000000 0.500657
O O10 0.500000 0.000000 0.810091
O O11 0.724115 0.000000 0.718426
#
# Coordination Sequence:
#
# PCOD9355789 Si02
#       6
#     4   8   8   2   4   4
#     4  10  16  35  58  83 110 138 194 232 267 325
#     4  11  21  36  54  84 113 147 190 228 274 331
#     4  11  21  34  58  82 111 146 182 235 276 323
#     4  10  14  32  58  82 104 134 200 232 258 328
#     4  10  16  30  51  76 100 141 186 220 259 318
#     4  10  18  32  57  74 108 147 185 223 271 317
#
# _framework density 17.859124999999999
#
# number of rings (size 3 to 8) (size 9 to 14) (size 15 to 20)
#    0.400    1.067    6.667    5.200    0.000    2.133 
#    0.000    1.333    0.000    0.000    0.000    0.000 
#    0.000    0.000    0.000    0.000    0.000    0.000 
#
# Total GULP energy -83607.876095 kJ/mol
# GULP energy per Si atom -5573.858406 kJ/mol
# Density = 1.781848 g / cm^3
# Si number density = 17.859125 Si / 1000 Ang^3
#
#
#
# Elastic Constant Matrix: (Units=GPa)
#
#
# Indices 1 2 3 4 5 6 
#
# 1 181.3684 70.5890 31.9845 0.0000 0.0000 0.0000
# 2 70.5890 188.4054 54.8875 0.0000 0.0000 0.0000
# 3 31.9845 54.8875 30.6535 0.0000 0.0000 0.0000
# 4 0.0000 0.0000 0.0000 25.6474 0.0000 0.0000
# 5 0.0000 0.0000 0.0000 0.0000 10.9557 0.0000
# 6 0.0000 0.0000 0.0000 0.0000 0.0000 32.9458
#
#
#
# Elastic Compliance Matrix: (Units=1/GPa)
#
#
# Indices 1 2 3 4 5 6 
#
# 1 0.006848 -0.001012 -0.005333 0.000000 0.000000 0.000000
# 2 -0.001012 0.011245 -0.019080 0.000000 0.000000 0.000000
# 3 -0.005333 -0.019080 0.072351 0.000000 0.000000 0.000000
# 4 0.000000 0.000000 0.000000 0.038990 0.000000 0.000000
# 5 0.000000 0.000000 0.000000 0.000000 0.091277 0.000000
# 6 0.000000 0.000000 0.000000 0.000000 0.000000 0.030353
#
#
# Mechanical properties :
#
#
# Convention : Reuss Voigt Hill
#
# Bulk Modulus (GPa) = 25.25595 79.48325 52.36960
# Shear Modulus (GPa) = 15.86733 30.10752 22.98742
#
# Velocity S-wave (km/s) = 2.98396 4.11035 3.59158
# Velocity P-wave (km/s) = 5.10338 8.19322 6.82544
#
# Compressibility (1/GPa) = 0.03959463
#
# Stress axis : x y z
#
# Youngs Moduli (GPa) = 146.02709 88.92639 13.82146
#
# Poissons Ratio (x) = 0.08999 0.07371
# Poissons Ratio (y) = 0.14778 0.26371
# Poissons Ratio (z) = 0.77882 1.69668
#
# Static dielectric constant tensor:
#      x y z
#    x 1.640580 0.000000 0.000000 
#    y 0.000000 1.642990 0.000000 
#    z 0.000000 0.000000 1.600650 
# 
# From -- ./inp_files/9000.got.cif
#   From: 2010.05.17/outbox.cif.g08.bks.cpg/sg38_5_cif.got.tgz:9000.got - 2010.06.03 18:07:57.
