data_PCOD9355080
_publ_section_title
;
Structure prediction by ZEFSAII (Michael W. Deem and Ramdas Pophale) SiO2 
 PCOD9355080
Probable space group: C C C 2
;
_chemical_formula_sum "Si O2"
_cell_formula_units_Z 64
_cell_length_a 12.054307
_cell_length_b 21.868186
_cell_length_c 10.765183
_cell_angle_alpha 90.000000
_cell_angle_beta 90.000000
_cell_angle_gamma 90.000000
_cell_volume 2837.764974
_symmetry_space_group_name_H-M "C C C 2"
_symmetry_group_IT_number 37
_symmetry_cell_setting 'orthorhombic'
loop_
_space_group_symop_operation_xyz
x,y,z
-x,-y,z
-x,y,1/2+z
x,-y,1/2+z
1/2+x,1/2+y,z
1/2-x,1/2-y,z
1/2-x,1/2+y,1/2+z
1/2+x,1/2-y,1/2+z
loop_
_atom_site_type_symbol
_atom_site_label
_atom_site_fract_x
_atom_site_fract_y
_atom_site_fract_z
Si Si1 0.083405 0.869697 0.320410
Si Si2 0.965489 0.636740 0.675922
Si Si3 0.160314 0.887792 0.894161
Si Si4 0.220219 0.909418 0.537627
Si Si5 0.720418 0.316704 0.131472
Si Si6 0.546599 0.067362 0.430040
Si Si7 0.811775 0.313608 0.727114
Si Si8 0.631552 0.500220 0.743644
O O1 0.114608 0.885574 0.461752
O O2 0.141858 0.813336 0.253066
O O3 0.950249 0.867713 0.317229
O O4 0.145828 0.927738 0.255848
O O5 0.839274 0.657058 0.669996
O O6 0.996279 0.607941 0.542337
O O7 0.056369 0.688770 0.708942
O O8 0.978662 0.590232 0.791210
O O9 0.271373 0.858381 0.837234
O O10 0.157515 0.960798 0.869011
O O11 0.158800 0.859063 0.030150
O O12 0.321404 0.930893 0.451926
O O13 0.265334 0.850097 0.608967
O O14 0.191542 0.962752 0.635494
O O15 0.750000 0.250000 0.078215
O O16 0.500000 0.000000 0.445788
O O17 0.750000 0.250000 0.742681
O O18 0.500000 0.500000 0.721660
#
# Coordination Sequence:
#
# PCOD9355080 Si02
#       8
#     8   8   8   8   8   8   8   8
#     4  11  25  41  70 102 144 181 230 299 362 433
#     4  11  25  47  68 105 141 184 250 300 363 442
#     4  10  24  44  71 105 137 185 233 293 365 440
#     4  10  23  41  64 101 135 182 238 285 372 424
#     4  12  28  47  69 106 142 189 242 304 364 432
#     4  11  24  43  70 101 142 191 236 304 367 438
#     4  10  23  44  71  97 131 189 237 291 355 432
#     4   9  22  41  68 102 140 179 231 297 356 441
#
# _framework density 22.552961
#
# number of rings (size 3 to 8) (size 9 to 14) (size 15 to 20)
#    0.000    1.500    1.250    1.500   10.500    4.000 
#    0.000    0.000    0.000    0.000    0.000    0.000 
#    0.000    0.000    0.000    0.000    0.000    0.000 
#
# Total GULP energy -178646.573877 kJ/mol
# GULP energy per Si atom -5582.705434 kJ/mol
# Density = 2.250163 g / cm^3
# Si number density = 22.552961 Si / 1000 Ang^3
#
#
#
# Elastic Constant Matrix: (Units=GPa)
#
#
# Indices 1 2 3 4 5 6 
#
# 1 110.5654 25.6822 15.5581 0.0000 0.0000 0.0000
# 2 25.6822 46.3657 7.7385 0.0000 0.0000 0.0000
# 3 15.5581 7.7385 74.4057 0.0000 0.0000 0.0000
# 4 0.0000 0.0000 0.0000 7.5283 0.0000 0.0000
# 5 0.0000 0.0000 0.0000 0.0000 28.6994 0.0000
# 6 0.0000 0.0000 0.0000 0.0000 0.0000 29.3768
#
#
#
# Elastic Compliance Matrix: (Units=1/GPa)
#
#
# Indices 1 2 3 4 5 6 
#
# 1 0.010571 -0.005583 -0.001630 0.000000 0.000000 0.000000
# 2 -0.005583 0.024898 -0.001422 0.000000 0.000000 0.000000
# 3 -0.001630 -0.001422 0.013928 0.000000 0.000000 0.000000
# 4 0.000000 0.000000 0.000000 0.132832 0.000000 0.000000
# 5 0.000000 0.000000 0.000000 0.000000 0.034844 0.000000
# 6 0.000000 0.000000 0.000000 0.000000 0.000000 0.034041
#
#
# Mechanical properties :
#
#
# Convention : Reuss Voigt Hill
#
# Bulk Modulus (GPa) = 31.12640 36.58825 33.85733
# Shear Modulus (GPa) = 17.91526 25.27809 21.59668
#
# Velocity S-wave (km/s) = 2.82150 3.35152 3.09787
# Velocity P-wave (km/s) = 4.94428 5.58886 5.27642
#
# Compressibility (1/GPa) = 0.03212706
#
# Stress axis : x y z
#
# Youngs Moduli (GPa) = 94.60216 40.16466 71.79534
#
# Poissons Ratio (x) = 0.22424 0.11700
# Poissons Ratio (y) = 0.52818 0.10209
# Poissons Ratio (z) = 0.15417 0.05711
#
# Static dielectric constant tensor:
#      x y z
#    x 1.909960 0.000000 0.000000 
#    y 0.000000 1.866760 0.000000 
#    z 0.000000 0.000000 1.908720 
# 
# From -- ./inp_files/7406.got.cif
#   From: 2010.05.17/outbox.cif.g08.bks.cpg/sg37_4_cif.got.tgz:7406.got - 2010.06.03 17:53:42.
