data_PCOD9355851
_publ_section_title
;
Structure prediction by ZEFSAII (Michael W. Deem and Ramdas Pophale) SiO2 
 PCOD9355851
Probable space group: A M M 2
;
_chemical_formula_sum "Si O2"
_cell_formula_units_Z 64
_cell_length_a 8.404771
_cell_length_b 14.411955
_cell_length_c 23.544994
_cell_angle_alpha 90.000000
_cell_angle_beta 90.000000
_cell_angle_gamma 90.000000
_cell_volume 2851.985850
_symmetry_space_group_name_H-M "A M M 2"
_symmetry_group_IT_number 38
_symmetry_cell_setting 'orthorhombic'
loop_
_space_group_symop_operation_xyz
x,y,z
-x,-y,z
-x,y,z
x,-y,z
x,1/2+y,1/2+z
-x,1/2-y,1/2+z
-x,1/2+y,1/2+z
x,1/2-y,1/2+z
loop_
_atom_site_type_symbol
_atom_site_label
_atom_site_fract_x
_atom_site_fract_y
_atom_site_fract_z
Si Si1 0.811382 0.401747 0.000000
Si Si2 0.809874 0.848411 0.373554
Si Si3 0.310846 0.805258 0.135955
Si Si4 0.189698 0.308111 0.517149
Si Si5 0.682645 0.352240 0.397821
Si Si6 0.181098 0.646689 0.753630
Si Si7 0.685973 0.598686 0.162974
Si Si8 0.820776 0.367293 0.279767
O O1 0.741063 0.500000 0.020790
O O2 0.747786 0.299728 0.016533
O O3 0.000000 0.401022 0.014617
O O4 0.799390 0.403384 0.931762
O O5 0.705602 0.757462 0.385399
O O6 0.763447 0.894728 0.313855
O O7 0.000000 0.822925 0.368874
O O8 0.500000 0.801091 0.129637
O O9 0.236739 0.846127 0.078675
O O10 0.272531 0.858696 0.194455
O O11 0.246552 0.698339 0.143262
O O12 0.254382 0.362186 0.462028
O O13 0.000000 0.304148 0.510816
O O14 0.500000 0.379690 0.394756
O O15 0.776286 0.393213 0.343941
O O16 0.182095 0.755836 0.771069
O O17 0.000000 0.617293 0.743035
O O18 0.500000 0.598839 0.147685
O O19 0.758849 0.500000 0.144100
O O20 0.702875 0.599308 0.231170
O O21 0.000000 0.396938 0.266631
#
# Coordination Sequence:
#
# PCOD9355851 Si02
#       8
#     8   8   8   8   8   8   8   8
#     4   8  14  25  41  60  81 107 139 171 200 233
#     4   8  14  25  41  60  81 104 132 167 207 248
#     4  10  19  29  41  58  80 109 144 178 210 245
#     4  10  19  30  42  57  81 112 144 177 209 245
#     4  10  17  26  42  61  80 103 133 170 214 259
#     4   8  14  25  40  57  77 102 131 166 208 249
#     4   9  18  31  44  60  86 118 148 178 212 249
#     4   9  16  27  43  62  82 104 135 174 214 254
#
# _framework density 22.440505000000002
#
# number of rings (size 3 to 8) (size 9 to 14) (size 15 to 20)
#    0.000    3.000    0.000    3.750    0.000    4.250 
#    0.000    0.000    0.000    9.000    0.000    0.000 
#    0.000    1.000    0.000    5.000    0.000    3.625 
#
# Total GULP energy -178231.673310 kJ/mol
# GULP energy per Si atom -5569.739791 kJ/mol
# Density = 2.238943 g / cm^3
# Si number density = 22.440505 Si / 1000 Ang^3
#
#
#
# Elastic Constant Matrix: (Units=GPa)
#
#
# Indices 1 2 3 4 5 6 
#
# 1 38.8482 -4.7641 16.1814 0.0000 0.0000 0.0000
# 2 -4.7641 33.8931 -6.7320 0.0000 0.0000 0.0000
# 3 16.1814 -6.7320 173.9482 0.0000 0.0000 0.0000
# 4 0.0000 0.0000 0.0000 -32.1016 0.0000 0.0000
# 5 0.0000 0.0000 0.0000 0.0000 27.0923 0.0000
# 6 0.0000 0.0000 0.0000 0.0000 0.0000 -10.1215
#
#
#
# Elastic Compliance Matrix: (Units=1/GPa)
#
#
# Indices 1 2 3 4 5 6 
#
# 1 0.027149 0.003340 -0.002396 0.000000 0.000000 0.000000
# 2 0.003340 0.030144 0.000856 0.000000 0.000000 0.000000
# 3 -0.002396 0.000856 0.006005 0.000000 0.000000 0.000000
# 4 0.000000 0.000000 0.000000 -0.031151 0.000000 0.000000
# 5 0.000000 0.000000 0.000000 0.000000 0.036911 0.000000
# 6 0.000000 0.000000 0.000000 0.000000 0.000000 -0.098800
#
#
# Mechanical properties :
#
#
# Convention : Reuss Voigt Hill
#
# Bulk Modulus (GPa) = 14.94826 28.45114 21.69970
# Shear Modulus (GPa) = -452.79074 13.10746 -219.84164
#
# Velocity S-wave (km/s) = -14.22012 2.41943 -9.90854
# Velocity P-wave (km/s) = 16.21543 4.52889 11.00975
#
# Compressibility (1/GPa) = 0.06689744
#
# Stress axis : x y z
#
# Youngs Moduli (GPa) = 36.83387 33.17406 166.53148
#
# Poissons Ratio (x) = -0.11081 0.39905
# Poissons Ratio (y) = -0.12303 -0.14253
# Poissons Ratio (z) = 0.08826 -0.02839
#
# Static dielectric constant tensor:
#      x y z
#    x 1.776430 0.000000 0.000000 
#    y 0.000000 1.980660 0.000000 
#    z 0.000000 0.000000 1.869090 
# 
# From -- ./inp_files/20209.got.cif
#   From: 2010.05.17/outbox.cif.g08.bks.cpg/sg38_11_cif.got.tgz:20209.got - 2010.06.03 18:07:57.
