data_PCOD9355594
_publ_section_title
;
Structure prediction by ZEFSAII (Michael W. Deem and Ramdas Pophale) SiO2 
 PCOD9355594
Probable space group: C C C 2
;
_chemical_formula_sum "Si O2"
_cell_formula_units_Z 40
_cell_length_a 10.566231
_cell_length_b 15.026232
_cell_length_c 8.930490
_cell_angle_alpha 90.000000
_cell_angle_beta 90.000000
_cell_angle_gamma 90.000000
_cell_volume 1417.899598
_symmetry_space_group_name_H-M "C C C 2"
_symmetry_group_IT_number 37
_symmetry_cell_setting 'orthorhombic'
loop_
_space_group_symop_operation_xyz
x,y,z
-x,-y,z
-x,y,1/2+z
x,-y,1/2+z
1/2+x,1/2+y,z
1/2-x,1/2-y,z
1/2-x,1/2+y,1/2+z
1/2+x,1/2-y,1/2+z
loop_
_atom_site_type_symbol
_atom_site_label
_atom_site_fract_x
_atom_site_fract_y
_atom_site_fract_z
Si Si1 0.833341 0.581215 0.378250
Si Si2 0.380021 0.311068 0.240889
Si Si3 0.354243 0.073687 0.697090
Si Si4 0.394575 0.772743 0.420459
Si Si5 0.864822 0.005347 0.560771
O O1 0.749061 0.664878 0.332684
O O2 0.904616 0.602000 0.532328
O O3 0.882426 0.530279 0.233021
O O4 0.993921 0.788849 0.353205
O O5 0.385835 0.406725 0.156866
O O6 0.256700 0.498827 0.936650
O O7 0.390044 0.242622 0.100167
O O8 0.407919 0.135909 0.826249
O O9 0.199971 0.073288 0.660569
O O10 0.250000 0.750000 0.375668
O O11 0.000000 0.000000 0.983565
#
# Coordination Sequence:
#
# PCOD9355594 Si02
#       5
#     8   8   8   8   8
#     4   9  20  41  72 108 138 189 257 310 362 457
#     4  11  24  43  66 110 150 194 247 313 385 450
#     4   9  21  40  68 101 140 190 245 303 377 444
#     4  12  26  44  68 108 158 196 241 317 397 454
#     4   9  17  34  63  98 137 176 238 289 361 434
#
# _framework density 28.210743000000001
#
# number of rings (size 3 to 8) (size 9 to 14) (size 15 to 20)
#    1.200    0.800    0.000    3.600    2.800    4.800 
#    3.600    0.000    0.000    3.600    0.000    0.000 
#    0.000    0.000    0.000    0.000    0.000    0.000 
#
# Total GULP energy -111446.993719 kJ/mol
# GULP energy per Si atom -5572.349686 kJ/mol
# Density = 2.814653 g / cm^3
# Si number density = 28.210743 Si / 1000 Ang^3
#
#
#
# Elastic Constant Matrix: (Units=GPa)
#
#
# Indices 1 2 3 4 5 6 
#
# 1 129.4521 42.5825 73.4300 0.0000 0.0000 0.0000
# 2 42.5825 116.7273 81.7528 0.0000 0.0000 0.0000
# 3 73.4300 81.7528 217.3727 0.0000 0.0000 0.0000
# 4 0.0000 0.0000 0.0000 43.0509 0.0000 0.0000
# 5 0.0000 0.0000 0.0000 0.0000 61.0169 0.0000
# 6 0.0000 0.0000 0.0000 0.0000 0.0000 57.0401
#
#
#
# Elastic Compliance Matrix: (Units=1/GPa)
#
#
# Indices 1 2 3 4 5 6 
#
# 1 0.009800 -0.001706 -0.002669 0.000000 0.000000 0.000000
# 2 -0.001706 0.011927 -0.003910 0.000000 0.000000 0.000000
# 3 -0.002669 -0.003910 0.006972 0.000000 0.000000 0.000000
# 4 0.000000 0.000000 0.000000 0.023228 0.000000 0.000000
# 5 0.000000 0.000000 0.000000 0.000000 0.016389 0.000000
# 6 0.000000 0.000000 0.000000 0.000000 0.000000 0.017532
#
#
# Mechanical properties :
#
#
# Convention : Reuss Voigt Hill
#
# Bulk Modulus (GPa) = 82.43328 95.45364 88.94346
# Shear Modulus (GPa) = 46.96561 49.94068 48.45315
#
# Velocity S-wave (km/s) = 4.08464 4.21202 4.14882
# Velocity P-wave (km/s) = 7.17842 7.58711 7.38559
#
# Compressibility (1/GPa) = 0.01213102
#
# Stress axis : x y z
#
# Youngs Moduli (GPa) = 102.04190 83.84015 143.42323
#
# Poissons Ratio (x) = 0.14301 0.38279
# Poissons Ratio (y) = 0.17406 0.56073
# Poissons Ratio (z) = 0.27234 0.32778
#
# Static dielectric constant tensor:
#      x y z
#    x 2.587720 0.000000 0.000000 
#    y 0.000000 2.225520 0.000000 
#    z 0.000000 0.000000 2.248180 
# 
# From -- ./inp_files/2842.got.cif
#   From: 2010.05.17/outbox.cif.g08.bks.cpg/sg37_2_cif.got.tgz:2842.got - 2010.06.03 17:53:42.
