data_PCOD9355713
_publ_section_title
;
Structure prediction by ZEFSAII (Michael W. Deem and Ramdas Pophale) SiO2 
 PCOD9355713
Probable space group: C C C 2
;
_chemical_formula_sum "Si O2"
_cell_formula_units_Z 48
_cell_length_a 10.008312
_cell_length_b 10.008320
_cell_length_c 25.244646
_cell_angle_alpha 90.000000
_cell_angle_beta 90.000000
_cell_angle_gamma 90.000000
_cell_volume 2528.665035
_symmetry_space_group_name_H-M "C C C 2"
_symmetry_group_IT_number 37
_symmetry_cell_setting 'orthorhombic'
loop_
_space_group_symop_operation_xyz
x,y,z
-x,-y,z
-x,y,1/2+z
x,-y,1/2+z
1/2+x,1/2+y,z
1/2-x,1/2-y,z
1/2-x,1/2+y,1/2+z
1/2+x,1/2-y,1/2+z
loop_
_atom_site_type_symbol
_atom_site_label
_atom_site_fract_x
_atom_site_fract_y
_atom_site_fract_z
Si Si1 0.734995 0.588034 0.433850
Si Si2 0.000000 0.500000 0.985608
Si Si3 0.000000 0.000000 0.512449
Si Si4 0.250000 0.750000 0.735052
Si Si5 0.250000 0.750000 0.263005
Si Si6 0.341372 0.482045 0.314231
Si Si7 0.482045 0.158628 0.683826
Si Si8 0.088034 0.265005 0.564207
O O1 0.750000 0.750000 0.440690
O O2 0.870951 0.510239 0.448122
O O3 0.625185 0.525809 0.473525
O O4 0.692449 0.562431 0.373653
O O5 0.025810 0.625185 0.024532
O O6 0.989761 0.870951 0.549935
O O7 0.284506 0.625984 0.773090
O O8 0.376796 0.777712 0.698612
O O9 0.277712 0.623204 0.299445
O O10 0.374016 0.784506 0.224967
O O11 0.500000 0.500000 0.308483
O O12 0.437570 0.192448 0.624403
O O13 0.500000 0.000000 0.689575
O O14 0.250000 0.250000 0.557368
#
# Coordination Sequence:
#
# PCOD9355713 Si02
#       8
#     8   4   4   4   4   8   8   8
#     4  12  26  46  72 105 143 182 234 296 347 414
#     4  12  24  46  72 102 140 180 230 290 350 408
#     4  12  24  46  72 102 140 180 230 290 350 408
#     4  12  26  44  72 108 140 184 236 290 350 416
#     4  12  26  44  72 108 140 184 236 290 350 416
#     4  12  26  44  74 105 142 184 234 291 353 417
#     4  12  26  44  74 105 142 184 234 291 353 417
#     4  12  26  46  72 105 143 182 234 296 347 414
#
# _framework density 18.982348999999999
#
# number of rings (size 3 to 8) (size 9 to 14) (size 15 to 20)
#    0.000    0.000   10.000    0.000    0.000    8.667 
#    0.000    0.000    0.000    0.000    0.000    0.000 
#    0.000    0.000    0.000    0.000    0.000    0.000 
#
# Total GULP energy -134118.230138 kJ/mol
# GULP energy per Si atom -5588.259589 kJ/mol
# Density = 1.893914 g / cm^3
# Si number density = 18.982349 Si / 1000 Ang^3
#
#
#
# Elastic Constant Matrix: (Units=GPa)
#
#
# Indices 1 2 3 4 5 6 
#
# 1 132.6596 38.3483 11.4516 0.0000 0.0000 0.0000
# 2 38.3483 132.6589 11.4512 0.0000 0.0000 0.0000
# 3 11.4516 11.4512 51.5226 0.0000 0.0000 0.0000
# 4 0.0000 0.0000 0.0000 41.3469 0.0000 0.0000
# 5 0.0000 0.0000 0.0000 0.0000 41.3511 0.0000
# 6 0.0000 0.0000 0.0000 0.0000 0.0000 33.1584
#
#
#
# Elastic Compliance Matrix: (Units=1/GPa)
#
#
# Indices 1 2 3 4 5 6 
#
# 1 0.008315 -0.002288 -0.001340 0.000000 0.000000 0.000000
# 2 -0.002288 0.008315 -0.001340 0.000000 0.000000 0.000000
# 3 -0.001340 -0.001340 0.020004 0.000000 0.000000 0.000000
# 4 0.000000 0.000000 0.000000 0.024186 0.000000 0.000000
# 5 0.000000 0.000000 0.000000 0.000000 0.024183 0.000000
# 6 0.000000 0.000000 0.000000 0.000000 0.000000 0.030158
#
#
# Mechanical properties :
#
#
# Convention : Reuss Voigt Hill
#
# Bulk Modulus (GPa) = 37.45274 48.81590 43.13432
# Shear Modulus (GPa) = 37.31446 40.21062 38.76254
#
# Velocity S-wave (km/s) = 4.43848 4.60751 4.52379
# Velocity P-wave (km/s) = 6.78528 7.35376 7.07523
#
# Compressibility (1/GPa) = 0.02670032
#
# Stress axis : x y z
#
# Youngs Moduli (GPa) = 120.26247 120.26204 49.98894
#
# Poissons Ratio (x) = 0.27517 0.06697
# Poissons Ratio (y) = 0.27517 0.06696
# Poissons Ratio (z) = 0.16111 0.16110
#
# Static dielectric constant tensor:
#      x y z
#    x 1.642000 0.000000 0.000000 
#    y 0.000000 1.641990 0.000000 
#    z 0.000000 0.000000 1.626040 
# 
# From -- ./inp_files/18385.got.cif
#   From: 2010.05.17/outbox.cif.g08.bks.cpg/sg37_10_cif.got.tgz:18385.got - 2010.06.03 17:53:42.
