data_PCOD9355310
_publ_section_title
;
Structure prediction by ZEFSAII (Michael W. Deem and Ramdas Pophale) SiO2 
 PCOD9355310
Probable space group: C C C 2
;
_chemical_formula_sum "Si O2"
_cell_formula_units_Z 28
_cell_length_a 15.944930
_cell_length_b 5.184092
_cell_length_c 13.159843
_cell_angle_alpha 90.000000
_cell_angle_beta 90.000000
_cell_angle_gamma 90.000000
_cell_volume 1087.792413
_symmetry_space_group_name_H-M "C C C 2"
_symmetry_group_IT_number 37
_symmetry_cell_setting 'orthorhombic'
loop_
_space_group_symop_operation_xyz
x,y,z
-x,-y,z
-x,y,1/2+z
x,-y,1/2+z
1/2+x,1/2+y,z
1/2-x,1/2-y,z
1/2-x,1/2+y,1/2+z
1/2+x,1/2-y,1/2+z
loop_
_atom_site_type_symbol
_atom_site_label
_atom_site_fract_x
_atom_site_fract_y
_atom_site_fract_z
Si Si1 0.441150 0.241902 0.214890
Si Si2 0.321894 0.092233 0.590593
Si Si3 0.595804 0.415276 0.925292
Si Si4 0.250000 0.750000 0.420075
O O1 0.500000 0.500000 0.206038
O O2 0.406192 0.224753 0.329468
O O3 0.500000 0.000000 0.197088
O O4 0.363374 0.157054 0.143121
O O5 0.250000 0.250000 0.652428
O O6 0.384195 0.291867 0.535202
O O7 0.276098 0.982906 0.492149
O O8 0.500000 0.500000 0.934815
O O9 0.660486 0.635251 0.883215
#
# Coordination Sequence:
#
# PCOD9355310 Si02
#       4
#     8   8   8   4
#     4  11  28  48  76 119 153 211 266 328 407 483
#     4  10  25  49  75 112 153 206 261 330 400 468
#     4  10  25  49  79 110 155 207 266 322 402 481
#     4  10  24  46  74 112 142 210 256 322 394 468
#
# _framework density 25.740207000000002
#
# number of rings (size 3 to 8) (size 9 to 14) (size 15 to 20)
#    0.000    1.714    0.000    0.000   20.000    0.000 
#   10.286    0.000    0.000    0.000    0.000    0.000 
#    0.000    0.000    0.000    0.000    0.000    0.000 
#
# Total GULP energy -77987.001578 kJ/mol
# GULP energy per Si atom -5570.500113 kJ/mol
# Density = 2.568162 g / cm^3
# Si number density = 25.740207 Si / 1000 Ang^3
#
#
#
# Elastic Constant Matrix: (Units=GPa)
#
#
# Indices 1 2 3 4 5 6 
#
# 1 139.7585 46.4942 37.0003 0.0000 0.0000 0.0000
# 2 46.4942 125.0849 18.2594 0.0000 0.0000 0.0000
# 3 37.0003 18.2594 73.3515 0.0000 0.0000 0.0000
# 4 0.0000 0.0000 0.0000 42.5233 0.0000 0.0000
# 5 0.0000 0.0000 0.0000 0.0000 -35.5650 0.0000
# 6 0.0000 0.0000 0.0000 0.0000 0.0000 19.0068
#
#
#
# Elastic Compliance Matrix: (Units=1/GPa)
#
#
# Indices 1 2 3 4 5 6 
#
# 1 0.009127 -0.002823 -0.003901 0.000000 0.000000 0.000000
# 2 -0.002823 0.009169 -0.000858 0.000000 0.000000 0.000000
# 3 -0.003901 -0.000858 0.015815 0.000000 0.000000 0.000000
# 4 0.000000 0.000000 0.000000 0.023517 0.000000 0.000000
# 5 0.000000 0.000000 0.000000 0.000000 -0.028118 0.000000
# 6 0.000000 0.000000 0.000000 0.000000 0.000000 0.052613
#
#
# Mechanical properties :
#
#
# Convention : Reuss Voigt Hill
#
# Bulk Modulus (GPa) = 52.78321 60.18918 56.48620
# Shear Modulus (GPa) = 48.26092 20.95575 34.60833
#
# Velocity S-wave (km/s) = 4.33474 2.85638 3.67075
# Velocity P-wave (km/s) = 6.75307 5.85770 6.32126
#
# Compressibility (1/GPa) = 0.01894542
#
# Stress axis : x y z
#
# Youngs Moduli (GPa) = 109.56259 109.06027 63.23292
#
# Poissons Ratio (x) = 0.30789 0.24669
# Poissons Ratio (y) = 0.30931 0.05428
# Poissons Ratio (z) = 0.42743 0.09362
#
# Static dielectric constant tensor:
#      x y z
#    x 2.735390 0.000000 0.000000 
#    y 0.000000 2.077840 0.000000 
#    z 0.000000 0.000000 2.025700 
# 
# From -- ./inp_files/12319.got.cif
#   From: 2010.05.17/outbox.cif.g08.bks.cpg/sg37_7_cif.got.tgz:12319.got - 2010.06.03 17:53:42.
