data_PCOD9355834
_publ_section_title
;
Structure prediction by ZEFSAII (Michael W. Deem and Ramdas Pophale) SiO2 
 PCOD9355834
Probable space group: A M M 2
;
_chemical_formula_sum "Si O2"
_cell_formula_units_Z 56
_cell_length_a 9.637652
_cell_length_b 22.656408
_cell_length_c 17.907130
_cell_angle_alpha 90.000000
_cell_angle_beta 90.000000
_cell_angle_gamma 90.000000
_cell_volume 3910.103776
_symmetry_space_group_name_H-M "A M M 2"
_symmetry_group_IT_number 38
_symmetry_cell_setting 'orthorhombic'
loop_
_space_group_symop_operation_xyz
x,y,z
-x,-y,z
-x,y,z
x,-y,z
x,1/2+y,1/2+z
-x,1/2-y,1/2+z
-x,1/2+y,1/2+z
x,1/2-y,1/2+z
loop_
_atom_site_type_symbol
_atom_site_label
_atom_site_fract_x
_atom_site_fract_y
_atom_site_fract_z
Si Si1 0.840391 0.182523 0.688010
Si Si2 0.336923 0.350201 0.771045
Si Si3 0.336106 0.714462 0.324973
Si Si4 0.165911 0.219796 0.973641
Si Si5 0.840988 0.680367 0.634784
Si Si6 0.665850 0.569602 0.909796
Si Si7 0.165031 0.145077 0.525451
O O1 0.736768 0.179422 0.757277
O O2 0.840183 0.250900 0.660740
O O3 0.801676 0.146305 0.613752
O O4 0.000000 0.168764 0.709131
O O5 0.500000 0.358411 0.756532
O O6 0.319329 0.284256 0.805037
O O7 0.253676 0.353135 0.693902
O O8 0.291944 0.396772 0.833766
O O9 0.500000 0.702551 0.330329
O O10 0.255345 0.703488 0.401860
O O11 0.000000 0.213659 0.960405
O O12 0.202046 0.182760 0.048130
O O13 0.190765 0.288852 0.993524
O O14 0.000000 0.659918 0.639172
O O15 0.500000 0.578972 0.918772
O O16 0.691739 0.500000 0.905110
O O17 0.746990 0.599317 0.977922
O O18 0.000000 0.134296 0.518298
#
# Coordination Sequence:
#
# PCOD9355834 Si02
#       7
#     8   8   8   8   8   8   8
#     4   8  15  27  40  56  79 107 136 168 208 249
#     4   9  17  28  39  55  79 107 139 172 206 241
#     4  10  17  24  38  61  84 109 140 169 199 243
#     4   9  16  26  40  59  83 110 137 166 205 250
#     4   8  15  26  40  57  76 104 138 166 201 248
#     4  10  20  32  44  59  83 114 145 178 215 249
#     4   9  17  29  44  59  78 107 143 179 211 245
#
# _framework density 14.321871
#
# number of rings (size 3 to 8) (size 9 to 14) (size 15 to 20)
#    0.000    3.000    1.429    2.143    0.000    2.571 
#    0.000    2.857    0.000    0.000    0.000    0.000 
#    0.000    1.143    0.000    8.571    0.000    4.429 
#
# Total GULP energy -155874.414086 kJ/mol
# GULP energy per Si atom -5566.943360 kJ/mol
# Density = 1.428927 g / cm^3
# Si number density = 14.321871 Si / 1000 Ang^3
#
#
#
# Elastic Constant Matrix: (Units=GPa)
#
#
# Indices 1 2 3 4 5 6 
#
# 1 64.1148 30.1889 86.5758 0.0000 0.0000 0.0000
# 2 30.1889 41.0299 40.0656 0.0000 0.0000 0.0000
# 3 86.5758 40.0656 155.2421 0.0000 0.0000 0.0000
# 4 0.0000 0.0000 0.0000 11.3833 0.0000 0.0000
# 5 0.0000 0.0000 0.0000 0.0000 19.7159 0.0000
# 6 0.0000 0.0000 0.0000 0.0000 0.0000 13.4300
#
#
#
# Elastic Compliance Matrix: (Units=1/GPa)
#
#
# Indices 1 2 3 4 5 6 
#
# 1 0.072319 -0.018486 -0.035560 0.000000 0.000000 0.000000
# 2 -0.018486 0.037310 0.000680 0.000000 0.000000 0.000000
# 3 -0.035560 0.000680 0.026097 0.000000 0.000000 0.000000
# 4 0.000000 0.000000 0.000000 0.087848 0.000000 0.000000
# 5 0.000000 0.000000 0.000000 0.000000 0.050721 0.000000
# 6 0.000000 0.000000 0.000000 0.000000 0.000000 0.074460
#
#
# Mechanical properties :
#
#
# Convention : Reuss Voigt Hill
#
# Bulk Modulus (GPa) = 34.48984 63.78304 49.13644
# Shear Modulus (GPa) = 10.74920 15.80960 13.27940
#
# Velocity S-wave (km/s) = 2.74258 3.32607 3.04832
# Velocity P-wave (km/s) = 5.84493 7.70600 6.83906
#
# Compressibility (1/GPa) = 0.02899405
#
# Stress axis : x y z
#
# Youngs Moduli (GPa) = 13.82766 26.80256 38.31853
#
# Poissons Ratio (x) = 0.49548 1.36260
# Poissons Ratio (y) = 0.25562 -0.02607
# Poissons Ratio (z) = 0.49171 -0.01824
#
# Static dielectric constant tensor:
#      x y z
#    x 1.474060 0.000000 0.000000 
#    y 0.000000 1.442620 0.000000 
#    z 0.000000 0.000000 1.478650 
# 
# From -- ./inp_files/17067.got.cif
#   From: 2010.05.17/outbox.cif.g08.bks.cpg/sg38_9_cif.got.tgz:17067.got - 2010.06.03 18:07:57.
