data_PCOD9355034
_publ_section_title
;
Structure prediction by ZEFSAII (Michael W. Deem and Ramdas Pophale) SiO2 
 PCOD9355034
Probable space group: C C C 2
;
_chemical_formula_sum "Si O2"
_cell_formula_units_Z 36
_cell_length_a 11.539180
_cell_length_b 9.975783
_cell_length_c 14.448510
_cell_angle_alpha 90.000000
_cell_angle_beta 90.000000
_cell_angle_gamma 90.000000
_cell_volume 1663.202022
_symmetry_space_group_name_H-M "C C C 2"
_symmetry_group_IT_number 37
_symmetry_cell_setting 'orthorhombic'
loop_
_space_group_symop_operation_xyz
x,y,z
-x,-y,z
-x,y,1/2+z
x,-y,1/2+z
1/2+x,1/2+y,z
1/2-x,1/2-y,z
1/2-x,1/2+y,1/2+z
1/2+x,1/2-y,1/2+z
loop_
_atom_site_type_symbol
_atom_site_label
_atom_site_fract_x
_atom_site_fract_y
_atom_site_fract_z
Si Si1 0.421926 0.175914 0.107870
Si Si2 0.250000 0.250000 0.363086
Si Si3 0.994225 0.347789 0.903068
Si Si4 0.884532 0.782091 0.732596
Si Si5 0.198679 0.069054 0.190564
O O1 0.543351 0.191187 0.161082
O O2 0.330425 0.071350 0.151969
O O3 0.365066 0.321006 0.127655
O O4 0.440716 0.151051 0.000495
O O5 0.138768 0.302810 0.417193
O O6 0.209322 0.132317 0.293196
O O7 0.000000 0.500000 0.865011
O O8 0.051641 0.246554 0.829688
O O9 0.750000 0.750000 0.744500
O O10 0.873952 0.934027 0.696459
#
# Coordination Sequence:
#
# PCOD9355034 Si02
#       5
#     8   4   8   8   8
#     4  10  25  45  68 102 146 188 232 312 365 440
#     4  10  22  48  72  94 148 190 226 320 362 418
#     4  12  27  45  72 110 146 189 251 309 370 452
#     4  12  26  43  74 104 134 201 242 298 378 446
#     4  10  22  50  69  94 149 189 243 304 370 438
#
# _framework density 21.644995999999999
#
# number of rings (size 3 to 8) (size 9 to 14) (size 15 to 20)
#    0.000    1.333    4.444    2.000    7.778    0.000 
#    8.000    0.000    0.000    0.000    0.000    0.000 
#    0.000    0.000    0.000    0.000    0.000    0.000 
#
# Total GULP energy -100542.934175 kJ/mol
# GULP energy per Si atom -5585.718565 kJ/mol
# Density = 2.159573 g / cm^3
# Si number density = 21.644996 Si / 1000 Ang^3
#
#
#
# Elastic Constant Matrix: (Units=GPa)
#
#
# Indices 1 2 3 4 5 6 
#
# 1 155.7675 62.4724 21.4107 0.0000 0.0000 0.0000
# 2 62.4724 118.5026 30.1356 0.0000 0.0000 0.0000
# 3 21.4107 30.1356 82.7965 0.0000 0.0000 0.0000
# 4 0.0000 0.0000 0.0000 13.7415 0.0000 0.0000
# 5 0.0000 0.0000 0.0000 0.0000 41.1011 0.0000
# 6 0.0000 0.0000 0.0000 0.0000 0.0000 24.0804
#
#
#
# Elastic Compliance Matrix: (Units=1/GPa)
#
#
# Indices 1 2 3 4 5 6 
#
# 1 0.008168 -0.004153 -0.000601 0.000000 0.000000 0.000000
# 2 -0.004153 0.011411 -0.003079 0.000000 0.000000 0.000000
# 3 -0.000601 -0.003079 0.013354 0.000000 0.000000 0.000000
# 4 0.000000 0.000000 0.000000 0.072772 0.000000 0.000000
# 5 0.000000 0.000000 0.000000 0.000000 0.024330 0.000000
# 6 0.000000 0.000000 0.000000 0.000000 0.000000 0.041528
#
#
# Mechanical properties :
#
#
# Convention : Reuss Voigt Hill
#
# Bulk Modulus (GPa) = 57.91452 65.01156 61.46304
# Shear Modulus (GPa) = 25.90870 31.98780 28.94825
#
# Velocity S-wave (km/s) = 3.46350 3.84844 3.66103
# Velocity P-wave (km/s) = 6.54286 7.06030 6.80650
#
# Compressibility (1/GPa) = 0.01726683
#
# Stress axis : x y z
#
# Youngs Moduli (GPa) = 122.42713 87.63239 74.88456
#
# Poissons Ratio (x) = 0.36397 0.04497
# Poissons Ratio (y) = 0.50849 0.23060
# Poissons Ratio (z) = 0.07352 0.26985
#
# Static dielectric constant tensor:
#      x y z
#    x 1.787730 0.000000 0.000000 
#    y 0.000000 1.877930 0.000000 
#    z 0.000000 0.000000 1.730550 
# 
# From -- ./inp_files/11260.got.cif
#   From: 2010.05.17/outbox.cif.g08.bks.cpg/sg37_6_cif.got.tgz:11260.got - 2010.06.03 17:53:42.
