data_PCOD9355386
_publ_section_title
;
Structure prediction by ZEFSAII (Michael W. Deem and Ramdas Pophale) SiO2 
 PCOD9355386
Probable space group: C C C 2
;
_chemical_formula_sum "Si O2"
_cell_formula_units_Z 40
_cell_length_a 14.378794
_cell_length_b 13.134438
_cell_length_c 8.405761
_cell_angle_alpha 90.000000
_cell_angle_beta 90.000000
_cell_angle_gamma 90.000000
_cell_volume 1587.489985
_symmetry_space_group_name_H-M "C C C 2"
_symmetry_group_IT_number 37
_symmetry_cell_setting 'orthorhombic'
loop_
_space_group_symop_operation_xyz
x,y,z
-x,-y,z
-x,y,1/2+z
x,-y,1/2+z
1/2+x,1/2+y,z
1/2-x,1/2-y,z
1/2-x,1/2+y,1/2+z
1/2+x,1/2-y,1/2+z
loop_
_atom_site_type_symbol
_atom_site_label
_atom_site_fract_x
_atom_site_fract_y
_atom_site_fract_z
Si Si1 0.953286 0.358961 0.809810
Si Si2 0.274397 0.897599 0.999399
Si Si3 0.000000 0.000000 0.078875
Si Si4 0.363464 0.104998 0.975896
Si Si5 0.404850 0.365643 0.320346
Si Si6 0.250000 0.250000 0.790254
O O1 0.880166 0.366630 0.955977
O O2 0.906063 0.399341 0.650783
O O3 0.957500 0.237948 0.779506
O O4 0.050471 0.409713 0.855405
O O5 0.202579 0.855652 0.868211
O O6 0.245179 0.845849 0.166872
O O7 0.282900 0.019666 0.979560
O O8 0.921222 0.948188 0.184844
O O9 0.046026 0.913646 0.973413
O O10 0.328057 0.214205 0.914837
#
# Coordination Sequence:
#
# PCOD9355386 Si02
#       6
#     8   8   4   8   8   4
#     4  12  26  51  77 115 160 211 265 339 407 489
#     4  12  27  49  78 116 164 208 270 341 412 496
#     4  10  26  44  74 106 148 208 266 322 396 484
#     4  12  30  48  85 117 164 214 277 337 420 489
#     4  11  25  46  74 109 157 204 263 332 401 482
#     4  12  28  50  78 118 164 222 266 348 414 504
#
# _framework density 25.197009000000001
#
# number of rings (size 3 to 8) (size 9 to 14) (size 15 to 20)
#    0.000    0.400    2.000    4.200   11.200    3.200 
#    0.000    0.000    0.000    0.000    0.000    0.000 
#    0.000    0.000    0.000    0.000    0.000    0.000 
#
# Total GULP energy -111915.578281 kJ/mol
# GULP energy per Si atom -5595.778914 kJ/mol
# Density = 2.513966 g / cm^3
# Si number density = 25.197009 Si / 1000 Ang^3
#
#
#
# Elastic Constant Matrix: (Units=GPa)
#
#
# Indices 1 2 3 4 5 6 
#
# 1 99.3719 31.0739 21.7659 0.0000 0.0000 0.0000
# 2 31.0739 95.0005 47.3928 0.0000 0.0000 0.0000
# 3 21.7659 47.3928 99.5498 0.0000 0.0000 0.0000
# 4 0.0000 0.0000 0.0000 4.7315 0.0000 0.0000
# 5 0.0000 0.0000 0.0000 0.0000 27.4948 0.0000
# 6 0.0000 0.0000 0.0000 0.0000 0.0000 50.6672
#
#
#
# Elastic Compliance Matrix: (Units=1/GPa)
#
#
# Indices 1 2 3 4 5 6 
#
# 1 0.011275 -0.003224 -0.000930 0.000000 0.000000 0.000000
# 2 -0.003224 0.014727 -0.006306 0.000000 0.000000 0.000000
# 3 -0.000930 -0.006306 0.013251 0.000000 0.000000 0.000000
# 4 0.000000 0.000000 0.000000 0.211350 0.000000 0.000000
# 5 0.000000 0.000000 0.000000 0.000000 0.036371 0.000000
# 6 0.000000 0.000000 0.000000 0.000000 0.000000 0.019737
#
#
# Mechanical properties :
#
#
# Convention : Reuss Voigt Hill
#
# Bulk Modulus (GPa) = 54.54983 54.93193 54.74088
# Shear Modulus (GPa) = 14.98169 29.49133 22.23651
#
# Velocity S-wave (km/s) = 2.44105 3.42487 2.97392
# Velocity P-wave (km/s) = 5.44438 6.12274 5.79350
#
# Compressibility (1/GPa) = 0.01833186
#
# Stress axis : x y z
#
# Youngs Moduli (GPa) = 88.69098 67.90411 75.46718
#
# Poissons Ratio (x) = 0.21891 0.07022
# Poissons Ratio (y) = 0.28592 0.47590
# Poissons Ratio (z) = 0.08252 0.42821
#
# Static dielectric constant tensor:
#      x y z
#    x 2.021830 0.000000 0.000000 
#    y 0.000000 2.017980 0.000000 
#    z 0.000000 0.000000 1.952290 
# 
# From -- ./inp_files/2764.got.cif
#   From: 2010.05.17/outbox.cif.g08.bks.cpg/sg37_2_cif.got.tgz:2764.got - 2010.06.03 17:53:42.
