data_PCOD9355862
_publ_section_title
;
Structure prediction by ZEFSAII (Michael W. Deem and Ramdas Pophale) SiO2 
 PCOD9355862
Probable space group: A M M 2
;
_chemical_formula_sum "Si O2"
_cell_formula_units_Z 64
_cell_length_a 7.413110
_cell_length_b 15.501970
_cell_length_c 28.244460
_cell_angle_alpha 90.000000
_cell_angle_beta 90.000000
_cell_angle_gamma 90.000000
_cell_volume 3245.791455
_symmetry_space_group_name_H-M "A M M 2"
_symmetry_group_IT_number 38
_symmetry_cell_setting 'orthorhombic'
loop_
_space_group_symop_operation_xyz
x,y,z
-x,-y,z
-x,y,z
x,-y,z
x,1/2+y,1/2+z
-x,1/2-y,1/2+z
-x,1/2+y,1/2+z
x,1/2-y,1/2+z
loop_
_atom_site_type_symbol
_atom_site_label
_atom_site_fract_x
_atom_site_fract_y
_atom_site_fract_z
Si Si1 0.780907 0.402561 0.903520
Si Si2 0.220834 0.277226 0.987362
Si Si3 0.215023 0.403170 0.068948
Si Si4 0.211996 0.224545 0.762674
Si Si5 0.219970 0.402899 0.342936
Si Si6 0.286286 0.403510 0.178962
Si Si7 0.219866 0.903960 0.294109
Si Si8 0.780237 0.096567 0.952198
O O1 0.725645 0.500000 0.917084
O O2 0.722530 0.331238 0.940945
O O3 0.728663 0.387582 0.849041
O O4 0.000000 0.401615 0.904099
O O5 0.279216 0.178156 0.982842
O O6 0.000000 0.276256 0.987537
O O7 0.282357 0.330409 0.033203
O O8 0.286271 0.500000 0.059344
O O9 0.245233 0.384340 0.124184
O O10 0.000000 0.407325 0.061678
O O11 0.287058 0.166905 0.805658
O O12 0.226510 0.170119 0.714846
O O13 0.282187 0.322244 0.763654
O O14 0.000000 0.232872 0.772877
O O15 0.274484 0.500000 0.329161
O O16 0.272559 0.388130 0.397357
O O17 0.000000 0.401570 0.342397
O O18 0.500000 0.408298 0.183711
O O19 0.212500 0.500000 0.189871
O O20 0.000000 0.907598 0.292942
O O21 0.282409 0.000000 0.280663
O O22 0.000000 0.095551 0.952818
O O23 0.721219 0.000000 0.965918
#
# Coordination Sequence:
#
# PCOD9355862 Si02
#       8
#     8   8   8   8   8   8   8   8
#     4   8  12  18  30  53  87 119 141 165 202 246
#     4   9  14  20  34  56  82 111 141 171 204 243
#     4   9  17  29  45  65  86 106 133 172 214 254
#     4  10  17  26  45  68  88 114 148 182 213 248
#     4   8  13  20  32  56  89 118 142 169 203 245
#     4  10  21  35  48  63  85 111 138 173 221 272
#     4   8  14  23  36  60  94 124 146 172 209 250
#     4   8  13  20  30  50  85 121 143 163 198 243
#
# _framework density 19.717839999999999
#
# number of rings (size 3 to 8) (size 9 to 14) (size 15 to 20)
#    0.000    3.250    0.000    3.375    0.000    5.750 
#    0.000    0.000    0.000    1.125    0.000    7.000 
#    0.000    2.000    0.000    0.000    0.000    0.000 
#
# Total GULP energy -178467.610508 kJ/mol
# GULP energy per Si atom -5577.112828 kJ/mol
# Density = 1.967296 g / cm^3
# Si number density = 19.717840 Si / 1000 Ang^3
#
#
#
# Elastic Constant Matrix: (Units=GPa)
#
#
# Indices 1 2 3 4 5 6 
#
# 1 62.1563 6.0612 -4.3930 0.0000 0.0000 0.0000
# 2 6.0612 216.0474 110.3661 0.0000 0.0000 0.0000
# 3 -4.3930 110.3661 80.2460 0.0000 0.0000 0.0000
# 4 0.0000 0.0000 0.0000 31.8807 0.0000 0.0000
# 5 0.0000 0.0000 0.0000 0.0000 -234.6244 0.0000
# 6 0.0000 0.0000 0.0000 0.0000 0.0000 -11.0918
#
#
#
# Elastic Compliance Matrix: (Units=1/GPa)
#
#
# Indices 1 2 3 4 5 6 
#
# 1 0.016768 -0.003158 0.005262 0.000000 0.000000 0.000000
# 2 -0.003158 0.016158 -0.022395 0.000000 0.000000 0.000000
# 3 0.005262 -0.022395 0.043551 0.000000 0.000000 0.000000
# 4 0.000000 0.000000 0.000000 0.031367 0.000000 0.000000
# 5 0.000000 0.000000 0.000000 0.000000 -0.004262 0.000000
# 6 0.000000 0.000000 0.000000 0.000000 0.000000 -0.090157
#
#
# Mechanical properties :
#
#
# Convention : Reuss Voigt Hill
#
# Bulk Modulus (GPa) = 27.86022 64.72427 46.29224
# Shear Modulus (GPa) = 75.78739 -26.33942 24.72398
#
# Velocity S-wave (km/s) = 6.20640 -3.65885 3.54487
# Velocity P-wave (km/s) = 8.09440 3.87904 6.34690
#
# Compressibility (1/GPa) = 0.03589348
#
# Stress axis : x y z
#
# Youngs Moduli (GPa) = 59.63610 61.88972 22.96143
#
# Poissons Ratio (x) = 0.19548 -0.12082
# Poissons Ratio (y) = 0.18836 0.51423
# Poissons Ratio (z) = -0.31380 1.38605
#
# Static dielectric constant tensor:
#      x y z
#    x 1.753630 0.000000 0.000000 
#    y 0.000000 1.717320 0.000000 
#    z 0.000000 0.000000 1.656990 
# 
# From -- ./inp_files/24799.got.cif
#   From: 2010.05.17/outbox.cif.g08.bks.cpg/sg38_13_cif.got.tgz:24799.got - 2010.06.03 18:07:57.
