data_PCOD9355422
_publ_section_title
;
Structure prediction by ZEFSAII (Michael W. Deem and Ramdas Pophale) SiO2 
 PCOD9355422
Probable space group: C C C 2
;
_chemical_formula_sum "Si O2"
_cell_formula_units_Z 48
_cell_length_a 7.274310
_cell_length_b 26.122871
_cell_length_c 10.707880
_cell_angle_alpha 90.000000
_cell_angle_beta 90.000000
_cell_angle_gamma 90.000000
_cell_volume 2034.774124
_symmetry_space_group_name_H-M "C C C 2"
_symmetry_group_IT_number 37
_symmetry_cell_setting 'orthorhombic'
loop_
_space_group_symop_operation_xyz
x,y,z
-x,-y,z
-x,y,1/2+z
x,-y,1/2+z
1/2+x,1/2+y,z
1/2-x,1/2-y,z
1/2-x,1/2+y,1/2+z
1/2+x,1/2-y,1/2+z
loop_
_atom_site_type_symbol
_atom_site_label
_atom_site_fract_x
_atom_site_fract_y
_atom_site_fract_z
Si Si1 0.021720 0.634028 0.730570
Si Si2 0.919885 0.789272 0.046681
Si Si3 0.221822 0.503725 0.571390
Si Si4 0.308431 0.114954 0.976179
Si Si5 0.194433 0.467922 0.324583
Si Si6 0.529221 0.250198 0.297631
O O1 0.026399 0.627377 0.578821
O O2 0.163204 0.589584 0.774062
O O3 0.861406 0.620376 0.830695
O O4 0.047262 0.694184 0.760228
O O5 0.750000 0.750000 0.057059
O O6 0.843635 0.843781 0.008508
O O7 0.041168 0.768180 0.932396
O O8 0.000437 0.788745 0.183981
O O9 0.255535 0.558511 0.508897
O O10 0.277907 0.465270 0.462622
O O11 0.293341 0.502256 0.712002
O O12 0.000000 0.500000 0.590619
O O13 0.000000 0.500000 0.342038
O O14 0.750000 0.250000 0.309816
#
# Coordination Sequence:
#
# PCOD9355422 Si02
#       6
#     8   8   8   8   8   8
#     4  11  18  31  51  77 110 151 183 226 283 346
#     4  11  22  39  56  79 112 155 187 243 291 334
#     4   9  16  26  44  73 112 148 168 225 285 345
#     4  11  20  33  52  78 117 153 185 229 298 342
#     4   9  16  24  42  70 108 143 168 218 282 335
#     4  11  22  38  57  78 110 153 198 237 284 344
#
# _framework density 23.589842000000001
#
# number of rings (size 3 to 8) (size 9 to 14) (size 15 to 20)
#    0.000    1.667    8.333    0.000    0.000    0.667 
#    3.000    0.000    0.000    0.000    0.000    0.000 
#    0.000   90.667    0.000    0.000    0.000    0.000 
#
# Total GULP energy -133648.918452 kJ/mol
# GULP energy per Si atom -5568.704936 kJ/mol
# Density = 2.353615 g / cm^3
# Si number density = 23.589842 Si / 1000 Ang^3
#
#
#
# Elastic Constant Matrix: (Units=GPa)
#
#
# Indices 1 2 3 4 5 6 
#
# 1 48.9544 5.8690 22.4557 0.0000 0.0000 0.0000
# 2 5.8690 87.5206 -10.7750 0.0000 0.0000 0.0000
# 3 22.4557 -10.7750 134.4340 0.0000 0.0000 0.0000
# 4 0.0000 0.0000 0.0000 29.8651 0.0000 0.0000
# 5 0.0000 0.0000 0.0000 0.0000 0.2738 0.0000
# 6 0.0000 0.0000 0.0000 0.0000 0.0000 8.9740
#
#
#
# Elastic Compliance Matrix: (Units=1/GPa)
#
#
# Indices 1 2 3 4 5 6 
#
# 1 0.022459 -0.001988 -0.003911 0.000000 0.000000 0.000000
# 2 -0.001988 0.011716 0.001271 0.000000 0.000000 0.000000
# 3 -0.003911 0.001271 0.008194 0.000000 0.000000 0.000000
# 4 0.000000 0.000000 0.000000 0.033484 0.000000 0.000000
# 5 0.000000 0.000000 0.000000 0.000000 3.651840 0.000000
# 6 0.000000 0.000000 0.000000 0.000000 0.000000 0.111433
#
#
# Mechanical properties :
#
#
# Convention : Reuss Voigt Hill
#
# Bulk Modulus (GPa) = 30.19881 34.00094 32.09987
# Shear Modulus (GPa) = 1.29553 24.71319 13.00436
#
# Velocity S-wave (km/s) = 0.74188 3.24021 2.35046
# Velocity P-wave (km/s) = 3.68283 5.33322 4.58293
#
# Compressibility (1/GPa) = 0.03311389
#
# Stress axis : x y z
#
# Youngs Moduli (GPa) = 44.52474 85.35591 122.04437
#
# Poissons Ratio (x) = 0.16965 0.47730
# Poissons Ratio (y) = 0.08850 -0.15512
# Poissons Ratio (z) = 0.17413 -0.10849
#
# Static dielectric constant tensor:
#      x y z
#    x 2.018960 0.000000 0.000000 
#    y 0.000000 1.881800 0.000000 
#    z 0.000000 0.000000 2.038860 
# 
# From -- ./inp_files/6458.got.cif
#   From: 2010.05.17/outbox.cif.g08.bks.cpg/sg37_4_cif.got.tgz:6458.got - 2010.06.03 17:53:42.
