data_PCOD9355358
_publ_section_title
;
Structure prediction by ZEFSAII (Michael W. Deem and Ramdas Pophale) SiO2 
 PCOD9355358
Probable space group: C C C 2
;
_chemical_formula_sum "Si O2"
_cell_formula_units_Z 52
_cell_length_a 5.013565
_cell_length_b 20.744948
_cell_length_c 20.654903
_cell_angle_alpha 90.000000
_cell_angle_beta 90.000000
_cell_angle_gamma 90.000000
_cell_volume 2148.236841
_symmetry_space_group_name_H-M "C C C 2"
_symmetry_group_IT_number 37
_symmetry_cell_setting 'orthorhombic'
loop_
_space_group_symop_operation_xyz
x,y,z
-x,-y,z
-x,y,1/2+z
x,-y,1/2+z
1/2+x,1/2+y,z
1/2-x,1/2-y,z
1/2-x,1/2+y,1/2+z
1/2+x,1/2-y,1/2+z
loop_
_atom_site_type_symbol
_atom_site_label
_atom_site_fract_x
_atom_site_fract_y
_atom_site_fract_z
Si Si1 0.988909 0.706735 0.365680
Si Si2 0.608398 0.567165 0.953923
Si Si3 0.918801 0.371266 0.639287
Si Si4 0.424557 0.315289 0.706718
Si Si5 0.500000 0.000000 0.211783
Si Si6 0.203835 0.092924 0.808964
Si Si7 0.895328 0.634579 0.493480
O O1 0.250000 0.750000 0.362664
O O2 0.048620 0.639752 0.329218
O O3 0.941645 0.690196 0.441074
O O4 0.750000 0.750000 0.339496
O O5 0.500000 0.500000 0.978167
O O6 0.572598 0.572862 0.876577
O O7 0.920206 0.576872 0.965719
O O8 0.417847 0.618794 0.989360
O O9 0.694857 0.322010 0.665674
O O10 0.867522 0.444702 0.665339
O O11 0.978682 0.358707 0.564034
O O12 0.204335 0.356761 0.669745
O O13 0.250000 0.250000 0.717888
O O14 0.479668 0.357198 0.770384
O O15 0.701324 0.035822 0.261963
#
# Coordination Sequence:
#
# PCOD9355358 Si02
#       7
#     8   8   8   8   4   8   8
#     4  11  24  43  71 104 142 185 236 302 366 430
#     4  11  25  40  72  98 140 181 225 290 362 431
#     4  11  26  46  70 102 143 193 246 298 363 437
#     4  11  25  45  71 103 139 193 246 298 358 428
#     4  10  26  44  72 102 152 196 240 300 368 458
#     4  10  25  43  70 108 146 188 237 297 370 441
#     4  11  25  46  65 106 135 183 243 290 364 425
#
# _framework density 24.205898999999999
#
# number of rings (size 3 to 8) (size 9 to 14) (size 15 to 20)
#    0.000    1.231    0.000    4.154    8.615   11.077 
#    0.000    0.000    0.000    0.000    0.000    0.000 
#    0.000    0.000    0.000    0.000    0.000    0.000 
#
# Total GULP energy -145221.741534 kJ/mol
# GULP energy per Si atom -5585.451597 kJ/mol
# Density = 2.415081 g / cm^3
# Si number density = 24.205899 Si / 1000 Ang^3
#
#
#
# Elastic Constant Matrix: (Units=GPa)
#
#
# Indices 1 2 3 4 5 6 
#
# 1 111.0951 17.7686 -2.0693 0.0000 0.0000 0.0000
# 2 17.7686 70.5443 11.6463 0.0000 0.0000 0.0000
# 3 -2.0693 11.6463 90.7795 0.0000 0.0000 0.0000
# 4 0.0000 0.0000 0.0000 21.8652 0.0000 0.0000
# 5 0.0000 0.0000 0.0000 0.0000 38.3096 0.0000
# 6 0.0000 0.0000 0.0000 0.0000 0.0000 31.7133
#
#
#
# Elastic Compliance Matrix: (Units=1/GPa)
#
#
# Indices 1 2 3 4 5 6 
#
# 1 0.009404 -0.002456 0.000529 0.000000 0.000000 0.000000
# 2 -0.002456 0.015124 -0.001996 0.000000 0.000000 0.000000
# 3 0.000529 -0.001996 0.011284 0.000000 0.000000 0.000000
# 4 0.000000 0.000000 0.000000 0.045735 0.000000 0.000000
# 5 0.000000 0.000000 0.000000 0.000000 0.026103 0.000000
# 6 0.000000 0.000000 0.000000 0.000000 0.000000 0.031533
#
#
# Mechanical properties :
#
#
# Convention : Reuss Voigt Hill
#
# Bulk Modulus (GPa) = 35.75791 36.34556 36.05174
# Shear Modulus (GPa) = 31.97960 34.71584 33.34772
#
# Velocity S-wave (km/s) = 3.63870 3.79118 3.71572
# Velocity P-wave (km/s) = 5.69719 5.84909 5.77364
#
# Compressibility (1/GPa) = 0.02796584
#
# Stress axis : x y z
#
# Youngs Moduli (GPa) = 106.33787 66.12145 88.62204
#
# Poissons Ratio (x) = 0.16240 -0.04692
# Poissons Ratio (y) = 0.26117 0.17691
# Poissons Ratio (z) = -0.05630 0.13199
#
# Static dielectric constant tensor:
#      x y z
#    x 1.900960 0.000000 0.000000 
#    y 0.000000 1.985210 0.000000 
#    z 0.000000 0.000000 2.042550 
# 
# From -- ./inp_files/15844.got.cif
#   From: 2010.05.17/outbox.cif.g08.bks.cpg/sg37_8_cif.got.tgz:15844.got - 2010.06.03 17:53:42.
