data_PCOD9355438
_publ_section_title
;
Structure prediction by ZEFSAII (Michael W. Deem and Ramdas Pophale) SiO2 
 PCOD9355438
Probable space group: C C C 2
;
_chemical_formula_sum "Si O2"
_cell_formula_units_Z 64
_cell_length_a 25.736436
_cell_length_b 5.077879
_cell_length_c 21.273214
_cell_angle_alpha 90.000000
_cell_angle_beta 90.000000
_cell_angle_gamma 90.000000
_cell_volume 2780.122049
_symmetry_space_group_name_H-M "C C C 2"
_symmetry_group_IT_number 37
_symmetry_cell_setting 'orthorhombic'
loop_
_space_group_symop_operation_xyz
x,y,z
-x,-y,z
-x,y,1/2+z
x,-y,1/2+z
1/2+x,1/2+y,z
1/2-x,1/2-y,z
1/2-x,1/2+y,1/2+z
1/2+x,1/2-y,1/2+z
loop_
_atom_site_type_symbol
_atom_site_label
_atom_site_fract_x
_atom_site_fract_y
_atom_site_fract_z
Si Si1 0.115062 0.532560 0.346650
Si Si2 0.715343 0.515716 0.521750
Si Si3 0.307310 0.293899 0.257275
Si Si4 0.441002 0.890930 0.968001
Si Si5 0.198776 0.920082 0.387585
Si Si6 0.058114 0.516766 0.731873
Si Si7 0.403510 0.605655 0.543573
Si Si8 0.601355 0.487271 0.182806
O O1 0.157022 0.427031 0.293780
O O2 0.089730 0.358937 0.401694
O O3 0.146067 0.754726 0.384231
O O4 0.067724 0.603871 0.301041
O O5 0.750000 0.250000 0.524399
O O6 0.700962 0.599113 0.449195
O O7 0.658042 0.461653 0.547378
O O8 0.750000 0.750000 0.549540
O O9 0.250000 0.250000 0.230599
O O10 0.296345 0.462593 0.319178
O O11 0.340581 0.438129 0.203993
O O12 0.500000 0.000000 0.958673
O O13 0.413226 0.115161 0.010642
O O14 0.434685 0.617309 0.005069
O O15 0.250000 0.750000 0.395328
O O16 0.071267 0.825773 0.732413
O O17 0.000000 0.500000 0.710098
O O18 0.092059 0.323011 0.688340
O O19 0.418597 0.593206 0.616482
#
# Coordination Sequence:
#
# PCOD9355438 Si02
#       8
#     8   8   8   8   8   8   8   8
#     4  11  23  41  65 102 135 168 213 280 344 406
#     4  11  24  40  66  99 134 176 218 264 332 406
#     4  11  22  39  65  98 137 175 217 267 336 405
#     4  12  27  46  71 100 134 178 228 289 346 398
#     4  11  20  35  64  94 133 167 213 261 332 404
#     4  11  24  44  69  95 129 171 221 279 335 393
#     4  12  26  47  68  96 137 181 229 281 330 399
#     4  11  26  44  67  96 131 177 228 274 326 390
#
# _framework density 23.020571
#
# number of rings (size 3 to 8) (size 9 to 14) (size 15 to 20)
#    0.000    0.750    3.750    3.750    3.500    3.500 
#    0.000    4.375    0.000    0.000    0.000    0.000 
#    0.000    0.000    0.000    0.000    0.000    0.000 
#
# Total GULP energy -178456.050003 kJ/mol
# GULP energy per Si atom -5576.751563 kJ/mol
# Density = 2.296818 g / cm^3
# Si number density = 23.020571 Si / 1000 Ang^3
#
#
#
# Elastic Constant Matrix: (Units=GPa)
#
#
# Indices 1 2 3 4 5 6 
#
# 1 102.3403 13.7025 -9.3133 0.0000 0.0000 0.0000
# 2 13.7025 81.0329 3.4605 0.0000 0.0000 0.0000
# 3 -9.3133 3.4605 62.1036 0.0000 0.0000 0.0000
# 4 0.0000 0.0000 0.0000 -131.0140 0.0000 0.0000
# 5 0.0000 0.0000 0.0000 0.0000 46.9414 0.0000
# 6 0.0000 0.0000 0.0000 0.0000 0.0000 31.3312
#
#
#
# Elastic Compliance Matrix: (Units=1/GPa)
#
#
# Indices 1 2 3 4 5 6 
#
# 1 0.010158 -0.001787 0.001623 0.000000 0.000000 0.000000
# 2 -0.001787 0.012684 -0.000975 0.000000 0.000000 0.000000
# 3 0.001623 -0.000975 0.016400 0.000000 0.000000 0.000000
# 4 0.000000 0.000000 0.000000 -0.007633 0.000000 0.000000
# 5 0.000000 0.000000 0.000000 0.000000 0.021303 0.000000
# 6 0.000000 0.000000 0.000000 0.000000 0.000000 0.031917
#
#
# Mechanical properties :
#
#
# Convention : Reuss Voigt Hill
#
# Bulk Modulus (GPa) = 27.05278 29.01960 28.03619
# Shear Modulus (GPa) = 50.28688 5.29352 27.79020
#
# Velocity S-wave (km/s) = 4.67886 1.51805 3.47823
# Velocity P-wave (km/s) = 6.40047 3.96307 5.32316
#
# Compressibility (1/GPa) = 0.03696478
#
# Stress axis : x y z
#
# Youngs Moduli (GPa) = 98.44180 78.83646 60.97624
#
# Poissons Ratio (x) = 0.14089 -0.09896
# Poissons Ratio (y) = 0.17592 0.05944
# Poissons Ratio (z) = -0.15977 0.07685
#
# Static dielectric constant tensor:
#      x y z
#    x 1.606970 0.000000 0.000000 
#    y 0.000000 2.338100 0.000000 
#    z 0.000000 0.000000 1.845150 
# 
# From -- ./inp_files/19108.got.cif
#   From: 2010.05.17/outbox.cif.g08.bks.cpg/sg37_10_cif.got.tgz:19108.got - 2010.06.03 17:53:42.
