data_PCOD9355289
_publ_section_title
;
Structure prediction by ZEFSAII (Michael W. Deem and Ramdas Pophale) SiO2 
 PCOD9355289
Probable space group: C C C 2
;
_chemical_formula_sum "Si O2"
_cell_formula_units_Z 32
_cell_length_a 25.081068
_cell_length_b 5.006729
_cell_length_c 9.631695
_cell_angle_alpha 90.000000
_cell_angle_beta 90.000000
_cell_angle_gamma 90.000000
_cell_volume 1209.491532
_symmetry_space_group_name_H-M "C C C 2"
_symmetry_group_IT_number 37
_symmetry_cell_setting 'orthorhombic'
loop_
_space_group_symop_operation_xyz
x,y,z
-x,-y,z
-x,y,1/2+z
x,-y,1/2+z
1/2+x,1/2+y,z
1/2-x,1/2-y,z
1/2-x,1/2+y,1/2+z
1/2+x,1/2-y,1/2+z
loop_
_atom_site_type_symbol
_atom_site_label
_atom_site_fract_x
_atom_site_fract_y
_atom_site_fract_z
Si Si1 0.940710 0.453075 0.484430
Si Si2 0.355130 0.318227 0.368131
Si Si3 0.442387 0.449686 0.680860
Si Si4 0.215727 0.016057 0.118231
O O1 0.889273 0.550047 0.397087
O O2 0.937377 0.168764 0.558945
O O3 0.000000 0.500000 0.419732
O O4 0.940193 0.663597 0.611467
O O5 0.398588 0.505981 0.295803
O O6 0.309087 0.331698 0.251521
O O7 0.500000 0.500000 0.245237
O O8 0.329230 0.416047 0.511233
O O9 0.250000 0.250000 0.045645
O O10 0.250000 0.750000 0.152829
#
# Coordination Sequence:
#
# PCOD9355289 Si02
#       4
#     8   8   8   8
#     4  10  24  45  74 116 156 200 253 314 394 490
#     4  12  26  52  85 111 163 209 267 330 418 464
#     4  10  24  45  74 114 157 199 252 314 395 488
#     4  12  30  52  78 119 157 210 281 343 397 470
#
# _framework density 26.457398000000001
#
# number of rings (size 3 to 8) (size 9 to 14) (size 15 to 20)
#    0.000    1.000    2.500    1.500    3.500   12.000 
#    0.000    0.000    0.000    0.000    0.000    0.000 
#    0.000    0.000    0.000    0.000    0.000    0.000 
#
# Total GULP energy -89694.241393 kJ/mol
# GULP energy per Si atom -5605.890087 kJ/mol
# Density = 2.639718 g / cm^3
# Si number density = 26.457398 Si / 1000 Ang^3
#
#
#
# Elastic Constant Matrix: (Units=GPa)
#
#
# Indices 1 2 3 4 5 6 
#
# 1 175.8557 30.9465 49.0233 0.0000 0.0000 0.0000
# 2 30.9465 95.5930 37.5792 0.0000 0.0000 0.0000
# 3 49.0233 37.5792 123.7071 0.0000 0.0000 0.0000
# 4 0.0000 0.0000 0.0000 53.1305 0.0000 0.0000
# 5 0.0000 0.0000 0.0000 0.0000 12.1288 0.0000
# 6 0.0000 0.0000 0.0000 0.0000 0.0000 48.4609
#
#
#
# Elastic Compliance Matrix: (Units=1/GPa)
#
#
# Indices 1 2 3 4 5 6 
#
# 1 0.006520 -0.001244 -0.002206 0.000000 0.000000 0.000000
# 2 -0.001244 0.012117 -0.003188 0.000000 0.000000 0.000000
# 3 -0.002206 -0.003188 0.009926 0.000000 0.000000 0.000000
# 4 0.000000 0.000000 0.000000 0.018822 0.000000 0.000000
# 5 0.000000 0.000000 0.000000 0.000000 0.082449 0.000000
# 6 0.000000 0.000000 0.000000 0.000000 0.000000 0.020635
#
#
# Mechanical properties :
#
#
# Convention : Reuss Voigt Hill
#
# Bulk Modulus (GPa) = 65.41048 70.02821 67.71934
# Shear Modulus (GPa) = 29.61378 41.25114 35.43246
#
# Velocity S-wave (km/s) = 3.34922 3.95290 3.66352
# Velocity P-wave (km/s) = 6.30341 6.88183 6.59896
#
# Compressibility (1/GPa) = 0.01528807
#
# Stress axis : x y z
#
# Youngs Moduli (GPa) = 153.36649 82.52971 100.74236
#
# Poissons Ratio (x) = 0.10263 0.22225
# Poissons Ratio (y) = 0.19072 0.32117
# Poissons Ratio (z) = 0.33835 0.26310
#
# Static dielectric constant tensor:
#      x y z
#    x 2.245020 0.000000 0.000000 
#    y 0.000000 2.047570 0.000000 
#    z 0.000000 0.000000 2.059930 
# 
# From -- ./inp_files/8475.got.cif
#   From: 2010.05.17/outbox.cif.g08.bks.cpg/sg37_5_cif.got.tgz:8475.got - 2010.06.03 17:53:42.
