data_PCOD9355908
_publ_section_title
;
Structure prediction by ZEFSAII (Michael W. Deem and Ramdas Pophale) SiO2 
 PCOD9355908
Probable space group: A M M 2
;
_chemical_formula_sum "Si O2"
_cell_formula_units_Z 64
_cell_length_a 7.508240
_cell_length_b 31.153007
_cell_length_c 15.232530
_cell_angle_alpha 90.000000
_cell_angle_beta 90.000000
_cell_angle_gamma 90.000000
_cell_volume 3562.953555
_symmetry_space_group_name_H-M "A M M 2"
_symmetry_group_IT_number 38
_symmetry_cell_setting 'orthorhombic'
loop_
_space_group_symop_operation_xyz
x,y,z
-x,-y,z
-x,y,z
x,-y,z
x,1/2+y,1/2+z
-x,1/2-y,1/2+z
-x,1/2+y,1/2+z
x,1/2-y,1/2+z
loop_
_atom_site_type_symbol
_atom_site_label
_atom_site_fract_x
_atom_site_fract_y
_atom_site_fract_z
Si Si1 0.214249 0.048316 0.647300
Si Si2 0.780452 0.707365 0.561381
Si Si3 0.205385 0.868457 0.939139
Si Si4 0.793160 0.279100 0.756604
Si Si5 0.284498 0.679031 0.260053
Si Si6 0.793163 0.289464 0.948241
Si Si7 0.708685 0.362375 0.078594
Si Si8 0.782254 0.048842 0.848438
O O1 0.266264 0.086585 0.582714
O O2 0.275106 0.057890 0.747624
O O3 0.000000 0.047463 0.649869
O O4 0.274838 0.000000 0.624852
O O5 0.719882 0.664944 0.509599
O O6 0.718249 0.707353 0.662083
O O7 0.721644 0.750386 0.508719
O O8 0.000000 0.708350 0.561803
O O9 0.212440 0.843908 0.846233
O O10 0.283224 0.915051 0.915646
O O11 0.000000 0.875394 0.964881
O O12 0.780151 0.227650 0.757574
O O13 0.000000 0.292897 0.755090
O O14 0.713911 0.293038 0.850492
O O15 0.500000 0.678196 0.263819
O O16 0.222265 0.655549 0.171664
O O17 0.786303 0.333969 0.000665
O O18 0.000000 0.277821 0.934455
O O19 0.500000 0.353273 0.076165
O O20 0.000000 0.050556 0.847837
O O21 0.731516 0.000000 0.869345
#
# Coordination Sequence:
#
# PCOD9355908 Si02
#       8
#     8   8   8   8   8   8   8   8
#     4   9  17  30  49  71  93 120 155 193 232 275
#     4   9  17  28  46  70  88 113 157 197 230 271
#     4  10  17  29  48  67  90 123 158 188 223 272
#     4  10  19  33  48  64  89 119 157 198 232 271
#     4  11  21  29  41  65  95 123 153 187 229 271
#     4  10  19  31  49  67  86 119 160 195 232 275
#     4  11  22  32  44  67  98 129 158 188 231 276
#     4   8  14  24  42  68  93 117 148 187 226 267
#
# _framework density 17.962626
#
# number of rings (size 3 to 8) (size 9 to 14) (size 15 to 20)
#    0.000    2.250    3.750    1.500    0.000    1.750 
#    0.000    0.625    0.000    0.375    0.000    0.875 
#    0.000    5.000    0.000    0.000    0.000    0.125 
#
# Total GULP energy -178448.916970 kJ/mol
# GULP energy per Si atom -5576.528655 kJ/mol
# Density = 1.792174 g / cm^3
# Si number density = 17.962626 Si / 1000 Ang^3
#
#
#
# Elastic Constant Matrix: (Units=GPa)
#
#
# Indices 1 2 3 4 5 6 
#
# 1 50.2310 -10.0956 2.0714 0.0000 0.0000 0.0000
# 2 -10.0956 127.3006 70.2979 0.0000 0.0000 0.0000
# 3 2.0714 70.2979 139.8907 0.0000 0.0000 0.0000
# 4 0.0000 0.0000 0.0000 21.5003 0.0000 0.0000
# 5 0.0000 0.0000 0.0000 0.0000 -5.6921 0.0000
# 6 0.0000 0.0000 0.0000 0.0000 0.0000 3481.6541
#
#
#
# Elastic Compliance Matrix: (Units=1/GPa)
#
#
# Indices 1 2 3 4 5 6 
#
# 1 0.020470 0.002479 -0.001549 0.000000 0.000000 0.000000
# 2 0.002479 0.011173 -0.005651 0.000000 0.000000 0.000000
# 3 -0.001549 -0.005651 0.010011 0.000000 0.000000 0.000000
# 4 0.000000 0.000000 0.000000 0.046511 0.000000 0.000000
# 5 0.000000 0.000000 0.000000 0.000000 -0.175681 0.000000
# 6 0.000000 0.000000 0.000000 0.000000 0.000000 0.000287
#
#
# Mechanical properties :
#
#
# Convention : Reuss Voigt Hill
#
# Bulk Modulus (GPa) = 31.04491 49.10774 40.07632
# Shear Modulus (GPa) = -74.57270 716.50236 320.96483
#
# Velocity S-wave (km/s) = -6.45024 19.99377 13.38181
# Velocity P-wave (km/s) = 6.17686 23.67276 16.15930
#
# Compressibility (1/GPa) = 0.03221140
#
# Stress axis : x y z
#
# Youngs Moduli (GPa) = 48.85190 89.50382 99.88789
#
# Poissons Ratio (x) = -0.22184 0.15469
# Poissons Ratio (y) = -0.12108 0.56449
# Poissons Ratio (z) = 0.07565 0.50581
#
# Static dielectric constant tensor:
#      x y z
#    x 1.675920 0.000000 0.000000 
#    y 0.000000 1.620630 0.000000 
#    z 0.000000 0.000000 1.620800 
# 
# From -- ./inp_files/13045.got.cif
#   From: 2010.05.17/outbox.cif.g08.bks.cpg/sg38_7_cif.got.tgz:13045.got - 2010.06.03 18:07:57.
