data_PCOD9355351
_publ_section_title
;
Structure prediction by ZEFSAII (Michael W. Deem and Ramdas Pophale) SiO2 
 PCOD9355351
Probable space group: C C C 2
;
_chemical_formula_sum "Si O2"
_cell_formula_units_Z 48
_cell_length_a 11.897115
_cell_length_b 14.097661
_cell_length_c 13.472953
_cell_angle_alpha 90.000000
_cell_angle_beta 90.000000
_cell_angle_gamma 90.000000
_cell_volume 2259.703808
_symmetry_space_group_name_H-M "C C C 2"
_symmetry_group_IT_number 37
_symmetry_cell_setting 'orthorhombic'
loop_
_space_group_symop_operation_xyz
x,y,z
-x,-y,z
-x,y,1/2+z
x,-y,1/2+z
1/2+x,1/2+y,z
1/2-x,1/2-y,z
1/2-x,1/2+y,1/2+z
1/2+x,1/2-y,1/2+z
loop_
_atom_site_type_symbol
_atom_site_label
_atom_site_fract_x
_atom_site_fract_y
_atom_site_fract_z
Si Si1 0.790384 0.892122 0.682680
Si Si2 0.017335 0.605722 0.829636
Si Si3 0.106343 0.941818 0.569321
Si Si4 0.226955 0.360974 0.908449
Si Si5 0.422313 0.092420 0.534298
Si Si6 0.996303 0.243658 0.155289
O O1 0.767530 0.888135 0.798510
O O2 0.681853 0.899890 0.610981
O O3 0.872223 0.802580 0.664877
O O4 0.855760 0.986806 0.654526
O O5 0.904818 0.622225 0.893757
O O6 0.027480 0.691029 0.750860
O O7 0.000000 0.500000 0.783659
O O8 0.109869 0.599323 0.917449
O O9 0.205014 0.920006 0.490777
O O10 0.072854 0.844034 0.622863
O O11 0.000000 0.000000 0.522077
O O12 0.250000 0.250000 0.926380
O O13 0.493419 0.183764 0.565442
O O14 0.500000 0.000000 0.549012
#
# Coordination Sequence:
#
# PCOD9355351 Si02
#       6
#     8   8   8   8   8   8
#     4  11  23  44  66  94 134 181 212 272 339 402
#     4  11  23  40  70  99 130 175 224 276 335 396
#     4  10  25  42  65 100 138 169 224 282 325 393
#     4  12  22  44  70  96 131 184 222 268 346 399
#     4  11  22  40  69  97 133 168 227 275 327 399
#     4  11  22  42  66  98 129 176 223 268 335 396
#
# _framework density 21.241720999999998
#
# number of rings (size 3 to 8) (size 9 to 14) (size 15 to 20)
#    0.000    1.000    3.333    4.000    0.000    2.000 
#    3.000    0.000    0.000    0.000    0.000    0.000 
#    0.000    0.000    0.000    0.000    0.000    0.000 
#
# Total GULP energy -133921.413079 kJ/mol
# GULP energy per Si atom -5580.058878 kJ/mol
# Density = 2.119337 g / cm^3
# Si number density = 21.241721 Si / 1000 Ang^3
#
#
#
# Elastic Constant Matrix: (Units=GPa)
#
#
# Indices 1 2 3 4 5 6 
#
# 1 37.3388 16.0084 17.1947 0.0000 0.0000 0.0000
# 2 16.0084 153.0807 53.6053 0.0000 0.0000 0.0000
# 3 17.1947 53.6053 127.3130 0.0000 0.0000 0.0000
# 4 0.0000 0.0000 0.0000 50.9244 0.0000 0.0000
# 5 0.0000 0.0000 0.0000 0.0000 27.9538 0.0000
# 6 0.0000 0.0000 0.0000 0.0000 0.0000 24.2006
#
#
#
# Elastic Compliance Matrix: (Units=1/GPa)
#
#
# Indices 1 2 3 4 5 6 
#
# 1 0.029047 -0.001952 -0.003101 0.000000 0.000000 0.000000
# 2 -0.001952 0.007793 -0.003018 0.000000 0.000000 0.000000
# 3 -0.003101 -0.003018 0.009544 0.000000 0.000000 0.000000
# 4 0.000000 0.000000 0.000000 0.019637 0.000000 0.000000
# 5 0.000000 0.000000 0.000000 0.000000 0.035773 0.000000
# 6 0.000000 0.000000 0.000000 0.000000 0.000000 0.041321
#
#
# Mechanical properties :
#
#
# Convention : Reuss Voigt Hill
#
# Bulk Modulus (GPa) = 33.06566 54.59437 43.83002
# Shear Modulus (GPa) = 29.52675 36.01072 32.76874
#
# Velocity S-wave (km/s) = 3.73236 4.12185 3.93193
# Velocity P-wave (km/s) = 5.84587 6.95774 6.42590
#
# Compressibility (1/GPa) = 0.03024285
#
# Stress axis : x y z
#
# Youngs Moduli (GPa) = 34.42734 128.31440 104.77598
#
# Poissons Ratio (x) = 0.25041 0.32494
# Poissons Ratio (y) = 0.06719 0.31620
# Poissons Ratio (z) = 0.10677 0.38723
#
# Static dielectric constant tensor:
#      x y z
#    x 1.920070 0.000000 0.000000 
#    y 0.000000 1.851960 0.000000 
#    z 0.000000 0.000000 1.786050 
# 
# From -- ./inp_files/11499.got.cif
#   From: 2010.05.17/outbox.cif.g08.bks.cpg/sg37_6_cif.got.tgz:11499.got - 2010.06.03 17:53:42.
