data_PCOD9355662
_publ_section_title
;
Structure prediction by ZEFSAII (Michael W. Deem and Ramdas Pophale) SiO2 
 PCOD9355662
Probable space group: C C C 2
;
_chemical_formula_sum "Si O2"
_cell_formula_units_Z 32
_cell_length_a 8.048821
_cell_length_b 19.053187
_cell_length_c 8.822725
_cell_angle_alpha 90.000000
_cell_angle_beta 90.000000
_cell_angle_gamma 90.000000
_cell_volume 1353.015095
_symmetry_space_group_name_H-M "C C C 2"
_symmetry_group_IT_number 37
_symmetry_cell_setting 'orthorhombic'
loop_
_space_group_symop_operation_xyz
x,y,z
-x,-y,z
-x,y,1/2+z
x,-y,1/2+z
1/2+x,1/2+y,z
1/2-x,1/2-y,z
1/2-x,1/2+y,1/2+z
1/2+x,1/2-y,1/2+z
loop_
_atom_site_type_symbol
_atom_site_label
_atom_site_fract_x
_atom_site_fract_y
_atom_site_fract_z
Si Si1 0.329793 0.042551 0.358820
Si Si2 0.849116 0.674406 0.573071
Si Si3 0.793178 0.671054 0.920188
Si Si4 0.859552 0.051921 0.566312
O O1 0.296232 0.113213 0.455162
O O2 0.291794 0.054048 0.184371
O O3 0.500000 0.000000 0.383581
O O4 0.195057 0.988984 0.418684
O O5 0.750000 0.750000 0.555388
O O6 0.831694 0.645862 0.746838
O O7 0.043443 0.677021 0.526072
O O8 0.750000 0.750000 0.890896
O O9 0.640214 0.631453 0.003906
O O10 0.000000 0.000000 0.629317
#
# Coordination Sequence:
#
# PCOD9355662 Si02
#       4
#     8   8   8   8
#     4  12  25  46  75 108 149 200 254 313 386 455
#     4  11  26  48  78 108 146 200 255 313 379 460
#     4  11  26  49  74 110 150 195 254 312 386 456
#     4  12  27  46  73 110 152 199 252 316 387 463
#
# _framework density 23.650881999999999
#
# number of rings (size 3 to 8) (size 9 to 14) (size 15 to 20)
#    0.000    0.500    2.500    4.500    3.500    4.000 
#    0.000    1.250    0.000    0.000    0.000    0.000 
#    0.000    0.000    0.000    0.000    0.000    0.000 
#
# Total GULP energy -89103.189406 kJ/mol
# GULP energy per Si atom -5568.949338 kJ/mol
# Density = 2.359705 g / cm^3
# Si number density = 23.650882 Si / 1000 Ang^3
#
#
#
# Elastic Constant Matrix: (Units=GPa)
#
#
# Indices 1 2 3 4 5 6 
#
# 1 88.3582 41.8403 40.7647 0.0000 0.0000 0.0000
# 2 41.8403 147.3149 43.9529 0.0000 0.0000 0.0000
# 3 40.7647 43.9529 136.1453 0.0000 0.0000 0.0000
# 4 0.0000 0.0000 0.0000 32.4025 0.0000 0.0000
# 5 0.0000 0.0000 0.0000 0.0000 13.6365 0.0000
# 6 0.0000 0.0000 0.0000 0.0000 0.0000 35.4635
#
#
#
# Elastic Compliance Matrix: (Units=1/GPa)
#
#
# Indices 1 2 3 4 5 6 
#
# 1 0.014291 -0.003079 -0.003285 0.000000 0.000000 0.000000
# 2 -0.003079 0.008175 -0.001717 0.000000 0.000000 0.000000
# 3 -0.003285 -0.001717 0.008883 0.000000 0.000000 0.000000
# 4 0.000000 0.000000 0.000000 0.030862 0.000000 0.000000
# 5 0.000000 0.000000 0.000000 0.000000 0.073332 0.000000
# 6 0.000000 0.000000 0.000000 0.000000 0.000000 0.028198
#
#
# Mechanical properties :
#
#
# Convention : Reuss Voigt Hill
#
# Bulk Modulus (GPa) = 65.84686 69.43713 67.64200
# Shear Modulus (GPa) = 27.03195 32.65119 29.84157
#
# Velocity S-wave (km/s) = 3.38443 3.71960 3.55597
# Velocity P-wave (km/s) = 6.57070 6.91883 6.74701
#
# Compressibility (1/GPa) = 0.01518675
#
# Stress axis : x y z
#
# Youngs Moduli (GPa) = 69.97373 122.32397 112.57278
#
# Poissons Ratio (x) = 0.37661 0.36981
# Poissons Ratio (y) = 0.21544 0.19333
# Poissons Ratio (z) = 0.22987 0.21007
#
# Static dielectric constant tensor:
#      x y z
#    x 2.204210 0.000000 0.000000 
#    y 0.000000 2.643390 0.000000 
#    z 0.000000 0.000000 1.809270 
# 
# From -- ./inp_files/2090.got.cif
#   From: 2010.05.17/outbox.cif.g08.bks.cpg/sg37_2_cif.got.tgz:2090.got - 2010.06.03 17:53:42.
