data_PCOD9355930
_publ_section_title
;
Structure prediction by ZEFSAII (Michael W. Deem and Ramdas Pophale) SiO2 
 PCOD9355930
Probable space group: A M M 2
;
_chemical_formula_sum "Si O2"
_cell_formula_units_Z 64
_cell_length_a 8.798185
_cell_length_b 31.291740
_cell_length_c 14.854806
_cell_angle_alpha 90.000000
_cell_angle_beta 90.000000
_cell_angle_gamma 90.000000
_cell_volume 4089.684327
_symmetry_space_group_name_H-M "A M M 2"
_symmetry_group_IT_number 38
_symmetry_cell_setting 'orthorhombic'
loop_
_space_group_symop_operation_xyz
x,y,z
-x,-y,z
-x,y,z
x,-y,z
x,1/2+y,1/2+z
-x,1/2-y,1/2+z
-x,1/2+y,1/2+z
x,1/2-y,1/2+z
loop_
_atom_site_type_symbol
_atom_site_label
_atom_site_fract_x
_atom_site_fract_y
_atom_site_fract_z
Si Si1 0.820697 0.629847 0.436520
Si Si2 0.184411 0.206639 0.431345
Si Si3 0.816053 0.208937 0.815681
Si Si4 0.318837 0.951329 0.013526
Si Si5 0.678011 0.226959 0.621964
Si Si6 0.821257 0.131948 0.304258
Si Si7 0.815977 0.048701 0.212581
Si Si8 0.825897 0.683496 0.618134
O O1 0.768005 0.665006 0.364298
O O2 0.737571 0.584783 0.445160
O O3 0.804150 0.653169 0.532994
O O4 0.000000 0.622261 0.422321
O O5 0.229438 0.249459 0.375326
O O6 0.245220 0.208311 0.532325
O O7 0.240683 0.164247 0.379186
O O8 0.000000 0.206557 0.432096
O O9 0.752006 0.212066 0.715510
O O10 0.000000 0.209532 0.812872
O O11 0.500000 0.949079 0.022028
O O12 0.276659 0.000000 0.987662
O O13 0.246801 0.943372 0.112231
O O14 0.500000 0.218069 0.622076
O O15 0.710964 0.277590 0.617022
O O16 0.759307 0.084887 0.281740
O O17 0.813062 0.157314 0.209934
O O18 0.000000 0.126337 0.326032
O O19 0.000000 0.051884 0.207453
O O20 0.776552 0.000000 0.237694
O O21 0.000000 0.700794 0.613033
#
# Coordination Sequence:
#
# PCOD9355930 Si02
#       8
#     8   8   8   8   8   8   8   8
#     4  10  19  32  52  73  93 125 169 208 242 283
#     4  10  19  34  53  68  91 129 170 204 236 289
#     4  10  20  35  54  72  92 127 169 207 246 288
#     4  10  20  31  44  68 103 136 161 190 238 296
#     4  12  24  34  46  70 103 131 161 203 249 290
#     4   9  16  28  49  72  92 125 166 199 234 280
#     4   9  16  28  47  71  98 126 161 203 241 282
#     4  10  17  31  50  69  96 129 169 201 235 287
#
# _framework density 15.64913
#
# number of rings (size 3 to 8) (size 9 to 14) (size 15 to 20)
#    0.000    2.000    3.750    1.500    0.000    2.250 
#    0.000    0.625    0.000    0.000    0.000    0.875 
#    0.000    5.000    0.000    0.000    0.000    0.000 
#
# Total GULP energy -178407.581623 kJ/mol
# GULP energy per Si atom -5575.236926 kJ/mol
# Density = 1.561351 g / cm^3
# Si number density = 15.649130 Si / 1000 Ang^3
#
#
#
# Elastic Constant Matrix: (Units=GPa)
#
#
# Indices 1 2 3 4 5 6 
#
# 1 18.7329 29.8268 24.4164 0.0000 0.0000 0.0000
# 2 29.8268 123.4510 49.3417 0.0000 0.0000 0.0000
# 3 24.4164 49.3417 93.5560 0.0000 0.0000 0.0000
# 4 0.0000 0.0000 0.0000 16.8003 0.0000 0.0000
# 5 0.0000 0.0000 0.0000 0.0000 0.6982 0.0000
# 6 0.0000 0.0000 0.0000 0.0000 0.0000 14.0091
#
#
#
# Elastic Compliance Matrix: (Units=1/GPa)
#
#
# Indices 1 2 3 4 5 6 
#
# 1 0.106248 -0.018484 -0.017980 0.000000 0.000000 0.000000
# 2 -0.018484 0.013480 -0.002285 0.000000 0.000000 0.000000
# 3 -0.017980 -0.002285 0.016587 0.000000 0.000000 0.000000
# 4 0.000000 0.000000 0.000000 0.059523 0.000000 0.000000
# 5 0.000000 0.000000 0.000000 0.000000 1.432204 0.000000
# 6 0.000000 0.000000 0.000000 0.000000 0.000000 0.071382
#
#
# Mechanical properties :
#
#
# Convention : Reuss Voigt Hill
#
# Bulk Modulus (GPa) = 17.00237 49.21219 33.10728
# Shear Modulus (GPa) = 2.78315 15.11187 8.94751
#
# Velocity S-wave (km/s) = 1.33504 3.11089 2.39374
# Velocity P-wave (km/s) = 3.64208 6.66476 5.37047
#
# Compressibility (1/GPa) = 0.05881532
#
# Stress axis : x y z
#
# Youngs Moduli (GPa) = 9.41193 74.18588 60.28983
#
# Poissons Ratio (x) = 1.37125 1.08403
# Poissons Ratio (y) = 0.17397 0.13778
# Poissons Ratio (z) = 0.16923 0.16953
#
# Static dielectric constant tensor:
#      x y z
#    x 1.525810 0.000000 0.000000 
#    y 0.000000 1.547990 0.000000 
#    z 0.000000 0.000000 1.502570 
# 
# From -- ./inp_files/13074.got.cif
#   From: 2010.05.17/outbox.cif.g08.bks.cpg/sg38_7_cif.got.tgz:13074.got - 2010.06.03 18:07:57.
