data_PCOD9355990
_publ_section_title
;
Structure prediction by ZEFSAII (Michael W. Deem and Ramdas Pophale) SiO2 
 PCOD9355990
Probable space group: A M M 2
;
_chemical_formula_sum "Si O2"
_cell_formula_units_Z 64
_cell_length_a 8.590106
_cell_length_b 27.466547
_cell_length_c 18.971911
_cell_angle_alpha 90.000000
_cell_angle_beta 90.000000
_cell_angle_gamma 90.000000
_cell_volume 4476.243119
_symmetry_space_group_name_H-M "A M M 2"
_symmetry_group_IT_number 38
_symmetry_cell_setting 'orthorhombic'
loop_
_space_group_symop_operation_xyz
x,y,z
-x,-y,z
-x,y,z
x,-y,z
x,1/2+y,1/2+z
-x,1/2-y,1/2+z
-x,1/2+y,1/2+z
x,1/2-y,1/2+z
loop_
_atom_site_type_symbol
_atom_site_label
_atom_site_fract_x
_atom_site_fract_y
_atom_site_fract_z
Si Si1 0.186869 0.650317 0.379460
Si Si2 0.688037 0.258083 0.466857
Si Si3 0.312054 0.055254 0.117462
Si Si4 0.320360 0.302675 0.840915
Si Si5 0.812088 0.555229 0.461291
Si Si6 0.815012 0.259242 0.623607
Si Si7 0.320773 0.297319 0.249277
Si Si8 0.689605 0.352816 0.706685
O O1 0.251805 0.691643 0.432408
O O2 0.237273 0.597468 0.407743
O O3 0.245743 0.663324 0.301286
O O4 0.000000 0.652960 0.380530
O O5 0.500000 0.258838 0.464151
O O6 0.746620 0.214283 0.415702
O O7 0.744706 0.252678 0.546233
O O8 0.500000 0.056214 0.114250
O O9 0.262617 0.095967 0.173279
O O10 0.263458 0.000000 0.135129
O O11 0.248413 0.066751 0.039694
O O12 0.500000 0.316658 0.853759
O O13 0.319561 0.252733 0.795181
O O14 0.252811 0.341924 0.786351
O O15 0.760850 0.500000 0.443730
O O16 0.000000 0.555344 0.463179
O O17 0.766348 0.216390 0.677515
O O18 0.748418 0.309192 0.657033
O O19 0.000000 0.262614 0.619595
O O20 0.500000 0.309215 0.234532
O O21 0.500000 0.350359 0.707751
#
# Coordination Sequence:
#
# PCOD9355990 Si02
#       8
#     8   8   8   8   8   8   8   8
#     4  10  18  28  43  62  82 106 140 176 206 237
#     4  10  18  28  41  57  80 109 139 168 204 249
#     4   9  17  27  40  59  81 106 139 177 209 238
#     4   7  13  25  40  55  71  98 132 161 190 235
#     4   9  18  30  41  55  80 112 141 170 204 240
#     4  11  20  28  40  60  83 105 135 172 206 240
#     4   9  17  30  44  58  79 107 135 162 202 250
#     4   9  16  28  43  57  78 108 139 168 203 246
#
# _framework density 14.297703
#
# number of rings (size 3 to 8) (size 9 to 14) (size 15 to 20)
#    0.000    2.750    0.000    4.500    0.000    3.500 
#    0.000    0.625    0.000    0.000    0.000    0.000 
#    0.000    1.000    0.000    4.000    0.000    2.375 
#
# Total GULP energy -178171.935865 kJ/mol
# GULP energy per Si atom -5567.872996 kJ/mol
# Density = 1.426516 g / cm^3
# Si number density = 14.297703 Si / 1000 Ang^3
#
#
#
# Elastic Constant Matrix: (Units=GPa)
#
#
# Indices 1 2 3 4 5 6 
#
# 1 34.5131 17.6238 20.0951 0.0000 0.0000 0.0000
# 2 17.6238 86.9971 55.5395 0.0000 0.0000 0.0000
# 3 20.0951 55.5395 103.6253 0.0000 0.0000 0.0000
# 4 0.0000 0.0000 0.0000 27.7468 0.0000 0.0000
# 5 0.0000 0.0000 0.0000 0.0000 14.8458 0.0000
# 6 0.0000 0.0000 0.0000 0.0000 0.0000 13.9226
#
#
#
# Elastic Compliance Matrix: (Units=1/GPa)
#
#
# Indices 1 2 3 4 5 6 
#
# 1 0.033562 -0.004019 -0.004354 0.000000 0.000000 0.000000
# 2 -0.004019 0.017955 -0.008844 0.000000 0.000000 0.000000
# 3 -0.004354 -0.008844 0.015234 0.000000 0.000000 0.000000
# 4 0.000000 0.000000 0.000000 0.036040 0.000000 0.000000
# 5 0.000000 0.000000 0.000000 0.000000 0.067359 0.000000
# 6 0.000000 0.000000 0.000000 0.000000 0.000000 0.071826
#
#
# Mechanical properties :
#
#
# Convention : Reuss Voigt Hill
#
# Bulk Modulus (GPa) = 30.94348 45.73914 38.34131
# Shear Modulus (GPa) = 17.41052 20.09486 18.75269
#
# Velocity S-wave (km/s) = 3.49336 3.75301 3.62551
# Velocity P-wave (km/s) = 6.16123 7.13023 6.66336
#
# Compressibility (1/GPa) = 0.03231698
#
# Stress axis : x y z
#
# Youngs Moduli (GPa) = 29.79556 55.69581 65.64090
#
# Poissons Ratio (x) = 0.22385 0.28581
# Poissons Ratio (y) = 0.11975 0.58051
# Poissons Ratio (z) = 0.12974 0.49255
#
# Static dielectric constant tensor:
#      x y z
#    x 1.486320 0.000000 0.000000 
#    y 0.000000 1.474190 0.000000 
#    z 0.000000 0.000000 1.475360 
# 
# From -- ./inp_files/17330.got.cif
#   From: 2010.05.17/outbox.cif.g08.bks.cpg/sg38_9_cif.got.tgz:17330.got - 2010.06.03 18:07:57.
