data_PCOD9355613
_publ_section_title
;
Structure prediction by ZEFSAII (Michael W. Deem and Ramdas Pophale) SiO2 
 PCOD9355613
Probable space group: C C C 2
;
_chemical_formula_sum "Si O2"
_cell_formula_units_Z 64
_cell_length_a 11.741600
_cell_length_b 29.715795
_cell_length_c 8.625277
_cell_angle_alpha 90.000000
_cell_angle_beta 90.000000
_cell_angle_gamma 90.000000
_cell_volume 3009.453839
_symmetry_space_group_name_H-M "C C C 2"
_symmetry_group_IT_number 37
_symmetry_cell_setting 'orthorhombic'
loop_
_space_group_symop_operation_xyz
x,y,z
-x,-y,z
-x,y,1/2+z
x,-y,1/2+z
1/2+x,1/2+y,z
1/2-x,1/2-y,z
1/2-x,1/2+y,1/2+z
1/2+x,1/2-y,1/2+z
loop_
_atom_site_type_symbol
_atom_site_label
_atom_site_fract_x
_atom_site_fract_y
_atom_site_fract_z
Si Si1 0.254604 0.697073 0.790940
Si Si2 0.707972 0.200521 0.155418
Si Si3 0.339156 0.378090 0.825102
Si Si4 0.756456 0.444217 0.795546
Si Si5 0.017434 0.656399 0.709950
Si Si6 0.022238 0.592612 0.953529
Si Si7 0.421341 0.374323 0.180569
Si Si8 0.194494 0.459914 0.932185
O O1 0.250000 0.750000 0.755058
O O2 0.147915 0.672212 0.707344
O O3 0.370670 0.672707 0.742481
O O4 0.241101 0.691962 0.976295
O O5 0.750000 0.250000 0.197713
O O6 0.765136 0.163916 0.267397
O O7 0.572186 0.194128 0.163779
O O8 0.445968 0.380818 0.710134
O O9 0.260389 0.422047 0.834067
O O10 0.388664 0.374863 0.999528
O O11 0.852265 0.417366 0.892279
O O12 0.645040 0.413366 0.776808
O O13 0.756964 0.492362 0.879132
O O14 0.787860 0.453227 0.615984
O O15 0.987919 0.641355 0.884581
O O16 0.991509 0.607834 0.630456
O O17 0.939245 0.551494 0.913381
#
# Coordination Sequence:
#
# PCOD9355613 Si02
#       8
#     8   8   8   8   8   8   8   8
#     4  11  25  44  67  99 136 177 225 280 338 405
#     4  11  25  43  67 100 134 176 229 277 340 405
#     4  11  25  45  68  93 131 175 224 278 334 405
#     4  11  25  42  65  97 132 172 220 277 334 407
#     4  12  22  42  69  95 136 179 215 280 340 399
#     4  12  22  41  67  96 135 172 221 269 343 401
#     4  11  24  46  66  94 131 176 224 275 337 398
#     4  11  25  41  64  98 131 173 221 274 339 400
#
# _framework density 21.266316
#
# number of rings (size 3 to 8) (size 9 to 14) (size 15 to 20)
#    0.000    0.750    5.000    1.875    3.500    4.000 
#    0.000    2.500    0.000    0.000    0.000    0.000 
#    0.000    0.000    0.000    0.000    0.000    0.000 
#
# Total GULP energy -178703.019977 kJ/mol
# GULP energy per Si atom -5584.469374 kJ/mol
# Density = 2.121791 g / cm^3
# Si number density = 21.266316 Si / 1000 Ang^3
#
#
#
# Elastic Constant Matrix: (Units=GPa)
#
#
# Indices 1 2 3 4 5 6 
#
# 1 87.3279 31.1010 15.5609 0.0000 0.0000 0.0000
# 2 31.1010 134.8525 26.7048 0.0000 0.0000 0.0000
# 3 15.5609 26.7048 38.3467 0.0000 0.0000 0.0000
# 4 0.0000 0.0000 0.0000 33.0579 0.0000 0.0000
# 5 0.0000 0.0000 0.0000 0.0000 32.5815 0.0000
# 6 0.0000 0.0000 0.0000 0.0000 0.0000 20.6388
#
#
#
# Elastic Compliance Matrix: (Units=1/GPa)
#
#
# Indices 1 2 3 4 5 6 
#
# 1 0.012906 -0.002250 -0.003671 0.000000 0.000000 0.000000
# 2 -0.002250 0.008994 -0.005350 0.000000 0.000000 0.000000
# 3 -0.003671 -0.005350 0.031293 0.000000 0.000000 0.000000
# 4 0.000000 0.000000 0.000000 0.030250 0.000000 0.000000
# 5 0.000000 0.000000 0.000000 0.000000 0.030692 0.000000
# 6 0.000000 0.000000 0.000000 0.000000 0.000000 0.048453
#
#
# Mechanical properties :
#
#
# Convention : Reuss Voigt Hill
#
# Bulk Modulus (GPa) = 32.62417 45.25117 38.93767
# Shear Modulus (GPa) = 25.59540 29.73299 27.66419
#
# Velocity S-wave (km/s) = 3.47301 3.74321 3.61064
# Velocity P-wave (km/s) = 5.60860 6.32508 5.97759
#
# Compressibility (1/GPa) = 0.03065213
#
# Stress axis : x y z
#
# Youngs Moduli (GPa) = 77.48106 111.18642 31.95552
#
# Poissons Ratio (x) = 0.25014 0.11730
# Poissons Ratio (y) = 0.17431 0.17098
# Poissons Ratio (z) = 0.28441 0.59490
#
# Static dielectric constant tensor:
#      x y z
#    x 1.740270 0.000000 0.000000 
#    y 0.000000 1.756360 0.000000 
#    z 0.000000 0.000000 1.767600 
# 
# From -- ./inp_files/3135.got.cif
#   From: 2010.05.17/outbox.cif.g08.bks.cpg/sg37_2_cif.got.tgz:3135.got - 2010.06.03 17:53:42.
