data_PCOD9355804
_publ_section_title
;
Structure prediction by ZEFSAII (Michael W. Deem and Ramdas Pophale) SiO2 
 PCOD9355804
Probable space group: A M M 2
;
_chemical_formula_sum "Si O2"
_cell_formula_units_Z 64
_cell_length_a 7.563613
_cell_length_b 24.355209
_cell_length_c 19.776171
_cell_angle_alpha 90.000000
_cell_angle_beta 90.000000
_cell_angle_gamma 90.000000
_cell_volume 3643.035213
_symmetry_space_group_name_H-M "A M M 2"
_symmetry_group_IT_number 38
_symmetry_cell_setting 'orthorhombic'
loop_
_space_group_symop_operation_xyz
x,y,z
-x,-y,z
-x,y,z
x,-y,z
x,1/2+y,1/2+z
-x,1/2-y,1/2+z
-x,1/2+y,1/2+z
x,1/2-y,1/2+z
loop_
_atom_site_type_symbol
_atom_site_label
_atom_site_fract_x
_atom_site_fract_y
_atom_site_fract_z
Si Si1 0.298324 0.656240 0.779000
Si Si2 0.716763 0.437295 0.876480
Si Si3 0.283372 0.772293 0.158841
Si Si4 0.715790 0.885187 0.518590
Si Si5 0.716374 0.437691 0.160987
Si Si6 0.287381 0.834479 0.743451
Si Si7 0.201798 0.259808 0.362567
Si Si8 0.712815 0.741598 0.013758
O O1 0.500000 0.640451 0.762944
O O2 0.219322 0.605265 0.819542
O O3 0.219586 0.680337 0.709704
O O4 0.304905 0.708439 0.830065
O O5 0.500000 0.435594 0.876488
O O6 0.770020 0.500000 0.865543
O O7 0.771681 0.415817 0.950400
O O8 0.500000 0.773408 0.160480
O O9 0.230817 0.714004 0.192088
O O10 0.226386 0.772877 0.081155
O O11 0.500000 0.884761 0.519037
O O12 0.770555 0.915607 0.587088
O O13 0.773777 0.821807 0.517005
O O14 0.500000 0.437961 0.161257
O O15 0.774696 0.500000 0.172255
O O16 0.775054 0.393075 0.216386
O O17 0.500000 0.835336 0.741255
O O18 0.236083 0.813517 0.817560
O O19 0.238052 0.266251 0.441515
O O20 0.000000 0.243703 0.353446
O O21 0.500000 0.740077 0.016501
#
# Coordination Sequence:
#
# PCOD9355804 Si02
#       8
#     8   8   8   8   8   8   8   8
#     4   9  16  29  46  64  86 113 145 180 217 260
#     4   9  15  22  37  63  91 116 142 171 204 245
#     4   8  14  24  43  64  82 108 145 179 212 257
#     4   9  14  21  36  63  94 120 145 174 205 248
#     4   9  15  23  40  68  97 120 147 183 217 254
#     4   9  16  29  46  65  89 118 148 180 220 263
#     4  11  21  30  42  62  87 115 150 189 226 261
#     4  10  16  27  45  64  85 116 149 179 218 264
#
# _framework density 17.567768000000001
#
# number of rings (size 3 to 8) (size 9 to 14) (size 15 to 20)
#    0.000    2.750    2.500    2.250    0.000    1.500 
#    0.000    2.500    0.000    0.750    0.000    0.875 
#    0.000    5.000    0.000    0.000    0.000    0.000 
#
# Total GULP energy -178432.034656 kJ/mol
# GULP energy per Si atom -5576.001083 kJ/mol
# Density = 1.752778 g / cm^3
# Si number density = 17.567768 Si / 1000 Ang^3
#
#
#
# Elastic Constant Matrix: (Units=GPa)
#
#
# Indices 1 2 3 4 5 6 
#
# 1 42.3499 5.0673 1.7175 0.0000 0.0000 0.0000
# 2 5.0673 127.6619 96.5891 0.0000 0.0000 0.0000
# 3 1.7175 96.5891 164.3487 0.0000 0.0000 0.0000
# 4 0.0000 0.0000 0.0000 23.1719 0.0000 0.0000
# 5 0.0000 0.0000 0.0000 0.0000 -48.7415 0.0000
# 6 0.0000 0.0000 0.0000 0.0000 0.0000 -17.1420
#
#
#
# Elastic Compliance Matrix: (Units=1/GPa)
#
#
# Indices 1 2 3 4 5 6 
#
# 1 0.023753 -0.001360 0.000551 0.000000 0.000000 0.000000
# 2 -0.001360 0.014183 -0.008321 0.000000 0.000000 0.000000
# 3 0.000551 -0.008321 0.010969 0.000000 0.000000 0.000000
# 4 0.000000 0.000000 0.000000 0.043156 0.000000 0.000000
# 5 0.000000 0.000000 0.000000 0.000000 -0.020516 0.000000
# 6 0.000000 0.000000 0.000000 0.000000 0.000000 -0.058336
#
#
# Mechanical properties :
#
#
# Convention : Reuss Voigt Hill
#
# Bulk Modulus (GPa) = 32.63130 60.12317 46.37723
# Shear Modulus (GPa) = 119.95107 6.85681 63.40394
#
# Velocity S-wave (km/s) = 8.27208 1.97776 6.01410
# Velocity P-wave (km/s) = 10.48099 6.28596 8.64189
#
# Compressibility (1/GPa) = 0.03064543
#
# Stress axis : x y z
#
# Youngs Moduli (GPa) = 42.09967 70.50671 91.16307
#
# Poissons Ratio (x) = 0.09586 -0.05021
# Poissons Ratio (y) = 0.05724 0.75859
# Poissons Ratio (z) = -0.02319 0.58671
#
# Static dielectric constant tensor:
#      x y z
#    x 1.647030 0.000000 0.000000 
#    y 0.000000 1.580010 0.000000 
#    z 0.000000 0.000000 1.603020 
# 
# From -- ./inp_files/17309.got.cif
#   From: 2010.05.17/outbox.cif.g08.bks.cpg/sg38_9_cif.got.tgz:17309.got - 2010.06.03 18:07:57.
