data_PCOD9355768
_publ_section_title
;
Structure prediction by ZEFSAII (Michael W. Deem and Ramdas Pophale) SiO2 
 PCOD9355768
Probable space group: C C C 2
;
_chemical_formula_sum "Si O2"
_cell_formula_units_Z 32
_cell_length_a 9.000000
_cell_length_b 24.000000
_cell_length_c 15.000000
_cell_angle_alpha 90.000000
_cell_angle_beta 90.000000
_cell_angle_gamma 90.000000
_cell_volume 3240.000000
_symmetry_space_group_name_H-M "C C C 2"
_symmetry_group_IT_number 37
_symmetry_cell_setting 'orthorhombic'
loop_
_space_group_symop_operation_xyz
x,y,z
-x,-y,z
-x,y,1/2+z
x,-y,1/2+z
1/2+x,1/2+y,z
1/2-x,1/2-y,z
1/2-x,1/2+y,1/2+z
1/2+x,1/2-y,1/2+z
loop_
_atom_site_type_symbol
_atom_site_label
_atom_site_fract_x
_atom_site_fract_y
_atom_site_fract_z
Si Si1 0.146827 0.594897 0.989330
Si Si2 0.984358 0.644888 0.669254
Si Si3 0.912387 0.771646 0.140872
Si Si4 0.674157 0.516498 0.362952
Si Si5 0.355969 0.900062 0.358567
Si Si6 0.685671 0.690847 0.407704
Si Si7 0.150798 0.802416 0.433784
Si Si8 0.701052 0.372164 0.737968
O O1 0.245745 0.543240 0.951089
O O2 0.262673 0.645948 0.978510
O O3 0.003002 0.595122 0.922183
O O4 0.086295 0.608171 0.088659
O O5 0.906555 0.627246 0.763368
O O6 0.988995 0.713831 0.653106
O O7 0.157357 0.625231 0.673244
O O8 0.750000 0.750000 0.169941
O O9 0.926285 0.832302 0.191704
O O10 0.892847 0.788705 0.036918
O O11 0.500000 0.500000 0.376179
O O12 0.771795 0.460045 0.343110
O O13 0.673251 0.567261 0.286918
O O14 0.243988 0.857765 0.410459
O O15 0.750000 0.750000 0.431889
O O16 0.510875 0.693569 0.390163
O O17 0.757696 0.666883 0.318455
O O18 0.250000 0.750000 0.403188
#
# Coordination Sequence:
#
# PCOD9355768 Si02
#       8
#     8   8   8   8   8   8   8   8
#     4  11  24  44  70 103 136 195 237 309 372 438
#     4  11  22  42  73 109 143 174 252 305 372 451
#     4   9  19  39  65 105 140 179 230 296 369 445
#     4  11  25  49  69  99 144 194 254 294 367 459
#     4  12  23  45  71 105 139 189 246 305 365 444
#     4  11  20  38  65  96 137 185 229 279 363 429
#     4  11  24  40  68 102 145 188 236 297 370 444
#     4  10  21  39  72  95 133 187 232 296 361 425
#
# _framework density 9.8765429999999999
#
# number of rings (size 3 to 8) (size 9 to 14) (size 15 to 20)
#    0.000    1.250    2.500    6.750    1.750    0.000 
#   11.250    1.250    0.000    0.000    0.000    0.000 
#    0.000    0.000    0.000    0.000    0.000    0.000 
#
# Total GULP energy -178150.986639 kJ/mol
# GULP energy per Si atom -5567.218332 kJ/mol
# Density = 0.985406 g / cm^3
# Si number density = 9.876543 Si / 1000 Ang^3
#
#
#
# Elastic Constant Matrix: (Units=GPa)
#
#
# Indices 1 2 3 4 5 6 
#
# 1 113.9020 42.8018 28.7092 0.0000 0.0000 0.0000
# 2 42.8018 162.7425 42.3918 0.0000 0.0000 0.0000
# 3 28.7092 42.3918 111.9221 0.0000 0.0000 0.0000
# 4 0.0000 0.0000 0.0000 32.6720 0.0000 0.0000
# 5 0.0000 0.0000 0.0000 0.0000 27.7685 0.0000
# 6 0.0000 0.0000 0.0000 0.0000 0.0000 44.6007
#
#
#
# Elastic Compliance Matrix: (Units=1/GPa)
#
#
# Indices 1 2 3 4 5 6 
#
# 1 0.010041 -0.002186 -0.001748 0.000000 0.000000 0.000000
# 2 -0.002186 0.007293 -0.002202 0.000000 0.000000 0.000000
# 3 -0.001748 -0.002202 0.010217 0.000000 0.000000 0.000000
# 4 0.000000 0.000000 0.000000 0.030607 0.000000 0.000000
# 5 0.000000 0.000000 0.000000 0.000000 0.036012 0.000000
# 6 0.000000 0.000000 0.000000 0.000000 0.000000 0.022421
#
#
# Mechanical properties :
#
#
# Convention : Reuss Voigt Hill
#
# Bulk Modulus (GPa) = 65.44056 68.48581 66.96318
# Shear Modulus (GPa) = 37.32573 39.31916 38.32245
#
# Velocity S-wave (km/s) = 4.35169 4.46638 4.40941
# Velocity P-wave (km/s) = 7.64531 7.83226 7.73935
#
# Compressibility (1/GPa) = 0.01528104
#
# Stress axis : x y z
#
# Youngs Moduli (GPa) = 99.58833 137.11777 97.87558
#
# Poissons Ratio (x) = 0.29969 0.17108
# Poissons Ratio (y) = 0.21766 0.21549
# Poissons Ratio (z) = 0.17407 0.30189
#
# Static dielectric constant tensor:
#      x y z
#    x 1.709130 0.000000 0.000000 
#    y 0.000000 1.727410 0.000000 
#    z 0.000000 0.000000 1.777060 
# 
# From -- ./inp_files/11016.got.cif
#   From: 2010.05.17/outbox.ucp.g08.bks.cvg/sg37_6_cif.got.tgz:11016.got - 2010.06.11 10:38:43.
