data_PCOD9355189
_publ_section_title
;
Structure prediction by ZEFSAII (Michael W. Deem and Ramdas Pophale) SiO2 
 PCOD9355189
Probable space group: C C C 2
;
_chemical_formula_sum "Si O2"
_cell_formula_units_Z 48
_cell_length_a 25.943331
_cell_length_b 7.102415
_cell_length_c 9.736734
_cell_angle_alpha 90.000000
_cell_angle_beta 90.000000
_cell_angle_gamma 90.000000
_cell_volume 1794.093559
_symmetry_space_group_name_H-M "C C C 2"
_symmetry_group_IT_number 37
_symmetry_cell_setting 'orthorhombic'
loop_
_space_group_symop_operation_xyz
x,y,z
-x,-y,z
-x,y,1/2+z
x,-y,1/2+z
1/2+x,1/2+y,z
1/2-x,1/2-y,z
1/2-x,1/2+y,1/2+z
1/2+x,1/2-y,1/2+z
loop_
_atom_site_type_symbol
_atom_site_label
_atom_site_fract_x
_atom_site_fract_y
_atom_site_fract_z
Si Si1 0.004406 0.778190 0.660680
Si Si2 0.823041 0.391852 0.630295
Si Si3 0.936984 0.713467 0.424332
Si Si4 0.097916 0.634806 0.301008
Si Si5 0.744323 0.970751 0.866754
Si Si6 0.855322 0.035151 0.473386
O O1 0.992064 0.729918 0.501992
O O2 0.955739 0.677502 0.728895
O O3 0.051929 0.737545 0.761145
O O4 0.000000 0.000000 0.667546
O O5 0.844098 0.180115 0.599684
O O6 0.864293 0.531878 0.696384
O O7 0.778015 0.412454 0.742238
O O8 0.797292 0.462142 0.489189
O O9 0.912569 0.507292 0.427059
O O10 0.897742 0.869991 0.484068
O O11 0.122062 0.826170 0.357065
O O12 0.750000 0.750000 0.824083
O O13 0.799394 0.036442 0.925506
#
# Coordination Sequence:
#
# PCOD9355189 Si02
#       6
#     8   8   8   8   8   8
#     4  12  28  53  81 115 167 214 279 351 429 510
#     4  11  23  47  82 120 167 222 285 344 429 513
#     4  12  30  53  81 121 164 220 279 360 429 512
#     4  12  26  50  85 118 157 227 281 350 430 511
#     4  10  23  47  77 118 171 220 283 351 423 510
#     4  11  26  52  81 117 170 219 285 350 431 507
#
# _framework density 26.754458
#
# number of rings (size 3 to 8) (size 9 to 14) (size 15 to 20)
#    0.000    0.667    5.000    2.000    2.333    8.000 
#    3.000    2.500    0.000    0.000    0.000    0.000 
#    0.000    0.000    0.000    0.000    0.000    0.000 
#
# Total GULP energy -134564.409585 kJ/mol
# GULP energy per Si atom -5606.850399 kJ/mol
# Density = 2.669356 g / cm^3
# Si number density = 26.754458 Si / 1000 Ang^3
#
#
#
# Elastic Constant Matrix: (Units=GPa)
#
#
# Indices 1 2 3 4 5 6 
#
# 1 113.4780 43.0400 32.5612 0.0000 0.0000 0.0000
# 2 43.0400 135.0957 50.4156 0.0000 0.0000 0.0000
# 3 32.5612 50.4156 119.1177 0.0000 0.0000 0.0000
# 4 0.0000 0.0000 0.0000 38.8862 0.0000 0.0000
# 5 0.0000 0.0000 0.0000 0.0000 54.8827 0.0000
# 6 0.0000 0.0000 0.0000 0.0000 0.0000 57.6826
#
#
#
# Elastic Compliance Matrix: (Units=1/GPa)
#
#
# Indices 1 2 3 4 5 6 
#
# 1 0.010304 -0.002650 -0.001695 0.000000 0.000000 0.000000
# 2 -0.002650 0.009472 -0.003285 0.000000 0.000000 0.000000
# 3 -0.001695 -0.003285 0.010249 0.000000 0.000000 0.000000
# 4 0.000000 0.000000 0.000000 0.025716 0.000000 0.000000
# 5 0.000000 0.000000 0.000000 0.000000 0.018221 0.000000
# 6 0.000000 0.000000 0.000000 0.000000 0.000000 0.017336
#
#
# Mechanical properties :
#
#
# Convention : Reuss Voigt Hill
#
# Bulk Modulus (GPa) = 67.72684 68.85833 68.29258
# Shear Modulus (GPa) = 44.85164 46.40195 45.62680
#
# Velocity S-wave (km/s) = 4.09885 4.16909 4.13412
# Velocity P-wave (km/s) = 6.91158 6.99772 6.95478
#
# Compressibility (1/GPa) = 0.01476520
#
# Stress axis : x y z
#
# Youngs Moduli (GPa) = 97.05192 105.57170 97.57477
#
# Poissons Ratio (x) = 0.27978 0.16538
# Poissons Ratio (y) = 0.25720 0.32050
# Poissons Ratio (z) = 0.16449 0.34676
#
# Static dielectric constant tensor:
#      x y z
#    x 2.113390 0.000000 0.000000 
#    y 0.000000 2.036450 0.000000 
#    z 0.000000 0.000000 2.151530 
# 
# From -- ./inp_files/4949.got.cif
#   From: 2010.05.17/outbox.cif.g08.bks.cpg/sg37_3_cif.got.tgz:4949.got - 2010.06.03 17:53:42.
