data_PCOD9355450
_publ_section_title
;
Structure prediction by ZEFSAII (Michael W. Deem and Ramdas Pophale) SiO2 
 PCOD9355450
Probable space group: C C C 2
;
_chemical_formula_sum "Si O2"
_cell_formula_units_Z 64
_cell_length_a 12.058513
_cell_length_b 8.846072
_cell_length_c 27.688372
_cell_angle_alpha 90.000000
_cell_angle_beta 90.000000
_cell_angle_gamma 90.000000
_cell_volume 2953.531771
_symmetry_space_group_name_H-M "C C C 2"
_symmetry_group_IT_number 37
_symmetry_cell_setting 'orthorhombic'
loop_
_space_group_symop_operation_xyz
x,y,z
-x,-y,z
-x,y,1/2+z
x,-y,1/2+z
1/2+x,1/2+y,z
1/2-x,1/2-y,z
1/2-x,1/2+y,1/2+z
1/2+x,1/2-y,1/2+z
loop_
_atom_site_type_symbol
_atom_site_label
_atom_site_fract_x
_atom_site_fract_y
_atom_site_fract_z
Si Si1 0.103711 0.384080 0.253990
Si Si2 0.913272 0.868511 0.170577
Si Si3 0.372780 0.800324 0.004997
Si Si4 0.435674 0.691304 0.434266
Si Si5 0.044354 0.346197 0.604256
Si Si6 0.281465 0.076868 0.684772
Si Si7 0.216517 0.479519 0.939514
Si Si8 0.580746 0.850986 0.363133
O O1 0.096929 0.249925 0.214682
O O2 0.200755 0.493194 0.235369
O O3 0.114163 0.324632 0.308001
O O4 0.000000 0.500000 0.251440
O O5 0.956573 0.771441 0.125395
O O6 0.804348 0.965144 0.158726
O O7 0.000000 0.000000 0.183735
O O8 0.250000 0.750000 0.988707
O O9 0.384655 0.772633 0.061796
O O10 0.478223 0.727463 0.977809
O O11 0.352776 0.971633 0.987457
O O12 0.348992 0.553001 0.442718
O O13 0.348813 0.826848 0.427249
O O14 0.514158 0.711246 0.387122
O O15 0.113049 0.406408 0.650182
O O16 0.000000 0.500000 0.581097
O O17 0.250000 0.250000 0.692730
O O18 0.181272 0.597680 0.897786
O O19 0.500000 0.000000 0.362693
#
# Coordination Sequence:
#
# PCOD9355450 Si02
#       8
#     8   8   8   8   8   8   8   8
#     4  11  20  41  64  96 135 174 220 274 334 398
#     4  12  24  42  66  91 129 171 220 275 335 399
#     4  11  24  39  62  91 129 168 213 272 331 398
#     4   9  18  39  66  94 129 169 221 266 325 395
#     4  12  24  44  66  94 126 170 220 271 338 402
#     4  12  23  42  64  91 128 172 218 276 339 399
#     4   9  18  39  65  95 127 171 216 268 327 393
#     4   8  17  34  63  95 130 169 216 270 324 394
#
# _framework density 21.668972
#
# number of rings (size 3 to 8) (size 9 to 14) (size 15 to 20)
#    0.000    1.500    3.750    2.625    0.000    1.500 
#    9.000    5.000    0.000    0.000    0.000    0.000 
#    0.000    0.000    0.000    0.000    0.000    0.000 
#
# Total GULP energy -178288.530202 kJ/mol
# GULP energy per Si atom -5571.516569 kJ/mol
# Density = 2.161965 g / cm^3
# Si number density = 21.668972 Si / 1000 Ang^3
#
#
#
# Elastic Constant Matrix: (Units=GPa)
#
#
# Indices 1 2 3 4 5 6 
#
# 1 124.0543 47.7523 40.7635 0.0000 0.0000 0.0000
# 2 47.7523 102.5338 26.5386 0.0000 0.0000 0.0000
# 3 40.7635 26.5386 127.7671 0.0000 0.0000 0.0000
# 4 0.0000 0.0000 0.0000 -4.0516 0.0000 0.0000
# 5 0.0000 0.0000 0.0000 0.0000 -34.5315 0.0000
# 6 0.0000 0.0000 0.0000 0.0000 0.0000 45.8646
#
#
#
# Elastic Compliance Matrix: (Units=1/GPa)
#
#
# Indices 1 2 3 4 5 6 
#
# 1 0.010511 -0.004256 -0.002469 0.000000 0.000000 0.000000
# 2 -0.004256 0.012030 -0.001141 0.000000 0.000000 0.000000
# 3 -0.002469 -0.001141 0.008852 0.000000 0.000000 0.000000
# 4 0.000000 0.000000 0.000000 -0.246817 0.000000 0.000000
# 5 0.000000 0.000000 0.000000 0.000000 -0.028959 0.000000
# 6 0.000000 0.000000 0.000000 0.000000 0.000000 0.021803
#
#
# Mechanical properties :
#
#
# Convention : Reuss Voigt Hill
#
# Bulk Modulus (GPa) = 63.85714 64.94045 64.39879
# Shear Modulus (GPa) = -24.79813 17.40969 -3.69422
#
# Velocity S-wave (km/s) = -3.38658 2.83757 -1.30711
# Velocity P-wave (km/s) = 3.77379 6.38515 5.24460
#
# Compressibility (1/GPa) = 0.01565996
#
# Stress axis : x y z
#
# Youngs Moduli (GPa) = 95.14175 83.12373 112.97419
#
# Poissons Ratio (x) = 0.35377 0.27898
# Poissons Ratio (y) = 0.40491 0.12890
# Poissons Ratio (z) = 0.23494 0.09484
#
# Static dielectric constant tensor:
#      x y z
#    x 2.416580 0.000000 0.000000 
#    y 0.000000 2.759130 0.000000 
#    z 0.000000 0.000000 1.745620 
# 
# From -- ./inp_files/20492.got.cif
#   From: 2010.05.17/outbox.cif.g08.bks.cpg/sg37_11_cif.got.tgz:20492.got - 2010.06.03 17:53:42.
