data_PCOD9355385
_publ_section_title
;
Structure prediction by ZEFSAII (Michael W. Deem and Ramdas Pophale) SiO2 
 PCOD9355385
Probable space group: C C C 2
;
_chemical_formula_sum "Si O2"
_cell_formula_units_Z 56
_cell_length_a 14.527951
_cell_length_b 20.158059
_cell_length_c 8.601666
_cell_angle_alpha 90.000000
_cell_angle_beta 90.000000
_cell_angle_gamma 90.000000
_cell_volume 2519.043420
_symmetry_space_group_name_H-M "C C C 2"
_symmetry_group_IT_number 37
_symmetry_cell_setting 'orthorhombic'
loop_
_space_group_symop_operation_xyz
x,y,z
-x,-y,z
-x,y,1/2+z
x,-y,1/2+z
1/2+x,1/2+y,z
1/2-x,1/2-y,z
1/2-x,1/2+y,1/2+z
1/2+x,1/2-y,1/2+z
loop_
_atom_site_type_symbol
_atom_site_label
_atom_site_fract_x
_atom_site_fract_y
_atom_site_fract_z
Si Si1 0.298516 0.528870 0.296810
Si Si2 0.411957 0.361051 0.198618
Si Si3 0.059537 0.289219 0.169317
Si Si4 0.290160 0.403114 0.460843
Si Si5 0.250000 0.250000 0.723180
Si Si6 0.000000 0.000000 0.256731
Si Si7 0.230714 0.644109 0.487482
Si Si8 0.882533 0.309154 0.018925
O O1 0.262940 0.454785 0.323872
O O2 0.406691 0.522254 0.346129
O O3 0.233392 0.572024 0.408454
O O4 0.305679 0.556549 0.121407
O O5 0.456864 0.290390 0.151295
O O6 0.376509 0.365973 0.379066
O O7 0.467381 0.430371 0.174976
O O8 0.318366 0.355798 0.099348
O O9 0.144445 0.321234 0.073132
O O10 0.080911 0.294875 0.349636
O O11 0.969116 0.329830 0.121883
O O12 0.203319 0.357606 0.497353
O O13 0.162126 0.248974 0.613508
O O14 0.249226 0.311526 0.836608
#
# Coordination Sequence:
#
# PCOD9355385 Si02
#       8
#     8   8   8   8   4   4   8   8
#     4  11  25  44  74 105 152 199 259 308 398 465
#     4  11  24  44  70 108 156 205 246 312 393 462
#     4  12  27  45  75 110 154 196 263 325 380 470
#     4  11  24  46  73 103 148 206 245 319 387 474
#     4  12  24  44  72 112 146 204 246 316 392 456
#     4  10  26  44  70 112 152 198 252 316 374 482
#     4  12  24  45  74 106 154 205 251 314 389 466
#     4  12  27  46  74 109 147 196 263 321 389 462
#
# _framework density 22.230661000000001
#
# number of rings (size 3 to 8) (size 9 to 14) (size 15 to 20)
#    0.000    0.571    4.286    3.429    2.000    5.143 
#    0.000    0.714    0.000    0.000    0.000    0.000 
#    0.000    0.000    0.000    0.000    0.000    0.000 
#
# Total GULP energy -156127.534376 kJ/mol
# GULP energy per Si atom -5575.983371 kJ/mol
# Density = 2.218006 g / cm^3
# Si number density = 22.230661 Si / 1000 Ang^3
#
#
#
# Elastic Constant Matrix: (Units=GPa)
#
#
# Indices 1 2 3 4 5 6 
#
# 1 111.8933 31.9406 34.9841 0.0000 0.0000 0.0000
# 2 31.9406 60.6042 -8.6405 0.0000 0.0000 0.0000
# 3 34.9841 -8.6405 115.0915 0.0000 0.0000 0.0000
# 4 0.0000 0.0000 0.0000 38.9891 0.0000 0.0000
# 5 0.0000 0.0000 0.0000 0.0000 -9.5534 0.0000
# 6 0.0000 0.0000 0.0000 0.0000 0.0000 32.1746
#
#
#
# Elastic Compliance Matrix: (Units=1/GPa)
#
#
# Indices 1 2 3 4 5 6 
#
# 1 0.012296 -0.007089 -0.004270 0.000000 0.000000 0.000000
# 2 -0.007089 0.020766 0.003714 0.000000 0.000000 0.000000
# 3 -0.004270 0.003714 0.010265 0.000000 0.000000 0.000000
# 4 0.000000 0.000000 0.000000 0.025648 0.000000 0.000000
# 5 0.000000 0.000000 0.000000 0.000000 -0.104675 0.000000
# 6 0.000000 0.000000 0.000000 0.000000 0.000000 0.031080
#
#
# Mechanical properties :
#
#
# Convention : Reuss Voigt Hill
#
# Bulk Modulus (GPa) = 35.66647 44.90638 40.28642
# Shear Modulus (GPa) = 249.79483 27.60905 138.70194
#
# Velocity S-wave (km/s) = 10.61174 3.52793 7.90744
# Velocity P-wave (km/s) = 12.89278 6.06953 10.07629
#
# Compressibility (1/GPa) = 0.02803754
#
# Stress axis : x y z
#
# Youngs Moduli (GPa) = 81.32982 48.15530 97.41461
#
# Poissons Ratio (x) = 0.34137 0.41593
# Poissons Ratio (y) = 0.57655 -0.36178
# Poissons Ratio (z) = 0.34725 -0.17884
#
# Static dielectric constant tensor:
#      x y z
#    x 2.066350 0.000000 0.000000 
#    y 0.000000 2.012750 0.000000 
#    z 0.000000 0.000000 1.869450 
# 
# From -- ./inp_files/3671.got.cif
#   From: 2010.05.17/outbox.cif.g08.bks.cpg/sg37_2_cif.got.tgz:3671.got - 2010.06.03 17:53:42.
