data_PCOD9355540
_publ_section_title
;
Structure prediction by ZEFSAII (Michael W. Deem and Ramdas Pophale) SiO2 
 PCOD9355540
Probable space group: C C C 2
;
_chemical_formula_sum "Si O2"
_cell_formula_units_Z 64
_cell_length_a 13.799481
_cell_length_b 22.042975
_cell_length_c 9.356703
_cell_angle_alpha 90.000000
_cell_angle_beta 90.000000
_cell_angle_gamma 90.000000
_cell_volume 2846.137027
_symmetry_space_group_name_H-M "C C C 2"
_symmetry_group_IT_number 37
_symmetry_cell_setting 'orthorhombic'
loop_
_space_group_symop_operation_xyz
x,y,z
-x,-y,z
-x,y,1/2+z
x,-y,1/2+z
1/2+x,1/2+y,z
1/2-x,1/2-y,z
1/2-x,1/2+y,1/2+z
1/2+x,1/2-y,1/2+z
loop_
_atom_site_type_symbol
_atom_site_label
_atom_site_fract_x
_atom_site_fract_y
_atom_site_fract_z
Si Si1 0.254310 0.179414 0.658380
Si Si2 0.208606 0.682461 0.463629
Si Si3 0.542002 0.387373 0.890071
Si Si4 0.162312 0.070545 0.999761
Si Si5 0.276610 0.467016 0.314298
Si Si6 0.459760 0.689582 0.154476
Si Si7 0.022451 0.670445 0.662277
Si Si8 0.116626 0.384763 0.441561
O O1 0.250000 0.250000 0.624010
O O2 0.317720 0.167544 0.799211
O O3 0.145141 0.167487 0.709245
O O4 0.292624 0.148077 0.517666
O O5 0.250000 0.750000 0.462970
O O6 0.291292 0.636760 0.514321
O O7 0.117790 0.677946 0.565416
O O8 0.636588 0.429072 0.891200
O O9 0.530589 0.356992 0.734611
O O10 0.449469 0.424775 0.949539
O O11 0.544377 0.327982 0.989435
O O12 0.192989 0.037357 0.147641
O O13 0.215863 0.034735 0.872700
O O14 0.171795 0.440395 0.361924
O O15 0.477980 0.761056 0.171109
O O16 0.059541 0.649866 0.816837
O O17 0.957925 0.620156 0.576650
#
# Coordination Sequence:
#
# PCOD9355540 Si02
#       8
#     8   8   8   8   8   8   8   8
#     4  11  23  41  68 104 146 198 241 298 373 436
#     4  11  25  46  77 109 145 194 247 316 374 446
#     4  12  25  44  72 111 153 195 250 297 384 459
#     4  12  27  50  74 110 148 203 251 307 381 448
#     4  12  29  48  76 107 150 199 255 313 372 457
#     4  12  24  40  69 109 153 198 240 307 372 457
#     4  12  26  45  73 107 153 194 251 313 379 447
#     4  12  26  47  71 107 144 198 254 310 371 445
#
# _framework density 22.486621
#
# number of rings (size 3 to 8) (size 9 to 14) (size 15 to 20)
#    0.000    0.250    6.250    2.625    7.000    1.500 
#    0.000    0.625    0.000    0.000    0.000    0.000 
#    0.000    0.000    0.000    0.000    0.000    0.000 
#
# Total GULP energy -178639.954904 kJ/mol
# GULP energy per Si atom -5582.498591 kJ/mol
# Density = 2.243544 g / cm^3
# Si number density = 22.486621 Si / 1000 Ang^3
#
#
#
# Elastic Constant Matrix: (Units=GPa)
#
#
# Indices 1 2 3 4 5 6 
#
# 1 90.6510 19.1674 15.7888 0.0000 0.0000 0.0000
# 2 19.1674 62.3513 12.8634 0.0000 0.0000 0.0000
# 3 15.7888 12.8634 105.3356 0.0000 0.0000 0.0000
# 4 0.0000 0.0000 0.0000 30.3726 0.0000 0.0000
# 5 0.0000 0.0000 0.0000 0.0000 -11.9344 0.0000
# 6 0.0000 0.0000 0.0000 0.0000 0.0000 24.4969
#
#
#
# Elastic Compliance Matrix: (Units=1/GPa)
#
#
# Indices 1 2 3 4 5 6 
#
# 1 0.011991 -0.003401 -0.001382 0.000000 0.000000 0.000000
# 2 -0.003401 0.017417 -0.001617 0.000000 0.000000 0.000000
# 3 -0.001382 -0.001617 0.009898 0.000000 0.000000 0.000000
# 4 0.000000 0.000000 0.000000 0.032924 0.000000 0.000000
# 5 0.000000 0.000000 0.000000 0.000000 -0.083791 0.000000
# 6 0.000000 0.000000 0.000000 0.000000 0.000000 0.040822
#
#
# Mechanical properties :
#
#
# Convention : Reuss Voigt Hill
#
# Bulk Modulus (GPa) = 37.72731 39.33080 38.52905
# Shear Modulus (GPa) = 98.23777 22.62157 60.42967
#
# Velocity S-wave (km/s) = 6.61680 3.17519 5.18960
# Velocity P-wave (km/s) = 8.67123 5.56518 7.28565
#
# Compressibility (1/GPa) = 0.02650600
#
# Stress axis : x y z
#
# Youngs Moduli (GPa) = 83.39478 57.41417 101.02938
#
# Poissons Ratio (x) = 0.19527 0.13963
# Poissons Ratio (y) = 0.28363 0.16338
# Poissons Ratio (z) = 0.11525 0.09285
#
# Static dielectric constant tensor:
#      x y z
#    x 1.935080 0.000000 0.000000 
#    y 0.000000 1.804680 0.000000 
#    z 0.000000 0.000000 1.857400 
# 
# From -- ./inp_files/3752.got.cif
#   From: 2010.05.17/outbox.cif.g08.bks.cpg/sg37_2_cif.got.tgz:3752.got - 2010.06.03 17:53:42.
