data_PCOD9355653
_publ_section_title
;
Structure prediction by ZEFSAII (Michael W. Deem and Ramdas Pophale) SiO2 
 PCOD9355653
Probable space group: C C C 2
;
_chemical_formula_sum "Si O2"
_cell_formula_units_Z 40
_cell_length_a 17.191762
_cell_length_b 10.341643
_cell_length_c 9.182222
_cell_angle_alpha 90.000000
_cell_angle_beta 90.000000
_cell_angle_gamma 90.000000
_cell_volume 1632.517030
_symmetry_space_group_name_H-M "C C C 2"
_symmetry_group_IT_number 37
_symmetry_cell_setting 'orthorhombic'
loop_
_space_group_symop_operation_xyz
x,y,z
-x,-y,z
-x,y,1/2+z
x,-y,1/2+z
1/2+x,1/2+y,z
1/2-x,1/2-y,z
1/2-x,1/2+y,1/2+z
1/2+x,1/2-y,1/2+z
loop_
_atom_site_type_symbol
_atom_site_label
_atom_site_fract_x
_atom_site_fract_y
_atom_site_fract_z
Si Si1 0.298741 0.594880 0.104830
Si Si2 0.914198 0.257375 0.650727
Si Si3 0.000000 0.500000 0.557290
Si Si4 0.352140 0.376184 0.913442
Si Si5 0.000000 0.000000 0.255391
Si Si6 0.139437 0.325149 0.453101
O O1 0.294374 0.616577 0.277080
O O2 0.321032 0.453642 0.052767
O O3 0.219165 0.621560 0.020094
O O4 0.366115 0.692119 0.046773
O O5 0.967982 0.382547 0.652606
O O6 0.875938 0.256621 0.489808
O O7 0.963912 0.125263 0.673208
O O8 0.857019 0.277956 0.786767
O O9 0.929303 0.571911 0.473578
O O10 0.429393 0.443735 0.850581
#
# Coordination Sequence:
#
# PCOD9355653 Si02
#       6
#     8   8   4   8   4   8
#     4  11  25  48  77 110 158 207 270 330 398 482
#     4  12  26  48  82 113 163 206 269 328 412 475
#     4  12  28  48  78 124 160 218 262 342 418 488
#     4  12  24  46  78 117 150 211 267 333 392 482
#     4  12  22  44  82 124 152 208 270 336 384 492
#     4  11  26  51  72 113 163 207 261 334 398 490
#
# _framework density 24.502043
#
# number of rings (size 3 to 8) (size 9 to 14) (size 15 to 20)
#    0.000    0.400    4.000    3.600    2.800    1.600 
#    3.600    0.000    0.000    0.000    0.000    0.000 
#    0.000    0.000    0.000    0.000    0.000    0.000 
#
# Total GULP energy -111764.219205 kJ/mol
# GULP energy per Si atom -5588.210960 kJ/mol
# Density = 2.444627 g / cm^3
# Si number density = 24.502043 Si / 1000 Ang^3
#
#
#
# Elastic Constant Matrix: (Units=GPa)
#
#
# Indices 1 2 3 4 5 6 
#
# 1 114.1436 30.5613 55.1611 0.0000 0.0000 0.0000
# 2 30.5613 100.0418 48.7834 0.0000 0.0000 0.0000
# 3 55.1611 48.7834 164.4442 0.0000 0.0000 0.0000
# 4 0.0000 0.0000 0.0000 25.5834 0.0000 0.0000
# 5 0.0000 0.0000 0.0000 0.0000 2.9567 0.0000
# 6 0.0000 0.0000 0.0000 0.0000 0.0000 38.4880
#
#
#
# Elastic Compliance Matrix: (Units=1/GPa)
#
#
# Indices 1 2 3 4 5 6 
#
# 1 0.010720 -0.001779 -0.003068 0.000000 0.000000 0.000000
# 2 -0.001779 0.011981 -0.002958 0.000000 0.000000 0.000000
# 3 -0.003068 -0.002958 0.007988 0.000000 0.000000 0.000000
# 4 0.000000 0.000000 0.000000 0.039088 0.000000 0.000000
# 5 0.000000 0.000000 0.000000 0.000000 0.338217 0.000000
# 6 0.000000 0.000000 0.000000 0.000000 0.000000 0.025982
#
#
# Mechanical properties :
#
#
# Convention : Reuss Voigt Hill
#
# Bulk Modulus (GPa) = 66.31359 71.96014 69.13686
# Shear Modulus (GPa) = 10.99840 29.68055 20.33947
#
# Velocity S-wave (km/s) = 2.12097 3.48422 2.88429
# Velocity P-wave (km/s) = 5.75511 6.75420 6.27457
#
# Compressibility (1/GPa) = 0.01507986
#
# Stress axis : x y z
#
# Youngs Moduli (GPa) = 93.28477 83.46235 125.19194
#
# Poissons Ratio (x) = 0.14845 0.38412
# Poissons Ratio (y) = 0.16592 0.37029
# Poissons Ratio (z) = 0.28622 0.24686
#
# Static dielectric constant tensor:
#      x y z
#    x 2.057330 0.000000 0.000000 
#    y 0.000000 2.074850 0.000000 
#    z 0.000000 0.000000 1.946310 
# 
# From -- ./inp_files/4316.got.cif
#   From: 2010.05.17/outbox.cif.g08.bks.cpg/sg37_3_cif.got.tgz:4316.got - 2010.06.03 17:53:42.
