data_PCOD9355891
_publ_section_title
;
Structure prediction by ZEFSAII (Michael W. Deem and Ramdas Pophale) SiO2 
 PCOD9355891
Probable space group: A M M 2
;
_chemical_formula_sum "Si O2"
_cell_formula_units_Z 64
_cell_length_a 8.639196
_cell_length_b 14.952484
_cell_length_c 28.968397
_cell_angle_alpha 90.000000
_cell_angle_beta 90.000000
_cell_angle_gamma 90.000000
_cell_volume 3742.063364
_symmetry_space_group_name_H-M "A M M 2"
_symmetry_group_IT_number 38
_symmetry_cell_setting 'orthorhombic'
loop_
_space_group_symop_operation_xyz
x,y,z
-x,-y,z
-x,y,z
x,-y,z
x,1/2+y,1/2+z
-x,1/2-y,1/2+z
-x,1/2+y,1/2+z
x,1/2-y,1/2+z
loop_
_atom_site_type_symbol
_atom_site_label
_atom_site_fract_x
_atom_site_fract_y
_atom_site_fract_z
Si Si1 0.184201 0.605347 0.688150
Si Si2 0.314998 0.394620 0.124492
Si Si3 0.311458 0.898296 0.357913
Si Si4 0.314866 0.602787 0.586995
Si Si5 0.313040 0.897064 0.463823
Si Si6 0.312840 0.280995 0.772769
Si Si7 0.817177 0.226461 0.543699
Si Si8 0.688617 0.100413 0.730724
O O1 0.216184 0.500000 0.696023
O O2 0.250519 0.627601 0.637677
O O3 0.260478 0.662234 0.728566
O O4 0.000000 0.618679 0.688042
O O5 0.500000 0.378835 0.120774
O O6 0.288840 0.500000 0.114905
O O7 0.230429 0.332584 0.088143
O O8 0.268001 0.378335 0.177640
O O9 0.500000 0.897695 0.357514
O O10 0.265744 0.879491 0.410725
O O11 0.257056 0.828767 0.319445
O O12 0.263635 0.000000 0.346182
O O13 0.500000 0.605401 0.588765
O O14 0.266411 0.500000 0.577408
O O15 0.255434 0.675756 0.551024
O O16 0.500000 0.893317 0.466122
O O17 0.245048 0.826834 0.499462
O O18 0.268573 0.000000 0.475199
O O19 0.500000 0.280846 0.773908
O O20 0.260022 0.179342 0.764285
O O21 0.000000 0.234538 0.541284
O O22 0.500000 0.098676 0.730973
O O23 0.741555 0.000000 0.741968
#
# Coordination Sequence:
#
# PCOD9355891 Si02
#       8
#     8   8   8   8   8   8   8   8
#     4  10  20  32  46  70 105 135 157 191 242 293
#     4   9  17  30  47  67  96 135 173 203 233 280
#     4   8  15  28  47  72  97 121 158 208 252 287
#     4  10  21  37  55  72  93 127 169 205 235 279
#     4   9  18  34  53  70  94 130 167 204 247 295
#     4  10  17  27  49  74  95 127 169 207 243 289
#     4  12  23  32  48  74 101 126 155 199 253 305
#     4   8  15  27  43  66  95 125 158 195 233 273
#
# _framework density 17.102865000000001
#
# number of rings (size 3 to 8) (size 9 to 14) (size 15 to 20)
#    0.000    2.500    0.000    4.875    0.000    5.000 
#    0.000    0.625    0.000    2.625    0.000    3.500 
#    0.000    0.000    0.000    0.000    0.000    0.000 
#
# Total GULP energy -178537.454881 kJ/mol
# GULP energy per Si atom -5579.295465 kJ/mol
# Density = 1.706394 g / cm^3
# Si number density = 17.102865 Si / 1000 Ang^3
#
#
#
# Elastic Constant Matrix: (Units=GPa)
#
#
# Indices 1 2 3 4 5 6 
#
# 1 16.8391 25.5888 17.2710 0.0000 0.0000 0.0000
# 2 25.5888 116.5752 96.2355 0.0000 0.0000 0.0000
# 3 17.2710 96.2355 102.8935 0.0000 0.0000 0.0000
# 4 0.0000 0.0000 0.0000 33.0374 0.0000 0.0000
# 5 0.0000 0.0000 0.0000 0.0000 -17.8020 0.0000
# 6 0.0000 0.0000 0.0000 0.0000 0.0000 11.4063
#
#
#
# Elastic Compliance Matrix: (Units=1/GPa)
#
#
# Indices 1 2 3 4 5 6 
#
# 1 0.094436 -0.033540 0.015518 0.000000 0.000000 0.000000
# 2 -0.033540 0.049553 -0.040717 0.000000 0.000000 0.000000
# 3 0.015518 -0.040717 0.045196 0.000000 0.000000 0.000000
# 4 0.000000 0.000000 0.000000 0.030269 0.000000 0.000000
# 5 0.000000 0.000000 0.000000 0.000000 -0.056174 0.000000
# 6 0.000000 0.000000 0.000000 0.000000 0.000000 0.087671
#
#
# Mechanical properties :
#
#
# Convention : Reuss Voigt Hill
#
# Bulk Modulus (GPa) = 13.94534 57.16651 35.55593
# Shear Modulus (GPa) = 12.74436 11.80918 12.27677
#
# Velocity S-wave (km/s) = 2.73272 2.63055 2.68212
# Velocity P-wave (km/s) = 4.25776 6.53636 5.51600
#
# Compressibility (1/GPa) = 0.07170855
#
# Stress axis : x y z
#
# Youngs Moduli (GPa) = 10.58913 20.18055 22.12588
#
# Poissons Ratio (x) = 0.67685 -0.34335
# Poissons Ratio (y) = 0.35516 0.90089
# Poissons Ratio (z) = -0.16432 0.82168
#
# Static dielectric constant tensor:
#      x y z
#    x 1.566720 0.000000 0.000000 
#    y 0.000000 1.594980 0.000000 
#    z 0.000000 0.000000 1.560900 
# 
# From -- ./inp_files/24819.got.cif
#   From: 2010.05.17/outbox.cif.g08.bks.cpg/sg38_13_cif.got.tgz:24819.got - 2010.06.03 18:07:57.
