data_PCOD9355053
_publ_section_title
;
Structure prediction by ZEFSAII (Michael W. Deem and Ramdas Pophale) SiO2 
 PCOD9355053
Probable space group: C C C 2
;
_chemical_formula_sum "Si O2"
_cell_formula_units_Z 64
_cell_length_a 9.225903
_cell_length_b 20.479318
_cell_length_c 14.419731
_cell_angle_alpha 90.000000
_cell_angle_beta 90.000000
_cell_angle_gamma 90.000000
_cell_volume 2724.466879
_symmetry_space_group_name_H-M "C C C 2"
_symmetry_group_IT_number 37
_symmetry_cell_setting 'orthorhombic'
loop_
_space_group_symop_operation_xyz
x,y,z
-x,-y,z
-x,y,1/2+z
x,-y,1/2+z
1/2+x,1/2+y,z
1/2-x,1/2-y,z
1/2-x,1/2+y,1/2+z
1/2+x,1/2-y,1/2+z
loop_
_atom_site_type_symbol
_atom_site_label
_atom_site_fract_x
_atom_site_fract_y
_atom_site_fract_z
Si Si1 0.357728 0.307330 0.485760
Si Si2 0.656727 0.421574 0.708392
Si Si3 0.862598 0.043438 0.908931
Si Si4 0.161210 0.682877 0.343355
Si Si5 0.369995 0.193463 0.231992
Si Si6 0.894647 0.287971 0.529849
Si Si7 0.827795 0.495189 0.069018
Si Si8 0.674507 0.377413 0.174208
O O1 0.250000 0.250000 0.450508
O O2 0.372285 0.378259 0.435219
O O3 0.506537 0.268508 0.487904
O O4 0.319901 0.322701 0.593561
O O5 0.646207 0.467421 0.798607
O O6 0.770631 0.368892 0.744530
O O7 0.732542 0.447732 0.615684
O O8 0.495417 0.395625 0.686680
O O9 0.723581 0.017725 0.964412
O O10 0.000000 0.000000 0.942657
O O11 0.250000 0.750000 0.351135
O O12 0.134609 0.659690 0.449182
O O13 0.254965 0.640621 0.272267
O O14 0.003823 0.696580 0.300768
O O15 0.250000 0.250000 0.240754
O O16 0.444295 0.188198 0.129776
O O17 0.750000 0.250000 0.553888
O O18 0.767665 0.434867 0.129327
O O19 0.000000 0.500000 0.077799
#
# Coordination Sequence:
#
# PCOD9355053 Si02
#       8
#     8   8   8   8   8   8   8   8
#     4  11  24  43  70 105 151 194 247 314 383 458
#     4  12  26  47  76 107 145 199 262 318 382 473
#     4  11  27  48  76 109 148 206 259 315 387 470
#     4  11  23  39  65 102 141 190 243 300 378 457
#     4  11  24  43  66 103 147 193 246 316 392 458
#     4  10  23  39  61 101 142 186 240 302 376 456
#     4  11  25  49  73 105 144 187 249 319 382 457
#     4  11  22  44  72  98 145 193 244 306 380 459
#
# _framework density 23.490832999999999
#
# number of rings (size 3 to 8) (size 9 to 14) (size 15 to 20)
#    0.000    1.000    0.000    7.500    7.000    1.500 
#    2.250    0.000    0.000    0.000    0.000    0.000 
#    0.000    0.000    0.000    0.000    0.000    0.000 
#
# Total GULP energy -178817.048308 kJ/mol
# GULP energy per Si atom -5588.032760 kJ/mol
# Density = 2.343737 g / cm^3
# Si number density = 23.490833 Si / 1000 Ang^3
#
#
#
# Elastic Constant Matrix: (Units=GPa)
#
#
# Indices 1 2 3 4 5 6 
#
# 1 177.0640 45.8352 30.3814 0.0000 0.0000 0.0000
# 2 45.8352 61.8073 11.9591 0.0000 0.0000 0.0000
# 3 30.3814 11.9591 140.8440 0.0000 0.0000 0.0000
# 4 0.0000 0.0000 0.0000 21.4843 0.0000 0.0000
# 5 0.0000 0.0000 0.0000 0.0000 48.7453 0.0000
# 6 0.0000 0.0000 0.0000 0.0000 0.0000 38.7843
#
#
#
# Elastic Compliance Matrix: (Units=1/GPa)
#
#
# Indices 1 2 3 4 5 6 
#
# 1 0.007157 -0.005092 -0.001111 0.000000 0.000000 0.000000
# 2 -0.005092 0.020073 -0.000606 0.000000 0.000000 0.000000
# 3 -0.001111 -0.000606 0.007391 0.000000 0.000000 0.000000
# 4 0.000000 0.000000 0.000000 0.046546 0.000000 0.000000
# 5 0.000000 0.000000 0.000000 0.000000 0.020515 0.000000
# 6 0.000000 0.000000 0.000000 0.000000 0.000000 0.025784
#
#
# Mechanical properties :
#
#
# Convention : Reuss Voigt Hill
#
# Bulk Modulus (GPa) = 47.61528 61.78519 54.70023
# Shear Modulus (GPa) = 33.76462 41.23876 37.50169
#
# Velocity S-wave (km/s) = 3.79536 4.19444 3.99988
# Velocity P-wave (km/s) = 6.28650 7.05810 6.68344
#
# Compressibility (1/GPa) = 0.02100166
#
# Stress axis : x y z
#
# Youngs Moduli (GPa) = 139.73271 49.81874 135.29539
#
# Poissons Ratio (x) = 0.25368 0.15036
# Poissons Ratio (y) = 0.71153 0.08198
# Poissons Ratio (z) = 0.15529 0.03019
#
# Static dielectric constant tensor:
#      x y z
#    x 1.828670 0.000000 0.000000 
#    y 0.000000 1.943680 0.000000 
#    z 0.000000 0.000000 1.949450 
# 
# From -- ./inp_files/11024.got.cif
#   From: 2010.05.17/outbox.cif.g08.bks.cpg/sg37_6_cif.got.tgz:11024.got - 2010.06.03 17:53:42.
