data_PCOD9355321
_publ_section_title
;
Structure prediction by ZEFSAII (Michael W. Deem and Ramdas Pophale) SiO2 
 PCOD9355321
Probable space group: C C C 2
;
_chemical_formula_sum "Si O2"
_cell_formula_units_Z 52
_cell_length_a 13.901214
_cell_length_b 8.977236
_cell_length_c 19.656303
_cell_angle_alpha 90.000000
_cell_angle_beta 90.000000
_cell_angle_gamma 90.000000
_cell_volume 2452.998087
_symmetry_space_group_name_H-M "C C C 2"
_symmetry_group_IT_number 37
_symmetry_cell_setting 'orthorhombic'
loop_
_space_group_symop_operation_xyz
x,y,z
-x,-y,z
-x,y,1/2+z
x,-y,1/2+z
1/2+x,1/2+y,z
1/2-x,1/2-y,z
1/2-x,1/2+y,1/2+z
1/2+x,1/2-y,1/2+z
loop_
_atom_site_type_symbol
_atom_site_label
_atom_site_fract_x
_atom_site_fract_y
_atom_site_fract_z
Si Si1 0.399479 0.033565 0.410000
Si Si2 0.000000 0.000000 0.813941
Si Si3 0.402996 0.096792 0.145156
Si Si4 0.135219 0.264169 0.286494
Si Si5 0.635699 0.720228 0.899552
Si Si6 0.027344 0.826447 0.542291
Si Si7 0.168575 0.367336 0.542657
O O1 0.399018 0.168763 0.358511
O O2 0.321002 0.058016 0.468184
O O3 0.500000 0.000000 0.447757
O O4 0.391335 0.881455 0.368262
O O5 0.066915 0.879837 0.774957
O O6 0.918794 0.908809 0.857430
O O7 0.376361 0.127840 0.222332
O O8 0.418494 0.252926 0.106231
O O9 0.500000 0.000000 0.144543
O O10 0.333711 0.994938 0.099287
O O11 0.250000 0.250000 0.294281
O O12 0.750000 0.750000 0.902957
O O13 0.591958 0.700017 0.975158
O O14 0.929203 0.729975 0.537185
O O15 0.000000 0.000000 0.548721
O O16 0.250000 0.250000 0.557282
#
# Coordination Sequence:
#
# PCOD9355321 Si02
#       7
#     8   4   8   8   8   8   8
#     4  12  21  44  69  98 140 186 224 291 360 423
#     4  12  26  48  68 112 144 184 248 312 354 446
#     4  10  24  48  65  96 140 191 237 294 369 436
#     4  12  27  46  73 101 145 191 242 295 371 438
#     4  12  25  41  71 106 142 182 237 296 368 429
#     4  11  23  40  66  99 140 182 231 301 355 424
#     4  11  23  42  70 102 138 185 242 290 363 439
#
# _framework density 21.198547999999999
#
# number of rings (size 3 to 8) (size 9 to 14) (size 15 to 20)
#    0.000    0.615    5.385    2.308    3.231    1.846 
#    2.769    0.769    0.000    0.000    0.000    0.000 
#    0.000    0.000    0.000    0.000    0.000    0.000 
#
# Total GULP energy -144980.661322 kJ/mol
# GULP energy per Si atom -5576.179282 kJ/mol
# Density = 2.115030 g / cm^3
# Si number density = 21.198548 Si / 1000 Ang^3
#
#
#
# Elastic Constant Matrix: (Units=GPa)
#
#
# Indices 1 2 3 4 5 6 
#
# 1 116.0867 38.8199 20.1073 0.0000 0.0000 0.0000
# 2 38.8199 130.2059 32.3499 0.0000 0.0000 0.0000
# 3 20.1073 32.3499 86.6913 0.0000 0.0000 0.0000
# 4 0.0000 0.0000 0.0000 32.4286 0.0000 0.0000
# 5 0.0000 0.0000 0.0000 0.0000 -14.9300 0.0000
# 6 0.0000 0.0000 0.0000 0.0000 0.0000 28.6242
#
#
#
# Elastic Compliance Matrix: (Units=1/GPa)
#
#
# Indices 1 2 3 4 5 6 
#
# 1 0.009697 -0.002571 -0.001290 0.000000 0.000000 0.000000
# 2 -0.002571 0.009146 -0.002817 0.000000 0.000000 0.000000
# 3 -0.001290 -0.002817 0.012886 0.000000 0.000000 0.000000
# 4 0.000000 0.000000 0.000000 0.030837 0.000000 0.000000
# 5 0.000000 0.000000 0.000000 0.000000 -0.066979 0.000000
# 6 0.000000 0.000000 0.000000 0.000000 0.000000 0.034936
#
#
# Mechanical properties :
#
#
# Convention : Reuss Voigt Hill
#
# Bulk Modulus (GPa) = 54.42378 57.28201 55.85290
# Shear Modulus (GPa) = 99.99591 25.33836 62.66714
#
# Velocity S-wave (km/s) = 6.87557 3.46104 5.44299
# Velocity P-wave (km/s) = 9.42128 6.56141 8.11827
#
# Compressibility (1/GPa) = 0.01837432
#
# Stress axis : x y z
#
# Youngs Moduli (GPa) = 103.12121 109.33233 77.60660
#
# Poissons Ratio (x) = 0.28106 0.10011
# Poissons Ratio (y) = 0.26509 0.21861
# Poissons Ratio (z) = 0.13302 0.30797
#
# Static dielectric constant tensor:
#      x y z
#    x 2.280130 0.000000 0.000000 
#    y 0.000000 1.810700 0.000000 
#    z 0.000000 0.000000 1.730970 
# 
# From -- ./inp_files/16370.got.cif
#   From: 2010.05.17/outbox.cif.g08.bks.cpg/sg37_9_cif.got.tgz:16370.got - 2010.06.03 17:53:42.
