data_PCOD9355642
_publ_section_title
;
Structure prediction by ZEFSAII (Michael W. Deem and Ramdas Pophale) SiO2 
 PCOD9355642
Probable space group: C C C 2
;
_chemical_formula_sum "Si O2"
_cell_formula_units_Z 60
_cell_length_a 5.975136
_cell_length_b 19.835053
_cell_length_c 21.363454
_cell_angle_alpha 90.000000
_cell_angle_beta 90.000000
_cell_angle_gamma 90.000000
_cell_volume 2531.935452
_symmetry_space_group_name_H-M "C C C 2"
_symmetry_group_IT_number 37
_symmetry_cell_setting 'orthorhombic'
loop_
_space_group_symop_operation_xyz
x,y,z
-x,-y,z
-x,y,1/2+z
x,-y,1/2+z
1/2+x,1/2+y,z
1/2-x,1/2-y,z
1/2-x,1/2+y,1/2+z
1/2+x,1/2-y,1/2+z
loop_
_atom_site_type_symbol
_atom_site_label
_atom_site_fract_x
_atom_site_fract_y
_atom_site_fract_z
Si Si1 0.371138 0.314285 0.142310
Si Si2 0.808069 0.322272 0.345287
Si Si3 0.589448 0.573022 0.357525
Si Si4 0.989307 0.579751 0.079738
Si Si5 0.250000 0.750000 0.052354
Si Si6 0.078089 0.361428 0.457600
Si Si7 0.953462 0.567725 0.273598
Si Si8 0.349511 0.431282 0.672591
O O1 0.250000 0.250000 0.173614
O O2 0.537055 0.274913 0.093689
O O3 0.512008 0.363464 0.187017
O O4 0.190863 0.369005 0.112314
O O5 0.750000 0.250000 0.320224
O O6 0.602146 0.372003 0.353384
O O7 0.976787 0.361050 0.300495
O O8 0.919159 0.317666 0.413425
O O9 0.500000 0.500000 0.375124
O O10 0.761840 0.598755 0.410139
O O11 0.689815 0.567361 0.286763
O O12 0.237515 0.593280 0.106996
O O13 0.000000 0.500000 0.094235
O O14 0.956157 0.588509 0.005732
O O15 0.192444 0.689113 0.005915
O O16 0.131593 0.557900 0.217207
O O17 0.000000 0.500000 0.314493
O O18 0.500000 0.500000 0.666971
#
# Coordination Sequence:
#
# PCOD9355642 Si02
#       8
#     8   8   8   8   4   8   8   8
#     4  12  25  47  74 107 159 203 258 309 376 463
#     4  11  26  48  72 111 151 196 255 316 376 449
#     4  11  25  46  78 110 150 200 257 317 383 454
#     4  12  26  44  71 117 156 198 260 312 380 464
#     4  12  24  46  72 112 156 224 242 308 372 462
#     4  11  26  39  73 109 158 201 253 299 381 447
#     4  11  26  49  78 106 140 195 257 317 390 454
#     4  12  27  49  79 111 148 200 256 325 393 462
#
# _framework density 23.697285999999998
#
# number of rings (size 3 to 8) (size 9 to 14) (size 15 to 20)
#    0.000    0.533    5.333    1.200    7.467    2.133 
#    3.600    0.000    0.000    0.000    0.000    0.000 
#    0.000    0.000    0.000    0.000    0.000    0.000 
#
# Total GULP energy -167134.640884 kJ/mol
# GULP energy per Si atom -5571.154696 kJ/mol
# Density = 2.364335 g / cm^3
# Si number density = 23.697286 Si / 1000 Ang^3
#
#
#
# Elastic Constant Matrix: (Units=GPa)
#
#
# Indices 1 2 3 4 5 6 
#
# 1 61.3602 35.7278 4.8889 0.0000 0.0000 0.0000
# 2 35.7278 179.1389 12.0623 0.0000 0.0000 0.0000
# 3 4.8889 12.0623 39.4212 0.0000 0.0000 0.0000
# 4 0.0000 0.0000 0.0000 26.7915 0.0000 0.0000
# 5 0.0000 0.0000 0.0000 0.0000 19.5159 0.0000
# 6 0.0000 0.0000 0.0000 0.0000 0.0000 53.6133
#
#
#
# Elastic Compliance Matrix: (Units=1/GPa)
#
#
# Indices 1 2 3 4 5 6 
#
# 1 0.018493 -0.003608 -0.001189 0.000000 0.000000 0.000000
# 2 -0.003608 0.006404 -0.001512 0.000000 0.000000 0.000000
# 3 -0.001189 -0.001512 0.025977 0.000000 0.000000 0.000000
# 4 0.000000 0.000000 0.000000 0.037325 0.000000 0.000000
# 5 0.000000 0.000000 0.000000 0.000000 0.051240 0.000000
# 6 0.000000 0.000000 0.000000 0.000000 0.000000 0.018652
#
#
# Mechanical properties :
#
#
# Convention : Reuss Voigt Hill
#
# Bulk Modulus (GPa) = 26.14053 42.80869 34.47461
# Shear Modulus (GPa) = 27.25360 35.13357 31.19359
#
# Velocity S-wave (km/s) = 3.39495 3.85463 3.63207
# Velocity P-wave (km/s) = 5.14029 6.15751 5.67175
#
# Compressibility (1/GPa) = 0.03825478
#
# Stress axis : x y z
#
# Youngs Moduli (GPa) = 54.07485 156.16006 38.49529
#
# Poissons Ratio (x) = 0.56345 0.04579
# Poissons Ratio (y) = 0.19511 0.05820
# Poissons Ratio (z) = 0.06432 0.23611
#
# Static dielectric constant tensor:
#      x y z
#    x 2.068620 0.000000 0.000000 
#    y 0.000000 2.002900 0.000000 
#    z 0.000000 0.000000 1.917260 
# 
# From -- ./inp_files/18092.got.cif
#   From: 2010.05.17/outbox.cif.g08.bks.cpg/sg37_10_cif.got.tgz:18092.got - 2010.06.03 17:53:42.
