data_PCOD9355065
_publ_section_title
;
Structure prediction by ZEFSAII (Michael W. Deem and Ramdas Pophale) SiO2 
 PCOD9355065
Probable space group: C C C 2
;
_chemical_formula_sum "Si O2"
_cell_formula_units_Z 64
_cell_length_a 14.508899
_cell_length_b 8.922096
_cell_length_c 22.402921
_cell_angle_alpha 90.000000
_cell_angle_beta 90.000000
_cell_angle_gamma 90.000000
_cell_volume 2900.053413
_symmetry_space_group_name_H-M "C C C 2"
_symmetry_group_IT_number 37
_symmetry_cell_setting 'orthorhombic'
loop_
_space_group_symop_operation_xyz
x,y,z
-x,-y,z
-x,y,1/2+z
x,-y,1/2+z
1/2+x,1/2+y,z
1/2-x,1/2-y,z
1/2-x,1/2+y,1/2+z
1/2+x,1/2-y,1/2+z
loop_
_atom_site_type_symbol
_atom_site_label
_atom_site_fract_x
_atom_site_fract_y
_atom_site_fract_z
Si Si1 0.966699 0.221073 0.902680
Si Si2 0.020957 0.340590 0.525138
Si Si3 0.229223 0.577417 0.719698
Si Si4 0.808600 0.593677 0.354857
Si Si5 0.842594 0.349034 0.128869
Si Si6 0.844720 0.843886 0.053638
Si Si7 0.398903 0.449004 0.666872
Si Si8 0.647697 0.427694 0.413248
O O1 0.910142 0.360641 0.876907
O O2 0.077068 0.205914 0.893394
O O3 0.911221 0.069297 0.888515
O O4 0.953433 0.226566 0.974045
O O5 0.105865 0.374763 0.567802
O O6 0.000000 0.500000 0.495950
O O7 0.932098 0.268710 0.556890
O O8 0.250000 0.750000 0.706754
O O9 0.187174 0.561135 0.784680
O O10 0.172979 0.495358 0.667775
O O11 0.327494 0.495208 0.717368
O O12 0.750000 0.750000 0.362482
O O13 0.749988 0.463252 0.388130
O O14 0.750000 0.250000 0.120561
O O15 0.904127 0.228911 0.163006
O O16 0.750000 0.750000 0.062222
O O17 0.863121 0.970492 0.104757
O O18 0.843843 0.910190 0.985669
O O19 0.500000 0.500000 0.679428
#
# Coordination Sequence:
#
# PCOD9355065 Si02
#       8
#     8   8   8   8   8   8   8   8
#     4   9  19  37  64  94 126 169 209 276 332 406
#     4  11  24  37  60  98 138 160 213 264 334 410
#     4  10  23  42  64  93 126 170 226 271 333 400
#     4   9  19  39  64  91 124 170 218 277 334 390
#     4  10  23  40  66  93 126 169 215 267 328 391
#     4  11  24  38  62  99 133 176 206 271 341 402
#     4  11  22  41  65  92 127 164 220 272 327 394
#     4   9  19  37  65  95 127 162 227 262 332 411
#
# _framework density 22.068560000000002
#
# number of rings (size 3 to 8) (size 9 to 14) (size 15 to 20)
#    0.000    2.000    1.250    1.125    8.750    1.500 
#    6.750    1.875    0.000    0.000    0.000    0.000 
#    0.000    0.000    0.000    0.000    0.000    0.000 
#
# Total GULP energy -178442.773884 kJ/mol
# GULP energy per Si atom -5576.336684 kJ/mol
# Density = 2.201833 g / cm^3
# Si number density = 22.068560 Si / 1000 Ang^3
#
#
#
# Elastic Constant Matrix: (Units=GPa)
#
#
# Indices 1 2 3 4 5 6 
#
# 1 84.9819 15.6710 52.5266 0.0000 0.0000 0.0000
# 2 15.6710 59.4047 24.8086 0.0000 0.0000 0.0000
# 3 52.5266 24.8086 79.1630 0.0000 0.0000 0.0000
# 4 0.0000 0.0000 0.0000 17.0087 0.0000 0.0000
# 5 0.0000 0.0000 0.0000 0.0000 -90.2305 0.0000
# 6 0.0000 0.0000 0.0000 0.0000 0.0000 35.3685
#
#
#
# Elastic Compliance Matrix: (Units=1/GPa)
#
#
# Indices 1 2 3 4 5 6 
#
# 1 0.019953 0.000305 -0.013335 0.000000 0.000000 0.000000
# 2 0.000305 0.019373 -0.006274 0.000000 0.000000 0.000000
# 3 -0.013335 -0.006274 0.023447 0.000000 0.000000 0.000000
# 4 0.000000 0.000000 0.000000 0.058794 0.000000 0.000000
# 5 0.000000 0.000000 0.000000 0.000000 -0.011083 0.000000
# 6 0.000000 0.000000 0.000000 0.000000 0.000000 0.028274
#
#
# Mechanical properties :
#
#
# Convention : Reuss Voigt Hill
#
# Bulk Modulus (GPa) = 41.38118 45.50688 43.44403
# Shear Modulus (GPa) = 26.96577 1.13223 14.04900
#
# Velocity S-wave (km/s) = 3.49937 0.71705 2.52584
# Velocity P-wave (km/s) = 5.92616 4.62071 5.31368
#
# Compressibility (1/GPa) = 0.02416558
#
# Stress axis : x y z
#
# Youngs Moduli (GPa) = 50.11718 51.61752 42.65025
#
# Poissons Ratio (x) = -0.01576 0.56875
# Poissons Ratio (y) = -0.01530 0.26758
# Poissons Ratio (z) = 0.66832 0.32384
#
# Static dielectric constant tensor:
#      x y z
#    x 1.795470 0.000000 0.000000 
#    y 0.000000 1.826420 0.000000 
#    z 0.000000 0.000000 1.791130 
# 
# From -- ./inp_files/18880.got.cif
#   From: 2010.05.17/outbox.cif.g08.bks.cpg/sg37_10_cif.got.tgz:18880.got - 2010.06.03 17:53:42.
