data_PCOD9355649
_publ_section_title
;
Structure prediction by ZEFSAII (Michael W. Deem and Ramdas Pophale) SiO2 
 PCOD9355649
Probable space group: C C C 2
;
_chemical_formula_sum "Si O2"
_cell_formula_units_Z 36
_cell_length_a 19.116773
_cell_length_b 5.170523
_cell_length_c 13.809851
_cell_angle_alpha 90.000000
_cell_angle_beta 90.000000
_cell_angle_gamma 90.000000
_cell_volume 1365.016969
_symmetry_space_group_name_H-M "C C C 2"
_symmetry_group_IT_number 37
_symmetry_cell_setting 'orthorhombic'
loop_
_space_group_symop_operation_xyz
x,y,z
-x,-y,z
-x,y,1/2+z
x,-y,1/2+z
1/2+x,1/2+y,z
1/2-x,1/2-y,z
1/2-x,1/2+y,1/2+z
1/2+x,1/2-y,1/2+z
loop_
_atom_site_type_symbol
_atom_site_label
_atom_site_fract_x
_atom_site_fract_y
_atom_site_fract_z
Si Si1 0.750000 0.750000 0.665520
Si Si2 0.422427 0.920590 0.974853
Si Si3 0.126021 0.910779 0.578026
Si Si4 0.226317 0.991128 0.349545
Si Si5 0.074396 0.136113 0.291817
O O1 0.695347 0.575428 0.607765
O O2 0.772514 0.539999 0.749685
O O3 0.411689 0.630726 0.014517
O O4 0.627121 0.862055 0.021682
O O5 0.500000 0.000000 0.003258
O O6 0.420542 0.892017 0.858306
O O7 0.084902 0.843319 0.677084
O O8 0.250000 0.250000 0.398261
O O9 0.145312 0.987662 0.324034
O O10 0.250000 0.750000 0.410484
O O11 0.000000 0.000000 0.311797
#
# Coordination Sequence:
#
# PCOD9355649 Si02
#       5
#     4   8   8   8   8
#     4   8  22  42  78 108 152 188 268 318 388 468
#     4  12  27  47  71 116 163 198 266 330 386 485
#     4  11  26  47  80 114 158 210 258 332 401 467
#     4   9  21  41  71 111 151 190 245 323 382 465
#     4  11  25  47  81 114 155 211 259 328 400 466
#
# _framework density 26.3733
#
# number of rings (size 3 to 8) (size 9 to 14) (size 15 to 20)
#    0.667    0.889    0.000    3.333    6.222    8.000 
#    2.000    0.000    4.889    0.000    0.000    0.000 
#    3.333    0.000    0.000    0.000    0.000    0.000 
#
# Total GULP energy -100534.341932 kJ/mol
# GULP energy per Si atom -5585.241218 kJ/mol
# Density = 2.631327 g / cm^3
# Si number density = 26.373300 Si / 1000 Ang^3
#
#
#
# Elastic Constant Matrix: (Units=GPa)
#
#
# Indices 1 2 3 4 5 6 
#
# 1 144.6722 46.8071 55.9754 0.0000 0.0000 0.0000
# 2 46.8071 192.7525 71.0147 0.0000 0.0000 0.0000
# 3 55.9754 71.0147 159.9834 0.0000 0.0000 0.0000
# 4 0.0000 0.0000 0.0000 40.9545 0.0000 0.0000
# 5 0.0000 0.0000 0.0000 0.0000 32.6525 0.0000
# 6 0.0000 0.0000 0.0000 0.0000 0.0000 31.5054
#
#
#
# Elastic Compliance Matrix: (Units=1/GPa)
#
#
# Indices 1 2 3 4 5 6 
#
# 1 0.008190 -0.001116 -0.002370 0.000000 0.000000 0.000000
# 2 -0.001116 0.006354 -0.002430 0.000000 0.000000 0.000000
# 3 -0.002370 -0.002430 0.008159 0.000000 0.000000 0.000000
# 4 0.000000 0.000000 0.000000 0.024417 0.000000 0.000000
# 5 0.000000 0.000000 0.000000 0.000000 0.030625 0.000000
# 6 0.000000 0.000000 0.000000 0.000000 0.000000 0.031741
#
#
# Mechanical properties :
#
#
# Convention : Reuss Voigt Hill
#
# Bulk Modulus (GPa) = 91.98973 93.88916 92.93944
# Shear Modulus (GPa) = 40.01829 42.59655 41.30742
#
# Velocity S-wave (km/s) = 3.89958 4.02324 3.96189
# Velocity P-wave (km/s) = 7.43177 7.56699 7.49968
#
# Compressibility (1/GPa) = 0.01087078
#
# Stress axis : x y z
#
# Youngs Moduli (GPa) = 122.09626 157.37458 122.56709
#
# Poissons Ratio (x) = 0.17556 0.29054
# Poissons Ratio (y) = 0.13620 0.29787
# Poissons Ratio (z) = 0.28942 0.38246
#
# Static dielectric constant tensor:
#      x y z
#    x 2.087110 0.000000 0.000000 
#    y 0.000000 2.217980 0.000000 
#    z 0.000000 0.000000 2.104580 
# 
# From -- ./inp_files/12790.got.cif
#   From: 2010.05.17/outbox.cif.g08.bks.cpg/sg37_7_cif.got.tgz:12790.got - 2010.06.03 17:53:42.
