data_PCOD9355788
_publ_section_title
;
Structure prediction by ZEFSAII (Michael W. Deem and Ramdas Pophale) SiO2 
 PCOD9355788
Probable space group: A M M 2
;
_chemical_formula_sum "Si O2"
_cell_formula_units_Z 38
_cell_length_a 11.837539
_cell_length_b 17.746339
_cell_length_c 9.204309
_cell_angle_alpha 90.000000
_cell_angle_beta 90.000000
_cell_angle_gamma 90.000000
_cell_volume 1933.576621
_symmetry_space_group_name_H-M "A M M 2"
_symmetry_group_IT_number 38
_symmetry_cell_setting 'orthorhombic'
loop_
_space_group_symop_operation_xyz
x,y,z
-x,-y,z
-x,y,z
x,-y,z
x,1/2+y,1/2+z
-x,1/2-y,1/2+z
-x,1/2+y,1/2+z
x,1/2-y,1/2+z
loop_
_atom_site_type_symbol
_atom_site_label
_atom_site_fract_x
_atom_site_fract_y
_atom_site_fract_z
Si Si1 0.750685 0.352943 0.128620
Si Si2 0.263410 0.500000 0.552628
Si Si3 0.373600 0.142121 0.150801
Si Si4 0.500000 0.586558 0.113289
Si Si5 0.866069 0.000000 0.751061
Si Si6 0.293505 0.750161 0.895416
Si Si7 0.500000 0.500000 0.391721
O O1 0.814383 0.428990 0.165808
O O2 0.759223 0.305261 0.276346
O O3 0.618617 0.371892 0.089428
O O4 0.788349 0.301312 0.994091
O O5 0.277475 0.577194 0.643909
O O6 0.173821 0.500000 0.421201
O O7 0.381862 0.500000 0.467901
O O8 0.500000 0.109077 0.148463
O O9 0.363564 0.193548 0.293182
O O10 0.357468 0.197120 0.012175
O O11 0.500000 0.500000 0.050689
O O12 0.500000 0.571752 0.285882
O O13 0.000000 0.000000 0.746238
#
# Coordination Sequence:
#
# PCOD9355788 Si02
#       7
#     8   4   8   4   4   8   2
#     4  11  22  40  60  93 121 159 200 241 306 356
#     4  12  20  37  59  83 120 157 202 241 297 346
#     4  11  21  34  55  91 130 165 192 233 286 363
#     4  10  18  30  59  84 124 156 194 238 279 361
#     4  12  24  43  69  86 107 156 219 256 296 364
#     4  10  24  34  57  88 134 158 190 241 296 365
#     4  10  14  30  52  86 104 158 180 238 286 348
#
# _framework density 19.652698000000001
#
# number of rings (size 3 to 8) (size 9 to 14) (size 15 to 20)
#    0.316    0.842    6.316    0.632    8.842    0.842 
#    0.000    1.053    0.000    2.526    0.000    0.000 
#    0.000    0.000    0.000    0.000    0.000    0.000 
#
# Total GULP energy -105886.414255 kJ/mol
# GULP energy per Si atom -5572.969171 kJ/mol
# Density = 1.960797 g / cm^3
# Si number density = 19.652698 Si / 1000 Ang^3
#
#
#
# Elastic Constant Matrix: (Units=GPa)
#
#
# Indices 1 2 3 4 5 6 
#
# 1 73.3996 44.3474 24.3660 0.0000 0.0000 0.0000
# 2 44.3474 139.8041 54.8650 0.0000 0.0000 0.0000
# 3 24.3660 54.8650 112.7784 0.0000 0.0000 0.0000
# 4 0.0000 0.0000 0.0000 18.8773 0.0000 0.0000
# 5 0.0000 0.0000 0.0000 0.0000 10.5529 0.0000
# 6 0.0000 0.0000 0.0000 0.0000 0.0000 -9.5627
#
#
#
# Elastic Compliance Matrix: (Units=1/GPa)
#
#
# Indices 1 2 3 4 5 6 
#
# 1 0.017007 -0.004885 -0.001298 0.000000 0.000000 0.000000
# 2 -0.004885 0.010244 -0.003928 0.000000 0.000000 0.000000
# 3 -0.001298 -0.003928 0.011058 0.000000 0.000000 0.000000
# 4 0.000000 0.000000 0.000000 0.052974 0.000000 0.000000
# 5 0.000000 0.000000 0.000000 0.000000 0.094760 0.000000
# 6 0.000000 0.000000 0.000000 0.000000 0.000000 -0.104572
#
#
# Mechanical properties :
#
#
# Convention : Reuss Voigt Hill
#
# Bulk Modulus (GPa) = 55.28940 63.68210 59.48575
# Shear Modulus (GPa) = 46.41586 17.46708 31.94147
#
# Velocity S-wave (km/s) = 4.86511 2.98449 4.03587
# Velocity P-wave (km/s) = 7.73003 6.65960 7.21470
#
# Compressibility (1/GPa) = 0.01808665
#
# Stress axis : x y z
#
# Youngs Moduli (GPa) = 58.80090 97.61684 90.43006
#
# Poissons Ratio (x) = 0.47690 0.11734
# Poissons Ratio (y) = 0.28727 0.35522
# Poissons Ratio (z) = 0.07630 0.38345
#
# Static dielectric constant tensor:
#      x y z
#    x 1.646380 0.000000 0.000000 
#    y 0.000000 1.849690 0.000000 
#    z 0.000000 0.000000 1.734140 
# 
# From -- ./inp_files/4331.got.cif
#   From: 2010.05.17/outbox.cif.g08.bks.cpg/sg38_3_cif.got.tgz:4331.got - 2010.06.03 18:07:57.
