data_PCOD9355896
_publ_section_title
;
Structure prediction by ZEFSAII (Michael W. Deem and Ramdas Pophale) SiO2 
 PCOD9355896
Probable space group: A M M 2
;
_chemical_formula_sum "Si O2"
_cell_formula_units_Z 64
_cell_length_a 7.455173
_cell_length_b 28.726303
_cell_length_c 15.269959
_cell_angle_alpha 90.000000
_cell_angle_beta 90.000000
_cell_angle_gamma 90.000000
_cell_volume 3270.207678
_symmetry_space_group_name_H-M "A M M 2"
_symmetry_group_IT_number 38
_symmetry_cell_setting 'orthorhombic'
loop_
_space_group_symop_operation_xyz
x,y,z
-x,-y,z
-x,y,z
x,-y,z
x,1/2+y,1/2+z
-x,1/2-y,1/2+z
-x,1/2+y,1/2+z
x,1/2-y,1/2+z
loop_
_atom_site_type_symbol
_atom_site_label
_atom_site_fract_x
_atom_site_fract_y
_atom_site_fract_z
Si Si1 0.279812 0.363488 0.196780
Si Si2 0.291648 0.172263 0.878014
Si Si3 0.280921 0.446348 0.877441
Si Si4 0.718559 0.552988 0.076034
Si Si5 0.292818 0.132662 0.248171
Si Si6 0.792854 0.720197 0.864533
Si Si7 0.716609 0.782762 0.565776
Si Si8 0.720294 0.676702 0.573577
O O1 0.500000 0.363007 0.198455
O O2 0.215430 0.355158 0.295374
O O3 0.222601 0.410419 0.148481
O O4 0.223452 0.320468 0.135723
O O5 0.500000 0.159227 0.884043
O O6 0.284388 0.227668 0.857581
O O7 0.216795 0.164854 0.975426
O O8 0.500000 0.445120 0.877406
O O9 0.229375 0.500000 0.859886
O O10 0.214964 0.408759 0.807274
O O11 0.226072 0.434164 0.976934
O O12 0.500000 0.553502 0.075867
O O13 0.774670 0.500000 0.092820
O O14 0.500000 0.119827 0.233280
O O15 0.289720 0.180384 0.304146
O O16 0.216120 0.144493 0.152764
O O17 0.000000 0.723289 0.840822
O O18 0.774817 0.706618 0.966691
O O19 0.500000 0.783283 0.564451
O O20 0.773090 0.730410 0.589409
O O21 0.500000 0.676239 0.573568
#
# Coordination Sequence:
#
# PCOD9355896 Si02
#       8
#     8   8   8   8   8   8   8   8
#     4   9  15  24  44  66  82 111 151 182 208 250
#     4   9  17  31  46  60  83 115 151 182 210 249
#     4   8  14  24  41  66  90 109 135 175 216 252
#     4   8  13  21  34  59  92 114 132 169 219 260
#     4  10  17  28  47  65  84 114 150 180 209 250
#     4  11  21  30  41  63  92 116 141 175 219 260
#     4   9  16  28  44  62  84 112 148 180 210 252
#     4   8  15  26  42  62  81 107 144 183 213 243
#
# _framework density 19.570622
#
# number of rings (size 3 to 8) (size 9 to 14) (size 15 to 20)
#    0.000    3.000    0.000    4.125    0.000    4.000 
#    0.000    5.625    0.000    1.125    0.000    5.250 
#    0.000    1.500    0.000    0.375    0.000    2.375 
#
# Total GULP energy -178535.156753 kJ/mol
# GULP energy per Si atom -5579.223649 kJ/mol
# Density = 1.952608 g / cm^3
# Si number density = 19.570622 Si / 1000 Ang^3
#
#
#
# Elastic Constant Matrix: (Units=GPa)
#
#
# Indices 1 2 3 4 5 6 
#
# 1 58.4838 -0.0050 0.4176 0.0000 0.0000 0.0000
# 2 -0.0050 106.8743 118.8370 0.0000 0.0000 0.0000
# 3 0.4176 118.8370 174.2520 0.0000 0.0000 0.0000
# 4 0.0000 0.0000 0.0000 32.0477 0.0000 0.0000
# 5 0.0000 0.0000 0.0000 0.0000 -21.5737 0.0000
# 6 0.0000 0.0000 0.0000 0.0000 0.0000 27.6579
#
#
#
# Elastic Compliance Matrix: (Units=1/GPa)
#
#
# Indices 1 2 3 4 5 6 
#
# 1 0.017100 0.000192 -0.000172 0.000000 0.000000 0.000000
# 2 0.000192 0.038718 -0.026405 0.000000 0.000000 0.000000
# 3 -0.000172 -0.026405 0.023747 0.000000 0.000000 0.000000
# 4 0.000000 0.000000 0.000000 0.031203 0.000000 0.000000
# 5 0.000000 0.000000 0.000000 0.000000 -0.046353 0.000000
# 6 0.000000 0.000000 0.000000 0.000000 0.000000 0.036156
#
#
# Mechanical properties :
#
#
# Convention : Reuss Voigt Hill
#
# Bulk Modulus (GPa) = 37.32124 64.23437 50.77780
# Shear Modulus (GPa) = 30.81217 22.31709 26.56463
#
# Velocity S-wave (km/s) = 3.97219 3.38055 3.68825
# Velocity P-wave (km/s) = 6.33633 6.93762 6.64378
#
# Compressibility (1/GPa) = 0.02679439
#
# Stress axis : x y z
#
# Youngs Moduli (GPa) = 58.47951 25.82798 42.11024
#
# Poissons Ratio (x) = -0.00496 0.00724
# Poissons Ratio (y) = -0.01122 1.11193
# Poissons Ratio (z) = 0.01005 0.68200
#
# Static dielectric constant tensor:
#      x y z
#    x 1.716430 0.000000 0.000000 
#    y 0.000000 1.656450 0.000000 
#    z 0.000000 0.000000 1.694080 
# 
# From -- ./inp_files/13100.got.cif
#   From: 2010.05.17/outbox.cif.g08.bks.cpg/sg38_7_cif.got.tgz:13100.got - 2010.06.03 18:07:57.
