data_PCOD9355297
_publ_section_title
;
Structure prediction by ZEFSAII (Michael W. Deem and Ramdas Pophale) SiO2 
 PCOD9355297
Probable space group: C C C 2
;
_chemical_formula_sum "Si O2"
_cell_formula_units_Z 44
_cell_length_a 13.614603
_cell_length_b 6.678870
_cell_length_c 23.879251
_cell_angle_alpha 90.000000
_cell_angle_beta 90.000000
_cell_angle_gamma 90.000000
_cell_volume 2171.344199
_symmetry_space_group_name_H-M "C C C 2"
_symmetry_group_IT_number 37
_symmetry_cell_setting 'orthorhombic'
loop_
_space_group_symop_operation_xyz
x,y,z
-x,-y,z
-x,y,1/2+z
x,-y,1/2+z
1/2+x,1/2+y,z
1/2-x,1/2-y,z
1/2-x,1/2+y,1/2+z
1/2+x,1/2-y,1/2+z
loop_
_atom_site_type_symbol
_atom_site_label
_atom_site_fract_x
_atom_site_fract_y
_atom_site_fract_z
Si Si1 0.150019 0.837811 0.010350
Si Si2 0.500000 0.000000 0.991092
Si Si3 0.250000 0.750000 0.114717
Si Si4 0.605904 0.591404 0.800481
Si Si5 0.250000 0.250000 0.264325
Si Si6 0.635382 0.301506 0.428068
Si Si7 0.112730 0.561395 0.207310
O O1 0.250000 0.750000 0.982604
O O2 0.193282 0.898163 0.071346
O O3 0.067259 0.668679 0.020904
O O4 0.115637 0.010868 0.969176
O O5 0.575637 0.881645 0.952786
O O6 0.169419 0.646882 0.153583
O O7 0.500000 0.500000 0.786394
O O8 0.689804 0.420986 0.797008
O O9 0.604494 0.663303 0.864344
O O10 0.622366 0.771034 0.756428
O O11 0.170673 0.366192 0.227464
O O12 0.750000 0.250000 0.429809
O O13 0.000000 0.500000 0.197873
#
# Coordination Sequence:
#
# PCOD9355297 Si02
#       7
#     8   4   4   8   4   8   8
#     4  10  24  46  68 104 141 180 244 291 354 419
#     4  12  24  46  74 100 142 192 232 296 360 420
#     4  10  24  47  72 106 141 186 248 294 356 428
#     4  12  26  43  71 106 142 187 236 294 361 432
#     4  12  24  45  68  98 143 178 230 298 350 426
#     4  12  25  45  72 105 146 189 238 295 358 431
#     4  12  25  46  71 105 139 186 240 293 362 425
#
# _framework density 20.263946000000001
#
# number of rings (size 3 to 8) (size 9 to 14) (size 15 to 20)
#    0.545    0.000    5.455    2.727    3.818    2.909 
#    4.909    3.636    0.000    0.000    0.000    0.000 
#    0.000    0.000    0.000    0.000    0.000    0.000 
#
# Total GULP energy -122829.481829 kJ/mol
# GULP energy per Si atom -5583.158265 kJ/mol
# Density = 2.021782 g / cm^3
# Si number density = 20.263946 Si / 1000 Ang^3
#
#
#
# Elastic Constant Matrix: (Units=GPa)
#
#
# Indices 1 2 3 4 5 6 
#
# 1 122.8303 30.6632 16.6534 0.0000 0.0000 0.0000
# 2 30.6632 79.1725 40.0847 0.0000 0.0000 0.0000
# 3 16.6534 40.0847 127.6766 0.0000 0.0000 0.0000
# 4 0.0000 0.0000 0.0000 -8.4060 0.0000 0.0000
# 5 0.0000 0.0000 0.0000 0.0000 -10.5420 0.0000
# 6 0.0000 0.0000 0.0000 0.0000 0.0000 53.7402
#
#
#
# Elastic Compliance Matrix: (Units=1/GPa)
#
#
# Indices 1 2 3 4 5 6 
#
# 1 0.009014 -0.003443 -0.000095 0.000000 0.000000 0.000000
# 2 -0.003443 0.016333 -0.004679 0.000000 0.000000 0.000000
# 3 -0.000095 -0.004679 0.009314 0.000000 0.000000 0.000000
# 4 0.000000 0.000000 0.000000 -0.118963 0.000000 0.000000
# 5 0.000000 0.000000 0.000000 0.000000 -0.094859 0.000000
# 6 0.000000 0.000000 0.000000 0.000000 0.000000 0.018608
#
#
# Mechanical properties :
#
#
# Convention : Reuss Voigt Hill
#
# Bulk Modulus (GPa) = 54.86297 56.05356 55.45826
# Shear Modulus (GPa) = -36.22004 23.11032 -6.55486
#
# Velocity S-wave (km/s) = -4.23237 3.38074 -1.80049
# Velocity P-wave (km/s) = 1.80251 6.55446 4.80677
#
# Compressibility (1/GPa) = 0.01822723
#
# Stress axis : x y z
#
# Youngs Moduli (GPa) = 110.94267 61.22604 107.37034
#
# Poissons Ratio (x) = 0.21080 0.01017
# Poissons Ratio (y) = 0.38197 0.50236
# Poissons Ratio (z) = 0.01051 0.28646
#
# Static dielectric constant tensor:
#      x y z
#    x 1.762800 0.000000 0.000000 
#    y 0.000000 1.758090 0.000000 
#    z 0.000000 0.000000 1.696000 
# 
# From -- ./inp_files/19852.got.cif
#   From: 2010.05.17/outbox.cif.g08.bks.cpg/sg37_10_cif.got.tgz:19852.got - 2010.06.03 17:53:42.
