data_PCOD9355982
_publ_section_title
;
Structure prediction by ZEFSAII (Michael W. Deem and Ramdas Pophale) SiO2 
 PCOD9355982
Probable space group: A M M 2
;
_chemical_formula_sum "Si O2"
_cell_formula_units_Z 64
_cell_length_a 20.516921
_cell_length_b 7.558086
_cell_length_c 21.063969
_cell_angle_alpha 90.000000
_cell_angle_beta 90.000000
_cell_angle_gamma 90.000000
_cell_volume 3266.361308
_symmetry_space_group_name_H-M "A M M 2"
_symmetry_group_IT_number 38
_symmetry_cell_setting 'orthorhombic'
loop_
_space_group_symop_operation_xyz
x,y,z
-x,-y,z
-x,y,z
x,-y,z
x,1/2+y,1/2+z
-x,1/2-y,1/2+z
-x,1/2+y,1/2+z
x,1/2-y,1/2+z
loop_
_atom_site_type_symbol
_atom_site_label
_atom_site_fract_x
_atom_site_fract_y
_atom_site_fract_z
Si Si1 0.210348 0.709885 0.748330
Si Si2 0.788125 0.292539 0.099902
Si Si3 0.929788 0.715088 0.110946
Si Si4 0.929980 0.707567 0.760933
Si Si5 0.651139 0.786633 0.555229
Si Si6 0.347400 0.286903 0.303667
Si Si7 0.425400 0.211600 0.926305
Si Si8 0.425345 0.716352 0.179765
O O1 0.202683 0.500000 0.740136
O O2 0.221907 0.780577 0.676580
O O3 0.141789 0.780453 0.776641
O O4 0.271964 0.742497 0.792890
O O5 0.790704 0.500000 0.084193
O O6 0.860337 0.220136 0.084667
O O7 0.724964 0.218218 0.064317
O O8 0.928366 0.500000 0.110988
O O9 0.930400 0.774947 0.184325
O O10 0.000000 0.769544 0.082795
O O11 0.930717 0.500000 0.778123
O O12 0.000000 0.783763 0.782854
O O13 0.614109 0.743758 0.490716
O O14 0.609412 0.724372 0.615529
O O15 0.654134 0.000000 0.559484
O O16 0.351288 0.500000 0.304462
O O17 0.383406 0.220302 0.366667
O O18 0.385898 0.224331 0.241343
O O19 0.500000 0.279938 0.928611
O O20 0.430313 0.000000 0.918554
O O21 0.500000 0.772588 0.182270
O O22 0.424775 0.500000 0.179905
#
# Coordination Sequence:
#
# PCOD9355982 Si02
#       8
#     8   8   8   8   8   8   8   8
#     4  10  18  27  44  71  99 125 156 198 239 274
#     4   9  16  28  45  67  96 129 162 192 231 284
#     4   8  13  21  36  60  90 122 155 192 229 266
#     4   8  14  24  37  57  90 128 157 182 223 278
#     4  10  19  32  51  73  96 126 160 196 238 285
#     4  10  19  34  52  69  93 126 160 195 237 288
#     4  10  22  38  54  72  95 124 158 199 244 288
#     4   9  16  28  49  72  89 114 156 194 227 279
#
# _framework density 19.593668999999998
#
# number of rings (size 3 to 8) (size 9 to 14) (size 15 to 20)
#    0.000    2.750    1.250    1.125    0.000    3.750 
#    0.000    0.000    0.000    1.125    0.000    0.875 
#    0.000    5.000    0.000    0.000    0.000    0.250 
#
# Total GULP energy -178291.349936 kJ/mol
# GULP energy per Si atom -5571.604686 kJ/mol
# Density = 1.954907 g / cm^3
# Si number density = 19.593669 Si / 1000 Ang^3
#
#
#
# Elastic Constant Matrix: (Units=GPa)
#
#
# Indices 1 2 3 4 5 6 
#
# 1 256.3798 3.6343 84.1303 0.0000 0.0000 0.0000
# 2 3.6343 47.0129 -3.0350 0.0000 0.0000 0.0000
# 3 84.1303 -3.0350 100.0781 0.0000 0.0000 0.0000
# 4 0.0000 0.0000 0.0000 -18.7325 0.0000 0.0000
# 5 0.0000 0.0000 0.0000 0.0000 10.8957 0.0000
# 6 0.0000 0.0000 0.0000 0.0000 0.0000 5.4332
#
#
#
# Elastic Compliance Matrix: (Units=1/GPa)
#
#
# Indices 1 2 3 4 5 6 
#
# 1 0.005410 -0.000713 -0.004570 0.000000 0.000000 0.000000
# 2 -0.000713 0.021407 0.001249 0.000000 0.000000 0.000000
# 3 -0.004570 0.001249 0.013871 0.000000 0.000000 0.000000
# 4 0.000000 0.000000 0.000000 -0.053383 0.000000 0.000000
# 5 0.000000 0.000000 0.000000 0.000000 0.091779 0.000000
# 6 0.000000 0.000000 0.000000 0.000000 0.000000 0.184052
#
#
# Mechanical properties :
#
#
# Convention : Reuss Voigt Hill
#
# Bulk Modulus (GPa) = 30.65610 63.65887 47.15749
# Shear Modulus (GPa) = 17.72562 20.76870 19.24716
#
# Velocity S-wave (km/s) = 3.01102 3.25925 3.13759
# Velocity P-wave (km/s) = 5.26956 6.83547 6.10295
#
# Compressibility (1/GPa) = 0.03261993
#
# Stress axis : x y z
#
# Youngs Moduli (GPa) = 184.84057 46.71474 72.09047
#
# Poissons Ratio (x) = 0.03332 0.32942
# Poissons Ratio (y) = 0.13183 -0.09002
# Poissons Ratio (z) = 0.84464 -0.05833
#
# Static dielectric constant tensor:
#      x y z
#    x 1.766800 0.000000 0.000000 
#    y 0.000000 2.151090 0.000000 
#    z 0.000000 0.000000 1.630350 
# 
# From -- ./inp_files/18932.got.cif
#   From: 2010.05.17/outbox.cif.g08.bks.cpg/sg38_10_cif.got.tgz:18932.got - 2010.06.03 18:07:57.
