data_PCOD9355051
_publ_section_title
;
Structure prediction by ZEFSAII (Michael W. Deem and Ramdas Pophale) SiO2 
 PCOD9355051
Probable space group: C C C 2
;
_chemical_formula_sum "Si O2"
_cell_formula_units_Z 60
_cell_length_a 13.920047
_cell_length_b 14.308583
_cell_length_c 14.761188
_cell_angle_alpha 90.000000
_cell_angle_beta 90.000000
_cell_angle_gamma 90.000000
_cell_volume 2940.076564
_symmetry_space_group_name_H-M "C C C 2"
_symmetry_group_IT_number 37
_symmetry_cell_setting 'orthorhombic'
loop_
_space_group_symop_operation_xyz
x,y,z
-x,-y,z
-x,y,1/2+z
x,-y,1/2+z
1/2+x,1/2+y,z
1/2-x,1/2-y,z
1/2-x,1/2+y,1/2+z
1/2+x,1/2-y,1/2+z
loop_
_atom_site_type_symbol
_atom_site_label
_atom_site_fract_x
_atom_site_fract_y
_atom_site_fract_z
Si Si1 0.000107 0.791676 0.298400
Si Si2 0.907773 0.932604 0.673881
Si Si3 0.000000 0.500000 0.405884
Si Si4 0.145613 0.211275 0.966539
Si Si5 0.608549 0.101243 0.761330
Si Si6 0.904381 0.395731 0.556211
Si Si7 0.181993 0.072153 0.311571
Si Si8 0.706140 0.493697 0.510243
O O1 0.953365 0.690901 0.287852
O O2 0.910708 0.861757 0.311723
O O3 0.056207 0.832953 0.210760
O O4 0.071526 0.790227 0.383735
O O5 0.846808 0.980765 0.754276
O O6 0.843083 0.940613 0.584815
O O7 0.000000 0.000000 0.659641
O O8 0.085392 0.477584 0.336087
O O9 0.020204 0.582718 0.476738
O O10 0.250000 0.250000 0.934181
O O11 0.119078 0.286197 0.044260
O O12 0.152023 0.106432 0.004421
O O13 0.575112 0.080456 0.659588
O O14 0.723255 0.116590 0.765805
O O15 0.813567 0.461353 0.533074
O O16 0.202918 0.042839 0.413747
#
# Coordination Sequence:
#
# PCOD9355051 Si02
#       8
#     8   8   4   8   8   8   8   8
#     4  11  24  42  64 101 138 173 218 282 346 399
#     4  10  23  38  64 102 132 169 220 272 337 411
#     4  12  24  46  66  94 126 174 238 270 342 396
#     4  10  23  40  65  95 134 175 225 275 334 401
#     4  12  25  44  70  93 135 175 225 288 334 410
#     4  11  24  42  67  97 123 178 228 275 335 407
#     4  11  23  40  66  96 135 175 219 276 340 396
#     4  11  22  40  66  95 133 175 223 272 337 407
#
# _framework density 20.407632
#
# number of rings (size 3 to 8) (size 9 to 14) (size 15 to 20)
#    0.000    1.067    5.333    0.800    5.600    1.067 
#    0.000    0.000    0.000    0.000    0.000    0.000 
#    0.000    0.000    0.000    0.000    0.000    0.000 
#
# Total GULP energy -167520.181329 kJ/mol
# GULP energy per Si atom -5584.006044 kJ/mol
# Density = 2.036118 g / cm^3
# Si number density = 20.407632 Si / 1000 Ang^3
#
#
#
# Elastic Constant Matrix: (Units=GPa)
#
#
# Indices 1 2 3 4 5 6 
#
# 1 74.2881 9.9421 28.8979 0.0000 0.0000 0.0000
# 2 9.9421 48.5400 24.4268 0.0000 0.0000 0.0000
# 3 28.8979 24.4268 124.3278 0.0000 0.0000 0.0000
# 4 0.0000 0.0000 0.0000 22.2111 0.0000 0.0000
# 5 0.0000 0.0000 0.0000 0.0000 19.8804 0.0000
# 6 0.0000 0.0000 0.0000 0.0000 0.0000 27.5381
#
#
#
# Elastic Compliance Matrix: (Units=1/GPa)
#
#
# Indices 1 2 3 4 5 6 
#
# 1 0.014891 -0.001452 -0.003176 0.000000 0.000000 0.000000
# 2 -0.001452 0.023003 -0.004182 0.000000 0.000000 0.000000
# 3 -0.003176 -0.004182 0.009603 0.000000 0.000000 0.000000
# 4 0.000000 0.000000 0.000000 0.045022 0.000000 0.000000
# 5 0.000000 0.000000 0.000000 0.000000 0.050301 0.000000
# 6 0.000000 0.000000 0.000000 0.000000 0.000000 0.036313
#
#
# Mechanical properties :
#
#
# Convention : Reuss Voigt Hill
#
# Bulk Modulus (GPa) = 33.46954 41.52104 37.49529
# Shear Modulus (GPa) = 24.18815 26.18519 25.18667
#
# Velocity S-wave (km/s) = 3.44648 3.58594 3.51690
# Velocity P-wave (km/s) = 5.68100 6.12660 5.90800
#
# Compressibility (1/GPa) = 0.02987791
#
# Stress axis : x y z
#
# Youngs Moduli (GPa) = 67.15551 43.47174 104.13313
#
# Poissons Ratio (x) = 0.06311 0.33072
# Poissons Ratio (y) = 0.09749 0.43549
# Poissons Ratio (z) = 0.21328 0.18180
#
# Static dielectric constant tensor:
#      x y z
#    x 1.757830 0.000000 0.000000 
#    y 0.000000 1.725650 0.000000 
#    z 0.000000 0.000000 1.706380 
# 
# From -- ./inp_files/12251.got.cif
#   From: 2010.05.17/outbox.cif.g08.bks.cpg/sg37_7_cif.got.tgz:12251.got - 2010.06.03 17:53:42.
