data_PCOD9355135
_publ_section_title
;
Structure prediction by ZEFSAII (Michael W. Deem and Ramdas Pophale) SiO2 
 PCOD9355135
Probable space group: C C C 2
;
_chemical_formula_sum "Si O2"
_cell_formula_units_Z 48
_cell_length_a 8.922779
_cell_length_b 12.719683
_cell_length_c 17.761550
_cell_angle_alpha 90.000000
_cell_angle_beta 90.000000
_cell_angle_gamma 90.000000
_cell_volume 2015.845703
_symmetry_space_group_name_H-M "C C C 2"
_symmetry_group_IT_number 37
_symmetry_cell_setting 'orthorhombic'
loop_
_space_group_symop_operation_xyz
x,y,z
-x,-y,z
-x,y,1/2+z
x,-y,1/2+z
1/2+x,1/2+y,z
1/2-x,1/2-y,z
1/2-x,1/2+y,1/2+z
1/2+x,1/2-y,1/2+z
loop_
_atom_site_type_symbol
_atom_site_label
_atom_site_fract_x
_atom_site_fract_y
_atom_site_fract_z
Si Si1 0.000000 0.000000 0.136730
Si Si2 0.614485 0.833366 0.953791
Si Si3 0.475079 0.162473 0.783163
Si Si4 0.250000 0.750000 0.182546
Si Si5 0.825754 0.968449 0.428695
Si Si6 0.583505 0.317297 0.046290
Si Si7 0.258098 0.963207 0.756824
O O1 0.969260 0.903791 0.078167
O O2 0.863851 0.982453 0.194735
O O3 0.750000 0.750000 0.946780
O O4 0.526938 0.829503 0.873307
O O5 0.699485 0.946844 0.956216
O O6 0.506645 0.787004 0.019867
O O7 0.390920 0.253531 0.738635
O O8 0.633594 0.136455 0.747161
O O9 0.365149 0.065501 0.762038
O O10 0.301617 0.670473 0.117012
O O11 0.823257 0.862443 0.476656
O O12 0.803992 0.951339 0.340591
O O13 0.000000 0.000000 0.434833
#
# Coordination Sequence:
#
# PCOD9355135 Si02
#       7
#     4   8   8   4   8   8   8
#     4  12  22  46  74 100 146 190 240 310 376 440
#     4  11  22  43  73  98 141 190 248 296 367 451
#     4  10  23  45  70 102 138 189 238 295 367 444
#     4  12  26  46  68 102 152 184 226 310 372 428
#     4  11  22  44  71  99 139 189 237 307 366 432
#     4  12  27  42  67 107 143 187 240 299 377 434
#     4  10  23  43  74 100 132 189 250 288 364 451
#
# _framework density 23.811344999999999
#
# number of rings (size 3 to 8) (size 9 to 14) (size 15 to 20)
#    0.000    1.000    5.833    0.000    2.333    4.000 
#    0.000    1.667    0.000    0.000    0.000    0.000 
#    0.000    0.000    0.000    0.000    0.000    0.000 
#
# Total GULP energy -133626.119552 kJ/mol
# GULP energy per Si atom -5567.754981 kJ/mol
# Density = 2.375715 g / cm^3
# Si number density = 23.811345 Si / 1000 Ang^3
#
#
#
# Elastic Constant Matrix: (Units=GPa)
#
#
# Indices 1 2 3 4 5 6 
#
# 1 115.2026 33.2652 62.2476 0.0000 0.0000 0.0000
# 2 33.2652 51.0569 33.3451 0.0000 0.0000 0.0000
# 3 62.2476 33.3451 133.1000 0.0000 0.0000 0.0000
# 4 0.0000 0.0000 0.0000 28.8708 0.0000 0.0000
# 5 0.0000 0.0000 0.0000 0.0000 -146.5399 0.0000
# 6 0.0000 0.0000 0.0000 0.0000 0.0000 31.3657
#
#
#
# Elastic Compliance Matrix: (Units=1/GPa)
#
#
# Indices 1 2 3 4 5 6 
#
# 1 0.012694 -0.005253 -0.004621 0.000000 0.000000 0.000000
# 2 -0.005253 0.025591 -0.003955 0.000000 0.000000 0.000000
# 3 -0.004621 -0.003955 0.010665 0.000000 0.000000 0.000000
# 4 0.000000 0.000000 0.000000 0.034637 0.000000 0.000000
# 5 0.000000 0.000000 0.000000 0.000000 -0.006824 0.000000
# 6 0.000000 0.000000 0.000000 0.000000 0.000000 0.031882
#
#
# Mechanical properties :
#
#
# Convention : Reuss Voigt Hill
#
# Bulk Modulus (GPa) = 46.96229 61.89728 54.42978
# Shear Modulus (GPa) = 34.86787 -5.89391 14.48698
#
# Velocity S-wave (km/s) = 3.83082 -1.57500 2.46927
# Velocity P-wave (km/s) = 6.27155 4.76905 5.57118
#
# Compressibility (1/GPa) = 0.02129368
#
# Stress axis : x y z
#
# Youngs Moduli (GPa) = 78.77888 39.07614 93.76596
#
# Poissons Ratio (x) = 0.20525 0.43326
# Poissons Ratio (y) = 0.41380 0.37082
# Poissons Ratio (z) = 0.36401 0.15453
#
# Static dielectric constant tensor:
#      x y z
#    x 5.050300 0.000000 0.000000 
#    y 0.000000 2.346780 0.000000 
#    z 0.000000 0.000000 1.845800 
# 
# From -- ./inp_files/14551.got.cif
#   From: 2010.05.17/outbox.cif.g08.bks.cpg/sg37_8_cif.got.tgz:14551.got - 2010.06.03 17:53:42.
