data_PCOD9355243
_publ_section_title
;
Structure prediction by ZEFSAII (Michael W. Deem and Ramdas Pophale) SiO2 
 PCOD9355243
Probable space group: C C C 2
;
_chemical_formula_sum "Si O2"
_cell_formula_units_Z 60
_cell_length_a 11.213194
_cell_length_b 24.176976
_cell_length_c 8.538832
_cell_angle_alpha 90.000000
_cell_angle_beta 90.000000
_cell_angle_gamma 90.000000
_cell_volume 2314.886938
_symmetry_space_group_name_H-M "C C C 2"
_symmetry_group_IT_number 37
_symmetry_cell_setting 'orthorhombic'
loop_
_space_group_symop_operation_xyz
x,y,z
-x,-y,z
-x,y,1/2+z
x,-y,1/2+z
1/2+x,1/2+y,z
1/2-x,1/2-y,z
1/2-x,1/2+y,1/2+z
1/2+x,1/2-y,1/2+z
loop_
_atom_site_type_symbol
_atom_site_label
_atom_site_fract_x
_atom_site_fract_y
_atom_site_fract_z
Si Si1 0.031305 0.151009 0.550360
Si Si2 0.258117 0.308446 0.394116
Si Si3 0.736312 0.048527 0.677165
Si Si4 0.886757 0.615164 0.612143
Si Si5 0.138690 0.666873 0.586466
Si Si6 0.500000 0.000000 0.168415
Si Si7 0.698173 0.338619 0.340524
Si Si8 0.387775 0.464548 0.469923
O O1 0.105476 0.174469 0.401741
O O2 0.106664 0.176814 0.697806
O O3 0.060736 0.086028 0.570047
O O4 0.895653 0.154645 0.487265
O O5 0.250000 0.250000 0.481556
O O6 0.186860 0.358931 0.471045
O O7 0.194476 0.301092 0.230136
O O8 0.693399 0.104346 0.593976
O O9 0.828547 0.058562 0.814074
O O10 0.616786 0.022644 0.752719
O O11 0.796879 0.004361 0.561174
O O12 0.787602 0.616363 0.751489
O O13 0.999314 0.657191 0.619759
O O14 0.945955 0.555206 0.587985
O O15 0.190131 0.692755 0.426155
O O16 0.500000 0.500000 0.418836
#
# Coordination Sequence:
#
# PCOD9355243 Si02
#       8
#     8   8   8   8   8   4   8   8
#     4  11  25  44  70 107 157 201 259 321 388 482
#     4  11  24  50  77 108 156 210 269 342 406 488
#     4  11  25  41  62  99 142 188 253 301 391 460
#     4  10  24  47  76 112 157 204 269 335 412 500
#     4  11  23  46  71 106 149 199 259 335 394 477
#     4  10  24  42  74 102 148 204 248 334 392 490
#     4  11  24  45  77 106 155 207 260 329 398 481
#     4  12  26  39  65 100 146 197 244 308 376 475
#
# _framework density 25.919194999999998
#
# number of rings (size 3 to 8) (size 9 to 14) (size 15 to 20)
#    0.000    1.067    1.333    4.400    9.333    0.533 
#    7.200    2.667    0.000    0.000    0.000    0.000 
#    0.000    0.000    0.000    0.000    0.000    0.000 
#
# Total GULP energy -167169.593233 kJ/mol
# GULP energy per Si atom -5572.319774 kJ/mol
# Density = 2.586020 g / cm^3
# Si number density = 25.919195 Si / 1000 Ang^3
#
#
#
# Elastic Constant Matrix: (Units=GPa)
#
#
# Indices 1 2 3 4 5 6 
#
# 1 212.9350 16.5683 42.3968 0.0000 0.0000 0.0000
# 2 16.5683 61.6649 -1.5850 0.0000 0.0000 0.0000
# 3 42.3968 -1.5850 100.5752 0.0000 0.0000 0.0000
# 4 0.0000 0.0000 0.0000 -0.5305 0.0000 0.0000
# 5 0.0000 0.0000 0.0000 0.0000 22.4362 0.0000
# 6 0.0000 0.0000 0.0000 0.0000 0.0000 21.1163
#
#
#
# Elastic Compliance Matrix: (Units=1/GPa)
#
#
# Indices 1 2 3 4 5 6 
#
# 1 0.005256 -0.001470 -0.002239 0.000000 0.000000 0.000000
# 2 -0.001470 0.016634 0.000882 0.000000 0.000000 0.000000
# 3 -0.002239 0.000882 0.010901 0.000000 0.000000 0.000000
# 4 0.000000 0.000000 0.000000 -1.885114 0.000000 0.000000
# 5 0.000000 0.000000 0.000000 0.000000 0.044571 0.000000
# 6 0.000000 0.000000 0.000000 0.000000 0.000000 0.047357
#
#
# Mechanical properties :
#
#
# Convention : Reuss Voigt Hill
#
# Bulk Modulus (GPa) = 36.84997 54.43725 45.64361
# Shear Modulus (GPa) = -2.86419 29.79075 13.46328
#
# Velocity S-wave (km/s) = -1.05235 3.39391 2.28158
# Velocity P-wave (km/s) = 3.57373 6.03378 4.95873
#
# Compressibility (1/GPa) = 0.02713706
#
# Stress axis : x y z
#
# Youngs Moduli (GPa) = 190.24302 60.11688 91.73863
#
# Poissons Ratio (x) = 0.08836 0.20540
# Poissons Ratio (y) = 0.27963 -0.08089
# Poissons Ratio (z) = 0.42595 -0.05301
#
# Static dielectric constant tensor:
#      x y z
#    x 2.048070 0.000000 0.000000 
#    y 0.000000 2.125990 0.000000 
#    z 0.000000 0.000000 2.110030 
# 
# From -- ./inp_files/3048.got.cif
#   From: 2010.05.17/outbox.cif.g08.bks.cpg/sg37_2_cif.got.tgz:3048.got - 2010.06.03 17:53:42.
