data_PCOD9355551
_publ_section_title
;
Structure prediction by ZEFSAII (Michael W. Deem and Ramdas Pophale) SiO2 
 PCOD9355551
Probable space group: C C C 2
;
_chemical_formula_sum "Si O2"
_cell_formula_units_Z 48
_cell_length_a 4.925589
_cell_length_b 22.903795
_cell_length_c 20.176029
_cell_angle_alpha 90.000000
_cell_angle_beta 90.000000
_cell_angle_gamma 90.000000
_cell_volume 2276.152270
_symmetry_space_group_name_H-M "C C C 2"
_symmetry_group_IT_number 37
_symmetry_cell_setting 'orthorhombic'
loop_
_space_group_symop_operation_xyz
x,y,z
-x,-y,z
-x,y,1/2+z
x,-y,1/2+z
1/2+x,1/2+y,z
1/2-x,1/2-y,z
1/2-x,1/2+y,1/2+z
1/2+x,1/2-y,1/2+z
loop_
_atom_site_type_symbol
_atom_site_label
_atom_site_fract_x
_atom_site_fract_y
_atom_site_fract_z
Si Si1 0.728622 0.889071 0.385600
Si Si2 0.266852 0.682820 0.342671
Si Si3 0.951817 0.431729 0.026810
Si Si4 0.443772 0.595372 0.615178
Si Si5 0.512144 0.289627 0.197538
Si Si6 0.500000 0.000000 0.807811
Si Si7 0.000000 0.000000 0.220477
O O1 0.532069 0.842843 0.350087
O O2 0.649583 0.898549 0.461832
O O3 0.029209 0.862532 0.378497
O O4 0.653882 0.950331 0.350134
O O5 0.250000 0.750000 0.367572
O O6 0.370364 0.686687 0.267080
O O7 0.729377 0.424321 0.084314
O O8 0.000000 0.500000 0.011514
O O9 0.229668 0.407528 0.056189
O O10 0.448917 0.658052 0.648577
O O11 0.376743 0.549736 0.673440
O O12 0.750000 0.250000 0.167717
O O13 0.250000 0.250000 0.210478
O O14 0.251440 0.024630 0.763457
#
# Coordination Sequence:
#
# PCOD9355551 Si02
#       7
#     8   8   8   8   8   4   4
#     4  12  24  43  66  98 132 174 226 269 334 402
#     4  11  24  44  69  97 132 175 219 276 340 396
#     4  12  24  45  65  94 134 186 214 266 334 397
#     4  12  24  43  66  96 131 173 228 263 331 398
#     4  11  23  43  69  96 131 173 215 273 337 390
#     4  12  24  38  64 100 132 162 214 286 342 390
#     4  12  24  38  64  98 132 164 214 286 334 396
#
# _framework density 21.088218999999999
#
# number of rings (size 3 to 8) (size 9 to 14) (size 15 to 20)
#    0.000    0.333    2.500    8.500    0.000    0.000 
#    0.000    8.333    0.000    0.000    0.000    0.000 
#    0.000    0.000    0.000    0.000    0.000    0.000 
#
# Total GULP energy -134308.025423 kJ/mol
# GULP energy per Si atom -5596.167726 kJ/mol
# Density = 2.104022 g / cm^3
# Si number density = 21.088219 Si / 1000 Ang^3
#
#
#
# Elastic Constant Matrix: (Units=GPa)
#
#
# Indices 1 2 3 4 5 6 
#
# 1 55.9760 -3.0877 -11.1552 0.0000 0.0000 0.0000
# 2 -3.0877 87.2397 35.9722 0.0000 0.0000 0.0000
# 3 -11.1552 35.9722 50.8068 0.0000 0.0000 0.0000
# 4 0.0000 0.0000 0.0000 1.7876 0.0000 0.0000
# 5 0.0000 0.0000 0.0000 0.0000 10.3132 0.0000
# 6 0.0000 0.0000 0.0000 0.0000 0.0000 40.3097
#
#
#
# Elastic Compliance Matrix: (Units=1/GPa)
#
#
# Indices 1 2 3 4 5 6 
#
# 1 0.018814 -0.001465 0.005168 0.000000 0.000000 0.000000
# 2 -0.001465 0.016303 -0.011865 0.000000 0.000000 0.000000
# 3 0.005168 -0.011865 0.029217 0.000000 0.000000 0.000000
# 4 0.000000 0.000000 0.000000 0.559422 0.000000 0.000000
# 5 0.000000 0.000000 0.000000 0.000000 0.096964 0.000000
# 6 0.000000 0.000000 0.000000 0.000000 0.000000 0.024808
#
#
# Mechanical properties :
#
#
# Convention : Reuss Voigt Hill
#
# Bulk Modulus (GPa) = 20.82840 26.38678 23.60759
# Shear Modulus (GPa) = 6.42793 21.96830 14.19812
#
# Velocity S-wave (km/s) = 1.74778 3.23109 2.59756
# Velocity P-wave (km/s) = 3.73781 5.14390 4.49616
#
# Compressibility (1/GPa) = 0.04801137
#
# Stress axis : x y z
#
# Youngs Moduli (GPa) = 53.15211 61.33838 34.22613
#
# Poissons Ratio (x) = 0.08987 -0.17689
# Poissons Ratio (y) = 0.07787 0.40608
# Poissons Ratio (z) = -0.27470 0.72775
#
# Static dielectric constant tensor:
#      x y z
#    x 1.751140 0.000000 0.000000 
#    y 0.000000 1.778010 0.000000 
#    z 0.000000 0.000000 1.781310 
# 
# From -- ./inp_files/13926.got.cif
#   From: 2010.05.17/outbox.cif.g08.bks.cpg/sg37_7_cif.got.tgz:13926.got - 2010.06.03 17:53:42.
