data_PCOD9355763
_publ_section_title
;
Structure prediction by ZEFSAII (Michael W. Deem and Ramdas Pophale) SiO2 
 PCOD9355763
Probable space group: C C C 2
;
_chemical_formula_sum "Si O2"
_cell_formula_units_Z 20
_cell_length_a 12.000000
_cell_length_b 9.000000
_cell_length_c 18.000000
_cell_angle_alpha 90.000000
_cell_angle_beta 90.000000
_cell_angle_gamma 90.000000
_cell_volume 1944.000000
_symmetry_space_group_name_H-M "C C C 2"
_symmetry_group_IT_number 37
_symmetry_cell_setting 'orthorhombic'
loop_
_space_group_symop_operation_xyz
x,y,z
-x,-y,z
-x,y,1/2+z
x,-y,1/2+z
1/2+x,1/2+y,z
1/2-x,1/2-y,z
1/2-x,1/2+y,1/2+z
1/2+x,1/2-y,1/2+z
loop_
_atom_site_type_symbol
_atom_site_label
_atom_site_fract_x
_atom_site_fract_y
_atom_site_fract_z
Si Si1 0.414876 0.810358 0.465590
Si Si2 0.231653 0.425160 0.277932
Si Si3 0.432138 0.345313 0.574953
Si Si4 0.206466 0.998440 0.945851
Si Si5 0.250000 0.250000 0.692664
Si Si6 0.000000 0.500000 0.336488
O O1 0.483593 0.773726 0.539133
O O2 0.325339 0.942337 0.475801
O O3 0.361414 0.652604 0.443745
O O4 0.478420 0.864256 0.392709
O O5 0.250000 0.250000 0.250844
O O6 0.281828 0.435598 0.362337
O O7 0.257767 0.588294 0.237295
O O8 0.100762 0.447044 0.287080
O O9 0.500000 0.500000 0.595628
O O10 0.352582 0.393266 0.505589
O O11 0.358190 0.270593 0.639167
#
# Coordination Sequence:
#
# PCOD9355763 Si02
#       6
#     8   8   8   8   4   4
#     4   9  18  35  64 102 129 164 225 290 333 396
#     4  11  24  44  68  98 139 184 228 281 344 414
#     4  10  23  43  65  98 135 185 226 283 355 403
#     4   9  19  40  70  97 127 172 234 285 333 407
#     4  12  28  46  64  98 148 184 222 282 354 414
#     4  10  20  36  66 106 130 176 236 284 340 406
#
# _framework density 10.288066000000001
#
# number of rings (size 3 to 8) (size 9 to 14) (size 15 to 20)
#    0.000    2.000    0.000    3.600    7.000    1.600 
#   10.800    5.000    0.000    0.000    0.000    0.000 
#    0.000    0.000    0.000    0.000    0.000    0.000 
#
# Total GULP energy -111366.785107 kJ/mol
# GULP energy per Si atom -5568.339255 kJ/mol
# Density = 1.026465 g / cm^3
# Si number density = 10.288066 Si / 1000 Ang^3
#
#
#
# Elastic Constant Matrix: (Units=GPa)
#
#
# Indices 1 2 3 4 5 6 
#
# 1 79.7781 28.7665 38.4481 0.0000 0.0000 0.0000
# 2 28.7665 116.4110 48.3523 0.0000 0.0000 0.0000
# 3 38.4481 48.3523 69.9454 0.0000 0.0000 0.0000
# 4 0.0000 0.0000 0.0000 23.2358 0.0000 0.0000
# 5 0.0000 0.0000 0.0000 0.0000 16.9339 0.0000
# 6 0.0000 0.0000 0.0000 0.0000 0.0000 7.0273
#
#
#
# Elastic Compliance Matrix: (Units=1/GPa)
#
#
# Indices 1 2 3 4 5 6 
#
# 1 0.017069 -0.000450 -0.009071 0.000000 0.000000 0.000000
# 2 -0.000450 0.012062 -0.008091 0.000000 0.000000 0.000000
# 3 -0.009071 -0.008091 0.024877 0.000000 0.000000 0.000000
# 4 0.000000 0.000000 0.000000 0.043037 0.000000 0.000000
# 5 0.000000 0.000000 0.000000 0.000000 0.059053 0.000000
# 6 0.000000 0.000000 0.000000 0.000000 0.000000 0.142303
#
#
# Mechanical properties :
#
#
# Convention : Reuss Voigt Hill
#
# Bulk Modulus (GPa) = 53.24084 55.25204 54.24644
# Shear Modulus (GPa) = 14.71078 19.47724 17.09401
#
# Velocity S-wave (km/s) = 2.67674 3.08001 2.88543
# Velocity P-wave (km/s) = 5.95689 6.28963 6.12552
#
# Compressibility (1/GPa) = 0.01878257
#
# Stress axis : x y z
#
# Youngs Moduli (GPa) = 58.58598 82.90409 40.19849
#
# Poissons Ratio (x) = 0.03731 0.36466
# Poissons Ratio (y) = 0.02636 0.32525
# Poissons Ratio (z) = 0.53146 0.67078
#
# Static dielectric constant tensor:
#      x y z
#    x 1.860660 0.000000 0.000000 
#    y 0.000000 1.765480 0.000000 
#    z 0.000000 0.000000 1.728150 
# 
# From -- ./inp_files/10374.got.cif
#   From: 2010.05.17/outbox.ucp.g08.bks.cvg/sg37_6_cif.got.tgz:10374.got - 2010.06.11 10:38:43.
