data_PCOD9355589
_publ_section_title
;
Structure prediction by ZEFSAII (Michael W. Deem and Ramdas Pophale) SiO2 
 PCOD9355589
Probable space group: C C C 2
;
_chemical_formula_sum "Si O2"
_cell_formula_units_Z 56
_cell_length_a 19.118300
_cell_length_b 9.559514
_cell_length_c 13.614224
_cell_angle_alpha 90.000000
_cell_angle_beta 90.000000
_cell_angle_gamma 90.000000
_cell_volume 2488.158130
_symmetry_space_group_name_H-M "C C C 2"
_symmetry_group_IT_number 37
_symmetry_cell_setting 'orthorhombic'
loop_
_space_group_symop_operation_xyz
x,y,z
-x,-y,z
-x,y,1/2+z
x,-y,1/2+z
1/2+x,1/2+y,z
1/2-x,1/2-y,z
1/2-x,1/2+y,1/2+z
1/2+x,1/2-y,1/2+z
loop_
_atom_site_type_symbol
_atom_site_label
_atom_site_fract_x
_atom_site_fract_y
_atom_site_fract_z
Si Si1 0.941789 0.612910 0.681510
Si Si2 0.539761 0.363221 0.688868
Si Si3 0.750000 0.750000 0.189686
Si Si4 0.852284 0.140712 0.846157
Si Si5 0.750000 0.750000 0.493530
Si Si6 0.067491 0.596570 0.412536
Si Si7 0.317374 0.991571 0.563078
Si Si8 0.427806 0.584692 0.475857
O O1 0.926043 0.595236 0.795866
O O2 0.871816 0.581910 0.625241
O O3 0.000000 0.500000 0.654508
O O4 0.978962 0.758145 0.657958
O O5 0.500000 0.500000 0.724613
O O6 0.582609 0.304920 0.781478
O O7 0.586749 0.401916 0.593672
O O8 0.792123 0.855659 0.262421
O O9 0.795922 0.648571 0.120919
O O10 0.820140 0.242196 0.927714
O O11 0.874539 0.999166 0.904005
O O12 0.745598 0.899816 0.545799
O O13 0.138591 0.549842 0.466556
O O14 0.058250 0.758139 0.441569
O O15 0.000000 0.500000 0.437333
O O16 0.500000 0.500000 0.471697
#
# Coordination Sequence:
#
# PCOD9355589 Si02
#       8
#     8   8   4   8   4   8   8   8
#     4  11  24  43  72 106 141 179 233 316 382 435
#     4  11  24  42  73 108 141 183 231 309 375 433
#     4  11  28  50  77  94 156 205 248 314 365 450
#     4  11  25  47  72 103 145 195 248 301 370 447
#     4  11  32  44  75  96 148 207 246 304 343 464
#     4  11  25  43  74 110 145 189 242 321 382 438
#     4  12  28  49  70 108 144 201 255 304 372 447
#     4  11  24  41  76 110 144 187 240 307 378 457
#
# _framework density 22.506608
#
# number of rings (size 3 to 8) (size 9 to 14) (size 15 to 20)
#    0.000    0.857    0.000    6.000   18.000    1.143 
#    0.000    0.714    0.000    0.000    0.000    0.000 
#    0.000    0.000    0.000    0.000    0.000    0.000 
#
# Total GULP energy -156464.433727 kJ/mol
# GULP energy per Si atom -5588.015490 kJ/mol
# Density = 2.245538 g / cm^3
# Si number density = 22.506608 Si / 1000 Ang^3
#
#
#
# Elastic Constant Matrix: (Units=GPa)
#
#
# Indices 1 2 3 4 5 6 
#
# 1 75.0156 40.6337 37.6964 0.0000 0.0000 0.0000
# 2 40.6337 136.4805 24.4114 0.0000 0.0000 0.0000
# 3 37.6964 24.4114 128.8238 0.0000 0.0000 0.0000
# 4 0.0000 0.0000 0.0000 30.3732 0.0000 0.0000
# 5 0.0000 0.0000 0.0000 0.0000 47.1047 0.0000
# 6 0.0000 0.0000 0.0000 0.0000 0.0000 29.0401
#
#
#
# Elastic Compliance Matrix: (Units=1/GPa)
#
#
# Indices 1 2 3 4 5 6 
#
# 1 0.018025 -0.004578 -0.004407 0.000000 0.000000 0.000000
# 2 -0.004578 0.008747 -0.000318 0.000000 0.000000 0.000000
# 3 -0.004407 -0.000318 0.009112 0.000000 0.000000 0.000000
# 4 0.000000 0.000000 0.000000 0.032924 0.000000 0.000000
# 5 0.000000 0.000000 0.000000 0.000000 0.021229 0.000000
# 6 0.000000 0.000000 0.000000 0.000000 0.000000 0.034435
#
#
# Mechanical properties :
#
#
# Convention : Reuss Voigt Hill
#
# Bulk Modulus (GPa) = 57.87604 60.64475 59.26040
# Shear Modulus (GPa) = 33.59358 37.14216 35.36787
#
# Velocity S-wave (km/s) = 3.86762 4.06677 3.96844
# Velocity P-wave (km/s) = 6.76133 7.00395 6.88371
#
# Compressibility (1/GPa) = 0.01727831
#
# Stress axis : x y z
#
# Youngs Moduli (GPa) = 55.47844 114.32530 109.74161
#
# Poissons Ratio (x) = 0.52341 0.48362
# Poissons Ratio (y) = 0.25400 0.03488
# Poissons Ratio (z) = 0.24449 0.03633
#
# Static dielectric constant tensor:
#      x y z
#    x 1.823810 0.000000 0.000000 
#    y 0.000000 1.794190 0.000000 
#    z 0.000000 0.000000 1.877000 
# 
# From -- ./inp_files/12963.got.cif
#   From: 2010.05.17/outbox.cif.g08.bks.cpg/sg37_7_cif.got.tgz:12963.got - 2010.06.03 17:53:42.
