data_PCOD9355369
_publ_section_title
;
Structure prediction by ZEFSAII (Michael W. Deem and Ramdas Pophale) SiO2 
 PCOD9355369
Probable space group: C C C 2
;
_chemical_formula_sum "Si O2"
_cell_formula_units_Z 32
_cell_length_a 5.063042
_cell_length_b 30.662792
_cell_length_c 6.735516
_cell_angle_alpha 90.000000
_cell_angle_beta 90.000000
_cell_angle_gamma 90.000000
_cell_volume 1045.668678
_symmetry_space_group_name_H-M "C C C 2"
_symmetry_group_IT_number 37
_symmetry_cell_setting 'orthorhombic'
loop_
_space_group_symop_operation_xyz
x,y,z
-x,-y,z
-x,y,1/2+z
x,-y,1/2+z
1/2+x,1/2+y,z
1/2-x,1/2-y,z
1/2-x,1/2+y,1/2+z
1/2+x,1/2-y,1/2+z
loop_
_atom_site_type_symbol
_atom_site_label
_atom_site_fract_x
_atom_site_fract_y
_atom_site_fract_z
Si Si1 0.638724 0.903806 0.562630
Si Si2 0.252908 0.468670 0.251752
Si Si3 0.482130 0.649655 0.818661
Si Si4 0.007198 0.218463 0.062571
O O1 0.803734 0.941486 0.451704
O O2 0.372439 0.930046 0.614698
O O3 0.800301 0.886382 0.753236
O O4 0.691143 0.864121 0.405439
O O5 0.500000 0.500000 0.216845
O O6 0.000000 0.500000 0.283742
O O7 0.415867 0.661665 0.567053
O O8 0.524419 0.704191 0.811562
O O9 0.250000 0.250000 0.077415
O O10 0.750000 0.250000 0.048499
#
# Coordination Sequence:
#
# PCOD9355369 Si02
#       4
#     8   8   8   8
#     4  11  27  50  82 120 165 216 282 349 426 510
#     4  12  29  53  82 117 160 217 278 351 430 510
#     4  10  25  47  80 121 162 217 274 340 413 491
#     4  11  24  46  75 116 168 220 271 332 406 493
#
# _framework density 30.602426999999999
#
# number of rings (size 3 to 8) (size 9 to 14) (size 15 to 20)
#    0.000    1.000    0.000    3.750    0.000   22.000 
#    0.000    0.000    0.000    3.000    0.000    0.000 
#    0.000    0.000    0.000    0.000    0.000    0.000 
#
# Total GULP energy -89266.201925 kJ/mol
# GULP energy per Si atom -5579.137620 kJ/mol
# Density = 3.053277 g / cm^3
# Si number density = 30.602427 Si / 1000 Ang^3
#
#
#
# Elastic Constant Matrix: (Units=GPa)
#
#
# Indices 1 2 3 4 5 6 
#
# 1 268.8265 117.3472 87.7571 0.0000 0.0000 0.0000
# 2 117.3472 205.4661 137.8888 0.0000 0.0000 0.0000
# 3 87.7571 137.8888 302.4105 0.0000 0.0000 0.0000
# 4 0.0000 0.0000 0.0000 158.1420 0.0000 0.0000
# 5 0.0000 0.0000 0.0000 0.0000 49.0410 0.0000
# 6 0.0000 0.0000 0.0000 0.0000 0.0000 43.5320
#
#
#
# Elastic Compliance Matrix: (Units=1/GPa)
#
#
# Indices 1 2 3 4 5 6 
#
# 1 0.004965 -0.002693 -0.000213 0.000000 0.000000 0.000000
# 2 -0.002693 0.008473 -0.003082 0.000000 0.000000 0.000000
# 3 -0.000213 -0.003082 0.004774 0.000000 0.000000 0.000000
# 4 0.000000 0.000000 0.000000 0.006323 0.000000 0.000000
# 5 0.000000 0.000000 0.000000 0.000000 0.020391 0.000000
# 6 0.000000 0.000000 0.000000 0.000000 0.000000 0.022972
#
#
# Mechanical properties :
#
#
# Convention : Reuss Voigt Hill
#
# Bulk Modulus (GPa) = 160.34693 162.52102 161.43398
# Shear Modulus (GPa) = 61.01116 79.05700 70.03408
#
# Velocity S-wave (km/s) = 4.46990 5.08819 4.78903
# Velocity P-wave (km/s) = 8.89666 9.36707 9.13489
#
# Compressibility (1/GPa) = 0.00623648
#
# Stress axis : x y z
#
# Youngs Moduli (GPa) = 201.42000 118.01935 209.47114
#
# Poissons Ratio (x) = 0.31777 0.04462
# Poissons Ratio (y) = 0.54233 0.64562
# Poissons Ratio (z) = 0.04291 0.36375
#
# Static dielectric constant tensor:
#      x y z
#    x 2.227390 0.000000 0.000000 
#    y 0.000000 2.338070 0.000000 
#    z 0.000000 0.000000 2.837380 
# 
# From -- ./inp_files/1749.got.cif
#   From: 2010.05.17/outbox.cif.g08.bks.cpg/sg37_1_cif.got.tgz:1749.got - 2010.06.03 17:53:42.
