data_PCOD9355492
_publ_section_title
;
Structure prediction by ZEFSAII (Michael W. Deem and Ramdas Pophale) SiO2 
 PCOD9355492
Probable space group: C C C 2
;
_chemical_formula_sum "Si O2"
_cell_formula_units_Z 56
_cell_length_a 15.492353
_cell_length_b 4.904208
_cell_length_c 31.266214
_cell_angle_alpha 90.000000
_cell_angle_beta 90.000000
_cell_angle_gamma 90.000000
_cell_volume 2375.535700
_symmetry_space_group_name_H-M "C C C 2"
_symmetry_group_IT_number 37
_symmetry_cell_setting 'orthorhombic'
loop_
_space_group_symop_operation_xyz
x,y,z
-x,-y,z
-x,y,1/2+z
x,-y,1/2+z
1/2+x,1/2+y,z
1/2-x,1/2-y,z
1/2-x,1/2+y,1/2+z
1/2+x,1/2-y,1/2+z
loop_
_atom_site_type_symbol
_atom_site_label
_atom_site_fract_x
_atom_site_fract_y
_atom_site_fract_z
Si Si1 0.850525 0.226036 0.001780
Si Si2 0.104834 0.978211 0.813739
Si Si3 0.584228 0.199871 0.456003
Si Si4 0.396979 0.548677 0.717519
Si Si5 0.894596 0.477936 0.363874
Si Si6 0.558651 0.243568 0.087230
Si Si7 0.165688 0.428065 0.668910
O O1 0.750000 0.250000 0.992673
O O2 0.876190 0.158527 0.050280
O O3 0.873379 0.541160 0.994727
O O4 0.903288 0.016258 0.970302
O O5 0.135451 0.276567 0.826529
O O6 0.123393 0.874611 0.766297
O O7 0.135366 0.776617 0.851065
O O8 0.000000 0.000000 0.815326
O O9 0.500000 0.000000 0.451704
O O10 0.627686 0.146382 0.409944
O O11 0.500000 0.500000 0.711306
O O12 0.362248 0.246679 0.709815
O O13 0.350163 0.760097 0.684851
O O14 0.000000 0.500000 0.362441
O O15 0.500000 0.500000 0.099342
O O16 0.603286 0.120418 0.128892
O O17 0.500000 0.000000 0.068911
O O18 0.250000 0.250000 0.655526
#
# Coordination Sequence:
#
# PCOD9355492 Si02
#       7
#     8   8   8   8   8   8   8
#     4  12  25  42  63  92 130 167 205 256 324 388
#     4   9  17  31  55  88 120 154 205 266 315 359
#     4  11  22  39  65  93 124 166 216 264 313 377
#     4  11  22  39  65  93 124 166 216 264 313 377
#     4   9  17  31  55  88 120 154 205 266 315 359
#     4  12  25  44  69  94 122 158 210 262 311 376
#     4  12  25  42  63  92 130 167 205 256 324 388
#
# _framework density 23.573630000000001
#
# number of rings (size 3 to 8) (size 9 to 14) (size 15 to 20)
#    0.000    1.143    0.000    8.143    0.000    4.571 
#    0.000    4.286    0.000   17.143    0.000    0.000 
#    0.000    0.000    0.000    0.000    0.000    0.000 
#
# Total GULP energy -155949.116421 kJ/mol
# GULP energy per Si atom -5569.611301 kJ/mol
# Density = 2.351998 g / cm^3
# Si number density = 23.573630 Si / 1000 Ang^3
#
#
#
# Elastic Constant Matrix: (Units=GPa)
#
#
# Indices 1 2 3 4 5 6 
#
# 1 58.0165 7.4648 0.6679 0.0000 0.0000 0.0000
# 2 7.4648 129.1497 29.3345 0.0000 0.0000 0.0000
# 3 0.6679 29.3345 114.6500 0.0000 0.0000 0.0000
# 4 0.0000 0.0000 0.0000 23.0441 0.0000 0.0000
# 5 0.0000 0.0000 0.0000 0.0000 1.1304 0.0000
# 6 0.0000 0.0000 0.0000 0.0000 0.0000 17.4078
#
#
#
# Elastic Compliance Matrix: (Units=1/GPa)
#
#
# Indices 1 2 3 4 5 6 
#
# 1 0.017369 -0.001041 0.000165 0.000000 0.000000 0.000000
# 2 -0.001041 0.008283 -0.002113 0.000000 0.000000 0.000000
# 3 0.000165 -0.002113 0.009262 0.000000 0.000000 0.000000
# 4 0.000000 0.000000 0.000000 0.043395 0.000000 0.000000
# 5 0.000000 0.000000 0.000000 0.000000 0.884615 0.000000
# 6 0.000000 0.000000 0.000000 0.000000 0.000000 0.057446
#
#
# Mechanical properties :
#
#
# Convention : Reuss Voigt Hill
#
# Bulk Modulus (GPa) = 34.56045 41.86118 38.21081
# Shear Modulus (GPa) = 4.82629 25.93973 15.38301
#
# Velocity S-wave (km/s) = 1.43240 3.32078 2.55728
# Velocity P-wave (km/s) = 4.17470 5.70085 4.99639
#
# Compressibility (1/GPa) = 0.02893481
#
# Stress axis : x y z
#
# Youngs Moduli (GPa) = 57.57522 120.72704 107.96874
#
# Poissons Ratio (x) = 0.12573 -0.01785
# Poissons Ratio (y) = 0.05996 0.22817
# Poissons Ratio (z) = -0.00952 0.25513
#
# Static dielectric constant tensor:
#      x y z
#    x 2.014570 0.000000 0.000000 
#    y 0.000000 1.915200 0.000000 
#    z 0.000000 0.000000 1.850300 
# 
# From -- ./inp_files/20550.got.cif
#   From: 2010.05.17/outbox.cif.g08.bks.cpg/sg37_11_cif.got.tgz:20550.got - 2010.06.03 17:53:42.
