data_PCOD9355672
_publ_section_title
;
Structure prediction by ZEFSAII (Michael W. Deem and Ramdas Pophale) SiO2 
 PCOD9355672
Probable space group: C C C 2
;
_chemical_formula_sum "Si O2"
_cell_formula_units_Z 20
_cell_length_a 6.885656
_cell_length_b 7.877467
_cell_length_c 14.477626
_cell_angle_alpha 90.000000
_cell_angle_beta 90.000000
_cell_angle_gamma 90.000000
_cell_volume 785.288555
_symmetry_space_group_name_H-M "C C C 2"
_symmetry_group_IT_number 37
_symmetry_cell_setting 'orthorhombic'
loop_
_space_group_symop_operation_xyz
x,y,z
-x,-y,z
-x,y,1/2+z
x,-y,1/2+z
1/2+x,1/2+y,z
1/2-x,1/2-y,z
1/2-x,1/2+y,1/2+z
1/2+x,1/2-y,1/2+z
loop_
_atom_site_type_symbol
_atom_site_label
_atom_site_fract_x
_atom_site_fract_y
_atom_site_fract_z
Si Si1 0.281164 0.936481 0.478250
Si Si2 0.000000 0.000000 0.311919
Si Si3 0.277395 0.943375 0.169461
O O1 0.250000 0.750000 0.520055
O O2 0.151869 0.928416 0.386839
O O3 0.500000 0.000000 0.455590
O O4 0.213812 0.055411 0.562287
O O5 0.153161 0.066588 0.235362
O O6 0.250000 0.750000 0.204133
O O7 0.500000 0.000000 0.170990
#
# Coordination Sequence:
#
# PCOD9355672 Si02
#       3
#     8   4   8
#     4  11  28  49  75 111 156 200 258 317 387 460
#     4  12  26  46  84 110 150 204 258 324 376 464
#     4  11  28  49  75 111 156 200 258 317 387 460
#
# _framework density 25.468343000000001
#
# number of rings (size 3 to 8) (size 9 to 14) (size 15 to 20)
#    0.000    0.800    0.000    3.600   22.400    3.200 
#    0.000    0.000    0.000    0.000    0.000    0.000 
#    0.000    0.000    0.000    0.000    0.000    0.000 
#
# Total GULP energy -55708.813669 kJ/mol
# GULP energy per Si atom -5570.881367 kJ/mol
# Density = 2.541038 g / cm^3
# Si number density = 25.468343 Si / 1000 Ang^3
#
#
#
# Elastic Constant Matrix: (Units=GPa)
#
#
# Indices 1 2 3 4 5 6 
#
# 1 165.1230 49.2748 37.3813 0.0000 0.0000 0.0000
# 2 49.2748 115.4769 21.5302 0.0000 0.0000 0.0000
# 3 37.3813 21.5302 186.8540 0.0000 0.0000 0.0000
# 4 0.0000 0.0000 0.0000 -21.7861 0.0000 0.0000
# 5 0.0000 0.0000 0.0000 0.0000 38.6371 0.0000
# 6 0.0000 0.0000 0.0000 0.0000 0.0000 23.7006
#
#
#
# Elastic Compliance Matrix: (Units=1/GPa)
#
#
# Indices 1 2 3 4 5 6 
#
# 1 0.007156 -0.002848 -0.001103 0.000000 0.000000 0.000000
# 2 -0.002848 0.009983 -0.000581 0.000000 0.000000 0.000000
# 3 -0.001103 -0.000581 0.005639 0.000000 0.000000 0.000000
# 4 0.000000 0.000000 0.000000 -0.045901 0.000000 0.000000
# 5 0.000000 0.000000 0.000000 0.000000 0.025882 0.000000
# 6 0.000000 0.000000 0.000000 0.000000 0.000000 0.042193
#
#
# Mechanical properties :
#
#
# Convention : Reuss Voigt Hill
#
# Bulk Modulus (GPa) = 72.91371 75.98072 74.44721
# Shear Modulus (GPa) = 85.34288 32.06150 58.70219
#
# Velocity S-wave (km/s) = 5.79501 3.55191 4.80615
# Velocity P-wave (km/s) = 8.57132 6.83518 7.75200
#
# Compressibility (1/GPa) = 0.01371484
#
# Stress axis : x y z
#
# Youngs Moduli (GPa) = 139.74947 100.16930 177.32327
#
# Poissons Ratio (x) = 0.28525 0.19566
# Poissons Ratio (y) = 0.39796 0.10296
# Poissons Ratio (z) = 0.15420 0.05816
#
# Static dielectric constant tensor:
#      x y z
#    x 2.050280 0.000000 0.000000 
#    y 0.000000 2.211640 0.000000 
#    z 0.000000 0.000000 1.957450 
# 
# From -- ./inp_files/13442.got.cif
#   From: 2010.05.17/outbox.cif.g08.bks.cpg/sg37_7_cif.got.tgz:13442.got - 2010.06.03 17:53:42.
