data_PCOD9355828
_publ_section_title
;
Structure prediction by ZEFSAII (Michael W. Deem and Ramdas Pophale) SiO2 
 PCOD9355828
Probable space group: A M M 2
;
_chemical_formula_sum "Si O2"
_cell_formula_units_Z 40
_cell_length_a 7.686463
_cell_length_b 12.163095
_cell_length_c 20.621386
_cell_angle_alpha 90.000000
_cell_angle_beta 90.000000
_cell_angle_gamma 90.000000
_cell_volume 1927.917704
_symmetry_space_group_name_H-M "A M M 2"
_symmetry_group_IT_number 38
_symmetry_cell_setting 'orthorhombic'
loop_
_space_group_symop_operation_xyz
x,y,z
-x,-y,z
-x,y,z
x,-y,z
x,1/2+y,1/2+z
-x,1/2-y,1/2+z
-x,1/2+y,1/2+z
x,1/2-y,1/2+z
loop_
_atom_site_type_symbol
_atom_site_label
_atom_site_fract_x
_atom_site_fract_y
_atom_site_fract_z
Si Si1 0.709747 0.373917 0.220400
Si Si2 0.793602 0.258923 0.591754
Si Si3 0.292114 0.376806 0.963431
Si Si4 0.709879 0.500000 0.435955
Si Si5 0.800469 0.500000 0.583883
Si Si6 0.288098 0.782692 0.854898
O O1 0.500000 0.378763 0.224968
O O2 0.773000 0.500000 0.224536
O O3 0.753777 0.318631 0.152365
O O4 0.772791 0.302011 0.281554
O O5 0.735456 0.201839 0.525126
O O6 0.719589 0.382111 0.602273
O O7 0.000000 0.271062 0.585971
O O8 0.500000 0.385165 0.956346
O O9 0.223022 0.500000 0.974347
O O10 0.224686 0.319368 0.897820
O O11 0.500000 0.500000 0.445512
O O12 0.796834 0.500000 0.505745
O O13 0.755364 0.607694 0.395210
O O14 0.000000 0.500000 0.608014
O O15 0.500000 0.776363 0.852869
#
# Coordination Sequence:
#
# PCOD9355828 Si02
#       6
#     8   8   8   4   4   8
#     4  10  20  36  57  81 110 142 177 220 268 315
#     4  11  23  38  55  77 108 144 182 223 266 316
#     4  10  20  35  57  84 112 141 175 218 267 318
#     4  10  16  30  60  86 102 129 174 221 266 321
#     4  10  22  38  54  76 108 141 176 223 272 313
#     4   9  17  32  56  84 110 135 171 221 270 315
#
# _framework density 20.747772999999999
#
# number of rings (size 3 to 8) (size 9 to 14) (size 15 to 20)
#    0.000    2.000    3.000    1.200    0.000    4.000 
#    1.800    2.000    0.000    0.000    0.000    0.000 
#    0.000    0.000    0.000    0.000    0.000    0.000 
#
# Total GULP energy -111644.057403 kJ/mol
# GULP energy per Si atom -5582.202870 kJ/mol
# Density = 2.070055 g / cm^3
# Si number density = 20.747773 Si / 1000 Ang^3
#
#
#
# Elastic Constant Matrix: (Units=GPa)
#
#
# Indices 1 2 3 4 5 6 
#
# 1 37.0460 11.3459 -3.8170 0.0000 0.0000 0.0000
# 2 11.3459 156.6906 61.8904 0.0000 0.0000 0.0000
# 3 -3.8170 61.8904 124.9315 0.0000 0.0000 0.0000
# 4 0.0000 0.0000 0.0000 39.4449 0.0000 0.0000
# 5 0.0000 0.0000 0.0000 0.0000 184.7911 0.0000
# 6 0.0000 0.0000 0.0000 0.0000 0.0000 11.3941
#
#
#
# Elastic Compliance Matrix: (Units=1/GPa)
#
#
# Indices 1 2 3 4 5 6 
#
# 1 0.028138 -0.002955 0.002324 0.000000 0.000000 0.000000
# 2 -0.002955 0.008245 -0.004175 0.000000 0.000000 0.000000
# 3 0.002324 -0.004175 0.010144 0.000000 0.000000 0.000000
# 4 0.000000 0.000000 0.000000 0.025352 0.000000 0.000000
# 5 0.000000 0.000000 0.000000 0.000000 0.005412 0.000000
# 6 0.000000 0.000000 0.000000 0.000000 0.000000 0.087765
#
#
# Mechanical properties :
#
#
# Convention : Reuss Voigt Hill
#
# Bulk Modulus (GPa) = 27.09015 50.83408 38.96211
# Shear Modulus (GPa) = 26.74195 63.74260 45.24227
#
# Velocity S-wave (km/s) = 3.59403 5.54881 4.67474
# Velocity P-wave (km/s) = 5.50527 8.09979 6.92512
#
# Compressibility (1/GPa) = 0.03691379
#
# Stress axis : x y z
#
# Youngs Moduli (GPa) = 35.53912 121.28590 98.58469
#
# Poissons Ratio (x) = 0.35844 -0.22908
# Poissons Ratio (y) = 0.10503 0.41157
# Poissons Ratio (z) = -0.08258 0.50635
#
# Static dielectric constant tensor:
#      x y z
#    x 1.763210 0.000000 0.000000 
#    y 0.000000 1.768500 0.000000 
#    z 0.000000 0.000000 1.695240 
# 
# From -- ./inp_files/19480.got.cif
#   From: 2010.05.17/outbox.cif.g08.bks.cpg/sg38_10_cif.got.tgz:19480.got - 2010.06.03 18:07:57.
