data_PCOD9355853
_publ_section_title
;
Structure prediction by ZEFSAII (Michael W. Deem and Ramdas Pophale) SiO2 
 PCOD9355853
Probable space group: A M M 2
;
_chemical_formula_sum "Si O2"
_cell_formula_units_Z 64
_cell_length_a 14.943899
_cell_length_b 7.677793
_cell_length_c 32.302986
_cell_angle_alpha 90.000000
_cell_angle_beta 90.000000
_cell_angle_gamma 90.000000
_cell_volume 3706.320671
_symmetry_space_group_name_H-M "A M M 2"
_symmetry_group_IT_number 38
_symmetry_cell_setting 'orthorhombic'
loop_
_space_group_symop_operation_xyz
x,y,z
-x,-y,z
-x,y,z
x,-y,z
x,1/2+y,1/2+z
-x,1/2-y,1/2+z
-x,1/2+y,1/2+z
x,1/2-y,1/2+z
loop_
_atom_site_type_symbol
_atom_site_label
_atom_site_fract_x
_atom_site_fract_y
_atom_site_fract_z
Si Si1 0.101742 0.207074 0.025970
Si Si2 0.897212 0.786909 0.276097
Si Si3 0.599303 0.287623 0.726882
Si Si4 0.213901 0.713306 0.857397
Si Si5 0.102044 0.205696 0.616339
Si Si6 0.213597 0.207073 0.196759
Si Si7 0.599569 0.712088 0.823595
Si Si8 0.897488 0.207348 0.435788
O O1 0.140177 0.257037 0.070514
O O2 0.000000 0.280659 0.026360
O O3 0.097239 0.000000 0.025100
O O4 0.140481 0.263204 0.981907
O O5 0.843770 0.735533 0.317212
O O6 0.846768 0.725645 0.234767
O O7 0.000000 0.729855 0.276977
O O8 0.897817 0.000000 0.275605
O O9 0.500000 0.227335 0.714328
O O10 0.597166 0.500000 0.725382
O O11 0.684896 0.225823 0.701055
O O12 0.613309 0.241287 0.775255
O O13 0.215029 0.500000 0.858112
O O14 0.315970 0.771221 0.850322
O O15 0.165001 0.774499 0.899019
O O16 0.164618 0.266517 0.653402
O O17 0.000000 0.280076 0.619064
O O18 0.094607 0.000000 0.620479
O O19 0.219533 0.000000 0.203280
O O20 0.500000 0.770566 0.836092
O O21 0.599206 0.500000 0.824680
O O22 0.000000 0.277412 0.433947
O O23 0.904179 0.000000 0.429952
#
# Coordination Sequence:
#
# PCOD9355853 Si02
#       8
#     8   8   8   8   8   8   8   8
#     4   9  17  30  47  64  82 106 139 178 215 252
#     4   9  15  21  31  52  83 115 146 177 204 235
#     4   8  13  22  37  59  87 115 144 183 225 255
#     4   9  14  21  33  54  83 114 144 172 206 247
#     4  10  20  32  45  62  87 116 143 174 216 264
#     4  10  17  26  42  64  87 114 149 184 215 250
#     4   8  12  19  32  52  81 113 143 178 216 247
#     4   9  16  25  39  60  86 113 139 170 210 254
#
# _framework density 17.267799
#
# number of rings (size 3 to 8) (size 9 to 14) (size 15 to 20)
#    0.000    3.000    1.250    2.250    0.000    4.250 
#    0.000    0.000    0.000    1.125    0.000    2.625 
#    0.000    3.500    0.000    0.000    0.000    0.000 
#
# Total GULP energy -178283.099984 kJ/mol
# GULP energy per Si atom -5571.346875 kJ/mol
# Density = 1.722850 g / cm^3
# Si number density = 17.267799 Si / 1000 Ang^3
#
#
#
# Elastic Constant Matrix: (Units=GPa)
#
#
# Indices 1 2 3 4 5 6 
#
# 1 143.6459 6.8877 88.8520 0.0000 0.0000 0.0000
# 2 6.8877 27.2188 -4.3535 0.0000 0.0000 0.0000
# 3 88.8520 -4.3535 144.3361 0.0000 0.0000 0.0000
# 4 0.0000 0.0000 0.0000 7.4754 0.0000 0.0000
# 5 0.0000 0.0000 0.0000 0.0000 10.0879 0.0000
# 6 0.0000 0.0000 0.0000 0.0000 0.0000 -0.1459
#
#
#
# Elastic Compliance Matrix: (Units=1/GPa)
#
#
# Indices 1 2 3 4 5 6 
#
# 1 0.011686 -0.004128 -0.007319 0.000000 0.000000 0.000000
# 2 -0.004128 0.038375 0.003699 0.000000 0.000000 0.000000
# 3 -0.007319 0.003699 0.011545 0.000000 0.000000 0.000000
# 4 0.000000 0.000000 0.000000 0.133772 0.000000 0.000000
# 5 0.000000 0.000000 0.000000 0.000000 0.099129 0.000000
# 6 0.000000 0.000000 0.000000 0.000000 0.000000 -6.855944
#
#
# Mechanical properties :
#
#
# Convention : Reuss Voigt Hill
#
# Bulk Modulus (GPa) = 21.68670 55.33038 38.50854
# Shear Modulus (GPa) = -0.76563 18.40446 8.81941
#
# Velocity S-wave (km/s) = -0.66659 3.26824 2.26241
# Velocity P-wave (km/s) = 3.46321 6.80837 5.40129
#
# Compressibility (1/GPa) = 0.04611121
#
# Stress axis : x y z
#
# Youngs Moduli (GPa) = 85.56988 26.05836 86.61725
#
# Poissons Ratio (x) = 0.10756 0.63391
# Poissons Ratio (y) = 0.35322 -0.32036
# Poissons Ratio (z) = 0.62624 -0.09638
#
# Static dielectric constant tensor:
#      x y z
#    x 1.599490 0.000000 0.000000 
#    y 0.000000 1.648720 0.000000 
#    z 0.000000 0.000000 1.582890 
# 
# From -- ./inp_files/25042.got.cif
#   From: 2010.05.17/outbox.cif.g08.bks.cpg/sg38_13_cif.got.tgz:25042.got - 2010.06.03 18:07:57.
