data_PCOD9355308
_publ_section_title
;
Structure prediction by ZEFSAII (Michael W. Deem and Ramdas Pophale) SiO2 
 PCOD9355308
Probable space group: C C C 2
;
_chemical_formula_sum "Si O2"
_cell_formula_units_Z 40
_cell_length_a 15.247864
_cell_length_b 4.935707
_cell_length_c 21.690952
_cell_angle_alpha 90.000000
_cell_angle_beta 90.000000
_cell_angle_gamma 90.000000
_cell_volume 1632.439120
_symmetry_space_group_name_H-M "C C C 2"
_symmetry_group_IT_number 37
_symmetry_cell_setting 'orthorhombic'
loop_
_space_group_symop_operation_xyz
x,y,z
-x,-y,z
-x,y,1/2+z
x,-y,1/2+z
1/2+x,1/2+y,z
1/2-x,1/2-y,z
1/2-x,1/2+y,1/2+z
1/2+x,1/2-y,1/2+z
loop_
_atom_site_type_symbol
_atom_site_label
_atom_site_fract_x
_atom_site_fract_y
_atom_site_fract_z
Si Si1 0.097729 0.620449 0.764270
Si Si2 0.127356 0.865362 0.431090
Si Si3 0.689003 0.006452 0.139781
Si Si4 0.000000 0.000000 0.833437
Si Si5 0.901942 0.617733 0.511370
Si Si6 0.750000 0.250000 0.849741
O O1 0.123640 0.575720 0.694369
O O2 0.077028 0.924849 0.786378
O O3 0.182333 0.573944 0.807554
O O4 0.000000 0.500000 0.775944
O O5 0.100704 0.082243 0.483744
O O6 0.195995 0.037176 0.391011
O O7 0.149198 0.587855 0.465584
O O8 0.047101 0.805577 0.383681
O O9 0.750000 0.750000 0.125226
O O10 0.640634 0.104307 0.078445
O O11 0.750000 0.250000 0.162870
O O12 0.000000 0.500000 0.514271
#
# Coordination Sequence:
#
# PCOD9355308 Si02
#       6
#     8   8   8   4   8   4
#     4  11  26  50  77 107 152 205 258 321 391 469
#     4  11  25  44  76 110 154 191 252 314 393 463
#     4  12  29  51  75 111 155 205 267 323 391 466
#     4  10  24  46  72 118 146 196 254 318 384 474
#     4  12  25  49  74 111 148 206 255 321 383 466
#     4  10  26  48  72 118 150 202 248 326 388 478
#
# _framework density 24.503212000000001
#
# number of rings (size 3 to 8) (size 9 to 14) (size 15 to 20)
#    0.000    0.800    3.000    1.800   12.600    0.000 
#    7.200    0.000    0.000    0.000    0.000    0.000 
#    0.000    0.000    0.000    0.000    0.000    0.000 
#
# Total GULP energy -111814.382301 kJ/mol
# GULP energy per Si atom -5590.719115 kJ/mol
# Density = 2.444744 g / cm^3
# Si number density = 24.503212 Si / 1000 Ang^3
#
#
#
# Elastic Constant Matrix: (Units=GPa)
#
#
# Indices 1 2 3 4 5 6 
#
# 1 120.5734 13.6424 66.1570 0.0000 0.0000 0.0000
# 2 13.6424 93.9172 33.2624 0.0000 0.0000 0.0000
# 3 66.1570 33.2624 186.4452 0.0000 0.0000 0.0000
# 4 0.0000 0.0000 0.0000 29.2090 0.0000 0.0000
# 5 0.0000 0.0000 0.0000 0.0000 -44.0946 0.0000
# 6 0.0000 0.0000 0.0000 0.0000 0.0000 43.7950
#
#
#
# Elastic Compliance Matrix: (Units=1/GPa)
#
#
# Indices 1 2 3 4 5 6 
#
# 1 0.010303 -0.000215 -0.003617 0.000000 0.000000 0.000000
# 2 -0.000215 0.011370 -0.001952 0.000000 0.000000 0.000000
# 3 -0.003617 -0.001952 0.006995 0.000000 0.000000 0.000000
# 4 0.000000 0.000000 0.000000 0.034236 0.000000 0.000000
# 5 0.000000 0.000000 0.000000 0.000000 -0.022678 0.000000
# 6 0.000000 0.000000 0.000000 0.000000 0.000000 0.022834
#
#
# Mechanical properties :
#
#
# Convention : Reuss Voigt Hill
#
# Bulk Modulus (GPa) = 58.48365 69.67327 64.07846
# Shear Modulus (GPa) = 62.24399 24.97348 43.60873
#
# Velocity S-wave (km/s) = 5.04554 3.19594 4.22324
# Velocity P-wave (km/s) = 7.60677 6.48959 7.07028
#
# Compressibility (1/GPa) = 0.01709880
#
# Stress axis : x y z
#
# Youngs Moduli (GPa) = 97.06024 87.94823 142.95267
#
# Poissons Ratio (x) = 0.01895 0.51711
# Poissons Ratio (y) = 0.02091 0.27905
# Poissons Ratio (z) = 0.35110 0.17168
#
# Static dielectric constant tensor:
#      x y z
#    x 2.084330 0.000000 0.000000 
#    y 0.000000 2.132270 0.000000 
#    z 0.000000 0.000000 1.862180 
# 
# From -- ./inp_files/15327.got.cif
#   From: 2010.05.17/outbox.cif.g08.bks.cpg/sg37_8_cif.got.tgz:15327.got - 2010.06.03 17:53:42.
