data_PCOD9355758
_publ_section_title
;
Structure prediction by ZEFSAII (Michael W. Deem and Ramdas Pophale) SiO2 
 PCOD9355758
Probable space group: C C C 2
;
_chemical_formula_sum "Si O2"
_cell_formula_units_Z 32
_cell_length_a 9.000000
_cell_length_b 15.000000
_cell_length_c 24.000000
_cell_angle_alpha 90.000000
_cell_angle_beta 90.000000
_cell_angle_gamma 90.000000
_cell_volume 3240.000000
_symmetry_space_group_name_H-M "C C C 2"
_symmetry_group_IT_number 37
_symmetry_cell_setting 'orthorhombic'
loop_
_space_group_symop_operation_xyz
x,y,z
-x,-y,z
-x,y,1/2+z
x,-y,1/2+z
1/2+x,1/2+y,z
1/2-x,1/2-y,z
1/2-x,1/2+y,1/2+z
1/2+x,1/2-y,1/2+z
loop_
_atom_site_type_symbol
_atom_site_label
_atom_site_fract_x
_atom_site_fract_y
_atom_site_fract_z
Si Si1 0.674718 0.476819 0.808540
Si Si2 0.823849 0.498483 0.019979
Si Si3 0.383387 0.417761 0.429993
Si Si4 0.355470 0.332779 0.221602
Si Si5 0.004579 0.221353 0.107374
Si Si6 0.201041 0.384249 0.627646
Si Si7 0.701602 0.648854 0.752830
Si Si8 0.638814 0.321951 0.488579
O O1 0.500000 0.500000 0.805221
O O2 0.689319 0.425990 0.868044
O O3 0.714187 0.417554 0.754131
O O4 0.742239 0.575870 0.799859
O O5 0.810056 0.467338 0.084956
O O6 0.000000 0.500000 0.007653
O O7 0.739637 0.429545 0.978315
O O8 0.735638 0.590129 0.005680
O O9 0.500000 0.500000 0.432163
O O10 0.497851 0.340138 0.448215
O O11 0.250000 0.250000 0.236637
O O12 0.388227 0.320922 0.155114
O O13 0.524284 0.337555 0.244471
O O14 0.944603 0.321061 0.120858
O O15 0.851511 0.165330 0.107480
O O16 0.077606 0.215802 0.047164
O O17 0.231301 0.389090 0.694194
O O18 0.750000 0.750000 0.762883
O O19 0.750000 0.250000 0.462976
#
# Coordination Sequence:
#
# PCOD9355758 Si02
#       8
#     8   8   8   8   8   8   8   8
#     4   9  20  39  64  87 119 166 215 251 311 364
#     4  11  23  39  61  88 126 165 206 251 324 370
#     4   9  20  42  62  86 123 164 213 264 298 376
#     4  10  20  36  57  87 126 156 201 256 300 375
#     4  10  19  35  59  88 127 158 199 248 315 373
#     4  10  19  36  58  90 127 160 196 256 312 376
#     4  10  19  39  62  88 121 164 210 252 318 375
#     4  11  22  38  63  92 118 164 211 255 311 383
#
# _framework density 9.8765429999999999
#
# number of rings (size 3 to 8) (size 9 to 14) (size 15 to 20)
#    0.000    2.000    3.750    1.125    1.750    0.000 
#    0.000   14.375    0.000    0.000    0.000    0.000 
#    0.000    0.000    0.000    0.000    0.000    0.000 
#
# Total GULP energy -178155.749775 kJ/mol
# GULP energy per Si atom -5567.367180 kJ/mol
# Density = 0.985406 g / cm^3
# Si number density = 9.876543 Si / 1000 Ang^3
#
#
#
# Elastic Constant Matrix: (Units=GPa)
#
#
# Indices 1 2 3 4 5 6 
#
# 1 69.3448 26.6159 28.4698 0.0000 0.0000 0.0000
# 2 26.6159 93.0820 48.3574 0.0000 0.0000 0.0000
# 3 28.4698 48.3574 93.4935 0.0000 0.0000 0.0000
# 4 0.0000 0.0000 0.0000 21.0454 0.0000 0.0000
# 5 0.0000 0.0000 0.0000 0.0000 13.3267 0.0000
# 6 0.0000 0.0000 0.0000 0.0000 0.0000 28.0731
#
#
#
# Elastic Compliance Matrix: (Units=1/GPa)
#
#
# Indices 1 2 3 4 5 6 
#
# 1 0.017065 -0.002981 -0.003655 0.000000 0.000000 0.000000
# 2 -0.002981 0.015211 -0.006960 0.000000 0.000000 0.000000
# 3 -0.003655 -0.006960 0.015409 0.000000 0.000000 0.000000
# 4 0.000000 0.000000 0.000000 0.047516 0.000000 0.000000
# 5 0.000000 0.000000 0.000000 0.000000 0.075037 0.000000
# 6 0.000000 0.000000 0.000000 0.000000 0.000000 0.035621
#
#
# Mechanical properties :
#
#
# Convention : Reuss Voigt Hill
#
# Bulk Modulus (GPa) = 48.79473 51.42295 50.10884
# Shear Modulus (GPa) = 20.84345 22.65418 21.74881
#
# Velocity S-wave (km/s) = 3.25191 3.39022 3.32178
# Velocity P-wave (km/s) = 6.23344 6.43538 6.33522
#
# Compressibility (1/GPa) = 0.02049402
#
# Stress axis : x y z
#
# Youngs Moduli (GPa) = 58.59839 65.74007 64.89817
#
# Poissons Ratio (x) = 0.19597 0.23719
# Poissons Ratio (y) = 0.17468 0.45169
# Poissons Ratio (z) = 0.21416 0.45755
#
# Static dielectric constant tensor:
#      x y z
#    x 1.691420 0.000000 0.000000 
#    y 0.000000 1.771780 0.000000 
#    z 0.000000 0.000000 1.717930 
# 
# From -- ./inp_files/18473.got.cif
#   From: 2010.05.17/outbox.ucp.g08.bks.cvg/sg37_10_cif.got.tgz:18473.got - 2010.06.11 10:38:43.
