data_PCOD9355530
_publ_section_title
;
Structure prediction by ZEFSAII (Michael W. Deem and Ramdas Pophale) SiO2 
 PCOD9355530
Probable space group: C C C 2
;
_chemical_formula_sum "Si O2"
_cell_formula_units_Z 64
_cell_length_a 8.445396
_cell_length_b 16.788739
_cell_length_c 24.726268
_cell_angle_alpha 90.000000
_cell_angle_beta 90.000000
_cell_angle_gamma 90.000000
_cell_volume 3505.876940
_symmetry_space_group_name_H-M "C C C 2"
_symmetry_group_IT_number 37
_symmetry_cell_setting 'orthorhombic'
loop_
_space_group_symop_operation_xyz
x,y,z
-x,-y,z
-x,y,1/2+z
x,-y,1/2+z
1/2+x,1/2+y,z
1/2-x,1/2-y,z
1/2-x,1/2+y,1/2+z
1/2+x,1/2-y,1/2+z
loop_
_atom_site_type_symbol
_atom_site_label
_atom_site_fract_x
_atom_site_fract_y
_atom_site_fract_z
Si Si1 0.563563 0.263133 0.068620
Si Si2 0.550791 0.090592 0.258188
Si Si3 0.059064 0.588518 0.380533
Si Si4 0.559064 0.411482 0.377252
Si Si5 0.864240 0.674958 0.980396
Si Si6 0.936437 0.263133 0.689165
Si Si7 0.949209 0.909408 0.999598
Si Si8 0.135760 0.825041 0.277389
O O1 0.750000 0.250000 0.067473
O O2 0.499999 0.250000 0.128893
O O3 0.521200 0.349164 0.043091
O O4 0.472210 0.202050 0.029548
O O5 0.499464 0.110233 0.320464
O O6 0.478801 0.150836 0.214694
O O7 0.740403 0.106232 0.259574
O O8 0.500000 0.000000 0.248277
O O9 0.250000 0.586403 0.378893
O O10 0.030223 0.648565 0.429570
O O11 0.000000 0.500000 0.393146
O O12 0.500000 0.500000 0.364639
O O13 0.499464 0.389767 0.437321
O O14 0.530222 0.351435 0.328215
O O15 0.750000 0.750000 0.965666
O O16 0.740403 0.606232 0.998211
O O17 0.750000 0.250000 0.690313
O O18 0.027791 0.202050 0.728237
O O19 0.000000 0.000000 0.009508
O O20 0.250000 0.750000 0.292120
#
# Coordination Sequence:
#
# PCOD9355530 Si02
#       8
#     8   8   8   8   8   8   8   8
#     4  11  23  40  58  79 107 142 186 233 276 324
#     4   9  19  37  58  82 113 147 181 220 268 326
#     4   9  18  32  54  83 116 146 177 218 268 322
#     4   9  18  32  54  83 116 146 177 218 268 322
#     4   9  19  35  56  81 111 149 183 220 272 325
#     4  11  23  40  58  79 107 142 186 233 276 324
#     4   9  19  37  58  82 113 147 181 220 268 326
#     4   9  19  35  56  81 111 149 183 220 272 325
#
# _framework density 18.255061999999999
#
# number of rings (size 3 to 8) (size 9 to 14) (size 15 to 20)
#    0.000    2.500    0.000    2.250    0.000   17.500 
#    0.000    7.500    0.000    0.000    0.000    0.000 
#    0.000    0.000    0.000    0.000    0.000    0.000 
#
# Total GULP energy -178388.952719 kJ/mol
# GULP energy per Si atom -5574.654772 kJ/mol
# Density = 1.821351 g / cm^3
# Si number density = 18.255062 Si / 1000 Ang^3
#
#
#
# Elastic Constant Matrix: (Units=GPa)
#
#
# Indices 1 2 3 4 5 6 
#
# 1 56.4401 45.5099 55.2534 0.0000 0.0000 0.0000
# 2 45.5099 98.7559 93.4737 0.0000 0.0000 0.0000
# 3 55.2534 93.4737 191.2814 0.0000 0.0000 0.0000
# 4 0.0000 0.0000 0.0000 -44.5818 0.0000 0.0000
# 5 0.0000 0.0000 0.0000 0.0000 26.2359 0.0000
# 6 0.0000 0.0000 0.0000 0.0000 0.0000 32.8301
#
#
#
# Elastic Compliance Matrix: (Units=1/GPa)
#
#
# Indices 1 2 3 4 5 6 
#
# 1 0.029390 -0.010249 -0.003481 0.000000 0.000000 0.000000
# 2 -0.010249 0.022414 -0.007993 0.000000 0.000000 0.000000
# 3 -0.003481 -0.007993 0.010139 0.000000 0.000000 0.000000
# 4 0.000000 0.000000 0.000000 -0.022431 0.000000 0.000000
# 5 0.000000 0.000000 0.000000 0.000000 0.038116 0.000000
# 6 0.000000 0.000000 0.000000 0.000000 0.000000 0.030460
#
#
# Mechanical properties :
#
#
# Convention : Reuss Voigt Hill
#
# Bulk Modulus (GPa) = 54.06017 81.66127 67.86072
# Shear Modulus (GPa) = 31.70585 13.04621 22.37603
#
# Velocity S-wave (km/s) = 4.17204 2.67622 3.50486
# Velocity P-wave (km/s) = 7.27228 7.37429 7.32346
#
# Compressibility (1/GPa) = 0.01849791
#
# Stress axis : x y z
#
# Youngs Moduli (GPa) = 34.02525 44.61471 98.62616
#
# Poissons Ratio (x) = 0.45725 0.34334
# Poissons Ratio (y) = 0.34872 0.78829
# Poissons Ratio (z) = 0.11845 0.35659
#
# Static dielectric constant tensor:
#      x y z
#    x 1.612940 0.000000 0.000000 
#    y 0.000000 1.645940 0.000000 
#    z 0.000000 0.000000 1.650910 
# 
# From -- ./inp_files/18537.got.cif
#   From: 2010.05.17/outbox.cif.g08.bks.cpg/sg37_10_cif.got.tgz:18537.got - 2010.06.03 17:53:42.
