data_PCOD9355459
_publ_section_title
;
Structure prediction by ZEFSAII (Michael W. Deem and Ramdas Pophale) SiO2 
 PCOD9355459
Probable space group: C C C 2
;
_chemical_formula_sum "Si O2"
_cell_formula_units_Z 56
_cell_length_a 15.951239
_cell_length_b 10.324235
_cell_length_c 14.437506
_cell_angle_alpha 90.000000
_cell_angle_beta 90.000000
_cell_angle_gamma 90.000000
_cell_volume 2377.631147
_symmetry_space_group_name_H-M "C C C 2"
_symmetry_group_IT_number 37
_symmetry_cell_setting 'orthorhombic'
loop_
_space_group_symop_operation_xyz
x,y,z
-x,-y,z
-x,y,1/2+z
x,-y,1/2+z
1/2+x,1/2+y,z
1/2-x,1/2-y,z
1/2-x,1/2+y,1/2+z
1/2+x,1/2-y,1/2+z
loop_
_atom_site_type_symbol
_atom_site_label
_atom_site_fract_x
_atom_site_fract_y
_atom_site_fract_z
Si Si1 0.556736 0.131042 0.468380
Si Si2 0.092928 0.946858 0.961067
Si Si3 0.465562 0.281533 0.624940
Si Si4 0.229956 0.499917 0.446932
Si Si5 0.456891 0.261196 0.306752
Si Si6 0.195147 0.630861 0.130232
Si Si7 0.699244 0.118864 0.746891
O O1 0.533902 0.224154 0.553982
O O2 0.525284 0.197347 0.373778
O O3 0.500000 0.000000 0.478083
O O4 0.654530 0.099177 0.463167
O O5 0.173038 0.039673 0.959263
O O6 0.100588 0.843250 0.877568
O O7 0.087241 0.881083 0.062011
O O8 0.000000 0.000000 0.944639
O O9 0.501983 0.335402 0.720387
O O10 0.401043 0.166738 0.648642
O O11 0.211074 0.386736 0.521153
O O12 0.221956 0.442630 0.345233
O O13 0.398319 0.155691 0.257325
O O14 0.250000 0.750000 0.167172
O O15 0.215886 0.492575 0.173100
O O16 0.750000 0.250000 0.727612
#
# Coordination Sequence:
#
# PCOD9355459 Si02
#       7
#     8   8   8   8   8   8   8
#     4  11  21  37  72 108 133 184 240 306 360 436
#     4  11  26  48  72  97 142 208 243 298 386 455
#     4  11  24  43  69 105 148 186 247 308 379 437
#     4  12  22  46  74 100 151 187 249 301 376 445
#     4  11  24  43  69 105 148 186 247 308 379 437
#     4  12  25  43  75 110 148 196 249 307 381 451
#     4  12  25  43  75 110 148 196 249 307 381 451
#
# _framework density 23.552854
#
# number of rings (size 3 to 8) (size 9 to 14) (size 15 to 20)
#    0.000    0.571    5.714    3.000    0.000    2.857 
#    0.000    3.571    0.000    0.000    0.000    0.000 
#    0.000    0.000    0.000    0.000    0.000    0.000 
#
# Total GULP energy -156677.985853 kJ/mol
# GULP energy per Si atom -5595.642352 kJ/mol
# Density = 2.349925 g / cm^3
# Si number density = 23.552854 Si / 1000 Ang^3
#
#
#
# Elastic Constant Matrix: (Units=GPa)
#
#
# Indices 1 2 3 4 5 6 
#
# 1 167.7051 33.4175 19.7885 0.0000 0.0000 0.0000
# 2 33.4175 58.7483 12.5200 0.0000 0.0000 0.0000
# 3 19.7885 12.5200 122.2449 0.0000 0.0000 0.0000
# 4 0.0000 0.0000 0.0000 3.6039 0.0000 0.0000
# 5 0.0000 0.0000 0.0000 0.0000 9.9930 0.0000
# 6 0.0000 0.0000 0.0000 0.0000 0.0000 42.9114
#
#
#
# Elastic Compliance Matrix: (Units=1/GPa)
#
#
# Indices 1 2 3 4 5 6 
#
# 1 0.006786 -0.003707 -0.000719 0.000000 0.000000 0.000000
# 2 -0.003707 0.019427 -0.001390 0.000000 0.000000 0.000000
# 3 -0.000719 -0.001390 0.008439 0.000000 0.000000 0.000000
# 4 0.000000 0.000000 0.000000 0.277474 0.000000 0.000000
# 5 0.000000 0.000000 0.000000 0.000000 0.100070 0.000000
# 6 0.000000 0.000000 0.000000 0.000000 0.000000 0.023304
#
#
# Mechanical properties :
#
#
# Convention : Reuss Voigt Hill
#
# Bulk Modulus (GPa) = 43.43865 53.35002 48.39433
# Shear Modulus (GPa) = 10.99375 30.16650 20.58013
#
# Velocity S-wave (km/s) = 2.16283 3.58271 2.95919
# Velocity P-wave (km/s) = 4.97194 6.30989 5.68045
#
# Compressibility (1/GPa) = 0.02302097
#
# Stress axis : x y z
#
# Youngs Moduli (GPa) = 147.35463 51.47596 118.49767
#
# Poissons Ratio (x) = 0.19082 0.08519
# Poissons Ratio (y) = 0.54625 0.16466
# Poissons Ratio (z) = 0.10593 0.07153
#
# Static dielectric constant tensor:
#      x y z
#    x 1.941620 0.000000 0.000000 
#    y 0.000000 1.934730 0.000000 
#    z 0.000000 0.000000 1.877570 
# 
# From -- ./inp_files/12163.got.cif
#   From: 2010.05.17/outbox.cif.g08.bks.cpg/sg37_7_cif.got.tgz:12163.got - 2010.06.03 17:53:42.
