data_PCOD9355634
_publ_section_title
;
Structure prediction by ZEFSAII (Michael W. Deem and Ramdas Pophale) SiO2 
 PCOD9355634
Probable space group: C C C 2
;
_chemical_formula_sum "Si O2"
_cell_formula_units_Z 52
_cell_length_a 6.768993
_cell_length_b 16.394065
_cell_length_c 21.369585
_cell_angle_alpha 90.000000
_cell_angle_beta 90.000000
_cell_angle_gamma 90.000000
_cell_volume 2371.410868
_symmetry_space_group_name_H-M "C C C 2"
_symmetry_group_IT_number 37
_symmetry_cell_setting 'orthorhombic'
loop_
_space_group_symop_operation_xyz
x,y,z
-x,-y,z
-x,y,1/2+z
x,-y,1/2+z
1/2+x,1/2+y,z
1/2-x,1/2-y,z
1/2-x,1/2+y,1/2+z
1/2+x,1/2-y,1/2+z
loop_
_atom_site_type_symbol
_atom_site_label
_atom_site_fract_x
_atom_site_fract_y
_atom_site_fract_z
Si Si1 0.750000 0.750000 0.253220
Si Si2 0.209195 0.964494 0.948712
Si Si3 0.499926 0.651784 0.353367
Si Si4 0.099375 0.326080 0.677865
Si Si5 0.400649 0.173929 0.528877
Si Si6 0.790711 0.035522 0.258057
Si Si7 0.750000 0.250000 0.453533
Si Si8 0.500000 0.000000 0.353390
O O1 0.608228 0.703225 0.300704
O O2 0.609179 0.804766 0.209782
O O3 0.344340 0.027778 0.908957
O O4 0.150924 0.901076 0.894141
O O5 0.316175 0.910437 0.000795
O O6 0.000000 0.000000 0.971103
O O7 0.348671 0.599043 0.312594
O O8 0.391869 0.703290 0.406042
O O9 0.250000 0.250000 0.691217
O O10 0.079296 0.331907 0.603371
O O11 0.183830 0.410473 0.705918
O O12 0.250000 0.250000 0.515525
O O13 0.609238 0.195222 0.496977
O O14 0.655631 0.972219 0.297816
O O15 0.000000 0.000000 0.235762
#
# Coordination Sequence:
#
# PCOD9355634 Si02
#       8
#     4   8   8   8   8   8   4   4
#     4  12  23  42  70 102 133 172 230 284 342 400
#     4  12  24  42  64 100 135 175 221 277 346 410
#     4  12  21  41  64 103 131 164 216 280 342 390
#     4  11  25  45  69  95 132 182 228 275 328 400
#     4  11  25  45  69  95 132 182 228 275 328 400
#     4  12  24  42  64 100 135 175 221 277 346 410
#     4  12  23  42  70 102 133 172 230 284 342 400
#     4  12  22  42  70  92 136 172 216 274 348 396
#
# _framework density 21.927875
#
# number of rings (size 3 to 8) (size 9 to 14) (size 15 to 20)
#    0.000    0.308    6.154    4.154    0.000    0.615 
#    0.000    0.769    0.000    0.000    0.000    0.000 
#    0.000    0.000    0.000    0.000    0.000    0.000 
#
# Total GULP energy -144862.696909 kJ/mol
# GULP energy per Si atom -5571.642189 kJ/mol
# Density = 2.187797 g / cm^3
# Si number density = 21.927875 Si / 1000 Ang^3
#
#
#
# Elastic Constant Matrix: (Units=GPa)
#
#
# Indices 1 2 3 4 5 6 
#
# 1 127.6465 40.5130 72.1347 0.0000 0.0000 0.0000
# 2 40.5130 64.2621 57.4573 0.0000 0.0000 0.0000
# 3 72.1347 57.4573 149.8338 0.0000 0.0000 0.0000
# 4 0.0000 0.0000 0.0000 31.1725 0.0000 0.0000
# 5 0.0000 0.0000 0.0000 0.0000 40.2760 0.0000
# 6 0.0000 0.0000 0.0000 0.0000 0.0000 46.9020
#
#
#
# Elastic Compliance Matrix: (Units=1/GPa)
#
#
# Indices 1 2 3 4 5 6 
#
# 1 0.011235 -0.003419 -0.004098 0.000000 0.000000 0.000000
# 2 -0.003419 0.024721 -0.007834 0.000000 0.000000 0.000000
# 3 -0.004098 -0.007834 0.011651 0.000000 0.000000 0.000000
# 4 0.000000 0.000000 0.000000 0.032080 0.000000 0.000000
# 5 0.000000 0.000000 0.000000 0.000000 0.024829 0.000000
# 6 0.000000 0.000000 0.000000 0.000000 0.000000 0.021321
#
#
# Mechanical properties :
#
#
# Convention : Reuss Voigt Hill
#
# Bulk Modulus (GPa) = 59.15182 75.77249 67.46215
# Shear Modulus (GPa) = 30.83132 35.11259 32.97196
#
# Velocity S-wave (km/s) = 3.75378 4.00594 3.88191
# Velocity P-wave (km/s) = 6.76919 7.48512 7.13614
#
# Compressibility (1/GPa) = 0.01690565
#
# Stress axis : x y z
#
# Youngs Moduli (GPa) = 89.00764 40.45139 85.83018
#
# Poissons Ratio (x) = 0.13831 0.35171
# Poissons Ratio (y) = 0.30432 0.67238
# Poissons Ratio (z) = 0.36473 0.31689
#
# Static dielectric constant tensor:
#      x y z
#    x 2.133960 0.000000 0.000000 
#    y 0.000000 1.871490 0.000000 
#    z 0.000000 0.000000 1.718240 
# 
# From -- ./inp_files/15861.got.cif
#   From: 2010.05.17/outbox.cif.g08.bks.cpg/sg37_8_cif.got.tgz:15861.got - 2010.06.03 17:53:42.
