data_PCOD9355756
_publ_section_title
;
Structure prediction by ZEFSAII (Michael W. Deem and Ramdas Pophale) SiO2 
 PCOD9355756
Probable space group: C C C 2
;
_chemical_formula_sum "Si O2"
_cell_formula_units_Z 30
_cell_length_a 9.000000
_cell_length_b 24.000000
_cell_length_c 15.000000
_cell_angle_alpha 90.000000
_cell_angle_beta 90.000000
_cell_angle_gamma 90.000000
_cell_volume 3240.000000
_symmetry_space_group_name_H-M "C C C 2"
_symmetry_group_IT_number 37
_symmetry_cell_setting 'orthorhombic'
loop_
_space_group_symop_operation_xyz
x,y,z
-x,-y,z
-x,y,1/2+z
x,-y,1/2+z
1/2+x,1/2+y,z
1/2-x,1/2-y,z
1/2-x,1/2+y,1/2+z
1/2+x,1/2-y,1/2+z
loop_
_atom_site_type_symbol
_atom_site_label
_atom_site_fract_x
_atom_site_fract_y
_atom_site_fract_z
Si Si1 0.479008 0.060196 0.356720
Si Si2 0.160892 0.969527 0.114888
Si Si3 0.026194 0.670641 0.084351
Si Si4 0.606513 0.351473 0.418814
Si Si5 0.750000 0.250000 0.527252
Si Si6 0.227429 0.117721 0.457086
Si Si7 0.323092 0.070954 0.030153
Si Si8 0.710028 0.124982 0.243478
O O1 0.316118 0.082881 0.381329
O O2 0.568289 0.054089 0.449840
O O3 0.568260 0.104767 0.299569
O O4 0.500000 0.000000 0.312083
O O5 0.214705 0.928686 0.194505
O O6 0.272344 0.019973 0.091046
O O7 0.173131 0.927294 0.030771
O O8 0.000000 0.000000 0.126909
O O9 0.138163 0.667095 0.169693
O O10 0.918647 0.616382 0.084353
O O11 0.145777 0.658744 0.002360
O O12 0.898539 0.719939 0.074623
O O13 0.673909 0.297149 0.466640
O O14 0.426781 0.354375 0.424024
O O15 0.681771 0.401153 0.478670
O O16 0.671834 0.354055 0.317946
#
# Coordination Sequence:
#
# PCOD9355756 Si02
#       8
#     8   8   8   8   4   8   8   8
#     4  10  19  32  53  86 120 170 200 242 295 375
#     4  11  20  35  59  91 130 175 202 252 303 381
#     4   9  21  40  63  95 119 163 217 273 316 382
#     4  10  21  42  62  90 118 165 212 274 308 379
#     4  10  22  46  76  82 116 168 220 268 334 380
#     4  10  20  36  64  89 127 162 220 248 302 395
#     4   9  18  35  59  82 124 165 216 236 298 382
#     4  10  24  37  54  91 137 152 207 266 323 360
#
# _framework density 9.2592590000000001
#
# number of rings (size 3 to 8) (size 9 to 14) (size 15 to 20)
#    0.000    2.133    2.667    0.800    1.867    1.600 
#    0.000    4.000    0.000    0.000    0.000    0.000 
#    0.000    0.000    0.000    0.000    0.000    0.000 
#
# Total GULP energy -167044.386763 kJ/mol
# GULP energy per Si atom -5568.146225 kJ/mol
# Density = 0.923818 g / cm^3
# Si number density = 9.259259 Si / 1000 Ang^3
#
#
#
# Elastic Constant Matrix: (Units=GPa)
#
#
# Indices 1 2 3 4 5 6 
#
# 1 156.4354 38.5241 39.5126 0.0000 0.0000 0.0000
# 2 38.5241 80.5576 31.9038 0.0000 0.0000 0.0000
# 3 39.5126 31.9038 78.0296 0.0000 0.0000 0.0000
# 4 0.0000 0.0000 0.0000 22.2310 0.0000 0.0000
# 5 0.0000 0.0000 0.0000 0.0000 22.6694 0.0000
# 6 0.0000 0.0000 0.0000 0.0000 0.0000 41.8818
#
#
#
# Elastic Compliance Matrix: (Units=1/GPa)
#
#
# Indices 1 2 3 4 5 6 
#
# 1 0.007751 -0.002568 -0.002875 0.000000 0.000000 0.000000
# 2 -0.002568 0.015663 -0.005104 0.000000 0.000000 0.000000
# 3 -0.002875 -0.005104 0.016358 0.000000 0.000000 0.000000
# 4 0.000000 0.000000 0.000000 0.044982 0.000000 0.000000
# 5 0.000000 0.000000 0.000000 0.000000 0.044112 0.000000
# 6 0.000000 0.000000 0.000000 0.000000 0.000000 0.023877
#
#
# Mechanical properties :
#
#
# Convention : Reuss Voigt Hill
#
# Bulk Modulus (GPa) = 53.53683 59.43371 56.48527
# Shear Modulus (GPa) = 27.76813 31.02859 29.39836
#
# Velocity S-wave (km/s) = 3.87651 4.09778 3.98868
# Velocity P-wave (km/s) = 7.00065 7.38600 7.19590
#
# Compressibility (1/GPa) = 0.01867873
#
# Stress axis : x y z
#
# Youngs Moduli (GPa) = 129.01572 63.84556 61.13159
#
# Poissons Ratio (x) = 0.16396 0.17575
# Poissons Ratio (y) = 0.33132 0.31199
# Poissons Ratio (z) = 0.37091 0.32584
#
# Static dielectric constant tensor:
#      x y z
#    x 1.643170 0.000000 0.000000 
#    y 0.000000 1.669550 0.000000 
#    z 0.000000 0.000000 1.659670 
# 
# From -- ./inp_files/10926.got.cif
#   From: 2010.05.17/outbox.ucp.g08.bks.cvg/sg37_6_cif.got.tgz:10926.got - 2010.06.11 10:38:43.
