data_PCOD9355670
_publ_section_title
;
Structure prediction by ZEFSAII (Michael W. Deem and Ramdas Pophale) SiO2 
 PCOD9355670
Probable space group: C C C 2
;
_chemical_formula_sum "Si O2"
_cell_formula_units_Z 48
_cell_length_a 11.892997
_cell_length_b 8.500582
_cell_length_c 20.885996
_cell_angle_alpha 90.000000
_cell_angle_beta 90.000000
_cell_angle_gamma 90.000000
_cell_volume 2111.519813
_symmetry_space_group_name_H-M "C C C 2"
_symmetry_group_IT_number 37
_symmetry_cell_setting 'orthorhombic'
loop_
_space_group_symop_operation_xyz
x,y,z
-x,-y,z
-x,y,1/2+z
x,-y,1/2+z
1/2+x,1/2+y,z
1/2-x,1/2-y,z
1/2-x,1/2+y,1/2+z
1/2+x,1/2-y,1/2+z
loop_
_atom_site_type_symbol
_atom_site_label
_atom_site_fract_x
_atom_site_fract_y
_atom_site_fract_z
Si Si1 0.306744 0.901058 0.566190
Si Si2 0.468882 0.181355 0.177377
Si Si3 0.829398 0.109650 0.154964
Si Si4 0.852749 0.869101 0.272410
Si Si5 0.617680 0.926868 0.933466
Si Si6 0.121669 0.942045 0.401636
O O1 0.250000 0.750000 0.534927
O O2 0.364421 0.832161 0.629711
O O3 0.388166 0.952954 0.510304
O O4 0.222427 0.033128 0.591444
O O5 0.554465 0.300894 0.143732
O O6 0.450125 0.254431 0.247008
O O7 0.500000 0.000000 0.184078
O O8 0.750000 0.250000 0.178527
O O9 0.833699 0.979674 0.210323
O O10 0.750000 0.750000 0.284743
O O11 0.879489 0.979416 0.331426
O O12 0.747844 0.986807 0.921553
O O13 0.616671 0.746519 0.908727
O O14 0.500000 0.000000 0.906960
O O15 0.000000 0.000000 0.431769
#
# Coordination Sequence:
#
# PCOD9355670 Si02
#       6
#     8   8   8   8   8   8
#     4  12  23  48  72 110 151 191 252 319 380 457
#     4  12  23  44  71 111 149 195 244 307 390 463
#     4  12  24  41  70 111 146 190 235 300 384 456
#     4  12  25  47  72 106 154 195 245 312 382 459
#     4  11  28  54  79 106 152 205 265 321 379 457
#     4  11  27  51  74 111 146 202 264 316 378 450
#
# _framework density 22.732441000000001
#
# number of rings (size 3 to 8) (size 9 to 14) (size 15 to 20)
#    0.000    0.333    6.667    2.000    4.667    1.333 
#    6.000    0.000    0.000    0.000    0.000    0.000 
#    0.000    0.000    0.000    0.000    0.000    0.000 
#
# Total GULP energy -133747.907183 kJ/mol
# GULP energy per Si atom -5572.829466 kJ/mol
# Density = 2.268070 g / cm^3
# Si number density = 22.732441 Si / 1000 Ang^3
#
#
#
# Elastic Constant Matrix: (Units=GPa)
#
#
# Indices 1 2 3 4 5 6 
#
# 1 175.2804 63.3895 32.5337 0.0000 0.0000 0.0000
# 2 63.3895 128.5979 52.2261 0.0000 0.0000 0.0000
# 3 32.5337 52.2261 83.1472 0.0000 0.0000 0.0000
# 4 0.0000 0.0000 0.0000 84.3851 0.0000 0.0000
# 5 0.0000 0.0000 0.0000 0.0000 41.6107 0.0000
# 6 0.0000 0.0000 0.0000 0.0000 0.0000 42.7845
#
#
#
# Elastic Compliance Matrix: (Units=1/GPa)
#
#
# Indices 1 2 3 4 5 6 
#
# 1 0.006979 -0.003129 -0.000765 0.000000 0.000000 0.000000
# 2 -0.003129 0.011842 -0.006214 0.000000 0.000000 0.000000
# 3 -0.000765 -0.006214 0.016229 0.000000 0.000000 0.000000
# 4 0.000000 0.000000 0.000000 0.011850 0.000000 0.000000
# 5 0.000000 0.000000 0.000000 0.000000 0.024032 0.000000
# 6 0.000000 0.000000 0.000000 0.000000 0.000000 0.023373
#
#
# Mechanical properties :
#
#
# Convention : Reuss Voigt Hill
#
# Bulk Modulus (GPa) = 67.41370 75.92491 71.66930
# Shear Modulus (GPa) = 41.85243 49.68114 45.76678
#
# Velocity S-wave (km/s) = 4.29545 4.67998 4.49183
# Velocity P-wave (km/s) = 7.37026 7.91674 7.64838
#
# Compressibility (1/GPa) = 0.01483378
#
# Stress axis : x y z
#
# Youngs Moduli (GPa) = 143.28954 84.44298 61.61709
#
# Poissons Ratio (x) = 0.26425 0.04714
# Poissons Ratio (y) = 0.44841 0.38288
# Poissons Ratio (z) = 0.10963 0.52472
#
# Static dielectric constant tensor:
#      x y z
#    x 1.637300 0.000000 0.000000 
#    y 0.000000 1.722000 0.000000 
#    z 0.000000 0.000000 1.814060 
# 
# From -- ./inp_files/18659.got.cif
#   From: 2010.05.17/outbox.cif.g08.bks.cpg/sg37_10_cif.got.tgz:18659.got - 2010.06.03 17:53:42.
