data_PCOD9355696
_publ_section_title
;
Structure prediction by ZEFSAII (Michael W. Deem and Ramdas Pophale) SiO2 
 PCOD9355696
Probable space group: C C C 2
;
_chemical_formula_sum "Si O2"
_cell_formula_units_Z 48
_cell_length_a 4.905871
_cell_length_b 31.692000
_cell_length_c 14.265174
_cell_angle_alpha 90.000000
_cell_angle_beta 90.000000
_cell_angle_gamma 90.000000
_cell_volume 2217.904514
_symmetry_space_group_name_H-M "C C C 2"
_symmetry_group_IT_number 37
_symmetry_cell_setting 'orthorhombic'
loop_
_space_group_symop_operation_xyz
x,y,z
-x,-y,z
-x,y,1/2+z
x,-y,1/2+z
1/2+x,1/2+y,z
1/2-x,1/2-y,z
1/2-x,1/2+y,1/2+z
1/2+x,1/2-y,1/2+z
loop_
_atom_site_type_symbol
_atom_site_label
_atom_site_fract_x
_atom_site_fract_y
_atom_site_fract_z
Si Si1 0.012242 0.853998 0.163400
Si Si2 0.511013 0.721888 0.301516
Si Si3 0.181688 0.602384 0.419683
Si Si4 0.263034 0.029208 0.068443
Si Si5 0.835764 0.157941 0.952658
Si Si6 0.493808 0.090417 0.215900
O O1 0.080711 0.815102 0.231071
O O2 0.718996 0.871946 0.193940
O O3 0.221526 0.893097 0.173485
O O4 0.040235 0.838970 0.056429
O O5 0.750000 0.750000 0.256370
O O6 0.646845 0.700378 0.392915
O O7 0.250000 0.750000 0.325424
O O8 0.261790 0.568142 0.497158
O O9 0.461169 0.626334 0.397661
O O10 0.050546 0.583930 0.325420
O O11 0.960605 0.636486 0.456060
O O12 0.500000 0.000000 0.028175
O O13 0.374909 0.049671 0.164270
O O14 0.000000 0.000000 0.080233
#
# Coordination Sequence:
#
# PCOD9355696 Si02
#       6
#     8   8   8   8   8   8
#     4  12  23  43  72 100 133 187 239 280 342 425
#     4  12  26  42  66 104 147 174 229 306 354 394
#     4  12  23  44  73 101 133 188 237 277 340 428
#     4  12  26  44  70 106 146 172 222 302 354 392
#     4  12  23  43  72 100 133 187 239 280 342 425
#     4  12  23  44  73 101 133 188 237 277 340 428
#
# _framework density 21.642050999999999
#
# number of rings (size 3 to 8) (size 9 to 14) (size 15 to 20)
#    0.000    0.000    6.667    4.000    0.000    2.000 
#    0.000    1.667    0.000    0.000    0.000    0.000 
#    0.000    0.000    0.000    0.000    0.000    0.000 
#
# Total GULP energy -134283.864777 kJ/mol
# GULP energy per Si atom -5595.161032 kJ/mol
# Density = 2.159279 g / cm^3
# Si number density = 21.642051 Si / 1000 Ang^3
#
#
#
# Elastic Constant Matrix: (Units=GPa)
#
#
# Indices 1 2 3 4 5 6 
#
# 1 105.4071 24.7320 0.6506 0.0000 0.0000 0.0000
# 2 24.7320 94.3295 22.0722 0.0000 0.0000 0.0000
# 3 0.6506 22.0722 120.7712 0.0000 0.0000 0.0000
# 4 0.0000 0.0000 0.0000 101.0202 0.0000 0.0000
# 5 0.0000 0.0000 0.0000 0.0000 41.6677 0.0000
# 6 0.0000 0.0000 0.0000 0.0000 0.0000 49.3974
#
#
#
# Elastic Compliance Matrix: (Units=1/GPa)
#
#
# Indices 1 2 3 4 5 6 
#
# 1 0.010132 -0.002762 0.000450 0.000000 0.000000 0.000000
# 2 -0.002762 0.011828 -0.002147 0.000000 0.000000 0.000000
# 3 0.000450 -0.002147 0.008670 0.000000 0.000000 0.000000
# 4 0.000000 0.000000 0.000000 0.009899 0.000000 0.000000
# 5 0.000000 0.000000 0.000000 0.000000 0.023999 0.000000
# 6 0.000000 0.000000 0.000000 0.000000 0.000000 0.020244
#
#
# Mechanical properties :
#
#
# Convention : Reuss Voigt Hill
#
# Bulk Modulus (GPa) = 46.05533 46.15747 46.10640
# Shear Modulus (GPa) = 49.54084 56.62060 53.08072
#
# Velocity S-wave (km/s) = 4.78965 5.12046 4.95781
# Velocity P-wave (km/s) = 7.20516 7.50552 7.35687
#
# Compressibility (1/GPa) = 0.02171301
#
# Stress axis : x y z
#
# Youngs Moduli (GPa) = 98.69448 84.54815 115.33983
#
# Poissons Ratio (x) = 0.23351 -0.05192
# Poissons Ratio (y) = 0.27258 0.24760
# Poissons Ratio (z) = -0.04443 0.18150
#
# Static dielectric constant tensor:
#      x y z
#    x 1.763640 0.000000 0.000000 
#    y 0.000000 1.742190 0.000000 
#    z 0.000000 0.000000 1.801040 
# 
# From -- ./inp_files/9857.got.cif
#   From: 2010.05.17/outbox.cif.g08.bks.cpg/sg37_5_cif.got.tgz:9857.got - 2010.06.03 17:53:42.
