data_PCOD9355305
_publ_section_title
;
Structure prediction by ZEFSAII (Michael W. Deem and Ramdas Pophale) SiO2 
 PCOD9355305
Probable space group: C C C 2
;
_chemical_formula_sum "Si O2"
_cell_formula_units_Z 48
_cell_length_a 17.373128
_cell_length_b 8.617449
_cell_length_c 14.035276
_cell_angle_alpha 90.000000
_cell_angle_beta 90.000000
_cell_angle_gamma 90.000000
_cell_volume 2101.249865
_symmetry_space_group_name_H-M "C C C 2"
_symmetry_group_IT_number 37
_symmetry_cell_setting 'orthorhombic'
loop_
_space_group_symop_operation_xyz
x,y,z
-x,-y,z
-x,y,1/2+z
x,-y,1/2+z
1/2+x,1/2+y,z
1/2-x,1/2-y,z
1/2-x,1/2+y,1/2+z
1/2+x,1/2-y,1/2+z
loop_
_atom_site_type_symbol
_atom_site_label
_atom_site_fract_x
_atom_site_fract_y
_atom_site_fract_z
Si Si1 0.782482 0.906466 0.500000
Si Si2 0.899734 0.373819 0.251014
Si Si3 0.500000 0.500000 0.926221
Si Si4 0.339771 0.566864 0.328041
Si Si5 0.000000 0.500000 0.913914
Si Si6 0.559900 0.243036 0.049332
Si Si7 0.729068 0.923008 0.177930
O O1 0.750000 0.750000 0.452294
O O2 0.864302 0.848917 0.540578
O O3 0.792539 0.043058 0.425030
O O4 0.732109 0.961488 0.588115
O O5 0.843000 0.236727 0.283091
O O6 0.945470 0.315361 0.157410
O O7 0.851557 0.530023 0.228027
O O8 0.954473 0.392276 0.340997
O O9 0.575040 0.507015 0.858533
O O10 0.497081 0.353501 0.998722
O O11 0.297677 0.462568 0.250381
O O12 0.941541 0.406922 0.981290
O O13 0.750000 0.750000 0.146058
#
# Coordination Sequence:
#
# PCOD9355305 Si02
#       7
#     8   8   4   8   4   8   8
#     4  11  23  47  72 106 145 187 239 304 365 439
#     4  12  26  49  73 106 152 189 251 308 365 447
#     4  10  24  46  72 104 142 194 240 296 374 442
#     4  11  24  45  73 106 143 192 242 301 367 438
#     4  12  28  46  74 110 142 198 242 298 380 438
#     4  11  24  49  71 103 148 187 240 305 361 437
#     4  12  27  45  74 109 143 197 246 305 375 435
#
# _framework density 22.843547000000001
#
# number of rings (size 3 to 8) (size 9 to 14) (size 15 to 20)
#    0.000    0.667    5.000    1.500    7.000    3.333 
#    6.000    0.000    0.000    0.000    0.000    0.000 
#    0.000    0.000    0.000    0.000    0.000    0.000 
#
# Total GULP energy -134094.187826 kJ/mol
# GULP energy per Si atom -5587.257826 kJ/mol
# Density = 2.279155 g / cm^3
# Si number density = 22.843547 Si / 1000 Ang^3
#
#
#
# Elastic Constant Matrix: (Units=GPa)
#
#
# Indices 1 2 3 4 5 6 
#
# 1 48.4490 -3.5627 22.7054 0.0000 0.0000 0.0000
# 2 -3.5627 63.0593 34.4695 0.0000 0.0000 0.0000
# 3 22.7054 34.4695 138.0820 0.0000 0.0000 0.0000
# 4 0.0000 0.0000 0.0000 29.1690 0.0000 0.0000
# 5 0.0000 0.0000 0.0000 0.0000 22.8951 0.0000
# 6 0.0000 0.0000 0.0000 0.0000 0.0000 20.8277
#
#
#
# Elastic Compliance Matrix: (Units=1/GPa)
#
#
# Indices 1 2 3 4 5 6 
#
# 1 0.023175 0.003928 -0.004791 0.000000 0.000000 0.000000
# 2 0.003928 0.019030 -0.005396 0.000000 0.000000 0.000000
# 3 -0.004791 -0.005396 0.009377 0.000000 0.000000 0.000000
# 4 0.000000 0.000000 0.000000 0.034283 0.000000 0.000000
# 5 0.000000 0.000000 0.000000 0.000000 0.043678 0.000000
# 6 0.000000 0.000000 0.000000 0.000000 0.000000 0.048013
#
#
# Mechanical properties :
#
#
# Convention : Reuss Voigt Hill
#
# Bulk Modulus (GPa) = 25.59988 39.64608 32.62298
# Shear Modulus (GPa) = 24.61908 27.64356 26.13132
#
# Velocity S-wave (km/s) = 3.28643 3.48246 3.38587
# Velocity P-wave (km/s) = 5.06279 5.79338 5.44036
#
# Compressibility (1/GPa) = 0.03906268
#
# Stress axis : x y z
#
# Youngs Moduli (GPa) = 43.15076 52.54921 106.64358
#
# Poissons Ratio (x) = -0.20643 0.51096
# Poissons Ratio (y) = -0.16951 0.57549
# Poissons Ratio (z) = 0.20675 0.28357
#
# Static dielectric constant tensor:
#      x y z
#    x 1.882760 0.000000 0.000000 
#    y 0.000000 2.016700 0.000000 
#    z 0.000000 0.000000 1.798520 
# 
# From -- ./inp_files/12572.got.cif
#   From: 2010.05.17/outbox.cif.g08.bks.cpg/sg37_7_cif.got.tgz:12572.got - 2010.06.03 17:53:42.
