data_PCOD9355234
_publ_section_title
;
Structure prediction by ZEFSAII (Michael W. Deem and Ramdas Pophale) SiO2 
 PCOD9355234
Probable space group: C C C 2
;
_chemical_formula_sum "Si O2"
_cell_formula_units_Z 56
_cell_length_a 20.887709
_cell_length_b 11.560212
_cell_length_c 11.094258
_cell_angle_alpha 90.000000
_cell_angle_beta 90.000000
_cell_angle_gamma 90.000000
_cell_volume 2678.889921
_symmetry_space_group_name_H-M "C C C 2"
_symmetry_group_IT_number 37
_symmetry_cell_setting 'orthorhombic'
loop_
_space_group_symop_operation_xyz
x,y,z
-x,-y,z
-x,y,1/2+z
x,-y,1/2+z
1/2+x,1/2+y,z
1/2-x,1/2-y,z
1/2-x,1/2+y,1/2+z
1/2+x,1/2-y,1/2+z
loop_
_atom_site_type_symbol
_atom_site_label
_atom_site_fract_x
_atom_site_fract_y
_atom_site_fract_z
Si Si1 0.391432 0.764261 0.368130
Si Si2 0.333015 0.904816 0.565356
Si Si3 0.813361 0.670071 0.633566
Si Si4 0.882264 0.198612 0.708433
Si Si5 0.808313 0.918932 0.014628
Si Si6 0.621238 0.350116 0.982707
Si Si7 0.482753 0.369546 0.693571
O O1 0.387460 0.868108 0.467325
O O2 0.350707 0.808864 0.256298
O O3 0.353836 0.658703 0.431229
O O4 0.453187 0.707538 0.302264
O O5 0.350090 0.821511 0.677849
O O6 0.264425 0.878279 0.503798
O O7 0.317723 0.033901 0.608923
O O8 0.750000 0.750000 0.642578
O O9 0.851215 0.728370 0.524322
O O10 0.833296 0.107374 0.649689
O O11 0.897118 0.165562 0.844817
O O12 0.951751 0.188003 0.646494
O O13 0.823856 0.051826 0.988711
O O14 0.566930 0.379968 0.081618
O O15 0.500000 0.500000 0.733294
#
# Coordination Sequence:
#
# PCOD9355234 Si02
#       7
#     8   8   8   8   8   8   8
#     4  10  24  42  68 103 135 185 237 291 366 420
#     4  11  25  44  69 100 144 187 235 297 366 445
#     4  11  23  43  68  97 135 182 236 286 359 438
#     4  11  25  41  68 102 140 185 233 295 365 423
#     4  11  22  44  67 104 141 174 235 307 365 429
#     4  11  25  40  67 108 132 180 240 292 364 421
#     4  11  23  44  71 103 142 187 243 301 348 434
#
# _framework density 20.904181999999999
#
# number of rings (size 3 to 8) (size 9 to 14) (size 15 to 20)
#    0.000    1.143    2.857    3.429    8.000    2.857 
#    0.000    2.857    0.000    0.000    0.000    0.000 
#    0.000    0.000    0.000    0.000    0.000    0.000 
#
# Total GULP energy -156087.762349 kJ/mol
# GULP energy per Si atom -5574.562941 kJ/mol
# Density = 2.085660 g / cm^3
# Si number density = 20.904182 Si / 1000 Ang^3
#
#
#
# Elastic Constant Matrix: (Units=GPa)
#
#
# Indices 1 2 3 4 5 6 
#
# 1 85.9230 38.0690 8.0137 0.0000 0.0000 0.0000
# 2 38.0690 141.5759 22.4700 0.0000 0.0000 0.0000
# 3 8.0137 22.4700 70.0523 0.0000 0.0000 0.0000
# 4 0.0000 0.0000 0.0000 3.3847 0.0000 0.0000
# 5 0.0000 0.0000 0.0000 0.0000 18.4181 0.0000
# 6 0.0000 0.0000 0.0000 0.0000 0.0000 31.5474
#
#
#
# Elastic Compliance Matrix: (Units=1/GPa)
#
#
# Indices 1 2 3 4 5 6 
#
# 1 0.013223 -0.003493 -0.000392 0.000000 0.000000 0.000000
# 2 -0.003493 0.008365 -0.002284 0.000000 0.000000 0.000000
# 3 -0.000392 -0.002284 0.015052 0.000000 0.000000 0.000000
# 4 0.000000 0.000000 0.000000 0.295443 0.000000 0.000000
# 5 0.000000 0.000000 0.000000 0.000000 0.054294 0.000000
# 6 0.000000 0.000000 0.000000 0.000000 0.000000 0.031698
#
#
# Mechanical properties :
#
#
# Convention : Reuss Voigt Hill
#
# Bulk Modulus (GPa) = 41.14852 48.29519 44.72186
# Shear Modulus (GPa) = 11.40212 25.93660 18.66936
#
# Velocity S-wave (km/s) = 2.33801 3.52623 2.99171
# Velocity P-wave (km/s) = 5.19764 6.30336 5.77702
#
# Compressibility (1/GPa) = 0.02430221
#
# Stress axis : x y z
#
# Youngs Moduli (GPa) = 75.62795 119.54423 66.43462
#
# Poissons Ratio (x) = 0.41760 0.02605
# Poissons Ratio (y) = 0.26419 0.15171
# Poissons Ratio (z) = 0.02965 0.27299
#
# Static dielectric constant tensor:
#      x y z
#    x 1.788040 0.000000 0.000000 
#    y 0.000000 1.767100 0.000000 
#    z 0.000000 0.000000 1.798250 
# 
# From -- ./inp_files/7302.got.cif
#   From: 2010.05.17/outbox.cif.g08.bks.cpg/sg37_4_cif.got.tgz:7302.got - 2010.06.03 17:53:42.
