data_PCOD9355854
_publ_section_title
;
Structure prediction by ZEFSAII (Michael W. Deem and Ramdas Pophale) SiO2 
 PCOD9355854
Probable space group: A M M 2
;
_chemical_formula_sum "Si O2"
_cell_formula_units_Z 56
_cell_length_a 8.668201
_cell_length_b 22.700954
_cell_length_c 18.393398
_cell_angle_alpha 90.000000
_cell_angle_beta 90.000000
_cell_angle_gamma 90.000000
_cell_volume 3619.387234
_symmetry_space_group_name_H-M "A M M 2"
_symmetry_group_IT_number 38
_symmetry_cell_setting 'orthorhombic'
loop_
_space_group_symop_operation_xyz
x,y,z
-x,-y,z
-x,y,z
x,-y,z
x,1/2+y,1/2+z
-x,1/2-y,1/2+z
-x,1/2+y,1/2+z
x,1/2-y,1/2+z
loop_
_atom_site_type_symbol
_atom_site_label
_atom_site_fract_x
_atom_site_fract_y
_atom_site_fract_z
Si Si1 0.817546 0.682675 0.913960
Si Si2 0.682418 0.655820 0.767817
Si Si3 0.186158 0.277800 0.066096
Si Si4 0.816031 0.431607 0.650045
Si Si5 0.316843 0.350992 0.527481
Si Si6 0.316692 0.690368 0.374246
Si Si7 0.815748 0.284480 0.229402
O O1 0.730737 0.646390 0.851809
O O2 0.776551 0.750459 0.894557
O O3 0.000000 0.672893 0.906825
O O4 0.772351 0.679511 0.998818
O O5 0.500000 0.663998 0.762753
O O6 0.737181 0.603942 0.715533
O O7 0.762908 0.716627 0.741641
O O8 0.263447 0.214104 0.053223
O O9 0.225322 0.300062 0.146518
O O10 0.000000 0.269238 0.063078
O O11 0.771069 0.500000 0.649292
O O12 0.767817 0.399086 0.575872
O O13 0.000000 0.427474 0.658751
O O14 0.500000 0.355887 0.539012
O O15 0.285998 0.353817 0.440775
O O16 0.500000 0.703360 0.375072
O O17 0.264248 0.677208 0.292444
O O18 0.000000 0.287476 0.237836
#
# Coordination Sequence:
#
# PCOD9355854 Si02
#       7
#     8   8   8   8   8   8   8
#     4   9  16  27  42  60  83 115 148 178 212 255
#     4  11  20  30  44  62  85 114 145 182 224 261
#     4   9  17  27  42  63  89 119 150 179 211 255
#     4  11  23  36  49  64  83 112 151 190 225 264
#     4  10  19  30  45  62  84 114 146 183 224 260
#     4   9  17  27  39  60  86 113 145 177 213 260
#     4  10  17  26  42  64  89 119 150 178 211 255
#
# _framework density 15.472232999999999
#
# number of rings (size 3 to 8) (size 9 to 14) (size 15 to 20)
#    0.000    2.143    1.429    5.143    0.000    4.000 
#    0.000    0.000    0.000    0.000    0.000    0.000 
#    0.000    1.143    0.000   10.286    0.000    6.571 
#
# Total GULP energy -156002.352694 kJ/mol
# GULP energy per Si atom -5571.512596 kJ/mol
# Density = 1.543702 g / cm^3
# Si number density = 15.472233 Si / 1000 Ang^3
#
#
#
# Elastic Constant Matrix: (Units=GPa)
#
#
# Indices 1 2 3 4 5 6 
#
# 1 31.8216 10.9177 22.6307 0.0000 0.0000 0.0000
# 2 10.9177 38.4000 29.8056 0.0000 0.0000 0.0000
# 3 22.6307 29.8056 142.6304 0.0000 0.0000 0.0000
# 4 0.0000 0.0000 0.0000 11.5835 0.0000 0.0000
# 5 0.0000 0.0000 0.0000 0.0000 23.4229 0.0000
# 6 0.0000 0.0000 0.0000 0.0000 0.0000 532.2929
#
#
#
# Elastic Compliance Matrix: (Units=1/GPa)
#
#
# Indices 1 2 3 4 5 6 
#
# 1 0.036982 -0.007114 -0.004381 0.000000 0.000000 0.000000
# 2 -0.007114 0.032452 -0.005653 0.000000 0.000000 0.000000
# 3 -0.004381 -0.005653 0.008888 0.000000 0.000000 0.000000
# 4 0.000000 0.000000 0.000000 0.086330 0.000000 0.000000
# 5 0.000000 0.000000 0.000000 0.000000 0.042693 0.000000
# 6 0.000000 0.000000 0.000000 0.000000 0.000000 0.001879
#
#
# Mechanical properties :
#
#
# Convention : Reuss Voigt Hill
#
# Bulk Modulus (GPa) = 22.71414 37.72890 30.22152
# Shear Modulus (GPa) = 19.36532 123.42639 71.39586
#
# Velocity S-wave (km/s) = 3.54166 8.94125 6.80034
# Velocity P-wave (km/s) = 5.60686 11.44694 9.01303
#
# Compressibility (1/GPa) = 0.04402544
#
# Stress axis : x y z
#
# Youngs Moduli (GPa) = 27.04046 30.81493 112.51714
#
# Poissons Ratio (x) = 0.21921 0.49296
# Poissons Ratio (y) = 0.19236 0.63603
# Poissons Ratio (z) = 0.11847 0.17419
#
# Static dielectric constant tensor:
#      x y z
#    x 1.518170 0.000000 0.000000 
#    y 0.000000 1.464910 0.000000 
#    z 0.000000 0.000000 1.591700 
# 
# From -- ./inp_files/20159.got.cif
#   From: 2010.05.17/outbox.cif.g08.bks.cpg/sg38_11_cif.got.tgz:20159.got - 2010.06.03 18:07:57.
