data_PCOD9355864
_publ_section_title
;
Structure prediction by ZEFSAII (Michael W. Deem and Ramdas Pophale) SiO2 
 PCOD9355864
Probable space group: A M M 2
;
_chemical_formula_sum "Si O2"
_cell_formula_units_Z 52
_cell_length_a 12.362198
_cell_length_b 7.447038
_cell_length_c 25.725240
_cell_angle_alpha 90.000000
_cell_angle_beta 90.000000
_cell_angle_gamma 90.000000
_cell_volume 2368.310826
_symmetry_space_group_name_H-M "A M M 2"
_symmetry_group_IT_number 38
_symmetry_cell_setting 'orthorhombic'
loop_
_space_group_symop_operation_xyz
x,y,z
-x,-y,z
-x,y,z
x,-y,z
x,1/2+y,1/2+z
-x,1/2-y,1/2+z
-x,1/2+y,1/2+z
x,1/2-y,1/2+z
loop_
_atom_site_type_symbol
_atom_site_label
_atom_site_fract_x
_atom_site_fract_y
_atom_site_fract_z
Si Si1 0.000000 0.249165 0.420000
Si Si2 0.000000 0.279745 0.039533
Si Si3 0.230332 0.218548 0.582641
Si Si4 0.000000 0.209635 0.301170
Si Si5 0.762686 0.214098 0.778208
Si Si6 0.767806 0.786704 0.895169
Si Si7 0.625498 0.719924 0.180606
Si Si8 0.620519 0.284107 0.988744
O O1 0.874255 0.189562 0.417590
O O2 0.000000 0.303476 0.481406
O O3 0.000000 0.308755 0.357469
O O4 0.893275 0.230064 0.071967
O O5 0.000000 0.500000 0.031317
O O6 0.295402 0.276440 0.633787
O O7 0.298541 0.280147 0.532939
O O8 0.230530 0.000000 0.583965
O O9 0.109578 0.249497 0.270115
O O10 0.000000 0.000000 0.315396
O O11 0.742634 0.277031 0.837063
O O12 0.682077 0.281266 0.734106
O O13 0.749283 0.000000 0.778975
O O14 0.667979 0.762014 0.932943
O O15 0.795227 0.000000 0.894654
O O16 0.500000 0.775807 0.175135
O O17 0.624109 0.500000 0.180397
O O18 0.500000 0.216059 0.996565
O O19 0.617702 0.500000 0.992760
#
# Coordination Sequence:
#
# PCOD9355864 Si02
#       8
#     4   4   8   4   8   8   8   8
#     4  10  18  32  51  73 105 140 173 206 254 316
#     4  10  17  26  46  77 107 134 164 206 262 314
#     4   9  17  29  48  77 107 131 167 220 269 309
#     4  10  20  32  53  80 108 142 175 212 262 318
#     4   9  19  34  53  78 106 138 176 218 260 308
#     4  10  20  33  51  76 106 137 173 215 260 312
#     4   9  17  31  52  76 103 138 178 219 264 310
#     4  10  20  33  50  74 105 138 173 217 265 311
#
# _framework density 21.956578
#
# number of rings (size 3 to 8) (size 9 to 14) (size 15 to 20)
#    0.000    2.462    1.538    1.154    0.000    7.692 
#    0.000    3.846    0.000    1.385    0.000    0.000 
#    0.000    0.000    0.000    0.000    0.000    0.000 
#
# Total GULP energy -144874.545981 kJ/mol
# GULP energy per Si atom -5572.097922 kJ/mol
# Density = 2.190660 g / cm^3
# Si number density = 21.956578 Si / 1000 Ang^3
#
#
#
# Elastic Constant Matrix: (Units=GPa)
#
#
# Indices 1 2 3 4 5 6 
#
# 1 219.9479 5.7659 114.0879 0.0000 0.0000 0.0000
# 2 5.7659 77.5919 6.4528 0.0000 0.0000 0.0000
# 3 114.0879 6.4528 161.7464 0.0000 0.0000 0.0000
# 4 0.0000 0.0000 0.0000 -2.7930 0.0000 0.0000
# 5 0.0000 0.0000 0.0000 0.0000 20.2229 0.0000
# 6 0.0000 0.0000 0.0000 0.0000 0.0000 45.0356
#
#
#
# Elastic Compliance Matrix: (Units=1/GPa)
#
#
# Indices 1 2 3 4 5 6 
#
# 1 0.007171 -0.000113 -0.005053 0.000000 0.000000 0.000000
# 2 -0.000113 0.012933 -0.000437 0.000000 0.000000 0.000000
# 3 -0.005053 -0.000437 0.009764 0.000000 0.000000 0.000000
# 4 0.000000 0.000000 0.000000 -0.358043 0.000000 0.000000
# 5 0.000000 0.000000 0.000000 0.000000 0.049449 0.000000
# 6 0.000000 0.000000 0.000000 0.000000 0.000000 0.022205
#
#
# Mechanical properties :
#
#
# Convention : Reuss Voigt Hill
#
# Bulk Modulus (GPa) = 53.58289 79.09992 66.34141
# Shear Modulus (GPa) = -20.91209 34.69175 6.88983
#
# Velocity S-wave (km/s) = -3.08949 3.97925 1.77334
# Velocity P-wave (km/s) = 3.42496 7.56416 5.87141
#
# Compressibility (1/GPa) = 0.01866267
#
# Stress axis : x y z
#
# Youngs Moduli (GPa) = 139.45692 77.32389 102.41375
#
# Poissons Ratio (x) = 0.00871 0.51753
# Poissons Ratio (y) = 0.01570 0.04471
# Poissons Ratio (z) = 0.70472 0.03375
#
# Static dielectric constant tensor:
#      x y z
#    x 1.773360 0.000000 0.000000 
#    y 0.000000 2.086660 0.000000 
#    z 0.000000 0.000000 1.770740 
# 
# From -- ./inp_files/23807.got.cif
#   From: 2010.05.17/outbox.cif.g08.bks.cpg/sg38_12_cif.got.tgz:23807.got - 2010.06.03 18:07:57.
