data_PCOD9355110
_publ_section_title
;
Structure prediction by ZEFSAII (Michael W. Deem and Ramdas Pophale) SiO2 
 PCOD9355110
Probable space group: C C C 2
;
_chemical_formula_sum "Si O2"
_cell_formula_units_Z 36
_cell_length_a 19.395902
_cell_length_b 5.572091
_cell_length_c 14.437287
_cell_angle_alpha 90.000000
_cell_angle_beta 90.000000
_cell_angle_gamma 90.000000
_cell_volume 1560.320346
_symmetry_space_group_name_H-M "C C C 2"
_symmetry_group_IT_number 37
_symmetry_cell_setting 'orthorhombic'
loop_
_space_group_symop_operation_xyz
x,y,z
-x,-y,z
-x,y,1/2+z
x,-y,1/2+z
1/2+x,1/2+y,z
1/2-x,1/2-y,z
1/2-x,1/2+y,1/2+z
1/2+x,1/2-y,1/2+z
loop_
_atom_site_type_symbol
_atom_site_label
_atom_site_fract_x
_atom_site_fract_y
_atom_site_fract_z
Si Si1 0.282896 0.002201 0.625000
Si Si2 0.067475 0.664044 0.840223
Si Si3 0.000000 0.000000 0.986414
Si Si4 0.932525 0.664044 0.132606
Si Si5 0.782896 0.497799 0.347829
O O1 0.250000 0.250000 0.589902
O O2 0.272933 0.004804 0.736414
O O3 0.250000 0.750000 0.592728
O O4 0.364618 0.986600 0.608852
O O5 0.078439 0.770674 0.736414
O O6 0.135382 0.513400 0.863977
O O7 0.000000 0.500000 0.835849
O O8 0.049697 0.852264 0.918774
O O9 0.049697 0.147736 0.054055
O O10 0.000000 0.500000 0.136980
O O11 0.750000 0.250000 0.382926
O O12 0.750000 0.750000 0.380101
#
# Coordination Sequence:
#
# PCOD9355110 Si02
#       5
#     8   8   4   8   8
#     4   9  19  37  66 100 131 169 222 281 344 413
#     4  10  23  42  69  99 134 185 236 288 353 424
#     4  12  24  40  68 100 144 180 238 300 350 426
#     4  10  23  42  69  99 134 185 236 288 353 424
#     4   9  19  37  66 100 131 169 222 281 344 413
#
# _framework density 23.072184
#
# number of rings (size 3 to 8) (size 9 to 14) (size 15 to 20)
#    0.000    2.222    0.000    1.333    6.222    0.000 
#    0.000    0.000    9.778    0.000    0.000    0.000 
#    0.000    1.778    0.000    0.000    0.000    0.000 
#
# Total GULP energy -100650.290253 kJ/mol
# GULP energy per Si atom -5591.682792 kJ/mol
# Density = 2.301967 g / cm^3
# Si number density = 23.072184 Si / 1000 Ang^3
#
#
#
# Elastic Constant Matrix: (Units=GPa)
#
#
# Indices 1 2 3 4 5 6 
#
# 1 192.5532 104.0657 38.1726 0.0000 0.0000 0.0000
# 2 104.0657 174.9602 67.6804 0.0000 0.0000 0.0000
# 3 38.1726 67.6804 159.2718 0.0000 0.0000 0.0000
# 4 0.0000 0.0000 0.0000 43.9135 0.0000 0.0000
# 5 0.0000 0.0000 0.0000 0.0000 34.3440 0.0000
# 6 0.0000 0.0000 0.0000 0.0000 0.0000 28.7355
#
#
#
# Elastic Compliance Matrix: (Units=1/GPa)
#
#
# Indices 1 2 3 4 5 6 
#
# 1 0.007656 -0.004600 0.000120 0.000000 0.000000 0.000000
# 2 -0.004600 0.009604 -0.002979 0.000000 0.000000 0.000000
# 3 0.000120 -0.002979 0.007516 0.000000 0.000000 0.000000
# 4 0.000000 0.000000 0.000000 0.022772 0.000000 0.000000
# 5 0.000000 0.000000 0.000000 0.000000 0.029117 0.000000
# 6 0.000000 0.000000 0.000000 0.000000 0.000000 0.034800
#
#
# Mechanical properties :
#
#
# Convention : Reuss Voigt Hill
#
# Bulk Modulus (GPa) = 101.44289 105.18029 103.31159
# Shear Modulus (GPa) = 38.56015 42.52302 40.54159
#
# Velocity S-wave (km/s) = 4.09257 4.29772 4.19640
# Velocity P-wave (km/s) = 8.14833 8.38533 8.26768
#
# Compressibility (1/GPa) = 0.00985776
#
# Stress axis : x y z
#
# Youngs Moduli (GPa) = 130.62263 104.12549 133.05761
#
# Poissons Ratio (x) = 0.47897 -0.01595
# Poissons Ratio (y) = 0.60085 0.39632
# Poissons Ratio (z) = -0.01565 0.31014
#
# Static dielectric constant tensor:
#      x y z
#    x 1.814020 0.000000 0.000000 
#    y 0.000000 1.860410 0.000000 
#    z 0.000000 0.000000 1.904780 
# 
# From -- ./inp_files/12780.got.cif
#   From: 2010.05.17/outbox.cif.g08.bks.cpg/sg37_7_cif.got.tgz:12780.got - 2010.06.03 17:53:42.
