data_PCOD9355997
_publ_section_title
;
Structure prediction by ZEFSAII (Michael W. Deem and Ramdas Pophale) SiO2 
 PCOD9355997
Probable space group: A M M 2
;
_chemical_formula_sum "Si O2"
_cell_formula_units_Z 56
_cell_length_a 7.775552
_cell_length_b 14.086500
_cell_length_c 33.445737
_cell_angle_alpha 90.000000
_cell_angle_beta 90.000000
_cell_angle_gamma 90.000000
_cell_volume 3663.322050
_symmetry_space_group_name_H-M "A M M 2"
_symmetry_group_IT_number 38
_symmetry_cell_setting 'orthorhombic'
loop_
_space_group_symop_operation_xyz
x,y,z
-x,-y,z
-x,y,z
x,-y,z
x,1/2+y,1/2+z
-x,1/2-y,1/2+z
-x,1/2+y,1/2+z
x,1/2-y,1/2+z
loop_
_atom_site_type_symbol
_atom_site_label
_atom_site_fract_x
_atom_site_fract_y
_atom_site_fract_z
Si Si1 0.707578 0.894231 0.168650
Si Si2 0.000000 0.384593 0.891922
Si Si3 0.205745 0.895002 0.709946
Si Si4 0.305827 0.612423 0.833701
Si Si5 0.794242 0.295778 0.751026
Si Si6 0.702528 0.114066 0.543877
Si Si7 0.707437 0.203059 0.628001
Si Si8 0.000000 0.115150 0.483105
O O1 0.500000 0.895389 0.166177
O O2 0.754399 0.865026 0.213871
O O3 0.769458 0.808387 0.140322
O O4 0.770850 0.000000 0.159252
O O5 0.833041 0.356426 0.866406
O O6 0.000000 0.500000 0.893513
O O7 0.000000 0.350105 0.937504
O O8 0.270694 0.808038 0.737077
O O9 0.238713 0.865938 0.664044
O O10 0.000000 0.897440 0.715372
O O11 0.275041 0.000000 0.718368
O O12 0.500000 0.623611 0.848609
O O13 0.276984 0.500000 0.825706
O O14 0.283264 0.666921 0.792079
O O15 0.000000 0.292347 0.755910
O O16 0.500000 0.134784 0.536308
O O17 0.759823 0.165094 0.584786
O O18 0.829617 0.141877 0.508007
O O19 0.715960 0.000000 0.549615
O O20 0.500000 0.204438 0.627855
O O21 0.000000 0.000000 0.481576
#
# Coordination Sequence:
#
# PCOD9355997 Si02
#       8
#     8   4   8   8   8   8   8   4
#     4   9  17  28  41  58  83 116 152 186 218 251
#     4   9  18  32  46  65  89 113 143 173 212 268
#     4   9  18  29  41  59  84 116 152 186 219 253
#     4  10  19  30  46  66  89 117 146 179 216 255
#     4  10  18  28  42  60  86 118 150 185 219 254
#     4   9  17  28  43  64  88 114 145 179 214 256
#     4   9  17  28  41  59  84 114 148 183 217 253
#     4   9  18  30  46  65  87 115 141 171 216 264
#
# _framework density 15.286671
#
# number of rings (size 3 to 8) (size 9 to 14) (size 15 to 20)
#    0.000    2.714    0.714    1.286    1.000    4.000 
#    0.000    2.857    0.000    0.000    0.000    0.000 
#    0.000    2.286    0.000    3.286    0.000    0.286 
#
# Total GULP energy -156036.745494 kJ/mol
# GULP energy per Si atom -5572.740910 kJ/mol
# Density = 1.525188 g / cm^3
# Si number density = 15.286671 Si / 1000 Ang^3
#
#
#
# Elastic Constant Matrix: (Units=GPa)
#
#
# Indices 1 2 3 4 5 6 
#
# 1 60.0298 24.6039 48.5538 0.0000 0.0000 0.0000
# 2 24.6039 70.9046 37.6893 0.0000 0.0000 0.0000
# 3 48.5538 37.6893 125.1001 0.0000 0.0000 0.0000
# 4 0.0000 0.0000 0.0000 17.1754 0.0000 0.0000
# 5 0.0000 0.0000 0.0000 0.0000 -1.7838 0.0000
# 6 0.0000 0.0000 0.0000 0.0000 0.0000 11.0313
#
#
#
# Elastic Compliance Matrix: (Units=1/GPa)
#
#
# Indices 1 2 3 4 5 6 
#
# 1 0.025308 -0.004240 -0.008545 0.000000 0.000000 0.000000
# 2 -0.004240 0.017503 -0.003628 0.000000 0.000000 0.000000
# 3 -0.008545 -0.003628 0.012403 0.000000 0.000000 0.000000
# 4 0.000000 0.000000 0.000000 0.058223 0.000000 0.000000
# 5 0.000000 0.000000 0.000000 0.000000 -0.560607 0.000000
# 6 0.000000 0.000000 0.000000 0.000000 0.000000 0.090651
#
#
# Mechanical properties :
#
#
# Convention : Reuss Voigt Hill
#
# Bulk Modulus (GPa) = 44.66528 53.08095 48.87311
# Shear Modulus (GPa) = -15.81116 14.96376 -0.42370
#
# Velocity S-wave (km/s) = -3.21956 3.13209 -0.52704
# Velocity P-wave (km/s) = 3.93207 6.91947 5.62762
#
# Compressibility (1/GPa) = 0.02238876
#
# Stress axis : x y z
#
# Youngs Moduli (GPa) = 39.51389 57.13344 80.62539
#
# Poissons Ratio (x) = 0.24222 0.68895
# Poissons Ratio (y) = 0.16752 0.29248
# Poissons Ratio (z) = 0.33765 0.20726
#
# Static dielectric constant tensor:
#      x y z
#    x 1.547920 0.000000 0.000000 
#    y 0.000000 1.520200 0.000000 
#    z 0.000000 0.000000 1.478530 
# 
# From -- ./inp_files/24672.got.cif
#   From: 2010.05.17/outbox.cif.g08.bks.cpg/sg38_13_cif.got.tgz:24672.got - 2010.06.03 18:07:57.
