data_PCOD9355813
_publ_section_title
;
Structure prediction by ZEFSAII (Michael W. Deem and Ramdas Pophale) SiO2 
 PCOD9355813
Probable space group: A M M 2
;
_chemical_formula_sum "Si O2"
_cell_formula_units_Z 48
_cell_length_a 7.551031
_cell_length_b 12.359141
_cell_length_c 26.312733
_cell_angle_alpha 90.000000
_cell_angle_beta 90.000000
_cell_angle_gamma 90.000000
_cell_volume 2455.616252
_symmetry_space_group_name_H-M "A M M 2"
_symmetry_group_IT_number 38
_symmetry_cell_setting 'orthorhombic'
loop_
_space_group_symop_operation_xyz
x,y,z
-x,-y,z
-x,y,z
x,-y,z
x,1/2+y,1/2+z
-x,1/2-y,1/2+z
-x,1/2+y,1/2+z
x,1/2-y,1/2+z
loop_
_atom_site_type_symbol
_atom_site_label
_atom_site_fract_x
_atom_site_fract_y
_atom_site_fract_z
Si Si1 0.284456 0.279802 0.767460
Si Si2 0.286311 0.000000 0.325579
Si Si3 0.797586 0.500000 0.941573
Si Si4 0.212200 0.377238 0.550317
Si Si5 0.712290 0.375319 0.664571
Si Si6 0.786252 0.738244 0.955537
Si Si7 0.287413 0.377214 0.354527
O O1 0.500000 0.272490 0.766585
O O2 0.238739 0.392026 0.795445
O O3 0.223415 0.297065 0.709536
O O4 0.221386 0.182306 0.803317
O O5 0.500000 0.000000 0.331693
O O6 0.202030 0.000000 0.380609
O O7 0.716237 0.615491 0.956052
O O8 0.000000 0.500000 0.960830
O O9 0.281689 0.500000 0.546517
O O10 0.248935 0.338171 0.607421
O O11 0.279294 0.304566 0.504281
O O12 0.000000 0.382271 0.545008
O O13 0.500000 0.381664 0.669824
O O14 0.778863 0.500000 0.670206
O O15 0.747817 0.802167 0.903467
O O16 0.000000 0.731745 0.958122
O O17 0.500000 0.383496 0.350379
O O18 0.220119 0.500000 0.360993
#
# Coordination Sequence:
#
# PCOD9355813 Si02
#       7
#     8   4   4   8   8   8   8
#     4   9  16  28  48  72  97 124 154 191 238 287
#     4  10  16  28  50  72  96 128 156 185 236 291
#     4  10  20  32  48  74  98 122 160 199 236 281
#     4   9  18  32  48  67  92 123 157 194 239 284
#     4   9  16  28  48  71  92 119 157 197 236 278
#     4  10  20  34  51  70  97 129 159 196 242 288
#     4  10  20  32  49  74 100 128 162 196 232 281
#
# _framework density 19.547028000000001
#
# number of rings (size 3 to 8) (size 9 to 14) (size 15 to 20)
#    0.000    2.500    2.500    0.500    0.000    1.667 
#    0.000    3.333    1.833    0.000    0.000    0.000 
#    0.000    0.000    0.000    0.000    0.000    0.000 
#
# Total GULP energy -133860.920575 kJ/mol
# GULP energy per Si atom -5577.538357 kJ/mol
# Density = 1.950254 g / cm^3
# Si number density = 19.547028 Si / 1000 Ang^3
#
#
#
# Elastic Constant Matrix: (Units=GPa)
#
#
# Indices 1 2 3 4 5 6 
#
# 1 47.2323 8.2890 0.3552 0.0000 0.0000 0.0000
# 2 8.2890 148.8664 91.7572 0.0000 0.0000 0.0000
# 3 0.3552 91.7572 173.9300 0.0000 0.0000 0.0000
# 4 0.0000 0.0000 0.0000 23.9961 0.0000 0.0000
# 5 0.0000 0.0000 0.0000 0.0000 20.5390 0.0000
# 6 0.0000 0.0000 0.0000 0.0000 0.0000 8.6786
#
#
#
# Elastic Compliance Matrix: (Units=1/GPa)
#
#
# Indices 1 2 3 4 5 6 
#
# 1 0.021469 -0.001731 0.000870 0.000000 0.000000 0.000000
# 2 -0.001731 0.010094 -0.005322 0.000000 0.000000 0.000000
# 3 0.000870 -0.005322 0.008555 0.000000 0.000000 0.000000
# 4 0.000000 0.000000 0.000000 0.041673 0.000000 0.000000
# 5 0.000000 0.000000 0.000000 0.000000 0.048688 0.000000
# 6 0.000000 0.000000 0.000000 0.000000 0.000000 0.115226
#
#
# Mechanical properties :
#
#
# Convention : Reuss Voigt Hill
#
# Bulk Modulus (GPa) = 36.03416 63.42575 49.72995
# Shear Modulus (GPa) = 18.70401 28.61791 23.66096
#
# Velocity S-wave (km/s) = 3.09669 3.83045 3.48295
# Velocity P-wave (km/s) = 5.59112 7.21674 6.45530
#
# Compressibility (1/GPa) = 0.02775145
#
# Stress axis : x y z
#
# Youngs Moduli (GPa) = 46.57825 99.07004 116.89018
#
# Poissons Ratio (x) = 0.17153 -0.10164
# Poissons Ratio (y) = 0.08065 0.62203
# Poissons Ratio (z) = -0.04050 0.52720
#
# Static dielectric constant tensor:
#      x y z
#    x 1.747030 0.000000 0.000000 
#    y 0.000000 1.695340 0.000000 
#    z 0.000000 0.000000 1.672530 
# 
# From -- ./inp_files/20614.got.cif
#   From: 2010.05.17/outbox.cif.g08.bks.cpg/sg38_11_cif.got.tgz:20614.got - 2010.06.03 18:07:57.
