data_PCOD9355024
_publ_section_title
;
Structure prediction by ZEFSAII (Michael W. Deem and Ramdas Pophale) SiO2 
 PCOD9355024
Probable space group: C C C 2
;
_chemical_formula_sum "Si O2"
_cell_formula_units_Z 44
_cell_length_a 16.902999
_cell_length_b 10.621976
_cell_length_c 9.350100
_cell_angle_alpha 90.000000
_cell_angle_beta 90.000000
_cell_angle_gamma 90.000000
_cell_volume 1678.747339
_symmetry_space_group_name_H-M "C C C 2"
_symmetry_group_IT_number 37
_symmetry_cell_setting 'orthorhombic'
loop_
_space_group_symop_operation_xyz
x,y,z
-x,-y,z
-x,y,1/2+z
x,-y,1/2+z
1/2+x,1/2+y,z
1/2-x,1/2-y,z
1/2-x,1/2+y,1/2+z
1/2+x,1/2-y,1/2+z
loop_
_atom_site_type_symbol
_atom_site_label
_atom_site_fract_x
_atom_site_fract_y
_atom_site_fract_z
Si Si1 0.503301 0.767343 0.693820
Si Si2 0.652693 0.316037 0.087859
Si Si3 0.856238 0.716147 0.891436
Si Si4 0.641514 0.854363 0.320089
Si Si5 0.000000 0.500000 0.968071
Si Si6 0.239852 0.921473 0.569784
O O1 0.557534 0.665234 0.612194
O O2 0.551553 0.783814 0.845147
O O3 0.412374 0.751575 0.733824
O O4 0.501437 0.886465 0.586751
O O5 0.673220 0.241294 0.231907
O O6 0.698129 0.445321 0.074726
O O7 0.665937 0.219679 0.960458
O O8 0.783989 0.393265 0.721378
O O9 0.926718 0.456474 0.863852
O O10 0.823082 0.826511 0.994336
O O11 0.685717 0.096014 0.462580
#
# Coordination Sequence:
#
# PCOD9355024 Si02
#       6
#     8   8   8   8   4   8
#     4   9  22  48  80 122 163 214 291 357 426 529
#     4   9  24  51  81 116 174 220 282 360 447 527
#     4   9  24  49  80 117 177 215 294 346 448 546
#     4  11  24  47  89 130 160 224 303 360 443 530
#     4  10  22  46  80 132 162 214 288 384 424 508
#     4  11  24  49  82 123 174 228 276 371 447 528
#
# _framework density 26.21002
#
# number of rings (size 3 to 8) (size 9 to 14) (size 15 to 20)
#    1.091    1.091    0.000    0.545    5.091    4.364 
#    9.818   11.818    4.000    0.000    0.000    0.000 
#    0.000    0.000    0.000    0.000    0.000    0.000 
#
# Total GULP energy -122626.246822 kJ/mol
# GULP energy per Si atom -5573.920310 kJ/mol
# Density = 2.615036 g / cm^3
# Si number density = 26.210020 Si / 1000 Ang^3
#
#
#
# Elastic Constant Matrix: (Units=GPa)
#
#
# Indices 1 2 3 4 5 6 
#
# 1 139.2106 67.3702 85.4912 0.0000 0.0000 0.0000
# 2 67.3702 103.2220 89.2585 0.0000 0.0000 0.0000
# 3 85.4912 89.2585 232.6205 0.0000 0.0000 0.0000
# 4 0.0000 0.0000 0.0000 22.8949 0.0000 0.0000
# 5 0.0000 0.0000 0.0000 0.0000 24.0949 0.0000
# 6 0.0000 0.0000 0.0000 0.0000 0.0000 45.6600
#
#
#
# Elastic Compliance Matrix: (Units=1/GPa)
#
#
# Indices 1 2 3 4 5 6 
#
# 1 0.011054 -0.005540 -0.001937 0.000000 0.000000 0.000000
# 2 -0.005540 0.017275 -0.004593 0.000000 0.000000 0.000000
# 3 -0.001937 -0.004593 0.006773 0.000000 0.000000 0.000000
# 4 0.000000 0.000000 0.000000 0.043678 0.000000 0.000000
# 5 0.000000 0.000000 0.000000 0.000000 0.041503 0.000000
# 6 0.000000 0.000000 0.000000 0.000000 0.000000 0.021901
#
#
# Mechanical properties :
#
#
# Convention : Reuss Voigt Hill
#
# Bulk Modulus (GPa) = 91.21365 106.58810 98.90088
# Shear Modulus (GPa) = 29.41608 34.05882 31.73745
#
# Velocity S-wave (km/s) = 3.35374 3.60871 3.48356
# Velocity P-wave (km/s) = 7.06211 7.62358 7.34821
#
# Compressibility (1/GPa) = 0.01096327
#
# Stress axis : x y z
#
# Youngs Moduli (GPa) = 90.46801 57.88793 147.64854
#
# Poissons Ratio (x) = 0.32068 0.28596
# Poissons Ratio (y) = 0.50116 0.67809
# Poissons Ratio (z) = 0.17521 0.26585
#
# Static dielectric constant tensor:
#      x y z
#    x 2.235560 0.000000 0.000000 
#    y 0.000000 2.271470 0.000000 
#    z 0.000000 0.000000 2.102880 
# 
# From -- ./inp_files/8219.got.cif
#   From: 2010.05.17/outbox.cif.g08.bks.cpg/sg37_5_cif.got.tgz:8219.got - 2010.06.03 17:53:42.
