data_PCOD9355522
_publ_section_title
;
Structure prediction by ZEFSAII (Michael W. Deem and Ramdas Pophale) SiO2 
 PCOD9355522
Probable space group: C C C 2
;
_chemical_formula_sum "Si O2"
_cell_formula_units_Z 60
_cell_length_a 8.483112
_cell_length_b 22.403215
_cell_length_c 14.875839
_cell_angle_alpha 90.000000
_cell_angle_beta 90.000000
_cell_angle_gamma 90.000000
_cell_volume 2827.138058
_symmetry_space_group_name_H-M "C C C 2"
_symmetry_group_IT_number 37
_symmetry_cell_setting 'orthorhombic'
loop_
_space_group_symop_operation_xyz
x,y,z
-x,-y,z
-x,y,1/2+z
x,-y,1/2+z
1/2+x,1/2+y,z
1/2-x,1/2-y,z
1/2-x,1/2+y,1/2+z
1/2+x,1/2-y,1/2+z
loop_
_atom_site_type_symbol
_atom_site_label
_atom_site_fract_x
_atom_site_fract_y
_atom_site_fract_z
Si Si1 0.737626 0.368356 0.178610
Si Si2 0.006938 0.893359 0.022355
Si Si3 0.991580 0.294456 0.610639
Si Si4 0.937714 0.805842 0.251955
Si Si5 0.234533 0.397025 0.165736
Si Si6 0.565184 0.733357 0.931456
Si Si7 0.169596 0.512227 0.275137
Si Si8 0.500000 0.500000 0.883317
O O1 0.663988 0.386431 0.082278
O O2 0.849045 0.312667 0.159554
O O3 0.595075 0.344963 0.239560
O O4 0.822546 0.423126 0.227765
O O5 0.875795 0.909248 0.096748
O O6 0.953861 0.832213 0.974843
O O7 0.019503 0.942987 0.947050
O O8 0.923906 0.237971 0.666040
O O9 0.888086 0.353938 0.617251
O O10 0.003992 0.276591 0.507430
O O11 0.799798 0.854618 0.246522
O O12 0.963781 0.767463 0.340671
O O13 0.173845 0.459280 0.202064
O O14 0.750000 0.750000 0.916990
O O15 0.336543 0.506649 0.327734
O O16 0.000000 0.500000 0.323628
#
# Coordination Sequence:
#
# PCOD9355522 Si02
#       8
#     8   8   8   8   8   8   8   4
#     4  11  23  44  70  98 136 185 234 297 358 432
#     4  11  23  43  70  97 138 183 237 291 367 424
#     4  12  22  44  66  99 145 178 233 295 347 427
#     4  11  24  41  70  99 136 190 235 280 369 422
#     4  11  22  46  70  96 137 186 237 300 355 431
#     4  12  22  40  66 102 137 183 233 290 348 425
#     4  12  25  47  73 102 140 189 243 296 368 433
#     4  12  26  48  70 108 146 186 240 312 358 442
#
# _framework density 21.222875999999999
#
# number of rings (size 3 to 8) (size 9 to 14) (size 15 to 20)
#    0.000    0.533    5.333    5.600    0.000    0.000 
#    9.600    0.000    0.000    0.000    0.000    0.000 
#    0.000    0.000    0.000    0.000    0.000    0.000 
#
# Total GULP energy -167685.049056 kJ/mol
# GULP energy per Si atom -5589.501635 kJ/mol
# Density = 2.117457 g / cm^3
# Si number density = 21.222876 Si / 1000 Ang^3
#
#
#
# Elastic Constant Matrix: (Units=GPa)
#
#
# Indices 1 2 3 4 5 6 
#
# 1 75.8764 15.7843 9.2991 0.0000 0.0000 0.0000
# 2 15.7843 97.1589 17.9607 0.0000 0.0000 0.0000
# 3 9.2991 17.9607 90.2464 0.0000 0.0000 0.0000
# 4 0.0000 0.0000 0.0000 39.6537 0.0000 0.0000
# 5 0.0000 0.0000 0.0000 0.0000 15.3743 0.0000
# 6 0.0000 0.0000 0.0000 0.0000 0.0000 30.3475
#
#
#
# Elastic Compliance Matrix: (Units=1/GPa)
#
#
# Indices 1 2 3 4 5 6 
#
# 1 0.013728 -0.002044 -0.001008 0.000000 0.000000 0.000000
# 2 -0.002044 0.010990 -0.001977 0.000000 0.000000 0.000000
# 3 -0.001008 -0.001977 0.011578 0.000000 0.000000 0.000000
# 4 0.000000 0.000000 0.000000 0.025218 0.000000 0.000000
# 5 0.000000 0.000000 0.000000 0.000000 0.065044 0.000000
# 6 0.000000 0.000000 0.000000 0.000000 0.000000 0.032952
#
#
# Mechanical properties :
#
#
# Convention : Reuss Voigt Hill
#
# Bulk Modulus (GPa) = 38.11074 38.81886 38.46480
# Shear Modulus (GPa) = 28.04063 31.75759 29.89911
#
# Velocity S-wave (km/s) = 3.63884 3.87251 3.75749
# Velocity P-wave (km/s) = 5.97086 6.19079 6.08182
#
# Compressibility (1/GPa) = 0.02623932
#
# Stress axis : x y z
#
# Youngs Moduli (GPa) = 72.84371 90.99292 86.37077
#
# Poissons Ratio (x) = 0.18598 0.08704
# Poissons Ratio (y) = 0.14889 0.17072
# Poissons Ratio (z) = 0.07341 0.17985
#
# Static dielectric constant tensor:
#      x y z
#    x 1.854290 0.000000 0.000000 
#    y 0.000000 1.740600 0.000000 
#    z 0.000000 0.000000 1.750810 
# 
# From -- ./inp_files/10946.got.cif
#   From: 2010.05.17/outbox.cif.g08.bks.cpg/sg37_6_cif.got.tgz:10946.got - 2010.06.03 17:53:42.
