data_PCOD9355037
_publ_section_title
;
Structure prediction by ZEFSAII (Michael W. Deem and Ramdas Pophale) SiO2 
 PCOD9355037
Probable space group: C C C 2
;
_chemical_formula_sum "Si O2"
_cell_formula_units_Z 24
_cell_length_a 10.379461
_cell_length_b 8.203292
_cell_length_c 8.887535
_cell_angle_alpha 90.000000
_cell_angle_beta 90.000000
_cell_angle_gamma 90.000000
_cell_volume 756.735828
_symmetry_space_group_name_H-M "C C C 2"
_symmetry_group_IT_number 37
_symmetry_cell_setting 'orthorhombic'
loop_
_space_group_symop_operation_xyz
x,y,z
-x,-y,z
-x,y,1/2+z
x,-y,1/2+z
1/2+x,1/2+y,z
1/2-x,1/2-y,z
1/2-x,1/2+y,1/2+z
1/2+x,1/2-y,1/2+z
loop_
_atom_site_type_symbol
_atom_site_label
_atom_site_fract_x
_atom_site_fract_y
_atom_site_fract_z
Si Si1 0.234460 0.415030 0.460140
Si Si2 0.250000 0.750000 0.424869
Si Si3 0.500000 0.500000 0.011668
Si Si4 0.489204 0.818505 0.725891
O O1 0.250000 0.250000 0.553565
O O2 0.226091 0.592942 0.530902
O O3 0.380266 0.453442 0.404763
O O4 0.126919 0.365137 0.341451
O O5 0.379359 0.778625 0.322554
O O6 0.521511 0.663133 0.113217
O O7 0.500000 0.000000 0.647971
#
# Coordination Sequence:
#
# PCOD9355037 Si02
#       4
#     8   4   4   8
#     4  11  24  45  77 112 161 209 279 353 416 493
#     4  10  22  48  78 104 156 214 272 368 414 476
#     4  12  26  46  80 122 164 228 284 332 430 518
#     4  10  24  47  77 114 162 218 280 351 419 499
#
# _framework density 31.715164000000001
#
# number of rings (size 3 to 8) (size 9 to 14) (size 15 to 20)
#    0.000    1.333    0.000    4.000    2.333    2.667 
#    9.000    0.000    0.000    0.000    0.000    0.000 
#    0.000    0.000    0.000    0.000    0.000    0.000 
#
# Total GULP energy -66805.188981 kJ/mol
# GULP energy per Si atom -5567.099082 kJ/mol
# Density = 3.164298 g / cm^3
# Si number density = 31.715164 Si / 1000 Ang^3
#
#
#
# Elastic Constant Matrix: (Units=GPa)
#
#
# Indices 1 2 3 4 5 6 
#
# 1 313.1968 16.1082 73.8034 0.0000 0.0000 0.0000
# 2 16.1082 451.2337 46.6013 0.0000 0.0000 0.0000
# 3 73.8034 46.6013 119.7670 0.0000 0.0000 0.0000
# 4 0.0000 0.0000 0.0000 0.2531 0.0000 0.0000
# 5 0.0000 0.0000 0.0000 0.0000 18.5296 0.0000
# 6 0.0000 0.0000 0.0000 0.0000 0.0000 60.0350
#
#
#
# Elastic Compliance Matrix: (Units=1/GPa)
#
#
# Indices 1 2 3 4 5 6 
#
# 1 0.003740 0.000109 -0.002347 0.000000 0.000000 0.000000
# 2 0.000109 0.002312 -0.000967 0.000000 0.000000 0.000000
# 3 -0.002347 -0.000967 0.010172 0.000000 0.000000 0.000000
# 4 0.000000 0.000000 0.000000 3.951393 0.000000 0.000000
# 5 0.000000 0.000000 0.000000 0.000000 0.053968 0.000000
# 6 0.000000 0.000000 0.000000 0.000000 0.000000 0.016657
#
#
# Mechanical properties :
#
#
# Convention : Reuss Voigt Hill
#
# Bulk Modulus (GPa) = 101.89134 128.58037 115.23585
# Shear Modulus (GPa) = 1.23520 65.60917 33.42219
#
# Velocity S-wave (km/s) = 0.62475 4.55323 3.24979
# Velocity P-wave (km/s) = 5.71989 8.26274 7.10598
#
# Compressibility (1/GPa) = 0.00981438
#
# Stress axis : x y z
#
# Youngs Moduli (GPa) = 267.35019 432.50735 98.30746
#
# Poissons Ratio (x) = -0.04710 0.23076
# Poissons Ratio (y) = -0.02911 0.09504
# Poissons Ratio (z) = 0.62755 0.41812
#
# Static dielectric constant tensor:
#      x y z
#    x 3.213490 0.000000 0.000000 
#    y 0.000000 3.224930 0.000000 
#    z 0.000000 0.000000 2.273800 
# 
# From -- ./inp_files/10001.got.cif
#   From: 2010.05.17/outbox.cif.g08.bks.cpg/sg37_6_cif.got.tgz:10001.got - 2010.06.03 17:53:42.
