data_PCOD9355324
_publ_section_title
;
Structure prediction by ZEFSAII (Michael W. Deem and Ramdas Pophale) SiO2 
 PCOD9355324
Probable space group: C C C 2
;
_chemical_formula_sum "Si O2"
_cell_formula_units_Z 40
_cell_length_a 16.480955
_cell_length_b 4.750824
_cell_length_c 19.039925
_cell_angle_alpha 90.000000
_cell_angle_beta 90.000000
_cell_angle_gamma 90.000000
_cell_volume 1490.790267
_symmetry_space_group_name_H-M "C C C 2"
_symmetry_group_IT_number 37
_symmetry_cell_setting 'orthorhombic'
loop_
_space_group_symop_operation_xyz
x,y,z
-x,-y,z
-x,y,1/2+z
x,-y,1/2+z
1/2+x,1/2+y,z
1/2-x,1/2-y,z
1/2-x,1/2+y,1/2+z
1/2+x,1/2-y,1/2+z
loop_
_atom_site_type_symbol
_atom_site_label
_atom_site_fract_x
_atom_site_fract_y
_atom_site_fract_z
Si Si1 0.592450 0.421051 0.221930
Si Si2 0.338047 0.112377 0.845754
Si Si3 0.868909 0.890362 0.438176
Si Si4 0.250000 0.750000 0.063876
Si Si5 0.500000 0.000000 0.503515
Si Si6 0.750000 0.750000 0.168831
Si Si7 0.500000 0.500000 0.592067
O O1 0.500000 0.500000 0.249309
O O2 0.618508 0.170717 0.272621
O O3 0.672330 0.624926 0.212893
O O4 0.567605 0.359959 0.141834
O O5 0.250000 0.250000 0.840926
O O6 0.379567 0.302515 0.906639
O O7 0.336285 0.798303 0.873575
O O8 0.813268 0.878489 0.507188
O O9 0.946333 0.713848 0.459992
O O10 0.223574 0.502229 0.116689
O O11 0.541201 0.238225 0.552699
#
# Coordination Sequence:
#
# PCOD9355324 Si02
#       7
#     8   8   8   4   4   4   4
#     4  10  28  50  76 111 152 202 263 316 386 465
#     4  12  26  49  70 106 149 202 254 314 376 462
#     4  12  26  44  76 107 148 195 254 313 387 462
#     4  12  24  47  74 111 146 196 252 312 392 464
#     4  12  24  44  76 104 152 188 248 320 396 450
#     4  12  26  47  80 107 152 202 246 320 400 452
#     4  10  24  48  68 112 146 196 252 322 378 472
#
# _framework density 26.831409000000001
#
# number of rings (size 3 to 8) (size 9 to 14) (size 15 to 20)
#    0.600    0.000    2.000    4.800    7.000    1.600 
#    0.000    0.000    0.000    0.000    0.000    0.000 
#    0.000    0.000    0.000    0.000    0.000    0.000 
#
# Total GULP energy -111803.324859 kJ/mol
# GULP energy per Si atom -5590.166243 kJ/mol
# Density = 2.677034 g / cm^3
# Si number density = 26.831409 Si / 1000 Ang^3
#
#
#
# Elastic Constant Matrix: (Units=GPa)
#
#
# Indices 1 2 3 4 5 6 
#
# 1 129.1219 19.5794 37.3248 0.0000 0.0000 0.0000
# 2 19.5794 144.5638 42.7728 0.0000 0.0000 0.0000
# 3 37.3248 42.7728 139.9978 0.0000 0.0000 0.0000
# 4 0.0000 0.0000 0.0000 11.1055 0.0000 0.0000
# 5 0.0000 0.0000 0.0000 0.0000 49.0942 0.0000
# 6 0.0000 0.0000 0.0000 0.0000 0.0000 44.5411
#
#
#
# Elastic Compliance Matrix: (Units=1/GPa)
#
#
# Indices 1 2 3 4 5 6 
#
# 1 0.008427 -0.000524 -0.002087 0.000000 0.000000 0.000000
# 2 -0.000524 0.007637 -0.002194 0.000000 0.000000 0.000000
# 3 -0.002087 -0.002194 0.008370 0.000000 0.000000 0.000000
# 4 0.000000 0.000000 0.000000 0.090046 0.000000 0.000000
# 5 0.000000 0.000000 0.000000 0.000000 0.020369 0.000000
# 6 0.000000 0.000000 0.000000 0.000000 0.000000 0.022451
#
#
# Mechanical properties :
#
#
# Convention : Reuss Voigt Hill
#
# Bulk Modulus (GPa) = 67.45174 68.11529 67.78351
# Shear Modulus (GPa) = 29.09501 41.88190 35.48846
#
# Velocity S-wave (km/s) = 3.29654 3.95514 3.64077
# Velocity P-wave (km/s) = 6.29946 6.80434 6.55676
#
# Compressibility (1/GPa) = 0.01482541
#
# Stress axis : x y z
#
# Youngs Moduli (GPa) = 118.66240 130.93470 119.48085
#
# Poissons Ratio (x) = 0.06861 0.24932
# Poissons Ratio (y) = 0.06218 0.26211
# Poissons Ratio (z) = 0.24761 0.28723
#
# Static dielectric constant tensor:
#      x y z
#    x 2.238150 0.000000 0.000000 
#    y 0.000000 2.023390 0.000000 
#    z 0.000000 0.000000 2.187750 
# 
# From -- ./inp_files/17282.got.cif
#   From: 2010.05.17/outbox.cif.g08.bks.cpg/sg37_9_cif.got.tgz:17282.got - 2010.06.03 17:53:42.
