data_PCOD9355350
_publ_section_title
;
Structure prediction by ZEFSAII (Michael W. Deem and Ramdas Pophale) SiO2 
 PCOD9355350
Probable space group: C C C 2
;
_chemical_formula_sum "Si O2"
_cell_formula_units_Z 40
_cell_length_a 18.764140
_cell_length_b 8.359303
_cell_length_c 10.289244
_cell_angle_alpha 90.000000
_cell_angle_beta 90.000000
_cell_angle_gamma 90.000000
_cell_volume 1613.920724
_symmetry_space_group_name_H-M "C C C 2"
_symmetry_group_IT_number 37
_symmetry_cell_setting 'orthorhombic'
loop_
_space_group_symop_operation_xyz
x,y,z
-x,-y,z
-x,y,1/2+z
x,-y,1/2+z
1/2+x,1/2+y,z
1/2-x,1/2-y,z
1/2-x,1/2+y,1/2+z
1/2+x,1/2-y,1/2+z
loop_
_atom_site_type_symbol
_atom_site_label
_atom_site_fract_x
_atom_site_fract_y
_atom_site_fract_z
Si Si1 0.177127 0.884136 0.366710
Si Si2 0.935119 0.121098 0.754117
Si Si3 0.402318 0.164892 0.040907
Si Si4 0.567761 0.800618 0.510844
Si Si5 0.296258 0.392414 0.580210
O O1 0.138280 0.722037 0.411264
O O2 0.220198 0.900722 0.233068
O O3 0.111446 0.000884 0.340391
O O4 0.218020 0.956129 0.490018
O O5 0.881549 0.205447 0.651182
O O6 0.948745 0.263005 0.858854
O O7 0.000000 0.000000 0.713956
O O8 0.487270 0.200284 0.062233
O O9 0.398891 0.973857 0.043285
O O10 0.621855 0.671303 0.571269
O O11 0.250000 0.250000 0.520864
#
# Coordination Sequence:
#
# PCOD9355350 Si02
#       5
#     8   8   8   8   8
#     4  11  23  44  69  99 132 185 228 284 349 412
#     4  11  21  38  66  98 138 178 225 278 350 426
#     4  11  23  39  68 105 138 176 225 289 362 402
#     4  10  25  39  66 103 142 176 223 291 347 414
#     4  11  26  48  69  97 137 184 239 278 340 420
#
# _framework density 24.784364
#
# number of rings (size 3 to 8) (size 9 to 14) (size 15 to 20)
#    0.000    1.200    4.000    1.200    5.600    3.200 
#    3.600    1.000    0.000    0.000    0.000    0.000 
#    0.000    0.000    0.000    0.000    0.000    0.000 
#
# Total GULP energy -111362.240094 kJ/mol
# GULP energy per Si atom -5568.112005 kJ/mol
# Density = 2.472795 g / cm^3
# Si number density = 24.784364 Si / 1000 Ang^3
#
#
#
# Elastic Constant Matrix: (Units=GPa)
#
#
# Indices 1 2 3 4 5 6 
#
# 1 41.7408 4.2776 -2.4379 0.0000 0.0000 0.0000
# 2 4.2776 104.1536 35.6509 0.0000 0.0000 0.0000
# 3 -2.4379 35.6509 112.2456 0.0000 0.0000 0.0000
# 4 0.0000 0.0000 0.0000 27.3914 0.0000 0.0000
# 5 0.0000 0.0000 0.0000 0.0000 1.3297 0.0000
# 6 0.0000 0.0000 0.0000 0.0000 0.0000 32.6772
#
#
#
# Elastic Compliance Matrix: (Units=1/GPa)
#
#
# Indices 1 2 3 4 5 6 
#
# 1 0.024147 -0.001314 0.000942 0.000000 0.000000 0.000000
# 2 -0.001314 0.010844 -0.003473 0.000000 0.000000 0.000000
# 3 0.000942 -0.003473 0.010032 0.000000 0.000000 0.000000
# 4 0.000000 0.000000 0.000000 0.036508 0.000000 0.000000
# 5 0.000000 0.000000 0.000000 0.000000 0.752055 0.000000
# 6 0.000000 0.000000 0.000000 0.000000 0.000000 0.030602
#
#
# Mechanical properties :
#
#
# Convention : Reuss Voigt Hill
#
# Bulk Modulus (GPa) = 26.78566 37.01346 31.89956
# Shear Modulus (GPa) = 5.65404 26.98961 16.32182
#
# Velocity S-wave (km/s) = 1.51203 3.30355 2.56901
# Velocity P-wave (km/s) = 3.72549 5.43303 4.65817
#
# Compressibility (1/GPa) = 0.03733342
#
# Stress axis : x y z
#
# Youngs Moduli (GPa) = 41.41292 92.21811 99.67627
#
# Poissons Ratio (x) = 0.12118 -0.09388
# Poissons Ratio (y) = 0.05442 0.34615
# Poissons Ratio (z) = -0.03900 0.32025
#
# Static dielectric constant tensor:
#      x y z
#    x 2.163840 0.000000 0.000000 
#    y 0.000000 2.024230 0.000000 
#    z 0.000000 0.000000 2.200410 
# 
# From -- ./inp_files/2196.got.cif
#   From: 2010.05.17/outbox.cif.g08.bks.cpg/sg37_2_cif.got.tgz:2196.got - 2010.06.03 17:53:42.
