data_PCOD9355596
_publ_section_title
;
Structure prediction by ZEFSAII (Michael W. Deem and Ramdas Pophale) SiO2 
 PCOD9355596
Probable space group: C C C 2
;
_chemical_formula_sum "Si O2"
_cell_formula_units_Z 40
_cell_length_a 4.874674
_cell_length_b 16.624069
_cell_length_c 21.899643
_cell_angle_alpha 90.000000
_cell_angle_beta 90.000000
_cell_angle_gamma 90.000000
_cell_volume 1774.679551
_symmetry_space_group_name_H-M "C C C 2"
_symmetry_group_IT_number 37
_symmetry_cell_setting 'orthorhombic'
loop_
_space_group_symop_operation_xyz
x,y,z
-x,-y,z
-x,y,1/2+z
x,-y,1/2+z
1/2+x,1/2+y,z
1/2-x,1/2-y,z
1/2-x,1/2+y,1/2+z
1/2+x,1/2-y,1/2+z
loop_
_atom_site_type_symbol
_atom_site_label
_atom_site_fract_x
_atom_site_fract_y
_atom_site_fract_z
Si Si1 0.366042 0.586400 0.541610
Si Si2 0.866042 0.086400 0.277353
Si Si3 0.839439 0.659470 0.339718
Si Si4 0.339439 0.840530 0.979245
Si Si5 0.500000 0.307314 0.659482
O O1 0.500000 0.500000 0.556877
O O2 0.554231 0.613440 0.485197
O O3 0.419064 0.639528 0.601540
O O4 0.057682 0.609658 0.520231
O O5 0.557682 0.109658 0.298732
O O6 0.054231 0.113440 0.333767
O O7 0.919064 0.139528 0.217423
O O8 0.000000 0.000000 0.262087
O O9 0.750000 0.750000 0.320387
O O10 0.938340 0.664023 0.409482
O O11 0.250000 0.750000 0.998577
O O12 0.750000 0.250000 0.676284
O O13 0.250000 0.250000 0.642679
#
# Coordination Sequence:
#
# PCOD9355596 Si02
#       5
#     8   8   8   8   8
#     4  12  25  42  66  98 133 168 217 278 337 393
#     4  12  25  42  66  98 133 168 217 278 337 393
#     4  11  24  43  67  95 131 176 222 267 325 402
#     4  11  24  43  67  95 131 176 222 267 325 402
#     4  12  25  44  69  92 126 172 220 268 327 404
#
# _framework density 22.539279000000001
#
# number of rings (size 3 to 8) (size 9 to 14) (size 15 to 20)
#    0.000    0.400    0.000   10.200    0.000    8.000 
#    0.000    6.000    0.000    0.000    0.000    0.000 
#    0.000    0.000    0.000    0.000    0.000    0.000 
#
# Total GULP energy -111617.973599 kJ/mol
# GULP energy per Si atom -5580.898680 kJ/mol
# Density = 2.248798 g / cm^3
# Si number density = 22.539279 Si / 1000 Ang^3
#
#
#
# Elastic Constant Matrix: (Units=GPa)
#
#
# Indices 1 2 3 4 5 6 
#
# 1 102.1707 -10.3864 9.9691 0.0000 0.0000 0.0000
# 2 -10.3864 72.3155 21.7327 0.0000 0.0000 0.0000
# 3 9.9691 21.7327 117.6377 0.0000 0.0000 0.0000
# 4 0.0000 0.0000 0.0000 -26.2365 0.0000 0.0000
# 5 0.0000 0.0000 0.0000 0.0000 5.6156 0.0000
# 6 0.0000 0.0000 0.0000 0.0000 0.0000 33.8682
#
#
#
# Elastic Compliance Matrix: (Units=1/GPa)
#
#
# Indices 1 2 3 4 5 6 
#
# 1 0.010087 0.001806 -0.001188 0.000000 0.000000 0.000000
# 2 0.001806 0.014964 -0.002918 0.000000 0.000000 0.000000
# 3 -0.001188 -0.002918 0.009140 0.000000 0.000000 0.000000
# 4 0.000000 0.000000 0.000000 -0.038115 0.000000 0.000000
# 5 0.000000 0.000000 0.000000 0.000000 0.178076 0.000000
# 6 0.000000 0.000000 0.000000 0.000000 0.000000 0.029526
#
#
# Mechanical properties :
#
#
# Convention : Reuss Voigt Hill
#
# Bulk Modulus (GPa) = 33.79329 37.19498 35.49414
# Shear Modulus (GPa) = 22.92069 20.70335 21.81202
#
# Velocity S-wave (km/s) = 3.19238 3.03404 3.11422
# Velocity P-wave (km/s) = 5.34921 5.36768 5.35845
#
# Compressibility (1/GPa) = 0.02959167
#
# Stress axis : x y z
#
# Youngs Moduli (GPa) = 99.13669 66.82488 109.40444
#
# Poissons Ratio (x) = -0.12068 0.13002
# Poissons Ratio (y) = -0.17903 0.31920
# Poissons Ratio (z) = 0.11782 0.19497
#
# Static dielectric constant tensor:
#      x y z
#    x 1.852060 0.000000 0.000000 
#    y 0.000000 2.026710 0.000000 
#    z 0.000000 0.000000 1.777980 
# 
# From -- ./inp_files/15673.got.cif
#   From: 2010.05.17/outbox.cif.g08.bks.cpg/sg37_8_cif.got.tgz:15673.got - 2010.06.03 17:53:42.
