data_PCOD9355683
_publ_section_title
;
Structure prediction by ZEFSAII (Michael W. Deem and Ramdas Pophale) SiO2 
 PCOD9355683
Probable space group: C C C 2
;
_chemical_formula_sum "Si O2"
_cell_formula_units_Z 40
_cell_length_a 11.507992
_cell_length_b 8.674277
_cell_length_c 16.930664
_cell_angle_alpha 90.000000
_cell_angle_beta 90.000000
_cell_angle_gamma 90.000000
_cell_volume 1690.078313
_symmetry_space_group_name_H-M "C C C 2"
_symmetry_group_IT_number 37
_symmetry_cell_setting 'orthorhombic'
loop_
_space_group_symop_operation_xyz
x,y,z
-x,-y,z
-x,y,1/2+z
x,-y,1/2+z
1/2+x,1/2+y,z
1/2-x,1/2-y,z
1/2-x,1/2+y,1/2+z
1/2+x,1/2-y,1/2+z
loop_
_atom_site_type_symbol
_atom_site_label
_atom_site_fract_x
_atom_site_fract_y
_atom_site_fract_z
Si Si1 0.060271 0.337376 0.425460
Si Si2 0.250000 0.750000 0.029447
Si Si3 0.448518 0.668375 0.153353
Si Si4 0.204284 0.097753 0.805221
Si Si5 0.000000 0.000000 0.413344
Si Si6 0.131839 0.652757 0.747011
O O1 0.184997 0.360274 0.467383
O O2 0.070735 0.317083 0.331013
O O3 0.000000 0.500000 0.441033
O O4 0.005787 0.171580 0.452730
O O5 0.354178 0.706982 0.087657
O O6 0.500000 0.500000 0.134486
O O7 0.378180 0.645066 0.233841
O O8 0.546772 0.796176 0.175993
O O9 0.250000 0.250000 0.848060
O O10 0.119025 0.004242 0.862241
O O11 0.313885 0.015182 0.763285
O O12 0.250000 0.750000 0.738330
#
# Coordination Sequence:
#
# PCOD9355683 Si02
#       6
#     8   4   8   8   4   8
#     4  12  26  48  77 112 153 208 254 317 391 465
#     4  12  30  50  70 106 170 198 256 324 382 478
#     4  12  25  46  73 110 150 203 255 320 389 454
#     4  12  22  40  71 111 148 193 248 319 382 450
#     4  12  22  46  78 112 156 194 258 328 382 456
#     4  12  22  45  80 109 148 190 257 323 378 448
#
# _framework density 23.667543999999999
#
# number of rings (size 3 to 8) (size 9 to 14) (size 15 to 20)
#    0.000    0.000    9.000    1.200    1.400    1.600 
#    0.000    0.000    0.000    0.000    0.000    0.000 
#    0.000    0.000    0.000    0.000    0.000    0.000 
#
# Total GULP energy -111575.828570 kJ/mol
# GULP energy per Si atom -5578.791428 kJ/mol
# Density = 2.361368 g / cm^3
# Si number density = 23.667544 Si / 1000 Ang^3
#
#
#
# Elastic Constant Matrix: (Units=GPa)
#
#
# Indices 1 2 3 4 5 6 
#
# 1 155.7048 83.9374 68.1864 0.0000 0.0000 0.0000
# 2 83.9374 176.1081 22.5580 0.0000 0.0000 0.0000
# 3 68.1864 22.5580 72.3494 0.0000 0.0000 0.0000
# 4 0.0000 0.0000 0.0000 -15.2791 0.0000 0.0000
# 5 0.0000 0.0000 0.0000 0.0000 53.3717 0.0000
# 6 0.0000 0.0000 0.0000 0.0000 0.0000 58.8703
#
#
#
# Elastic Compliance Matrix: (Units=1/GPa)
#
#
# Indices 1 2 3 4 5 6 
#
# 1 0.014661 -0.005435 -0.012123 0.000000 0.000000 0.000000
# 2 -0.005435 0.007929 0.002650 0.000000 0.000000 0.000000
# 3 -0.012123 0.002650 0.024421 0.000000 0.000000 0.000000
# 4 0.000000 0.000000 0.000000 -0.065449 0.000000 0.000000
# 5 0.000000 0.000000 0.000000 0.000000 0.018737 0.000000
# 6 0.000000 0.000000 0.000000 0.000000 0.000000 0.016987
#
#
# Mechanical properties :
#
#
# Convention : Reuss Voigt Hill
#
# Bulk Modulus (GPa) = 58.15477 83.72511 70.93994
# Shear Modulus (GPa) = 94.63610 34.69126 64.66368
#
# Velocity S-wave (km/s) = 6.33028 3.83270 5.23268
# Velocity P-wave (km/s) = 8.83486 7.41879 8.15761
#
# Compressibility (1/GPa) = 0.01719549
#
# Stress axis : x y z
#
# Youngs Moduli (GPa) = 68.20673 126.11336 40.94820
#
# Poissons Ratio (x) = 0.68544 0.49642
# Poissons Ratio (y) = 0.37071 -0.10851
# Poissons Ratio (z) = 0.82688 -0.33420
#
# Static dielectric constant tensor:
#      x y z
#    x 1.945450 0.000000 0.000000 
#    y 0.000000 2.084950 0.000000 
#    z 0.000000 0.000000 1.871920 
# 
# From -- ./inp_files/14881.got.cif
#   From: 2010.05.17/outbox.cif.g08.bks.cpg/sg37_8_cif.got.tgz:14881.got - 2010.06.03 17:53:42.
