data_PCOD9355045
_publ_section_title
;
Structure prediction by ZEFSAII (Michael W. Deem and Ramdas Pophale) SiO2 
 PCOD9355045
Probable space group: C C C 2
;
_chemical_formula_sum "Si O2"
_cell_formula_units_Z 60
_cell_length_a 27.114123
_cell_length_b 16.270143
_cell_length_c 5.618741
_cell_angle_alpha 90.000000
_cell_angle_beta 90.000000
_cell_angle_gamma 90.000000
_cell_volume 2478.711292
_symmetry_space_group_name_H-M "C C C 2"
_symmetry_group_IT_number 37
_symmetry_cell_setting 'orthorhombic'
loop_
_space_group_symop_operation_xyz
x,y,z
-x,-y,z
-x,y,1/2+z
x,-y,1/2+z
1/2+x,1/2+y,z
1/2-x,1/2-y,z
1/2-x,1/2+y,1/2+z
1/2+x,1/2-y,1/2+z
loop_
_atom_site_type_symbol
_atom_site_label
_atom_site_fract_x
_atom_site_fract_y
_atom_site_fract_z
Si Si1 0.068286 0.637828 0.995510
Si Si2 0.756453 0.459062 0.094056
Si Si3 0.587134 0.870556 0.997486
Si Si4 0.651933 0.276015 0.053660
Si Si5 0.805452 0.333531 0.388855
Si Si6 0.137001 0.042371 0.581189
Si Si7 0.014781 0.774897 0.496455
Si Si8 0.750000 0.750000 0.258672
O O1 0.069856 0.592963 0.745557
O O2 0.068714 0.594087 0.248056
O O3 0.115791 0.699699 0.998401
O O4 0.021467 0.696462 0.994452
O O5 0.771845 0.505980 0.338559
O O6 0.781872 0.372293 0.152296
O O7 0.697127 0.456895 0.090494
O O8 0.645906 0.876917 0.982938
O O9 0.567588 0.773501 0.997702
O O10 0.675300 0.256314 0.311166
O O11 0.623604 0.361736 0.052919
O O12 0.699465 0.276228 0.884887
O O13 0.764946 0.325552 0.588422
O O14 0.121585 0.994668 0.338666
O O15 0.000108 0.817931 0.246248
#
# Coordination Sequence:
#
# PCOD9355045 Si02
#       8
#     8   8   8   8   8   8   8   4
#     4   9  17  30  47  74 104 132 165 216 270 322
#     4  10  23  38  54  72 103 148 193 230 270 322
#     4   9  17  30  47  74 104 132 165 216 270 322
#     4  11  23  35  53  79 110 145 187 231 277 326
#     4  11  23  35  53  79 110 145 187 231 277 326
#     4  10  23  38  54  72 103 148 193 230 270 322
#     4   8  14  26  46  68 102 130 158 206 274 320
#     4  12  22  32  52  78 112 148 180 228 278 318
#
# _framework density 24.206126000000001
#
# number of rings (size 3 to 8) (size 9 to 14) (size 15 to 20)
#    0.000    2.133    1.333    2.000    9.333    0.000 
#    0.000    0.000    0.000    0.000    0.000    0.000 
#    0.000  102.400    0.000    0.000    0.000    0.000 
#
# Total GULP energy -167417.580845 kJ/mol
# GULP energy per Si atom -5580.586028 kJ/mol
# Density = 2.415103 g / cm^3
# Si number density = 24.206126 Si / 1000 Ang^3
#
#
#
# Elastic Constant Matrix: (Units=GPa)
#
#
# Indices 1 2 3 4 5 6 
#
# 1 80.1194 -19.7910 9.0266 0.0000 0.0000 0.0000
# 2 -19.7910 53.9762 26.0877 0.0000 0.0000 0.0000
# 3 9.0266 26.0877 206.9048 0.0000 0.0000 0.0000
# 4 0.0000 0.0000 0.0000 10.5918 0.0000 0.0000
# 5 0.0000 0.0000 0.0000 0.0000 28.6161 0.0000
# 6 0.0000 0.0000 0.0000 0.0000 0.0000 -5.3278
#
#
#
# Elastic Compliance Matrix: (Units=1/GPa)
#
#
# Indices 1 2 3 4 5 6 
#
# 1 0.014068 0.005809 -0.001346 0.000000 0.000000 0.000000
# 2 0.005809 0.022127 -0.003043 0.000000 0.000000 0.000000
# 3 -0.001346 -0.003043 0.005276 0.000000 0.000000 0.000000
# 4 0.000000 0.000000 0.000000 0.094412 0.000000 0.000000
# 5 0.000000 0.000000 0.000000 0.000000 0.034945 0.000000
# 6 0.000000 0.000000 0.000000 0.000000 0.000000 -0.187695
#
#
# Mechanical properties :
#
#
# Convention : Reuss Voigt Hill
#
# Bulk Modulus (GPa) = 22.56855 41.29414 31.93135
# Shear Modulus (GPa) = -1013.04157 28.48784 -492.27686
#
# Velocity S-wave (km/s) = -20.47962 3.43430 -14.27621
# Velocity P-wave (km/s) = 23.44944 5.72907 16.07877
#
# Compressibility (1/GPa) = 0.04430944
#
# Stress axis : x y z
#
# Youngs Moduli (GPa) = 71.08381 45.19273 189.55210
#
# Poissons Ratio (x) = -0.26251 0.25516
# Poissons Ratio (y) = -0.41291 0.57688
# Poissons Ratio (z) = 0.09569 0.13754
#
# Static dielectric constant tensor:
#      x y z
#    x 1.919050 0.000000 0.000000 
#    y 0.000000 1.995560 0.000000 
#    z 0.000000 0.000000 2.056790 
# 
# From -- ./inp_files/872.got.cif
#   From: 2010.05.17/outbox.cif.g08.bks.cpg/sg37_1_cif.got.tgz:872.got - 2010.06.03 17:53:42.
