data_PCOD9355439
_publ_section_title
;
Structure prediction by ZEFSAII (Michael W. Deem and Ramdas Pophale) SiO2 
 PCOD9355439
Probable space group: C C C 2
;
_chemical_formula_sum "Si O2"
_cell_formula_units_Z 60
_cell_length_a 23.214269
_cell_length_b 9.400237
_cell_length_c 13.510410
_cell_angle_alpha 90.000000
_cell_angle_beta 90.000000
_cell_angle_gamma 90.000000
_cell_volume 2948.236677
_symmetry_space_group_name_H-M "C C C 2"
_symmetry_group_IT_number 37
_symmetry_cell_setting 'orthorhombic'
loop_
_space_group_symop_operation_xyz
x,y,z
-x,-y,z
-x,y,1/2+z
x,-y,1/2+z
1/2+x,1/2+y,z
1/2-x,1/2-y,z
1/2-x,1/2+y,1/2+z
1/2+x,1/2-y,1/2+z
loop_
_atom_site_type_symbol
_atom_site_label
_atom_site_fract_x
_atom_site_fract_y
_atom_site_fract_z
Si Si1 0.402287 0.009790 0.689800
Si Si2 0.375017 0.446062 0.880955
Si Si3 0.875549 0.806244 0.507564
Si Si4 0.481015 0.722631 0.124770
Si Si5 0.401856 0.791396 0.518471
Si Si6 0.000000 0.000000 0.292744
Si Si7 0.182802 0.757022 0.211592
Si Si8 0.565702 0.959463 0.398231
O O1 0.449545 0.127885 0.653761
O O2 0.348537 0.105062 0.723188
O O3 0.383758 0.896011 0.607405
O O4 0.429164 0.928966 0.782763
O O5 0.442225 0.475707 0.855412
O O6 0.346800 0.371233 0.785609
O O7 0.352535 0.597137 0.919174
O O8 0.369191 0.345094 0.977652
O O9 0.931540 0.866102 0.567448
O O10 0.829933 0.788844 0.595596
O O11 0.902967 0.663592 0.459767
O O12 0.534324 0.746873 0.052841
O O13 0.501832 0.636959 0.220592
O O14 0.403520 0.893008 0.423384
O O15 0.250000 0.750000 0.232059
O O16 0.500000 0.000000 0.424334
#
# Coordination Sequence:
#
# PCOD9355439 Si02
#       8
#     8   8   8   8   8   4   8   8
#     4  11  23  39  63  98 127 174 228 268 325 395
#     4  12  26  41  67 102 130 178 224 270 345 410
#     4  11  24  42  63  98 134 174 225 271 334 399
#     4  11  20  37  59  94 145 180 201 255 334 397
#     4  12  21  38  64  95 137 170 219 264 319 408
#     4  12  22  38  64  94 148 178 200 260 340 420
#     4  11  25  51  68  87 133 176 227 293 339 389
#     4  12  21  36  64 101 141 176 212 263 332 410
#
# _framework density 20.351146
#
# number of rings (size 3 to 8) (size 9 to 14) (size 15 to 20)
#    0.000    0.533    8.000    2.800    3.733    0.000 
#    4.800    0.000    0.000    1.600    0.000    0.000 
#    0.000    0.000    0.000    0.000    0.000    0.000 
#
# Total GULP energy -167363.418676 kJ/mol
# GULP energy per Si atom -5578.780623 kJ/mol
# Density = 2.030483 g / cm^3
# Si number density = 20.351146 Si / 1000 Ang^3
#
#
#
# Elastic Constant Matrix: (Units=GPa)
#
#
# Indices 1 2 3 4 5 6 
#
# 1 74.7548 17.7152 13.2786 0.0000 0.0000 0.0000
# 2 17.7152 74.2544 24.6516 0.0000 0.0000 0.0000
# 3 13.2786 24.6516 97.2574 0.0000 0.0000 0.0000
# 4 0.0000 0.0000 0.0000 45.2559 0.0000 0.0000
# 5 0.0000 0.0000 0.0000 0.0000 9.8700 0.0000
# 6 0.0000 0.0000 0.0000 0.0000 0.0000 6.5820
#
#
#
# Elastic Compliance Matrix: (Units=1/GPa)
#
#
# Indices 1 2 3 4 5 6 
#
# 1 0.014303 -0.003018 -0.001188 0.000000 0.000000 0.000000
# 2 -0.003018 0.015341 -0.003477 0.000000 0.000000 0.000000
# 3 -0.001188 -0.003477 0.011325 0.000000 0.000000 0.000000
# 4 0.000000 0.000000 0.000000 0.022097 0.000000 0.000000
# 5 0.000000 0.000000 0.000000 0.000000 0.101318 0.000000
# 6 0.000000 0.000000 0.000000 0.000000 0.000000 0.151929
#
#
# Mechanical properties :
#
#
# Convention : Reuss Voigt Hill
#
# Bulk Modulus (GPa) = 39.05450 39.72860 39.39155
# Shear Modulus (GPa) = 14.69666 25.04966 19.87316
#
# Velocity S-wave (km/s) = 2.69021 3.51218 3.12831
# Velocity P-wave (km/s) = 5.37416 6.00093 5.69617
#
# Compressibility (1/GPa) = 0.02560524
#
# Stress axis : x y z
#
# Youngs Moduli (GPa) = 69.91410 65.18306 88.29749
#
# Poissons Ratio (x) = 0.19672 0.10488
# Poissons Ratio (y) = 0.21100 0.30697
# Poissons Ratio (z) = 0.08305 0.22661
#
# Static dielectric constant tensor:
#      x y z
#    x 1.694100 0.000000 0.000000 
#    y 0.000000 1.764590 0.000000 
#    z 0.000000 0.000000 1.782530 
# 
# From -- ./inp_files/13154.got.cif
#   From: 2010.05.17/outbox.cif.g08.bks.cpg/sg37_7_cif.got.tgz:13154.got - 2010.06.03 17:53:42.
