data_PCOD9355251
_publ_section_title
;
Structure prediction by ZEFSAII (Michael W. Deem and Ramdas Pophale) SiO2 
 PCOD9355251
Probable space group: C C C 2
;
_chemical_formula_sum "Si O2"
_cell_formula_units_Z 48
_cell_length_a 14.649667
_cell_length_b 5.900807
_cell_length_c 25.420931
_cell_angle_alpha 90.000000
_cell_angle_beta 90.000000
_cell_angle_gamma 90.000000
_cell_volume 2197.508760
_symmetry_space_group_name_H-M "C C C 2"
_symmetry_group_IT_number 37
_symmetry_cell_setting 'orthorhombic'
loop_
_space_group_symop_operation_xyz
x,y,z
-x,-y,z
-x,y,1/2+z
x,-y,1/2+z
1/2+x,1/2+y,z
1/2-x,1/2-y,z
1/2-x,1/2+y,1/2+z
1/2+x,1/2-y,1/2+z
loop_
_atom_site_type_symbol
_atom_site_label
_atom_site_fract_x
_atom_site_fract_y
_atom_site_fract_z
Si Si1 0.603819 0.046466 0.155670
Si Si2 0.750000 0.750000 0.841394
Si Si3 0.898710 0.097589 0.864974
Si Si4 0.750000 0.250000 0.593304
Si Si5 0.396792 0.591910 0.076786
Si Si6 0.660668 0.886455 0.266828
Si Si7 0.051086 0.742473 0.971387
O O1 0.678542 0.889720 0.128308
O O2 0.608817 0.989367 0.217178
O O3 0.500000 0.000000 0.137530
O O4 0.626034 0.295283 0.133107
O O5 0.678664 0.592812 0.871461
O O6 0.808038 0.591170 0.803299
O O7 0.886570 0.220041 0.808820
O O8 0.892942 0.251080 0.917003
O O9 0.000000 0.000000 0.863917
O O10 0.681299 0.413071 0.562571
O O11 0.500000 0.500000 0.082394
O O12 0.398985 0.762295 0.027652
O O13 0.750000 0.750000 0.247454
O O14 0.000000 0.500000 0.969091
O O15 0.000000 0.000000 0.972486
#
# Coordination Sequence:
#
# PCOD9355251 Si02
#       7
#     8   4   8   4   8   8   8
#     4  12  25  44  72 101 145 194 243 313 378 450
#     4  10  24  43  66 102 148 181 244 310 354 458
#     4  10  24  44  72 104 142 191 245 305 376 443
#     4  12  26  47  70 108 146 187 254 308 376 456
#     4  11  25  47  73 105 148 192 251 310 384 453
#     4  10  24  44  66 103 145 189 245 303 369 449
#     4  10  24  45  79 109 149 196 248 317 374 453
#
# _framework density 21.842915999999999
#
# number of rings (size 3 to 8) (size 9 to 14) (size 15 to 20)
#    0.000    1.333    2.500    1.000   11.667    0.667 
#    0.000    5.000    0.000    0.000    0.000    0.000 
#    0.000    0.000    0.000    0.000    0.000    0.000 
#
# Total GULP energy -133818.454647 kJ/mol
# GULP energy per Si atom -5575.768944 kJ/mol
# Density = 2.179320 g / cm^3
# Si number density = 21.842916 Si / 1000 Ang^3
#
#
#
# Elastic Constant Matrix: (Units=GPa)
#
#
# Indices 1 2 3 4 5 6 
#
# 1 123.2865 52.9044 46.6190 0.0000 0.0000 0.0000
# 2 52.9044 108.5705 43.2282 0.0000 0.0000 0.0000
# 3 46.6190 43.2282 115.7038 0.0000 0.0000 0.0000
# 4 0.0000 0.0000 0.0000 22.9505 0.0000 0.0000
# 5 0.0000 0.0000 0.0000 0.0000 -631.9905 0.0000
# 6 0.0000 0.0000 0.0000 0.0000 0.0000 42.9127
#
#
#
# Elastic Compliance Matrix: (Units=1/GPa)
#
#
# Indices 1 2 3 4 5 6 
#
# 1 0.011004 -0.004225 -0.002855 0.000000 0.000000 0.000000
# 2 -0.004225 0.012443 -0.002946 0.000000 0.000000 0.000000
# 3 -0.002855 -0.002946 0.010894 0.000000 0.000000 0.000000
# 4 0.000000 0.000000 0.000000 0.043572 0.000000 0.000000
# 5 0.000000 0.000000 0.000000 0.000000 -0.001582 0.000000
# 6 0.000000 0.000000 0.000000 0.000000 0.000000 0.023303
#
#
# Mechanical properties :
#
#
# Convention : Reuss Voigt Hill
#
# Bulk Modulus (GPa) = 69.99263 70.34045 70.16654
# Shear Modulus (GPa) = 40.17717 -99.57152 -29.69718
#
# Velocity S-wave (km/s) = 4.29344 -6.75901 -3.69125
# Velocity P-wave (km/s) = 7.52937 5.35159 3.74512
#
# Compressibility (1/GPa) = 0.01428722
#
# Stress axis : x y z
#
# Youngs Moduli (GPa) = 90.87678 80.36934 91.79477
#
# Poissons Ratio (x) = 0.33958 0.26208
# Poissons Ratio (y) = 0.38398 0.27045
# Poissons Ratio (z) = 0.25946 0.23679
#
# Static dielectric constant tensor:
#      x y z
#    x 2.037370 0.000000 0.000000 
#    y 0.000000 1.887940 0.000000 
#    z 0.000000 0.000000 1.786310 
# 
# From -- ./inp_files/19337.got.cif
#   From: 2010.05.17/outbox.cif.g08.bks.cpg/sg37_10_cif.got.tgz:19337.got - 2010.06.03 17:53:42.
