data_PCOD9355054
_publ_section_title
;
Structure prediction by ZEFSAII (Michael W. Deem and Ramdas Pophale) SiO2 
 PCOD9355054
Probable space group: C C C 2
;
_chemical_formula_sum "Si O2"
_cell_formula_units_Z 40
_cell_length_a 9.369754
_cell_length_b 19.161846
_cell_length_c 9.479608
_cell_angle_alpha 90.000000
_cell_angle_beta 90.000000
_cell_angle_gamma 90.000000
_cell_volume 1701.985724
_symmetry_space_group_name_H-M "C C C 2"
_symmetry_group_IT_number 37
_symmetry_cell_setting 'orthorhombic'
loop_
_space_group_symop_operation_xyz
x,y,z
-x,-y,z
-x,y,1/2+z
x,-y,1/2+z
1/2+x,1/2+y,z
1/2-x,1/2-y,z
1/2-x,1/2+y,1/2+z
1/2+x,1/2-y,1/2+z
loop_
_atom_site_type_symbol
_atom_site_label
_atom_site_fract_x
_atom_site_fract_y
_atom_site_fract_z
Si Si1 0.253657 0.593197 0.966390
Si Si2 0.811612 0.322186 0.579130
Si Si3 0.724293 0.965589 0.769277
Si Si4 0.504467 0.146968 0.338592
Si Si5 0.560443 0.579054 0.985823
O O1 0.133563 0.648997 0.938238
O O2 0.413365 0.621032 0.980710
O O3 0.217331 0.546676 0.103449
O O4 0.875771 0.690477 0.921727
O O5 0.750000 0.250000 0.633285
O O6 0.940786 0.340915 0.684318
O O7 0.685591 0.380753 0.569920
O O8 0.585782 0.927742 0.833752
O O9 0.867002 0.929364 0.832250
O O10 0.740198 0.042061 0.832153
O O11 0.500000 0.500000 0.025653
#
# Coordination Sequence:
#
# PCOD9355054 Si02
#       5
#     8   8   8   8   8
#     4  11  23  38  69 102 147 185 233 294 368 436
#     4  11  26  50  75 100 144 191 251 301 367 442
#     4  10  23  39  63 103 144 187 232 287 365 443
#     4  11  24  45  68 102 136 189 241 299 364 442
#     4   9  23  42  70 103 146 184 232 294 364 430
#
# _framework density 23.50196
#
# number of rings (size 3 to 8) (size 9 to 14) (size 15 to 20)
#    0.000    1.600    2.000    0.600   11.200    7.200 
#    3.600    1.000    0.000    0.000    0.000    0.000 
#    0.000    0.000    0.000    0.000    0.000    0.000 
#
# Total GULP energy -111489.058677 kJ/mol
# GULP energy per Si atom -5574.452934 kJ/mol
# Density = 2.344847 g / cm^3
# Si number density = 23.501960 Si / 1000 Ang^3
#
#
#
# Elastic Constant Matrix: (Units=GPa)
#
#
# Indices 1 2 3 4 5 6 
#
# 1 158.2924 23.4709 30.8633 0.0000 0.0000 0.0000
# 2 23.4709 36.5303 17.1572 0.0000 0.0000 0.0000
# 3 30.8633 17.1572 96.9724 0.0000 0.0000 0.0000
# 4 0.0000 0.0000 0.0000 10.4834 0.0000 0.0000
# 5 0.0000 0.0000 0.0000 0.0000 35.3525 0.0000
# 6 0.0000 0.0000 0.0000 0.0000 0.0000 24.4652
#
#
#
# Elastic Compliance Matrix: (Units=1/GPa)
#
#
# Indices 1 2 3 4 5 6 
#
# 1 0.007205 -0.003874 -0.001608 0.000000 0.000000 0.000000
# 2 -0.003874 0.031939 -0.004418 0.000000 0.000000 0.000000
# 3 -0.001608 -0.004418 0.011606 0.000000 0.000000 0.000000
# 4 0.000000 0.000000 0.000000 0.095389 0.000000 0.000000
# 5 0.000000 0.000000 0.000000 0.000000 0.028287 0.000000
# 6 0.000000 0.000000 0.000000 0.000000 0.000000 0.040874
#
#
# Mechanical properties :
#
#
# Convention : Reuss Voigt Hill
#
# Bulk Modulus (GPa) = 32.31035 48.30864 40.30949
# Shear Modulus (GPa) = 20.37358 28.74715 24.56037
#
# Velocity S-wave (km/s) = 2.94749 3.50119 3.23621
# Velocity P-wave (km/s) = 5.03601 6.07818 5.58147
#
# Compressibility (1/GPa) = 0.03094984
#
# Stress axis : x y z
#
# Youngs Moduli (GPa) = 138.78536 31.30996 86.16572
#
# Poissons Ratio (x) = 0.12131 0.13853
# Poissons Ratio (y) = 0.53770 0.38066
# Poissons Ratio (z) = 0.22313 0.13832
#
# Static dielectric constant tensor:
#      x y z
#    x 1.930170 0.000000 0.000000 
#    y 0.000000 1.913030 0.000000 
#    z 0.000000 0.000000 1.915770 
# 
# From -- ./inp_files/6139.got.cif
#   From: 2010.05.17/outbox.cif.g08.bks.cpg/sg37_4_cif.got.tgz:6139.got - 2010.06.03 17:53:42.
