data_PCOD9355365
_publ_section_title
;
Structure prediction by ZEFSAII (Michael W. Deem and Ramdas Pophale) SiO2 
 PCOD9355365
Probable space group: C C C 2
;
_chemical_formula_sum "Si O2"
_cell_formula_units_Z 32
_cell_length_a 11.573766
_cell_length_b 8.367962
_cell_length_c 13.274158
_cell_angle_alpha 90.000000
_cell_angle_beta 90.000000
_cell_angle_gamma 90.000000
_cell_volume 1285.586726
_symmetry_space_group_name_H-M "C C C 2"
_symmetry_group_IT_number 37
_symmetry_cell_setting 'orthorhombic'
loop_
_space_group_symop_operation_xyz
x,y,z
-x,-y,z
-x,y,1/2+z
x,-y,1/2+z
1/2+x,1/2+y,z
1/2-x,1/2-y,z
1/2-x,1/2+y,1/2+z
1/2+x,1/2-y,1/2+z
loop_
_atom_site_type_symbol
_atom_site_label
_atom_site_fract_x
_atom_site_fract_y
_atom_site_fract_z
Si Si1 0.931315 0.149943 0.128910
Si Si2 0.641333 0.856414 0.078795
Si Si3 0.870340 0.442068 0.272729
Si Si4 0.251765 0.428378 0.449496
O O1 0.881780 0.273449 0.212486
O O2 0.030342 0.249201 0.073023
O O3 0.846049 0.084673 0.040774
O O4 0.000000 0.000000 0.176991
O O5 0.750000 0.750000 0.047202
O O6 0.658213 0.922461 0.190414
O O7 0.640848 0.014837 0.012517
O O8 0.767480 0.454875 0.354378
O O9 0.000000 0.500000 0.308102
O O10 0.250000 0.250000 0.407997
#
# Coordination Sequence:
#
# PCOD9355365 Si02
#       4
#     8   8   8   8
#     4  11  24  49  79 111 163 218 274 344 410 494
#     4  11  23  47  73 112 159 206 272 344 399 491
#     4  10  25  46  78 115 159 214 274 333 419 491
#     4  12  25  46  80 114 157 214 271 340 410 483
#
# _framework density 24.891359999999999
#
# number of rings (size 3 to 8) (size 9 to 14) (size 15 to 20)
#    0.000    1.000    5.000    0.750    3.500    0.000 
#    4.500    1.250    0.000    0.000    0.000    0.000 
#    0.000    0.000    0.000    0.000    0.000    0.000 
#
# Total GULP energy -89182.473549 kJ/mol
# GULP energy per Si atom -5573.904597 kJ/mol
# Density = 2.483471 g / cm^3
# Si number density = 24.891360 Si / 1000 Ang^3
#
#
#
# Elastic Constant Matrix: (Units=GPa)
#
#
# Indices 1 2 3 4 5 6 
#
# 1 118.8300 89.9449 59.3403 0.0000 0.0000 0.0000
# 2 89.9449 178.5716 58.7484 0.0000 0.0000 0.0000
# 3 59.3403 58.7484 109.3115 0.0000 0.0000 0.0000
# 4 0.0000 0.0000 0.0000 37.1626 0.0000 0.0000
# 5 0.0000 0.0000 0.0000 0.0000 28.5976 0.0000
# 6 0.0000 0.0000 0.0000 0.0000 0.0000 55.9011
#
#
#
# Elastic Compliance Matrix: (Units=1/GPa)
#
#
# Indices 1 2 3 4 5 6 
#
# 1 0.015701 -0.006201 -0.005191 0.000000 0.000000 0.000000
# 2 -0.006201 0.009252 -0.001606 0.000000 0.000000 0.000000
# 3 -0.005191 -0.001606 0.012829 0.000000 0.000000 0.000000
# 4 0.000000 0.000000 0.000000 0.026909 0.000000 0.000000
# 5 0.000000 0.000000 0.000000 0.000000 0.034968 0.000000
# 6 0.000000 0.000000 0.000000 0.000000 0.000000 0.017889
#
#
# Mechanical properties :
#
#
# Convention : Reuss Voigt Hill
#
# Bulk Modulus (GPa) = 84.84269 91.42002 88.13136
# Shear Modulus (GPa) = 33.90485 37.57756 35.74120
#
# Velocity S-wave (km/s) = 3.69469 3.88965 3.79342
# Velocity P-wave (km/s) = 7.23603 7.54850 7.39392
#
# Compressibility (1/GPa) = 0.01178652
#
# Stress axis : x y z
#
# Youngs Moduli (GPa) = 63.69021 108.08903 77.94691
#
# Poissons Ratio (x) = 0.67023 0.40461
# Poissons Ratio (y) = 0.39492 0.12519
# Poissons Ratio (z) = 0.33061 0.17360
#
# Static dielectric constant tensor:
#      x y z
#    x 2.023930 0.000000 0.000000 
#    y 0.000000 2.054470 0.000000 
#    z 0.000000 0.000000 2.056460 
# 
# From -- ./inp_files/7552.got.cif
#   From: 2010.05.17/outbox.cif.g08.bks.cpg/sg37_4_cif.got.tgz:7552.got - 2010.06.03 17:53:42.
