data_PCOD9355996
_publ_section_title
;
Structure prediction by ZEFSAII (Michael W. Deem and Ramdas Pophale) SiO2 
 PCOD9355996
Probable space group: A M M 2
;
_chemical_formula_sum "Si O2"
_cell_formula_units_Z 64
_cell_length_a 8.938178
_cell_length_b 27.231429
_cell_length_c 18.858155
_cell_angle_alpha 90.000000
_cell_angle_beta 90.000000
_cell_angle_gamma 90.000000
_cell_volume 4590.062850
_symmetry_space_group_name_H-M "A M M 2"
_symmetry_group_IT_number 38
_symmetry_cell_setting 'orthorhombic'
loop_
_space_group_symop_operation_xyz
x,y,z
-x,-y,z
-x,y,z
x,-y,z
x,1/2+y,1/2+z
-x,1/2-y,1/2+z
-x,1/2+y,1/2+z
x,1/2-y,1/2+z
loop_
_atom_site_type_symbol
_atom_site_label
_atom_site_fract_x
_atom_site_fract_y
_atom_site_fract_z
Si Si1 0.180097 0.760339 0.435440
Si Si2 0.680173 0.146341 0.356159
Si Si3 0.180845 0.148919 0.688766
Si Si4 0.327888 0.198434 0.219217
Si Si5 0.820812 0.557537 0.936508
Si Si6 0.182024 0.944533 0.600272
Si Si7 0.327105 0.297942 0.314367
Si Si8 0.179224 0.754834 0.598515
O O1 0.248424 0.810805 0.404598
O O2 0.238892 0.716722 0.385119
O O3 0.227533 0.753288 0.516945
O O4 0.000000 0.763232 0.431987
O O5 0.500000 0.150576 0.358906
O O6 0.726916 0.157381 0.274642
O O7 0.735651 0.094610 0.385562
O O8 0.230514 0.097781 0.653909
O O9 0.251607 0.161329 0.764675
O O10 0.222752 0.193382 0.635208
O O11 0.000000 0.149062 0.694797
O O12 0.500000 0.188419 0.201005
O O13 0.323425 0.248172 0.266730
O O14 0.239433 0.211456 0.148403
O O15 0.792496 0.500000 0.922089
O O16 0.000000 0.565606 0.931078
O O17 0.776890 0.566896 0.018732
O O18 0.000000 0.944860 0.601217
O O19 0.231892 0.000000 0.617298
O O20 0.500000 0.309118 0.329396
O O21 0.000000 0.753145 0.599355
#
# Coordination Sequence:
#
# PCOD9355996 Si02
#       8
#     8   8   8   8   8   8   8   8
#     4  10  18  28  42  60  81 105 135 168 200 237
#     4  10  19  29  41  59  82 109 139 167 199 238
#     4   9  15  25  41  58  77 105 137 165 198 236
#     4   8  16  28  39  53  76 104 132 162 195 234
#     4   9  17  29  44  61  81 107 139 172 203 234
#     4   8  14  25  41  60  81 105 137 175 206 233
#     4   9  17  28  39  55  79 105 133 164 198 235
#     4   9  17  26  39  59  79 101 132 167 199 234
#
# _framework density 13.943163999999999
#
# number of rings (size 3 to 8) (size 9 to 14) (size 15 to 20)
#    0.000    3.000    0.000    3.375    0.000    6.750 
#    0.000    3.125    0.000    1.125    0.000    0.000 
#    0.000    1.000    0.000    9.000    0.000    5.250 
#
# Total GULP energy -178158.086720 kJ/mol
# GULP energy per Si atom -5567.440210 kJ/mol
# Density = 1.391143 g / cm^3
# Si number density = 13.943164 Si / 1000 Ang^3
#
#
#
# Elastic Constant Matrix: (Units=GPa)
#
#
# Indices 1 2 3 4 5 6 
#
# 1 32.7937 25.4140 35.9133 0.0000 0.0000 0.0000
# 2 25.4140 71.7208 47.5680 0.0000 0.0000 0.0000
# 3 35.9133 47.5680 101.5985 0.0000 0.0000 0.0000
# 4 0.0000 0.0000 0.0000 27.2181 0.0000 0.0000
# 5 0.0000 0.0000 0.0000 0.0000 9.7951 0.0000
# 6 0.0000 0.0000 0.0000 0.0000 0.0000 14.0073
#
#
#
# Elastic Compliance Matrix: (Units=1/GPa)
#
#
# Indices 1 2 3 4 5 6 
#
# 1 0.053754 -0.009348 -0.014624 0.000000 0.000000 0.000000
# 2 -0.009348 0.021848 -0.006925 0.000000 0.000000 0.000000
# 3 -0.014624 -0.006925 0.018254 0.000000 0.000000 0.000000
# 4 0.000000 0.000000 0.000000 0.036740 0.000000 0.000000
# 5 0.000000 0.000000 0.000000 0.000000 0.102092 0.000000
# 6 0.000000 0.000000 0.000000 0.000000 0.000000 0.071391
#
#
# Mechanical properties :
#
#
# Convention : Reuss Voigt Hill
#
# Bulk Modulus (GPa) = 31.18979 47.10039 39.14509
# Shear Modulus (GPa) = 13.27806 16.68528 14.98167
#
# Velocity S-wave (km/s) = 3.08928 3.46304 3.28148
# Velocity P-wave (km/s) = 5.92813 7.06001 6.51868
#
# Compressibility (1/GPa) = 0.03206177
#
# Stress axis : x y z
#
# Youngs Moduli (GPa) = 18.60344 45.77024 54.78165
#
# Poissons Ratio (x) = 0.42786 0.80114
# Poissons Ratio (y) = 0.17390 0.37936
# Poissons Ratio (z) = 0.27206 0.31695
#
# Static dielectric constant tensor:
#      x y z
#    x 1.468830 0.000000 0.000000 
#    y 0.000000 1.450770 0.000000 
#    z 0.000000 0.000000 1.457000 
# 
# From -- ./inp_files/17344.got.cif
#   From: 2010.05.17/outbox.cif.g08.bks.cpg/sg38_9_cif.got.tgz:17344.got - 2010.06.03 18:07:57.
