data_PCOD9355257
_publ_section_title
;
Structure prediction by ZEFSAII (Michael W. Deem and Ramdas Pophale) SiO2 
 PCOD9355257
Probable space group: C C C 2
;
_chemical_formula_sum "Si O2"
_cell_formula_units_Z 56
_cell_length_a 14.118954
_cell_length_b 5.631053
_cell_length_c 28.769511
_cell_angle_alpha 90.000000
_cell_angle_beta 90.000000
_cell_angle_gamma 90.000000
_cell_volume 2287.307839
_symmetry_space_group_name_H-M "C C C 2"
_symmetry_group_IT_number 37
_symmetry_cell_setting 'orthorhombic'
loop_
_space_group_symop_operation_xyz
x,y,z
-x,-y,z
-x,y,1/2+z
x,-y,1/2+z
1/2+x,1/2+y,z
1/2-x,1/2-y,z
1/2-x,1/2+y,1/2+z
1/2+x,1/2-y,1/2+z
loop_
_atom_site_type_symbol
_atom_site_label
_atom_site_fract_x
_atom_site_fract_y
_atom_site_fract_z
Si Si1 0.500000 0.000000 0.199100
Si Si2 0.394502 0.599671 0.310705
Si Si3 0.391698 0.556838 0.032629
Si Si4 0.359628 0.327114 0.639384
Si Si5 0.896811 0.559544 0.001647
Si Si6 0.147654 0.377994 0.900378
Si Si7 0.250000 0.250000 0.358565
Si Si8 0.647003 0.362301 0.723459
O O1 0.571688 0.142047 0.165292
O O2 0.435095 0.169276 0.231449
O O3 0.500000 0.500000 0.314459
O O4 0.391818 0.800479 0.350209
O O5 0.306840 0.434830 0.327578
O O6 0.370239 0.594707 0.255782
O O7 0.500000 0.500000 0.017820
O O8 0.387360 0.623981 0.086692
O O9 0.350208 0.290897 0.025218
O O10 0.353231 0.793774 0.006529
O O11 0.250000 0.250000 0.641327
O O12 0.365849 0.563262 0.670300
O O13 0.000000 0.500000 0.022753
O O14 0.907544 0.642184 0.947997
O O15 0.250000 0.250000 0.907039
O O16 0.170230 0.650646 0.892206
O O17 0.750000 0.250000 0.730361
#
# Coordination Sequence:
#
# PCOD9355257 Si02
#       8
#     4   8   8   8   8   8   4   8
#     4  12  26  48  80 106 156 206 242 330 386 460
#     4  11  25  44  72 104 143 194 248 311 380 453
#     4  10  24  44  72 109 154 197 254 321 388 465
#     4  12  27  46  78 111 153 200 262 316 391 466
#     4  10  24  43  75 106 147 199 254 314 391 465
#     4  10  25  44  69  99 147 189 248 312 384 452
#     4  10  24  44  66 102 142 190 244 314 374 460
#     4  12  26  50  76 110 155 201 262 315 391 467
#
# _framework density 24.482931000000001
#
# number of rings (size 3 to 8) (size 9 to 14) (size 15 to 20)
#    0.000    1.143    2.143    2.143   11.000    5.714 
#    2.571    0.000    0.000    0.000    0.000    0.000 
#    0.000    0.000    0.000    0.000    0.000    0.000 
#
# Total GULP energy -156224.050485 kJ/mol
# GULP energy per Si atom -5579.430374 kJ/mol
# Density = 2.442721 g / cm^3
# Si number density = 24.482931 Si / 1000 Ang^3
#
#
#
# Elastic Constant Matrix: (Units=GPa)
#
#
# Indices 1 2 3 4 5 6 
#
# 1 128.8188 29.7896 12.2749 0.0000 0.0000 0.0000
# 2 29.7896 122.5471 40.3779 0.0000 0.0000 0.0000
# 3 12.2749 40.3779 139.2110 0.0000 0.0000 0.0000
# 4 0.0000 0.0000 0.0000 215.9413 0.0000 0.0000
# 5 0.0000 0.0000 0.0000 0.0000 29.4047 0.0000
# 6 0.0000 0.0000 0.0000 0.0000 0.0000 13.8002
#
#
#
# Elastic Compliance Matrix: (Units=1/GPa)
#
#
# Indices 1 2 3 4 5 6 
#
# 1 0.008228 -0.001947 -0.000161 0.000000 0.000000 0.000000
# 2 -0.001947 0.009483 -0.002579 0.000000 0.000000 0.000000
# 3 -0.000161 -0.002579 0.007946 0.000000 0.000000 0.000000
# 4 0.000000 0.000000 0.000000 0.004631 0.000000 0.000000
# 5 0.000000 0.000000 0.000000 0.000000 0.034008 0.000000
# 6 0.000000 0.000000 0.000000 0.000000 0.000000 0.072463
#
#
# Mechanical properties :
#
#
# Convention : Reuss Voigt Hill
#
# Bulk Modulus (GPa) = 61.41227 61.71796 61.56511
# Shear Modulus (GPa) = 32.99013 72.37155 52.68084
#
# Velocity S-wave (km/s) = 3.67478 5.44281 4.64371
# Velocity P-wave (km/s) = 6.56837 8.04750 7.34526
#
# Compressibility (1/GPa) = 0.01628339
#
# Stress axis : x y z
#
# Youngs Moduli (GPa) = 121.52927 105.44967 125.85722
#
# Poissons Ratio (x) = 0.20534 0.02023
# Poissons Ratio (y) = 0.23665 0.32457
# Poissons Ratio (z) = 0.01954 0.27194
#
# Static dielectric constant tensor:
#      x y z
#    x 1.955140 0.000000 0.000000 
#    y 0.000000 1.865580 0.000000 
#    z 0.000000 0.000000 1.937690 
# 
# From -- ./inp_files/20574.got.cif
#   From: 2010.05.17/outbox.cif.g08.bks.cpg/sg37_11_cif.got.tgz:20574.got - 2010.06.03 17:53:42.
