data_PCOD9355216
_publ_section_title
;
Structure prediction by ZEFSAII (Michael W. Deem and Ramdas Pophale) SiO2 
 PCOD9355216
Probable space group: C C C 2
;
_chemical_formula_sum "Si O2"
_cell_formula_units_Z 60
_cell_length_a 5.903821
_cell_length_b 24.799433
_cell_length_c 17.367772
_cell_angle_alpha 90.000000
_cell_angle_beta 90.000000
_cell_angle_gamma 90.000000
_cell_volume 2542.840045
_symmetry_space_group_name_H-M "C C C 2"
_symmetry_group_IT_number 37
_symmetry_cell_setting 'orthorhombic'
loop_
_space_group_symop_operation_xyz
x,y,z
-x,-y,z
-x,y,1/2+z
x,-y,1/2+z
1/2+x,1/2+y,z
1/2-x,1/2-y,z
1/2-x,1/2+y,1/2+z
1/2+x,1/2-y,1/2+z
loop_
_atom_site_type_symbol
_atom_site_label
_atom_site_fract_x
_atom_site_fract_y
_atom_site_fract_z
Si Si1 0.862907 0.415298 0.122350
Si Si2 0.480776 0.339574 0.543611
Si Si3 0.000707 0.192516 0.882721
Si Si4 0.073234 0.061303 0.761485
Si Si5 0.991509 0.312699 0.825576
Si Si6 0.760398 0.643634 0.180651
Si Si7 0.000000 0.500000 0.516076
Si Si8 0.627236 0.556508 0.942675
O O1 0.742414 0.363528 0.084838
O O2 0.790926 0.428060 0.209181
O O3 0.830199 0.468122 0.071669
O O4 0.123972 0.401404 0.127162
O O5 0.490095 0.296878 0.474651
O O6 0.630455 0.321764 0.616789
O O7 0.552328 0.392700 0.493078
O O8 0.745400 0.167461 0.867039
O O9 0.992463 0.248433 0.836440
O O10 0.256747 0.170825 0.858241
O O11 0.095252 0.064990 0.852400
O O12 0.908861 0.108561 0.732264
O O13 0.000000 0.000000 0.743884
O O14 0.939987 0.327924 0.736683
O O15 0.113745 0.544137 0.462431
O O16 0.500000 0.500000 0.959036
#
# Coordination Sequence:
#
# PCOD9355216 Si02
#       8
#     8   8   8   8   8   8   4   8
#     4  11  24  39  65  97 137 189 234 297 359 429
#     4  11  24  41  68 102 141 183 243 300 367 436
#     4  10  24  48  76 105 144 181 242 305 379 441
#     4  10  24  41  62  95 139 189 244 293 349 433
#     4  10  24  47  78 104 138 191 234 306 378 444
#     4  11  24  42  69 101 138 189 245 300 369 448
#     4  12  22  38  62  94 146 190 236 292 358 408
#     4  11  23  40  58  94 137 186 238 289 340 427
#
# _framework density 23.595662000000001
#
# number of rings (size 3 to 8) (size 9 to 14) (size 15 to 20)
#    0.000    1.333    2.667    1.600    9.333    2.667 
#    0.000    2.667    0.000    0.000    0.000    0.000 
#    0.000    0.000    0.000    0.000    0.000    0.000 
#
# Total GULP energy -167106.693661 kJ/mol
# GULP energy per Si atom -5570.223122 kJ/mol
# Density = 2.354196 g / cm^3
# Si number density = 23.595662 Si / 1000 Ang^3
#
#
#
# Elastic Constant Matrix: (Units=GPa)
#
#
# Indices 1 2 3 4 5 6 
#
# 1 98.6285 -4.6311 45.8838 0.0000 0.0000 0.0000
# 2 -4.6311 47.5092 6.5231 0.0000 0.0000 0.0000
# 3 45.8838 6.5231 159.0788 0.0000 0.0000 0.0000
# 4 0.0000 0.0000 0.0000 25.3679 0.0000 0.0000
# 5 0.0000 0.0000 0.0000 0.0000 17.0684 0.0000
# 6 0.0000 0.0000 0.0000 0.0000 0.0000 18.3182
#
#
#
# Elastic Compliance Matrix: (Units=1/GPa)
#
#
# Indices 1 2 3 4 5 6 
#
# 1 0.011835 0.001632 -0.003480 0.000000 0.000000 0.000000
# 2 0.001632 0.021393 -0.001348 0.000000 0.000000 0.000000
# 3 -0.003480 -0.001348 0.007345 0.000000 0.000000 0.000000
# 4 0.000000 0.000000 0.000000 0.039420 0.000000 0.000000
# 5 0.000000 0.000000 0.000000 0.000000 0.058588 0.000000
# 6 0.000000 0.000000 0.000000 0.000000 0.000000 0.054591
#
#
# Mechanical properties :
#
#
# Convention : Reuss Voigt Hill
#
# Bulk Modulus (GPa) = 29.25746 44.52978 36.89362
# Shear Modulus (GPa) = 23.70142 29.31361 26.50752
#
# Velocity S-wave (km/s) = 3.17280 3.52849 3.35536
# Velocity P-wave (km/s) = 5.08415 5.95931 5.53904
#
# Compressibility (1/GPa) = 0.03417932
#
# Stress axis : x y z
#
# Youngs Moduli (GPa) = 84.49623 46.74505 136.14059
#
# Poissons Ratio (x) = -0.07627 0.47383
# Poissons Ratio (y) = -0.13786 0.18349
# Poissons Ratio (z) = 0.29409 0.06300
#
# Static dielectric constant tensor:
#      x y z
#    x 2.011230 0.000000 0.000000 
#    y 0.000000 1.958100 0.000000 
#    z 0.000000 0.000000 1.886670 
# 
# From -- ./inp_files/14033.got.cif
#   From: 2010.05.17/outbox.cif.g08.bks.cpg/sg37_8_cif.got.tgz:14033.got - 2010.06.03 17:53:42.
