data_PCOD9355301
_publ_section_title
;
Structure prediction by ZEFSAII (Michael W. Deem and Ramdas Pophale) SiO2 
 PCOD9355301
Probable space group: C C C 2
;
_chemical_formula_sum "Si O2"
_cell_formula_units_Z 60
_cell_length_a 5.270965
_cell_length_b 22.698273
_cell_length_c 20.615728
_cell_angle_alpha 90.000000
_cell_angle_beta 90.000000
_cell_angle_gamma 90.000000
_cell_volume 2466.502859
_symmetry_space_group_name_H-M "C C C 2"
_symmetry_group_IT_number 37
_symmetry_cell_setting 'orthorhombic'
loop_
_space_group_symop_operation_xyz
x,y,z
-x,-y,z
-x,y,1/2+z
x,-y,1/2+z
1/2+x,1/2+y,z
1/2-x,1/2-y,z
1/2-x,1/2+y,1/2+z
1/2+x,1/2-y,1/2+z
loop_
_atom_site_type_symbol
_atom_site_label
_atom_site_fract_x
_atom_site_fract_y
_atom_site_fract_z
Si Si1 0.368036 0.563939 0.024520
Si Si2 0.554653 0.803733 0.948431
Si Si3 0.000000 0.000000 0.832194
Si Si4 0.076674 0.892884 0.400814
Si Si5 0.014910 0.715553 0.091624
Si Si6 0.768240 0.683871 0.314243
Si Si7 0.862382 0.410744 0.602410
Si Si8 0.138739 0.437769 0.248043
O O1 0.500000 0.500000 0.018637
O O2 0.093974 0.563492 0.059070
O O3 0.585549 0.595174 0.069020
O O4 0.353988 0.592059 0.952526
O O5 0.750000 0.750000 0.949626
O O6 0.714145 0.862952 0.944665
O O7 0.412473 0.801899 0.880961
O O8 0.411898 0.799801 0.016610
O O9 0.832672 0.957024 0.876861
O O10 0.103664 0.950890 0.784904
O O11 0.987312 0.846144 0.345783
O O12 0.750000 0.750000 0.091960
O O13 0.250000 0.750000 0.121104
O O14 0.961943 0.653363 0.122615
O O15 0.750000 0.750000 0.282006
O O16 0.908874 0.629712 0.274911
O O17 0.833511 0.441961 0.671271
O O18 0.000000 0.500000 0.267040
#
# Coordination Sequence:
#
# PCOD9355301 Si02
#       8
#     8   8   4   8   8   8   8   8
#     4  12  25  46  70 110 146 185 241 310 374 438
#     4  11  21  36  65  98 142 180 228 289 369 440
#     4  10  24  46  70 100 142 184 248 300 374 436
#     4  11  22  41  68 106 142 183 233 305 374 442
#     4  11  24  42  68 104 146 186 236 300 371 436
#     4  11  23  42  68 101 139 182 245 295 364 432
#     4  12  27  46  74 102 144 195 248 300 364 442
#     4  11  26  47  70  97 138 194 244 298 356 439
#
# _framework density 24.325942000000001
#
# number of rings (size 3 to 8) (size 9 to 14) (size 15 to 20)
#    0.000    0.800    3.333    4.000    6.533    0.533 
#    0.000    0.667    0.000    0.000    0.000    0.000 
#    0.000    0.000    0.000    0.000    0.000    0.000 
#
# Total GULP energy -167163.742571 kJ/mol
# GULP energy per Si atom -5572.124752 kJ/mol
# Density = 2.427058 g / cm^3
# Si number density = 24.325942 Si / 1000 Ang^3
#
#
#
# Elastic Constant Matrix: (Units=GPa)
#
#
# Indices 1 2 3 4 5 6 
#
# 1 55.6012 21.5889 0.5641 0.0000 0.0000 0.0000
# 2 21.5889 154.0446 24.5014 0.0000 0.0000 0.0000
# 3 0.5641 24.5014 63.6275 0.0000 0.0000 0.0000
# 4 0.0000 0.0000 0.0000 57.0932 0.0000 0.0000
# 5 0.0000 0.0000 0.0000 0.0000 18.3501 0.0000
# 6 0.0000 0.0000 0.0000 0.0000 0.0000 34.5345
#
#
#
# Elastic Compliance Matrix: (Units=1/GPa)
#
#
# Indices 1 2 3 4 5 6 
#
# 1 0.019070 -0.002818 0.000916 0.000000 0.000000 0.000000
# 2 -0.002818 0.007332 -0.002798 0.000000 0.000000 0.000000
# 3 0.000916 -0.002798 0.016786 0.000000 0.000000 0.000000
# 4 0.000000 0.000000 0.000000 0.017515 0.000000 0.000000
# 5 0.000000 0.000000 0.000000 0.000000 0.054495 0.000000
# 6 0.000000 0.000000 0.000000 0.000000 0.000000 0.028957
#
#
# Mechanical properties :
#
#
# Convention : Reuss Voigt Hill
#
# Bulk Modulus (GPa) = 29.59718 40.73134 35.16426
# Shear Modulus (GPa) = 30.33644 37.10349 33.71997
#
# Velocity S-wave (km/s) = 3.53524 3.90970 3.72717
# Velocity P-wave (km/s) = 5.37189 6.09601 5.74537
#
# Compressibility (1/GPa) = 0.03378700
#
# Stress axis : x y z
#
# Youngs Moduli (GPa) = 52.43773 136.39423 59.57377
#
# Poissons Ratio (x) = 0.38441 -0.05458
# Poissons Ratio (y) = 0.14779 0.16670
# Poissons Ratio (z) = -0.04804 0.38167
#
# Static dielectric constant tensor:
#      x y z
#    x 1.788660 0.000000 0.000000 
#    y 0.000000 1.588100 0.000000 
#    z 0.000000 0.000000 1.892800 
# 
# From -- ./inp_files/15970.got.cif
#   From: 2010.05.17/outbox.cif.g08.bks.cpg/sg37_8_cif.got.tgz:15970.got - 2010.06.03 17:53:42.
