data_PCOD9355481
_publ_section_title
;
Structure prediction by ZEFSAII (Michael W. Deem and Ramdas Pophale) SiO2 
 PCOD9355481
Probable space group: C C C 2
;
_chemical_formula_sum "Si O2"
_cell_formula_units_Z 64
_cell_length_a 14.446517
_cell_length_b 20.111063
_cell_length_c 11.700686
_cell_angle_alpha 90.000000
_cell_angle_beta 90.000000
_cell_angle_gamma 90.000000
_cell_volume 3399.456625
_symmetry_space_group_name_H-M "C C C 2"
_symmetry_group_IT_number 37
_symmetry_cell_setting 'orthorhombic'
loop_
_space_group_symop_operation_xyz
x,y,z
-x,-y,z
-x,y,1/2+z
x,-y,1/2+z
1/2+x,1/2+y,z
1/2-x,1/2-y,z
1/2-x,1/2+y,1/2+z
1/2+x,1/2-y,1/2+z
loop_
_atom_site_type_symbol
_atom_site_label
_atom_site_fract_x
_atom_site_fract_y
_atom_site_fract_z
Si Si1 0.662296 0.796993 0.140320
Si Si2 0.703230 0.913986 0.963567
Si Si3 0.935377 0.435187 0.251928
Si Si4 0.689650 0.938057 0.525596
Si Si5 0.325480 0.691490 0.344302
Si Si6 0.585290 0.854357 0.350374
Si Si7 0.683193 0.686275 0.572080
Si Si8 0.506272 0.740727 0.992499
O O1 0.750000 0.750000 0.118872
O O2 0.659443 0.816494 0.273166
O O3 0.669369 0.863406 0.062318
O O4 0.570911 0.757245 0.100783
O O5 0.625975 0.926109 0.865851
O O6 0.786932 0.875214 0.902635
O O7 0.725138 0.986832 0.012224
O O8 0.871943 0.434097 0.140267
O O9 0.000000 0.500000 0.250895
O O10 0.007548 0.375069 0.259082
O O11 0.627390 0.917097 0.416621
O O12 0.766729 0.880983 0.533341
O O13 0.250000 0.750000 0.366188
O O14 0.329180 0.684025 0.208695
O O15 0.422666 0.712359 0.398778
O O16 0.538140 0.808152 0.443979
O O17 0.750000 0.750000 0.546788
O O18 0.582016 0.695649 0.518947
#
# Coordination Sequence:
#
# PCOD9355481 Si02
#       8
#     8   8   8   8   8   8   8   8
#     4  12  25  42  67  99 134 176 224 280 334 396
#     4  12  23  44  67  97 138 173 222 269 344 409
#     4  12  24  41  65 101 138 177 219 267 346 419
#     4  12  27  43  64  98 143 177 217 280 339 408
#     4  11  21  44  72  96 130 182 227 276 336 406
#     4  12  25  37  63 100 137 171 219 278 334 403
#     4  11  25  43  67  97 136 178 227 280 332 404
#     4  12  22  42  68 100 127 177 226 281 336 395
#
# _framework density 18.826537999999999
#
# number of rings (size 3 to 8) (size 9 to 14) (size 15 to 20)
#    0.000    0.250    7.500    2.250    5.250    0.000 
#    0.000    0.625    0.000    1.500    0.000    0.000 
#    0.000    0.000    0.000    0.000    0.000    0.000 
#
# Total GULP energy -178864.577649 kJ/mol
# GULP energy per Si atom -5589.518052 kJ/mol
# Density = 1.878369 g / cm^3
# Si number density = 18.826538 Si / 1000 Ang^3
#
#
#
# Elastic Constant Matrix: (Units=GPa)
#
#
# Indices 1 2 3 4 5 6 
#
# 1 107.5012 58.0977 32.0643 0.0000 0.0000 0.0000
# 2 58.0977 122.3045 24.8907 0.0000 0.0000 0.0000
# 3 32.0643 24.8907 65.5802 0.0000 0.0000 0.0000
# 4 0.0000 0.0000 0.0000 27.1318 0.0000 0.0000
# 5 0.0000 0.0000 0.0000 0.0000 22.9687 0.0000
# 6 0.0000 0.0000 0.0000 0.0000 0.0000 32.4051
#
#
#
# Elastic Compliance Matrix: (Units=1/GPa)
#
#
# Indices 1 2 3 4 5 6 
#
# 1 0.013674 -0.005565 -0.004573 0.000000 0.000000 0.000000
# 2 -0.005565 0.011125 -0.001502 0.000000 0.000000 0.000000
# 3 -0.004573 -0.001502 0.018055 0.000000 0.000000 0.000000
# 4 0.000000 0.000000 0.000000 0.036857 0.000000 0.000000
# 5 0.000000 0.000000 0.000000 0.000000 0.043538 0.000000
# 6 0.000000 0.000000 0.000000 0.000000 0.000000 0.030859
#
#
# Mechanical properties :
#
#
# Convention : Reuss Voigt Hill
#
# Bulk Modulus (GPa) = 51.08878 58.38792 54.73835
# Shear Modulus (GPa) = 27.18692 28.52333 27.85513
#
# Velocity S-wave (km/s) = 3.80422 3.89660 3.85069
# Velocity P-wave (km/s) = 6.81848 7.16419 6.99347
#
# Compressibility (1/GPa) = 0.01957377
#
# Stress axis : x y z
#
# Youngs Moduli (GPa) = 73.13339 89.88556 55.38739
#
# Poissons Ratio (x) = 0.50017 0.25331
# Poissons Ratio (y) = 0.40695 0.08318
# Poissons Ratio (z) = 0.33447 0.13500
#
# Static dielectric constant tensor:
#      x y z
#    x 1.644010 0.000000 0.000000 
#    y 0.000000 1.649420 0.000000 
#    z 0.000000 0.000000 1.671360 
# 
# From -- ./inp_files/7983.got.cif
#   From: 2010.05.17/outbox.cif.g08.bks.cpg/sg37_4_cif.got.tgz:7983.got - 2010.06.03 17:53:42.
