data_PCOD9355157
_publ_section_title
;
Structure prediction by ZEFSAII (Michael W. Deem and Ramdas Pophale) SiO2 
 PCOD9355157
Probable space group: C C C 2
;
_chemical_formula_sum "Si O2"
_cell_formula_units_Z 48
_cell_length_a 11.469314
_cell_length_b 18.032133
_cell_length_c 10.505071
_cell_angle_alpha 90.000000
_cell_angle_beta 90.000000
_cell_angle_gamma 90.000000
_cell_volume 2172.618817
_symmetry_space_group_name_H-M "C C C 2"
_symmetry_group_IT_number 37
_symmetry_cell_setting 'orthorhombic'
loop_
_space_group_symop_operation_xyz
x,y,z
-x,-y,z
-x,y,1/2+z
x,-y,1/2+z
1/2+x,1/2+y,z
1/2-x,1/2-y,z
1/2-x,1/2+y,1/2+z
1/2+x,1/2-y,1/2+z
loop_
_atom_site_type_symbol
_atom_site_label
_atom_site_fract_x
_atom_site_fract_y
_atom_site_fract_z
Si Si1 0.795795 0.096522 0.729090
Si Si2 0.000000 0.500000 0.568374
Si Si3 0.786277 0.442388 0.232777
Si Si4 0.953140 0.870368 0.715499
Si Si5 0.005788 0.226508 0.968715
Si Si6 0.750000 0.750000 0.372980
Si Si7 0.345368 0.129167 0.979190
O O1 0.764971 0.174021 0.794773
O O2 0.750541 0.107225 0.584369
O O3 0.932314 0.080872 0.739965
O O4 0.733718 0.024947 0.789213
O O5 0.100200 0.456766 0.647878
O O6 0.059955 0.564166 0.489393
O O7 0.662384 0.415732 0.176229
O O8 0.804005 0.378832 0.336036
O O9 0.991152 0.822536 0.593829
O O10 0.949707 0.818626 0.843406
O O11 0.095927 0.291911 0.000014
O O12 0.874337 0.256756 0.943739
#
# Coordination Sequence:
#
# PCOD9355157 Si02
#       7
#     8   4   8   8   8   4   8
#     4  10  23  45  66  99 140 187 225 299 360 416
#     4  10  26  40  64 100 138 178 224 298 362 410
#     4  11  25  42  71  99 135 182 241 288 351 433
#     4  11  25  45  69 104 137 185 239 289 352 419
#     4  11  26  42  71 103 141 190 233 292 355 421
#     4  10  24  40  68  98 146 178 236 288 358 422
#     4  11  24  42  69  96 141 182 232 289 352 428
#
# _framework density 22.093154999999999
#
# number of rings (size 3 to 8) (size 9 to 14) (size 15 to 20)
#    0.000    1.333    0.000    4.000   11.667    6.000 
#    0.000    6.667    0.000    0.000    0.000    0.000 
#    0.000    0.000    0.000    0.000    0.000    0.000 
#
# Total GULP energy -133973.444875 kJ/mol
# GULP energy per Si atom -5582.226870 kJ/mol
# Density = 2.204287 g / cm^3
# Si number density = 22.093155 Si / 1000 Ang^3
#
#
#
# Elastic Constant Matrix: (Units=GPa)
#
#
# Indices 1 2 3 4 5 6 
#
# 1 112.3483 20.8877 3.9583 0.0000 0.0000 0.0000
# 2 20.8877 81.6970 13.1298 0.0000 0.0000 0.0000
# 3 3.9583 13.1298 49.5716 0.0000 0.0000 0.0000
# 4 0.0000 0.0000 0.0000 64.5874 0.0000 0.0000
# 5 0.0000 0.0000 0.0000 0.0000 23.4370 0.0000
# 6 0.0000 0.0000 0.0000 0.0000 0.0000 42.1939
#
#
#
# Elastic Compliance Matrix: (Units=1/GPa)
#
#
# Indices 1 2 3 4 5 6 
#
# 1 0.009346 -0.002370 -0.000118 0.000000 0.000000 0.000000
# 2 -0.002370 0.013386 -0.003356 0.000000 0.000000 0.000000
# 3 -0.000118 -0.003356 0.021071 0.000000 0.000000 0.000000
# 4 0.000000 0.000000 0.000000 0.015483 0.000000 0.000000
# 5 0.000000 0.000000 0.000000 0.000000 0.042668 0.000000
# 6 0.000000 0.000000 0.000000 0.000000 0.000000 0.023700
#
#
# Mechanical properties :
#
#
# Convention : Reuss Voigt Hill
#
# Bulk Modulus (GPa) = 31.14022 35.50758 33.32390
# Shear Modulus (GPa) = 33.77292 39.75306 36.76299
#
# Velocity S-wave (km/s) = 3.91405 4.24646 4.08364
# Velocity P-wave (km/s) = 5.87809 6.33640 6.11154
#
# Compressibility (1/GPa) = 0.03211281
#
# Stress axis : x y z
#
# Youngs Moduli (GPa) = 107.00023 74.70610 47.45809
#
# Poissons Ratio (x) = 0.17709 0.00562
# Poissons Ratio (y) = 0.25364 0.15928
# Poissons Ratio (z) = 0.01267 0.25072
#
# Static dielectric constant tensor:
#      x y z
#    x 1.852600 0.000000 0.000000 
#    y 0.000000 1.758100 0.000000 
#    z 0.000000 0.000000 1.825290 
# 
# From -- ./inp_files/7213.got.cif
#   From: 2010.05.17/outbox.cif.g08.bks.cpg/sg37_4_cif.got.tgz:7213.got - 2010.06.03 17:53:42.
