data_PCOD9355572
_publ_section_title
;
Structure prediction by ZEFSAII (Michael W. Deem and Ramdas Pophale) SiO2 
 PCOD9355572
Probable space group: C C C 2
;
_chemical_formula_sum "Si O2"
_cell_formula_units_Z 36
_cell_length_a 7.405621
_cell_length_b 15.886861
_cell_length_c 14.720379
_cell_angle_alpha 90.000000
_cell_angle_beta 90.000000
_cell_angle_gamma 90.000000
_cell_volume 1731.883082
_symmetry_space_group_name_H-M "C C C 2"
_symmetry_group_IT_number 37
_symmetry_cell_setting 'orthorhombic'
loop_
_space_group_symop_operation_xyz
x,y,z
-x,-y,z
-x,y,1/2+z
x,-y,1/2+z
1/2+x,1/2+y,z
1/2-x,1/2-y,z
1/2-x,1/2+y,1/2+z
1/2+x,1/2-y,1/2+z
loop_
_atom_site_type_symbol
_atom_site_label
_atom_site_fract_x
_atom_site_fract_y
_atom_site_fract_z
Si Si1 0.885789 0.828398 0.158820
Si Si2 0.569642 0.088314 0.987731
Si Si3 0.250000 0.250000 0.597407
Si Si4 0.198499 0.845885 0.461990
Si Si5 0.110642 0.915251 0.846353
O O1 0.750000 0.750000 0.161734
O O2 0.843830 0.881992 0.247300
O O3 0.090513 0.793905 0.154199
O O4 0.856199 0.876558 0.063175
O O5 0.386611 0.112985 0.935175
O O6 0.724452 0.071415 0.914455
O O7 0.500000 0.000000 0.035410
O O8 0.647338 0.171491 0.043142
O O9 0.250000 0.750000 0.472568
O O10 0.030486 0.853503 0.395988
O O11 0.000000 0.000000 0.836718
#
# Coordination Sequence:
#
# PCOD9355572 Si02
#       5
#     8   8   4   8   8
#     4  11  26  44  71 104 142 184 242 291 364 439
#     4  12  24  45  77 103 140 193 243 299 366 439
#     4  12  24  48  72 108 140 198 244 304 370 432
#     4  11  23  47  71 100 139 185 235 294 366 427
#     4  12  27  44  69 105 146 183 238 302 362 432
#
# _framework density 20.786622999999999
#
# number of rings (size 3 to 8) (size 9 to 14) (size 15 to 20)
#    0.000    0.444    8.889    0.000    6.222    2.667 
#    0.000    1.111    0.000    0.000    0.000    0.000 
#    0.000    0.000    0.000    0.000    0.000    0.000 
#
# Total GULP energy -100312.039094 kJ/mol
# GULP energy per Si atom -5572.891061 kJ/mol
# Density = 2.073931 g / cm^3
# Si number density = 20.786623 Si / 1000 Ang^3
#
#
#
# Elastic Constant Matrix: (Units=GPa)
#
#
# Indices 1 2 3 4 5 6 
#
# 1 109.2040 11.0274 -14.1871 0.0000 0.0000 0.0000
# 2 11.0274 74.9924 20.0464 0.0000 0.0000 0.0000
# 3 -14.1871 20.0464 56.4146 0.0000 0.0000 0.0000
# 4 0.0000 0.0000 0.0000 18.8123 0.0000 0.0000
# 5 0.0000 0.0000 0.0000 0.0000 30.4724 0.0000
# 6 0.0000 0.0000 0.0000 0.0000 0.0000 42.9791
#
#
#
# Elastic Compliance Matrix: (Units=1/GPa)
#
#
# Indices 1 2 3 4 5 6 
#
# 1 0.009820 -0.002325 0.003296 0.000000 0.000000 0.000000
# 2 -0.002325 0.015285 -0.006016 0.000000 0.000000 0.000000
# 3 0.003296 -0.006016 0.020692 0.000000 0.000000 0.000000
# 4 0.000000 0.000000 0.000000 0.053157 0.000000 0.000000
# 5 0.000000 0.000000 0.000000 0.000000 0.032817 0.000000
# 6 0.000000 0.000000 0.000000 0.000000 0.000000 0.023267
#
#
# Mechanical properties :
#
#
# Convention : Reuss Voigt Hill
#
# Bulk Modulus (GPa) = 28.00591 30.48715 29.24653
# Shear Modulus (GPa) = 28.24375 33.36772 30.80574
#
# Velocity S-wave (km/s) = 3.69012 4.01090 3.85385
# Velocity P-wave (km/s) = 5.62657 6.01235 5.82265
#
# Compressibility (1/GPa) = 0.03570675
#
# Stress axis : x y z
#
# Youngs Moduli (GPa) = 101.83183 65.42487 48.32691
#
# Poissons Ratio (x) = 0.15211 -0.15927
# Poissons Ratio (y) = 0.23676 0.29073
# Poissons Ratio (z) = -0.33561 0.39359
#
# Static dielectric constant tensor:
#      x y z
#    x 1.671080 0.000000 0.000000 
#    y 0.000000 1.827510 0.000000 
#    z 0.000000 0.000000 1.778560 
# 
# From -- ./inp_files/10293.got.cif
#   From: 2010.05.17/outbox.cif.g08.bks.cpg/sg37_6_cif.got.tgz:10293.got - 2010.06.03 17:53:42.
