data_PCOD9355128
_publ_section_title
;
Structure prediction by ZEFSAII (Michael W. Deem and Ramdas Pophale) SiO2 
 PCOD9355128
Probable space group: C C C 2
;
_chemical_formula_sum "Si O2"
_cell_formula_units_Z 52
_cell_length_a 5.957090
_cell_length_b 20.286440
_cell_length_c 20.129118
_cell_angle_alpha 90.000000
_cell_angle_beta 90.000000
_cell_angle_gamma 90.000000
_cell_volume 2432.566648
_symmetry_space_group_name_H-M "C C C 2"
_symmetry_group_IT_number 37
_symmetry_cell_setting 'orthorhombic'
loop_
_space_group_symop_operation_xyz
x,y,z
-x,-y,z
-x,y,1/2+z
x,-y,1/2+z
1/2+x,1/2+y,z
1/2-x,1/2-y,z
1/2-x,1/2+y,1/2+z
1/2+x,1/2-y,1/2+z
loop_
_atom_site_type_symbol
_atom_site_label
_atom_site_fract_x
_atom_site_fract_y
_atom_site_fract_z
Si Si1 0.201146 0.886252 0.225520
Si Si2 0.154140 0.094123 0.111766
Si Si3 0.750000 0.250000 0.158762
Si Si4 0.112232 0.071834 0.871493
Si Si5 0.000000 0.500000 0.164955
Si Si6 0.553335 0.207582 0.548650
Si Si7 0.500000 0.000000 0.943819
Si Si8 0.810299 0.111540 0.991935
O O1 0.280986 0.814339 0.202704
O O2 0.139846 0.891344 0.302383
O O3 0.388522 0.941260 0.207921
O O4 0.979891 0.897639 0.180527
O O5 0.336613 0.147924 0.089460
O O6 0.298084 0.028456 0.121263
O O7 0.972062 0.099025 0.053817
O O8 0.546228 0.254603 0.106258
O O9 0.964385 0.111412 0.925665
O O10 0.352318 0.051355 0.901508
O O11 0.000000 0.000000 0.859308
O O12 0.750000 0.250000 0.513480
O O13 0.355290 0.173803 0.505256
O O14 0.337914 0.953741 0.984997
#
# Coordination Sequence:
#
# PCOD9355128 Si02
#       8
#     8   8   4   8   4   8   4   8
#     4  12  25  44  73 103 142 190 237 299 358 439
#     4  12  24  41  70 105 141 176 236 297 361 424
#     4  12  24  48  72 100 140 186 236 288 364 428
#     4  10  23  43  68 104 144 186 240 306 368 432
#     4  12  25  39  68 114 139 177 238 304 361 429
#     4  12  23  44  71 100 138 189 234 300 359 431
#     4  10  23  43  70 100 143 193 234 304 367 437
#     4  11  24  43  69 103 142 186 240 297 363 429
#
# _framework density 21.376598999999999
#
# number of rings (size 3 to 8) (size 9 to 14) (size 15 to 20)
#    0.000    0.615    4.615    2.769    0.000   12.923 
#    0.000    0.000   16.923    0.000    0.000    0.000 
#    0.000    0.000    0.000    0.000    0.000    0.000 
#
# Total GULP energy -145392.810493 kJ/mol
# GULP energy per Si atom -5592.031173 kJ/mol
# Density = 2.132794 g / cm^3
# Si number density = 21.376599 Si / 1000 Ang^3
#
#
#
# Elastic Constant Matrix: (Units=GPa)
#
#
# Indices 1 2 3 4 5 6 
#
# 1 114.1163 48.9149 74.5363 0.0000 0.0000 0.0000
# 2 48.9149 112.6485 70.7398 0.0000 0.0000 0.0000
# 3 74.5363 70.7398 152.9460 0.0000 0.0000 0.0000
# 4 0.0000 0.0000 0.0000 30.0870 0.0000 0.0000
# 5 0.0000 0.0000 0.0000 0.0000 20.3904 0.0000
# 6 0.0000 0.0000 0.0000 0.0000 0.0000 52.6589
#
#
#
# Elastic Compliance Matrix: (Units=1/GPa)
#
#
# Indices 1 2 3 4 5 6 
#
# 1 0.013301 -0.002403 -0.005371 0.000000 0.000000 0.000000
# 2 -0.002403 0.012945 -0.004816 0.000000 0.000000 0.000000
# 3 -0.005371 -0.004816 0.011383 0.000000 0.000000 0.000000
# 4 0.000000 0.000000 0.000000 0.033237 0.000000 0.000000
# 5 0.000000 0.000000 0.000000 0.000000 0.049043 0.000000
# 6 0.000000 0.000000 0.000000 0.000000 0.000000 0.018990
#
#
# Mechanical properties :
#
#
# Convention : Reuss Voigt Hill
#
# Bulk Modulus (GPa) = 80.32496 85.34364 82.83430
# Shear Modulus (GPa) = 29.72154 32.99526 31.35840
#
# Velocity S-wave (km/s) = 3.73282 3.93303 3.83423
# Velocity P-wave (km/s) = 7.49909 7.78688 7.64434
#
# Compressibility (1/GPa) = 0.01244943
#
# Stress axis : x y z
#
# Youngs Moduli (GPa) = 75.18302 77.24960 87.84952
#
# Poissons Ratio (x) = 0.18563 0.47180
# Poissons Ratio (y) = 0.18067 0.42310
# Poissons Ratio (z) = 0.40378 0.37205
#
# Static dielectric constant tensor:
#      x y z
#    x 1.877810 0.000000 0.000000 
#    y 0.000000 1.806860 0.000000 
#    z 0.000000 0.000000 1.727480 
# 
# From -- ./inp_files/15859.got.cif
#   From: 2010.05.17/outbox.cif.g08.bks.cpg/sg37_8_cif.got.tgz:15859.got - 2010.06.03 17:53:42.
