data_PCOD9355733
_publ_section_title
;
Structure prediction by ZEFSAII (Michael W. Deem and Ramdas Pophale) SiO2 
 PCOD9355733
Probable space group: C C C 2
;
_chemical_formula_sum "Si O2"
_cell_formula_units_Z 20
_cell_length_a 14.416631
_cell_length_b 4.810193
_cell_length_c 11.577936
_cell_angle_alpha 90.000000
_cell_angle_beta 90.000000
_cell_angle_gamma 90.000000
_cell_volume 802.892552
_symmetry_space_group_name_H-M "C C C 2"
_symmetry_group_IT_number 37
_symmetry_cell_setting 'orthorhombic'
loop_
_space_group_symop_operation_xyz
x,y,z
-x,-y,z
-x,y,1/2+z
x,-y,1/2+z
1/2+x,1/2+y,z
1/2-x,1/2-y,z
1/2-x,1/2+y,1/2+z
1/2+x,1/2-y,1/2+z
loop_
_atom_site_type_symbol
_atom_site_label
_atom_site_fract_x
_atom_site_fract_y
_atom_site_fract_z
Si Si1 0.401216 0.464123 0.527530
Si Si2 0.750000 0.250000 0.367804
Si Si3 0.843600 0.576292 0.166644
O O1 0.500000 0.500000 0.465508
O O2 0.320287 0.563502 0.441636
O O3 0.370279 0.168387 0.578213
O O4 0.414142 0.678033 0.636723
O O5 0.681435 0.067182 0.286982
O O6 0.750000 0.750000 0.143474
#
# Coordination Sequence:
#
# PCOD9355733 Si02
#       3
#     8   4   8
#     4  12  28  50  77 117 158 201 268 326 389 471
#     4  12  26  48  86 108 152 218 254 318 390 478
#     4  12  25  49  78 108 158 204 252 322 397 454
#
# _framework density 24.909931
#
# number of rings (size 3 to 8) (size 9 to 14) (size 15 to 20)
#    0.000    0.000    6.000    1.200    5.600    1.600 
#    7.200    0.000    0.000    0.000    0.000    0.000 
#    0.000    0.000    0.000    0.000    0.000    0.000 
#
# Total GULP energy -55820.968291 kJ/mol
# GULP energy per Si atom -5582.096829 kJ/mol
# Density = 2.485324 g / cm^3
# Si number density = 24.909931 Si / 1000 Ang^3
#
#
#
# Elastic Constant Matrix: (Units=GPa)
#
#
# Indices 1 2 3 4 5 6 
#
# 1 136.5445 53.3782 34.2057 0.0000 0.0000 0.0000
# 2 53.3782 199.5079 38.8294 0.0000 0.0000 0.0000
# 3 34.2057 38.8294 64.6582 0.0000 0.0000 0.0000
# 4 0.0000 0.0000 0.0000 17.6888 0.0000 0.0000
# 5 0.0000 0.0000 0.0000 0.0000 23.7874 0.0000
# 6 0.0000 0.0000 0.0000 0.0000 0.0000 36.3370
#
#
#
# Elastic Compliance Matrix: (Units=1/GPa)
#
#
# Indices 1 2 3 4 5 6 
#
# 1 0.008902 -0.001659 -0.003713 0.000000 0.000000 0.000000
# 2 -0.001659 0.005985 -0.002716 0.000000 0.000000 0.000000
# 3 -0.003713 -0.002716 0.019062 0.000000 0.000000 0.000000
# 4 0.000000 0.000000 0.000000 0.056533 0.000000 0.000000
# 5 0.000000 0.000000 0.000000 0.000000 0.042039 0.000000
# 6 0.000000 0.000000 0.000000 0.000000 0.000000 0.027520
#
#
# Mechanical properties :
#
#
# Convention : Reuss Voigt Hill
#
# Bulk Modulus (GPa) = 56.27018 72.61523 64.44271
# Shear Modulus (GPa) = 27.45106 33.84913 30.65010
#
# Velocity S-wave (km/s) = 3.32326 3.69027 3.51156
# Velocity P-wave (km/s) = 6.11260 6.88272 6.50906
#
# Compressibility (1/GPa) = 0.01777140
#
# Stress axis : x y z
#
# Youngs Moduli (GPa) = 112.32906 167.08656 52.46142
#
# Poissons Ratio (x) = 0.27722 0.19480
# Poissons Ratio (y) = 0.18637 0.14251
# Poissons Ratio (z) = 0.41710 0.45388
#
# Static dielectric constant tensor:
#      x y z
#    x 2.589350 0.000000 0.000000 
#    y 0.000000 2.020890 0.000000 
#    z 0.000000 0.000000 2.053170 
# 
# From -- ./inp_files/1821.got.cif
#   From: 2010.05.17/outbox.cif.g08.bks.cpg/sg37_1_cif.got.tgz:1821.got - 2010.06.03 17:53:42.
