data_PCOD9355723
_publ_section_title
;
Structure prediction by ZEFSAII (Michael W. Deem and Ramdas Pophale) SiO2 
 PCOD9355723
Probable space group: C C C 2
;
_chemical_formula_sum "Si O2"
_cell_formula_units_Z 32
_cell_length_a 31.887163
_cell_length_b 4.840924
_cell_length_c 8.400064
_cell_angle_alpha 90.000000
_cell_angle_beta 90.000000
_cell_angle_gamma 90.000000
_cell_volume 1296.661874
_symmetry_space_group_name_H-M "C C C 2"
_symmetry_group_IT_number 37
_symmetry_cell_setting 'orthorhombic'
loop_
_space_group_symop_operation_xyz
x,y,z
-x,-y,z
-x,y,1/2+z
x,-y,1/2+z
1/2+x,1/2+y,z
1/2-x,1/2-y,z
1/2-x,1/2+y,1/2+z
1/2+x,1/2-y,1/2+z
loop_
_atom_site_type_symbol
_atom_site_label
_atom_site_fract_x
_atom_site_fract_y
_atom_site_fract_z
Si Si1 0.332386 0.187442 0.809850
Si Si2 0.046094 0.618645 0.488533
Si Si3 0.422172 0.348698 0.670374
Si Si4 0.298362 0.323047 0.149268
O O1 0.377019 0.298427 0.748881
O O2 0.300424 0.362345 0.702848
O O3 0.321091 0.869154 0.780943
O O4 0.324595 0.266203 0.990886
O O5 0.075612 0.354665 0.518147
O O6 0.047658 0.740626 0.311438
O O7 0.000000 0.500000 0.520843
O O8 0.062707 0.854666 0.608764
O O9 0.250000 0.250000 0.125570
#
# Coordination Sequence:
#
# PCOD9355723 Si02
#       4
#     8   8   8   8
#     4  12  25  44  70 101 138 183 231 285 342 408
#     4  12  27  47  72 102 138 179 227 286 348 415
#     4  12  25  47  72 103 137 180 231 285 345 415
#     4  12  25  44  68 102 141 184 231 284 342 406
#
# _framework density 24.678751999999999
#
# number of rings (size 3 to 8) (size 9 to 14) (size 15 to 20)
#    0.000    0.000    0.000   11.250    0.000    2.000 
#    0.000    1.250    0.000    0.000    0.000    0.000 
#    0.000    0.000    0.000    0.000    0.000    0.000 
#
# Total GULP energy -89704.295884 kJ/mol
# GULP energy per Si atom -5606.518493 kJ/mol
# Density = 2.462258 g / cm^3
# Si number density = 24.678752 Si / 1000 Ang^3
#
#
#
# Elastic Constant Matrix: (Units=GPa)
#
#
# Indices 1 2 3 4 5 6 
#
# 1 88.3914 32.5350 -16.5403 0.0000 0.0000 0.0000
# 2 32.5350 105.7807 -0.4213 0.0000 0.0000 0.0000
# 3 -16.5403 -0.4213 69.4328 0.0000 0.0000 0.0000
# 4 0.0000 0.0000 0.0000 10.2032 0.0000 0.0000
# 5 0.0000 0.0000 0.0000 0.0000 30.6671 0.0000
# 6 0.0000 0.0000 0.0000 0.0000 0.0000 40.0101
#
#
#
# Elastic Compliance Matrix: (Units=1/GPa)
#
#
# Indices 1 2 3 4 5 6 
#
# 1 0.013422 -0.004116 0.003172 0.000000 0.000000 0.000000
# 2 -0.004116 0.010716 -0.000915 0.000000 0.000000 0.000000
# 3 0.003172 -0.000915 0.015153 0.000000 0.000000 0.000000
# 4 0.000000 0.000000 0.000000 0.098009 0.000000 0.000000
# 5 0.000000 0.000000 0.000000 0.000000 0.032608 0.000000
# 6 0.000000 0.000000 0.000000 0.000000 0.000000 0.024994
#
#
# Mechanical properties :
#
#
# Convention : Reuss Voigt Hill
#
# Bulk Modulus (GPa) = 28.11122 32.75021 30.43071
# Shear Modulus (GPa) = 23.75576 32.71151 28.23364
#
# Velocity S-wave (km/s) = 3.10595 3.64468 3.38604
# Velocity P-wave (km/s) = 4.92728 5.56875 5.25781
#
# Compressibility (1/GPa) = 0.03557299
#
# Stress axis : x y z
#
# Youngs Moduli (GPa) = 74.50576 93.32118 65.99540
#
# Poissons Ratio (x) = 0.38406 -0.20936
# Poissons Ratio (y) = 0.30663 0.06041
# Poissons Ratio (z) = -0.23636 0.08542
#
# Static dielectric constant tensor:
#      x y z
#    x 1.989080 0.000000 0.000000 
#    y 0.000000 1.905300 0.000000 
#    z 0.000000 0.000000 1.921950 
# 
# From -- ./inp_files/1710.got.cif
#   From: 2010.05.17/outbox.cif.g08.bks.cpg/sg37_1_cif.got.tgz:1710.got - 2010.06.03 17:53:42.
