data_PCOD9355372
_publ_section_title
;
Structure prediction by ZEFSAII (Michael W. Deem and Ramdas Pophale) SiO2 
 PCOD9355372
Probable space group: C C C 2
;
_chemical_formula_sum "Si O2"
_cell_formula_units_Z 32
_cell_length_a 8.313193
_cell_length_b 5.129585
_cell_length_c 30.471541
_cell_angle_alpha 90.000000
_cell_angle_beta 90.000000
_cell_angle_gamma 90.000000
_cell_volume 1299.404935
_symmetry_space_group_name_H-M "C C C 2"
_symmetry_group_IT_number 37
_symmetry_cell_setting 'orthorhombic'
loop_
_space_group_symop_operation_xyz
x,y,z
-x,-y,z
-x,y,1/2+z
x,-y,1/2+z
1/2+x,1/2+y,z
1/2-x,1/2-y,z
1/2-x,1/2+y,1/2+z
1/2+x,1/2-y,1/2+z
loop_
_atom_site_type_symbol
_atom_site_label
_atom_site_fract_x
_atom_site_fract_y
_atom_site_fract_z
Si Si1 0.500000 0.000000 0.647420
Si Si2 0.000000 0.000000 0.963589
Si Si3 0.500000 0.500000 0.086613
Si Si4 0.500000 0.000000 0.835631
Si Si5 0.250000 0.250000 0.711044
Si Si6 0.750000 0.750000 0.898024
Si Si7 0.000000 0.000000 0.274945
Si Si8 0.750000 0.750000 0.524706
O O1 0.476441 0.751900 0.616443
O O2 0.645663 0.931469 0.679483
O O3 0.095039 0.774744 0.991644
O O4 0.870519 0.884336 0.931204
O O5 0.334188 0.544193 0.058559
O O6 0.348505 0.058584 0.866546
O O7 0.529184 0.250818 0.805487
O O8 0.144598 0.072293 0.742863
#
# Coordination Sequence:
#
# PCOD9355372 Si02
#       8
#     4   4   4   4   4   4   4   4
#     4  12  29  52  79 114 154 202 256 316 383 456
#     4  11  25  48  75 113 152 200 252 313 379 454
#     4  11  27  48  79 115 154 202 256 317 381 454
#     4  12  29  50  79 114 154 202 256 316 381 454
#     4  12  30  52  80 114 156 204 256 318 384 456
#     4  12  27  48  78 111 154 200 254 313 380 452
#     4  12  30  52  78 114 154 202 256 316 382 456
#     4  10  25  48  78 111 154 200 254 313 380 452
#
# _framework density 24.626655
#
# number of rings (size 3 to 8) (size 9 to 14) (size 15 to 20)
#    0.000    0.500    0.000    5.250    0.000   27.000 
#    0.000    0.000    0.000    0.000    0.000    0.000 
#    0.000    0.000    0.000    0.000    0.000    0.000 
#
# Total GULP energy -89544.760929 kJ/mol
# GULP energy per Si atom -5596.547558 kJ/mol
# Density = 2.457060 g / cm^3
# Si number density = 24.626655 Si / 1000 Ang^3
#
#
#
# Elastic Constant Matrix: (Units=GPa)
#
#
# Indices 1 2 3 4 5 6 
#
# 1 193.2004 100.4030 113.8389 0.0000 0.0000 0.0000
# 2 100.4030 195.8698 123.7440 0.0000 0.0000 0.0000
# 3 113.8389 123.7440 210.2978 0.0000 0.0000 0.0000
# 4 0.0000 0.0000 0.0000 -13.0061 0.0000 0.0000
# 5 0.0000 0.0000 0.0000 0.0000 -5.9018 0.0000
# 6 0.0000 0.0000 0.0000 0.0000 0.0000 63.8052
#
#
#
# Elastic Compliance Matrix: (Units=1/GPa)
#
#
# Indices 1 2 3 4 5 6 
#
# 1 0.008163 -0.002217 -0.003114 0.000000 0.000000 0.000000
# 2 -0.002217 0.008728 -0.003936 0.000000 0.000000 0.000000
# 3 -0.003114 -0.003936 0.008757 0.000000 0.000000 0.000000
# 4 0.000000 0.000000 0.000000 -0.076887 0.000000 0.000000
# 5 0.000000 0.000000 0.000000 0.000000 -0.169441 0.000000
# 6 0.000000 0.000000 0.000000 0.000000 0.000000 0.015673
#
#
# Mechanical properties :
#
#
# Convention : Reuss Voigt Hill
#
# Bulk Modulus (GPa) = 140.56530 141.70442 141.13486
# Shear Modulus (GPa) = -27.15911 26.40493 -0.37709
#
# Velocity S-wave (km/s) = -3.32450 3.27801 -0.39173
# Velocity P-wave (km/s) = 6.51660 8.48488 7.56503
#
# Compressibility (1/GPa) = 0.00711413
#
# Stress axis : x y z
#
# Youngs Moduli (GPa) = 122.50186 114.56863 114.19305
#
# Poissons Ratio (x) = 0.25398 0.35565
# Poissons Ratio (y) = 0.27156 0.44946
# Poissons Ratio (z) = 0.38153 0.45094
#
# Static dielectric constant tensor:
#      x y z
#    x 1.918910 0.000000 0.000000 
#    y 0.000000 1.881220 0.000000 
#    z 0.000000 0.000000 1.936200 
# 
# From -- ./inp_files/19604.got.cif
#   From: 2010.05.17/outbox.cif.g08.bks.cpg/sg37_10_cif.got.tgz:19604.got - 2010.06.03 17:53:42.
