data_PCOD9355912
_publ_section_title
;
Structure prediction by ZEFSAII (Michael W. Deem and Ramdas Pophale) SiO2 
 PCOD9355912
Probable space group: A M M 2
;
_chemical_formula_sum "Si O2"
_cell_formula_units_Z 64
_cell_length_a 7.714491
_cell_length_b 29.774942
_cell_length_c 12.785811
_cell_angle_alpha 90.000000
_cell_angle_beta 90.000000
_cell_angle_gamma 90.000000
_cell_volume 2936.881890
_symmetry_space_group_name_H-M "A M M 2"
_symmetry_group_IT_number 38
_symmetry_cell_setting 'orthorhombic'
loop_
_space_group_symop_operation_xyz
x,y,z
-x,-y,z
-x,y,z
x,-y,z
x,1/2+y,1/2+z
-x,1/2-y,1/2+z
-x,1/2+y,1/2+z
x,1/2-y,1/2+z
loop_
_atom_site_type_symbol
_atom_site_label
_atom_site_fract_x
_atom_site_fract_y
_atom_site_fract_z
Si Si1 0.299132 0.314541 0.417830
Si Si2 0.302837 0.326463 0.005210
Si Si3 0.200563 0.919650 0.414527
Si Si4 0.210509 0.448498 0.683025
Si Si5 0.290764 0.953563 0.628737
Si Si6 0.201880 0.653540 0.641016
Si Si7 0.194700 0.724246 0.812445
Si Si8 0.712528 0.861339 0.721930
O O1 0.500000 0.323199 0.439497
O O2 0.214351 0.320215 0.530941
O O3 0.288847 0.270027 0.345229
O O4 0.223957 0.350183 0.336357
O O5 0.500000 0.308708 0.005401
O O6 0.303374 0.376207 0.955028
O O7 0.189588 0.298887 0.925754
O O8 0.238857 0.329654 0.124203
O O9 0.255809 0.941219 0.305602
O O10 0.217881 0.952265 0.512202
O O11 0.000000 0.905875 0.401670
O O12 0.268931 0.500000 0.651715
O O13 0.267283 0.398913 0.635854
O O14 0.000000 0.449843 0.672738
O O15 0.500000 0.950771 0.620998
O O16 0.228688 0.910288 0.688748
O O17 0.244405 0.000000 0.681997
O O18 0.273564 0.687708 0.731044
O O19 0.000000 0.648502 0.670204
O O20 0.000000 0.735404 0.776349
O O21 0.500000 0.860067 0.723636
#
# Coordination Sequence:
#
# PCOD9355912 Si02
#       8
#     8   8   8   8   8   8   8   8
#     4  11  24  41  61  85 115 155 202 248 299 356
#     4  10  19  34  57  85 115 150 188 230 287 349
#     4  10  17  29  49  80 118 153 187 231 289 349
#     4   9  17  32  56  83 114 155 198 240 295 358
#     4   9  17  31  52  78 110 151 194 240 296 349
#     4  10  22  42  62  86 122 158 200 249 299 361
#     4  11  23  40  61  88 117 150 192 241 298 354
#     4   8  18  36  55  79 112 146 187 234 281 341
#
# _framework density 21.791819
#
# number of rings (size 3 to 8) (size 9 to 14) (size 15 to 20)
#    0.000    2.250    1.250    2.625    1.750    1.750 
#    0.000    6.250    0.000    2.625    0.000    0.000 
#    0.000    0.000    0.000    0.000    0.000    0.000 
#
# Total GULP energy -178171.456099 kJ/mol
# GULP energy per Si atom -5567.858003 kJ/mol
# Density = 2.174222 g / cm^3
# Si number density = 21.791819 Si / 1000 Ang^3
#
#
#
# Elastic Constant Matrix: (Units=GPa)
#
#
# Indices 1 2 3 4 5 6 
#
# 1 41.0821 -0.4793 4.1793 0.0000 0.0000 0.0000
# 2 -0.4793 80.9346 35.1584 0.0000 0.0000 0.0000
# 3 4.1793 35.1584 103.7847 0.0000 0.0000 0.0000
# 4 0.0000 0.0000 0.0000 4.7904 0.0000 0.0000
# 5 0.0000 0.0000 0.0000 0.0000 13.2870 0.0000
# 6 0.0000 0.0000 0.0000 0.0000 0.0000 17.9195
#
#
#
# Elastic Compliance Matrix: (Units=1/GPa)
#
#
# Indices 1 2 3 4 5 6 
#
# 1 0.024473 0.000672 -0.001213 0.000000 0.000000 0.000000
# 2 0.000672 0.014506 -0.004941 0.000000 0.000000 0.000000
# 3 -0.001213 -0.004941 0.011358 0.000000 0.000000 0.000000
# 4 0.000000 0.000000 0.000000 0.208750 0.000000 0.000000
# 5 0.000000 0.000000 0.000000 0.000000 0.075261 0.000000
# 6 0.000000 0.000000 0.000000 0.000000 0.000000 0.055805
#
#
# Mechanical properties :
#
#
# Convention : Reuss Voigt Hill
#
# Bulk Modulus (GPa) = 25.39866 33.72424 29.56145
# Shear Modulus (GPa) = 12.07022 19.66226 15.86624
#
# Velocity S-wave (km/s) = 2.35604 3.00705 2.70123
# Velocity P-wave (km/s) = 4.36825 5.25031 4.82946
#
# Compressibility (1/GPa) = 0.03937216
#
# Stress axis : x y z
#
# Youngs Moduli (GPa) = 40.86176 68.93642 88.04305
#
# Poissons Ratio (x) = -0.04632 0.10681
# Poissons Ratio (y) = -0.02746 0.43504
# Poissons Ratio (z) = 0.04957 0.34063
#
# Static dielectric constant tensor:
#      x y z
#    x 1.787060 0.000000 0.000000 
#    y 0.000000 1.931220 0.000000 
#    z 0.000000 0.000000 1.759570 
# 
# From -- ./inp_files/8661.got.cif
#   From: 2010.05.17/outbox.cif.g08.bks.cpg/sg38_5_cif.got.tgz:8661.got - 2010.06.03 18:07:57.
