data_PCOD9355455
_publ_section_title
;
Structure prediction by ZEFSAII (Michael W. Deem and Ramdas Pophale) SiO2 
 PCOD9355455
Probable space group: C C C 2
;
_chemical_formula_sum "Si O2"
_cell_formula_units_Z 40
_cell_length_a 14.934107
_cell_length_b 7.065097
_cell_length_c 16.066854
_cell_angle_alpha 90.000000
_cell_angle_beta 90.000000
_cell_angle_gamma 90.000000
_cell_volume 1695.228460
_symmetry_space_group_name_H-M "C C C 2"
_symmetry_group_IT_number 37
_symmetry_cell_setting 'orthorhombic'
loop_
_space_group_symop_operation_xyz
x,y,z
-x,-y,z
-x,y,1/2+z
x,-y,1/2+z
1/2+x,1/2+y,z
1/2-x,1/2-y,z
1/2-x,1/2+y,1/2+z
1/2+x,1/2-y,1/2+z
loop_
_atom_site_type_symbol
_atom_site_label
_atom_site_fract_x
_atom_site_fract_y
_atom_site_fract_z
Si Si1 0.181922 0.575951 0.148420
Si Si2 0.467907 0.713224 0.223568
Si Si3 0.605928 0.459837 0.378727
Si Si4 0.729672 0.023451 0.971301
Si Si5 0.356240 0.137365 0.307669
O O1 0.250000 0.750000 0.154519
O O2 0.084575 0.675487 0.153534
O O3 0.196503 0.445446 0.229110
O O4 0.192142 0.469310 0.061256
O O5 0.500000 0.500000 0.200366
O O6 0.400751 0.680734 0.301259
O O7 0.547484 0.831918 0.264212
O O8 0.500000 0.500000 0.401450
O O9 0.676821 0.416767 0.450579
O O10 0.652815 0.648291 0.341004
O O11 0.750000 0.250000 0.982440
O O12 0.662587 0.018322 0.891908
#
# Coordination Sequence:
#
# PCOD9355455 Si02
#       5
#     8   8   8   8   8
#     4  11  21  34  58  90 118 154 199 246 301 358
#     4   9  19  37  60  84 113 158 201 243 299 357
#     4   8  16  34  63  86 112 160 201 242 303 357
#     4   9  18  34  57  85 118 155 194 243 301 355
#     4   9  18  35  59  83 117 155 193 246 296 349
#
# _framework density 23.595642000000002
#
# number of rings (size 3 to 8) (size 9 to 14) (size 15 to 20)
#    0.000    3.200    0.000    1.800    0.000    1.600 
#    0.000   20.000    0.000   50.400    0.000    0.000 
#    0.000    0.000    0.000    0.000    0.000    0.000 
#
# Total GULP energy -111404.580264 kJ/mol
# GULP energy per Si atom -5570.229013 kJ/mol
# Density = 2.354194 g / cm^3
# Si number density = 23.595642 Si / 1000 Ang^3
#
#
#
# Elastic Constant Matrix: (Units=GPa)
#
#
# Indices 1 2 3 4 5 6 
#
# 1 106.0628 35.0016 85.4616 0.0000 0.0000 0.0000
# 2 35.0016 71.7041 44.5260 0.0000 0.0000 0.0000
# 3 85.4616 44.5260 194.0908 0.0000 0.0000 0.0000
# 4 0.0000 0.0000 0.0000 31.8819 0.0000 0.0000
# 5 0.0000 0.0000 0.0000 0.0000 4.6864 0.0000
# 6 0.0000 0.0000 0.0000 0.0000 0.0000 42.6313
#
#
#
# Elastic Compliance Matrix: (Units=1/GPa)
#
#
# Indices 1 2 3 4 5 6 
#
# 1 0.015485 -0.003877 -0.005929 0.000000 0.000000 0.000000
# 2 -0.003877 0.017234 -0.002246 0.000000 0.000000 0.000000
# 3 -0.005929 -0.002246 0.008278 0.000000 0.000000 0.000000
# 4 0.000000 0.000000 0.000000 0.031366 0.000000 0.000000
# 5 0.000000 0.000000 0.000000 0.000000 0.213384 0.000000
# 6 0.000000 0.000000 0.000000 0.000000 0.000000 0.023457
#
#
# Mechanical properties :
#
#
# Convention : Reuss Voigt Hill
#
# Bulk Modulus (GPa) = 59.19937 77.98179 68.59058
# Shear Modulus (GPa) = 14.75190 29.63115 22.19152
#
# Velocity S-wave (km/s) = 2.50310 3.54756 3.07007
# Velocity P-wave (km/s) = 5.78771 7.06408 6.45751
#
# Compressibility (1/GPa) = 0.01689207
#
# Stress axis : x y z
#
# Youngs Moduli (GPa) = 64.57765 58.02568 120.79963
#
# Poissons Ratio (x) = 0.22498 0.71621
# Poissons Ratio (y) = 0.25038 0.27136
# Poissons Ratio (z) = 0.38288 0.13034
#
# Static dielectric constant tensor:
#      x y z
#    x 2.202030 0.000000 0.000000 
#    y 0.000000 2.018160 0.000000 
#    z 0.000000 0.000000 1.909500 
# 
# From -- ./inp_files/15181.got.cif
#   From: 2010.05.17/outbox.cif.g08.bks.cpg/sg37_8_cif.got.tgz:15181.got - 2010.06.03 17:53:42.
