data_PCOD9355201
_publ_section_title
;
Structure prediction by ZEFSAII (Michael W. Deem and Ramdas Pophale) SiO2 
 PCOD9355201
Probable space group: C C C 2
;
_chemical_formula_sum "Si O2"
_cell_formula_units_Z 64
_cell_length_a 10.754763
_cell_length_b 9.881186
_cell_length_c 26.649422
_cell_angle_alpha 90.000000
_cell_angle_beta 90.000000
_cell_angle_gamma 90.000000
_cell_volume 2832.029108
_symmetry_space_group_name_H-M "C C C 2"
_symmetry_group_IT_number 37
_symmetry_cell_setting 'orthorhombic'
loop_
_space_group_symop_operation_xyz
x,y,z
-x,-y,z
-x,y,1/2+z
x,-y,1/2+z
1/2+x,1/2+y,z
1/2-x,1/2-y,z
1/2-x,1/2+y,1/2+z
1/2+x,1/2-y,1/2+z
loop_
_atom_site_type_symbol
_atom_site_label
_atom_site_fract_x
_atom_site_fract_y
_atom_site_fract_z
Si Si1 0.002199 0.654818 0.471480
Si Si2 0.888557 0.405564 0.281512
Si Si3 0.884147 0.096000 0.318662
Si Si4 0.319338 0.551243 0.595383
Si Si5 0.828922 0.615359 0.667164
Si Si6 0.676751 0.367334 0.001252
Si Si7 0.125346 0.088034 0.938376
Si Si8 0.045989 0.323556 0.087467
O O1 0.113115 0.757266 0.456324
O O2 0.996094 0.655293 0.531689
O O3 0.000000 0.500000 0.452992
O O4 0.888155 0.759703 0.461698
O O5 0.905244 0.250307 0.300053
O O6 0.750274 0.448994 0.298379
O O7 0.885045 0.413987 0.221345
O O8 0.000000 0.500000 0.300938
O O9 0.870910 0.091927 0.378955
O O10 0.000000 0.000000 0.304626
O O11 0.278955 0.484817 0.647578
O O12 0.363415 0.454934 0.550086
O O13 0.182207 0.608854 0.582004
O O14 0.417571 0.670439 0.600741
O O15 0.750000 0.750000 0.671918
O O16 0.942034 0.629274 0.627167
O O17 0.750000 0.250000 0.030334
O O18 0.724302 0.491643 0.966264
O O19 0.000000 0.000000 0.954251
#
# Coordination Sequence:
#
# PCOD9355201 Si02
#       8
#     8   8   8   8   8   8   8   8
#     4  11  21  38  62  95 137 184 238 290 354 432
#     4  11  25  49  75 108 144 186 247 315 375 441
#     4  10  23  50  75 105 147 187 247 316 374 437
#     4  11  23  39  62  97 141 188 234 289 347 425
#     4  12  24  43  69  96 140 191 236 297 367 431
#     4  11  21  39  61  93 140 187 232 288 356 429
#     4   9  21  42  66  95 139 186 236 301 362 433
#     4  11  23  39  61  99 142 185 242 289 344 429
#
# _framework density 22.598638999999999
#
# number of rings (size 3 to 8) (size 9 to 14) (size 15 to 20)
#    0.000    1.250    2.500    4.500    0.000    3.500 
#   15.750    0.000    0.000    0.000    0.000    0.000 
#    0.000    0.000    0.000    0.000    0.000    0.000 
#
# Total GULP energy -178174.292340 kJ/mol
# GULP energy per Si atom -5567.946636 kJ/mol
# Density = 2.254720 g / cm^3
# Si number density = 22.598639 Si / 1000 Ang^3
#
#
#
# Elastic Constant Matrix: (Units=GPa)
#
#
# Indices 1 2 3 4 5 6 
#
# 1 133.4431 67.5164 31.9946 0.0000 0.0000 0.0000
# 2 67.5164 184.3451 38.5313 0.0000 0.0000 0.0000
# 3 31.9946 38.5313 98.7925 0.0000 0.0000 0.0000
# 4 0.0000 0.0000 0.0000 26.6550 0.0000 0.0000
# 5 0.0000 0.0000 0.0000 0.0000 -157.6407 0.0000
# 6 0.0000 0.0000 0.0000 0.0000 0.0000 44.3106
#
#
#
# Elastic Compliance Matrix: (Units=1/GPa)
#
#
# Indices 1 2 3 4 5 6 
#
# 1 0.009507 -0.003090 -0.001874 0.000000 0.000000 0.000000
# 2 -0.003090 0.006911 -0.001695 0.000000 0.000000 0.000000
# 3 -0.001874 -0.001695 0.011390 0.000000 0.000000 0.000000
# 4 0.000000 0.000000 0.000000 0.037516 0.000000 0.000000
# 5 0.000000 0.000000 0.000000 0.000000 -0.006344 0.000000
# 6 0.000000 0.000000 0.000000 0.000000 0.000000 0.022568
#
#
# Mechanical properties :
#
#
# Convention : Reuss Voigt Hill
#
# Bulk Modulus (GPa) = 69.01034 76.96281 72.98658
# Shear Modulus (GPa) = 50.15326 1.23420 25.69373
#
# Velocity S-wave (km/s) = 4.71606 0.73981 3.37554
# Velocity P-wave (km/s) = 7.76264 5.90424 6.89633
#
# Compressibility (1/GPa) = 0.01449058
#
# Stress axis : x y z
#
# Youngs Moduli (GPa) = 105.19100 144.70605 87.79727
#
# Poissons Ratio (x) = 0.44717 0.16449
# Poissons Ratio (y) = 0.32506 0.14877
# Poissons Ratio (z) = 0.19708 0.24521
#
# Static dielectric constant tensor:
#      x y z
#    x 3.217460 0.000000 0.000000 
#    y 0.000000 1.880570 0.000000 
#    z 0.000000 0.000000 1.839750 
# 
# From -- ./inp_files/20491.got.cif
#   From: 2010.05.17/outbox.cif.g08.bks.cpg/sg37_11_cif.got.tgz:20491.got - 2010.06.03 17:53:42.
