data_PCOD9355975
_publ_section_title
;
Structure prediction by ZEFSAII (Michael W. Deem and Ramdas Pophale) SiO2 
 PCOD9355975
Probable space group: A M M 2
;
_chemical_formula_sum "Si O2"
_cell_formula_units_Z 64
_cell_length_a 9.023550
_cell_length_b 18.964582
_cell_length_c 26.765276
_cell_angle_alpha 90.000000
_cell_angle_beta 90.000000
_cell_angle_gamma 90.000000
_cell_volume 4580.284241
_symmetry_space_group_name_H-M "A M M 2"
_symmetry_group_IT_number 38
_symmetry_cell_setting 'orthorhombic'
loop_
_space_group_symop_operation_xyz
x,y,z
-x,-y,z
-x,y,z
x,-y,z
x,1/2+y,1/2+z
-x,1/2-y,1/2+z
-x,1/2+y,1/2+z
x,1/2-y,1/2+z
loop_
_atom_site_type_symbol
_atom_site_label
_atom_site_fract_x
_atom_site_fract_y
_atom_site_fract_z
Si Si1 0.170642 0.787431 0.034740
Si Si2 0.829846 0.711620 0.143664
Si Si3 0.176398 0.416540 0.895491
Si Si4 0.323195 0.917216 0.289837
Si Si5 0.322981 0.840622 0.187967
Si Si6 0.676460 0.341348 0.988771
Si Si7 0.178963 0.081520 0.093878
Si Si8 0.821349 0.918009 0.583502
O O1 0.171309 0.749581 0.089219
O O2 0.269162 0.738345 0.999772
O O3 0.220909 0.866510 0.048194
O O4 0.000000 0.787718 0.017139
O O5 0.732129 0.760979 0.178663
O O6 0.780511 0.632524 0.130032
O O7 0.000000 0.711111 0.161292
O O8 0.207027 0.500000 0.904081
O O9 0.236806 0.399332 0.840373
O O10 0.000000 0.406442 0.898275
O O11 0.256956 0.371400 0.937709
O O12 0.500000 0.909272 0.298244
O O13 0.280369 0.871064 0.241969
O O14 0.295998 0.000000 0.278539
O O15 0.500000 0.844293 0.183420
O O16 0.251272 0.888371 0.144375
O O17 0.500000 0.345226 0.988861
O O18 0.742213 0.388580 0.034073
O O19 0.000000 0.087278 0.098804
O O20 0.217553 0.000000 0.086269
O O21 0.000000 0.910238 0.576604
O O22 0.788513 0.000000 0.591176
#
# Coordination Sequence:
#
# PCOD9355975 Si02
#       8
#     8   8   8   8   8   8   8   8
#     4   8  15  28  42  56  78 107 137 168 199 233
#     4   8  15  27  41  57  78 105 136 169 201 234
#     4  10  20  32  45  60  78 103 136 171 204 238
#     4   9  18  31  43  57  80 107 135 168 202 234
#     4  10  18  27  41  60  83 111 138 165 201 241
#     4  11  20  28  41  60  82 108 136 166 202 242
#     4   9  17  28  42  60  82 109 140 171 201 234
#     4   9  17  29  43  58  79 108 140 171 202 237
#
# _framework density 13.972932
#
# number of rings (size 3 to 8) (size 9 to 14) (size 15 to 20)
#    0.000    2.750    0.000    4.125    0.000    8.750 
#    0.000    1.250    0.000    0.000    0.000    0.000 
#    0.000    1.000    0.000    9.750    0.000    2.750 
#
# Total GULP energy -178258.202179 kJ/mol
# GULP energy per Si atom -5570.568818 kJ/mol
# Density = 1.394113 g / cm^3
# Si number density = 13.972932 Si / 1000 Ang^3
#
#
#
# Elastic Constant Matrix: (Units=GPa)
#
#
# Indices 1 2 3 4 5 6 
#
# 1 50.8865 46.0683 46.5571 0.0000 0.0000 0.0000
# 2 46.0683 121.3427 61.1674 0.0000 0.0000 0.0000
# 3 46.5571 61.1674 82.4720 0.0000 0.0000 0.0000
# 4 0.0000 0.0000 0.0000 25.5784 0.0000 0.0000
# 5 0.0000 0.0000 0.0000 0.0000 22.1523 0.0000
# 6 0.0000 0.0000 0.0000 0.0000 0.0000 16.4417
#
#
#
# Elastic Compliance Matrix: (Units=1/GPa)
#
#
# Indices 1 2 3 4 5 6 
#
# 1 0.043760 -0.006646 -0.019775 0.000000 0.000000 0.000000
# 2 -0.006646 0.014171 -0.006759 0.000000 0.000000 0.000000
# 3 -0.019775 -0.006759 0.028301 0.000000 0.000000 0.000000
# 4 0.000000 0.000000 0.000000 0.039096 0.000000 0.000000
# 5 0.000000 0.000000 0.000000 0.000000 0.045142 0.000000
# 6 0.000000 0.000000 0.000000 0.000000 0.000000 0.060821
#
#
# Mechanical properties :
#
#
# Convention : Reuss Voigt Hill
#
# Bulk Modulus (GPa) = 50.31554 62.47632 56.39593
# Shear Modulus (GPa) = 16.43254 19.56169 17.99711
#
# Velocity S-wave (km/s) = 3.43304 3.74568 3.59276
# Velocity P-wave (km/s) = 7.19735 7.96971 7.59336
#
# Compressibility (1/GPa) = 0.01987458
#
# Stress axis : x y z
#
# Youngs Moduli (GPa) = 22.85184 70.56555 35.33392
#
# Poissons Ratio (x) = 0.46895 0.69872
# Poissons Ratio (y) = 0.15186 0.23882
# Poissons Ratio (z) = 0.45189 0.47694
#
# Static dielectric constant tensor:
#      x y z
#    x 1.465430 0.000000 0.000000 
#    y 0.000000 1.485460 0.000000 
#    z 0.000000 0.000000 1.430080 
# 
# From -- ./inp_files/22284.got.cif
#   From: 2010.05.17/outbox.cif.g08.bks.cpg/sg38_12_cif.got.tgz:22284.got - 2010.06.03 18:07:57.
