data_PCOD9355700
_publ_section_title
;
Structure prediction by ZEFSAII (Michael W. Deem and Ramdas Pophale) SiO2 
 PCOD9355700
Probable space group: C C C 2
;
_chemical_formula_sum "Si O2"
_cell_formula_units_Z 48
_cell_length_a 16.784707
_cell_length_b 9.136349
_cell_length_c 13.631731
_cell_angle_alpha 90.000000
_cell_angle_beta 90.000000
_cell_angle_gamma 90.000000
_cell_volume 2090.438777
_symmetry_space_group_name_H-M "C C C 2"
_symmetry_group_IT_number 37
_symmetry_cell_setting 'orthorhombic'
loop_
_space_group_symop_operation_xyz
x,y,z
-x,-y,z
-x,y,1/2+z
x,-y,1/2+z
1/2+x,1/2+y,z
1/2-x,1/2-y,z
1/2-x,1/2+y,1/2+z
1/2+x,1/2-y,1/2+z
loop_
_atom_site_type_symbol
_atom_site_label
_atom_site_fract_x
_atom_site_fract_y
_atom_site_fract_z
Si Si1 0.625335 0.945901 0.087860
Si Si2 0.071386 0.372903 0.872703
Si Si3 0.903159 0.723836 0.668722
Si Si4 0.074335 0.829752 0.705008
Si Si5 0.190785 0.974983 0.078770
Si Si6 0.082617 0.022837 0.903032
O O1 0.598869 0.836567 0.175002
O O2 0.577186 0.098001 0.091614
O O3 0.718755 0.982223 0.095799
O O4 0.613011 0.894718 0.976560
O O5 0.114186 0.371875 0.766477
O O6 0.000000 0.500000 0.866552
O O7 0.068146 0.192668 0.875752
O O8 0.832502 0.820444 0.626553
O O9 0.980551 0.825144 0.681555
O O10 0.084815 0.909786 0.810602
O O11 0.132708 0.914388 0.633850
O O12 0.160340 0.988403 0.966897
O O13 0.000000 0.000000 0.962347
#
# Coordination Sequence:
#
# PCOD9355700 Si02
#       6
#     8   8   8   8   8   8
#     4  12  29  48  75 113 157 198 243 313 388 450
#     4  12  26  48  77 112 148 195 258 317 372 440
#     4  12  26  50  77 109 150 196 257 315 370 447
#     4  12  23  48  78 111 143 197 258 309 366 443
#     4  12  27  48  75 111 155 198 245 305 385 455
#     4  12  25  46  79 110 146 198 260 311 369 451
#
# _framework density 22.961687999999999
#
# number of rings (size 3 to 8) (size 9 to 14) (size 15 to 20)
#    0.000    0.000    5.000    5.000    2.333    1.333 
#    3.000    3.333    0.000    0.000    0.000    0.000 
#    0.000    0.000    0.000    0.000    0.000    0.000 
#
# Total GULP energy -133601.739186 kJ/mol
# GULP energy per Si atom -5566.739133 kJ/mol
# Density = 2.290943 g / cm^3
# Si number density = 22.961688 Si / 1000 Ang^3
#
#
#
# Elastic Constant Matrix: (Units=GPa)
#
#
# Indices 1 2 3 4 5 6 
#
# 1 109.5226 42.0745 39.0044 0.0000 0.0000 0.0000
# 2 42.0745 134.2939 47.3577 0.0000 0.0000 0.0000
# 3 39.0044 47.3577 99.2773 0.0000 0.0000 0.0000
# 4 0.0000 0.0000 0.0000 41.5959 0.0000 0.0000
# 5 0.0000 0.0000 0.0000 0.0000 12.0370 0.0000
# 6 0.0000 0.0000 0.0000 0.0000 0.0000 28.2706
#
#
#
# Elastic Compliance Matrix: (Units=1/GPa)
#
#
# Indices 1 2 3 4 5 6 
#
# 1 0.011202 -0.002354 -0.003278 0.000000 0.000000 0.000000
# 2 -0.002354 0.009447 -0.003582 0.000000 0.000000 0.000000
# 3 -0.003278 -0.003582 0.013069 0.000000 0.000000 0.000000
# 4 0.000000 0.000000 0.000000 0.024041 0.000000 0.000000
# 5 0.000000 0.000000 0.000000 0.000000 0.083077 0.000000
# 6 0.000000 0.000000 0.000000 0.000000 0.000000 0.035372
#
#
# Mechanical properties :
#
#
# Convention : Reuss Voigt Hill
#
# Bulk Modulus (GPa) = 65.39785 66.66301 66.03043
# Shear Modulus (GPa) = 25.03339 30.69117 27.86228
#
# Velocity S-wave (km/s) = 3.30544 3.65995 3.48720
# Velocity P-wave (km/s) = 6.56590 6.85242 6.71069
#
# Compressibility (1/GPa) = 0.01529102
#
# Stress axis : x y z
#
# Youngs Moduli (GPa) = 89.26779 105.85620 76.51459
#
# Poissons Ratio (x) = 0.24914 0.25085
# Poissons Ratio (y) = 0.21010 0.27405
# Poissons Ratio (z) = 0.29266 0.37914
#
# Static dielectric constant tensor:
#      x y z
#    x 1.867190 0.000000 0.000000 
#    y 0.000000 2.013330 0.000000 
#    z 0.000000 0.000000 1.905030 
# 
# From -- ./inp_files/12544.got.cif
#   From: 2010.05.17/outbox.cif.g08.bks.cpg/sg37_7_cif.got.tgz:12544.got - 2010.06.03 17:53:42.
