data_PCOD9355098
_publ_section_title
;
Structure prediction by ZEFSAII (Michael W. Deem and Ramdas Pophale) SiO2 
 PCOD9355098
Probable space group: C C C 2
;
_chemical_formula_sum "Si O2"
_cell_formula_units_Z 60
_cell_length_a 5.257386
_cell_length_b 30.146125
_cell_length_c 18.495333
_cell_angle_alpha 90.000000
_cell_angle_beta 90.000000
_cell_angle_gamma 90.000000
_cell_volume 2931.321915
_symmetry_space_group_name_H-M "C C C 2"
_symmetry_group_IT_number 37
_symmetry_cell_setting 'orthorhombic'
loop_
_space_group_symop_operation_xyz
x,y,z
-x,-y,z
-x,y,1/2+z
x,-y,1/2+z
1/2+x,1/2+y,z
1/2-x,1/2-y,z
1/2-x,1/2+y,1/2+z
1/2+x,1/2-y,1/2+z
loop_
_atom_site_type_symbol
_atom_site_label
_atom_site_fract_x
_atom_site_fract_y
_atom_site_fract_z
Si Si1 0.000000 0.000000 0.137720
Si Si2 0.357165 0.955933 0.889739
Si Si3 0.754942 0.877815 0.906825
Si Si4 0.767927 0.559453 0.237416
Si Si5 0.727285 0.160766 0.094338
Si Si6 0.289252 0.615983 0.239380
Si Si7 0.239757 0.198165 0.020374
Si Si8 0.622989 0.571705 0.521115
O O1 0.980634 0.042213 0.085583
O O2 0.226511 0.015033 0.191295
O O3 0.514864 0.910630 0.899551
O O4 0.181475 0.948774 0.820631
O O5 0.500000 0.000000 0.866961
O O6 0.258497 0.963819 0.969622
O O7 0.826901 0.869832 0.822991
O O8 0.719587 0.831824 0.948828
O O9 0.940997 0.904733 0.961629
O O10 0.552288 0.594006 0.212963
O O11 0.047381 0.581750 0.236169
O O12 0.737834 0.153875 0.180344
O O13 0.474768 0.186205 0.071986
O O14 0.718292 0.111454 0.057718
O O15 0.976982 0.183772 0.059765
O O16 0.250000 0.250000 0.003754
#
# Coordination Sequence:
#
# PCOD9355098 Si02
#       8
#     4   8   8   8   8   8   8   8
#     4  12  26  38  58  96 134 184 232 278 322 390
#     4  11  23  38  62  90 132 179 224 275 324 389
#     4  10  23  42  65  95 129 175 221 273 335 395
#     4  11  26  41  59  92 132 181 224 273 325 382
#     4  11  23  42  69  99 132 168 217 272 342 401
#     4  11  23  45  68  92 133 176 223 274 335 394
#     4  11  24  45  72 101 134 168 215 277 344 411
#     4  11  22  40  61  90 131 175 226 279 322 394
#
# _framework density 20.468581
#
# number of rings (size 3 to 8) (size 9 to 14) (size 15 to 20)
#    0.000    1.067    4.000    2.000    5.600    1.600 
#    2.400    1.333    0.000    0.000    0.000    0.000 
#    0.000    0.000    0.000    0.000    0.000    0.000 
#
# Total GULP energy -167285.952380 kJ/mol
# GULP energy per Si atom -5576.198413 kJ/mol
# Density = 2.042199 g / cm^3
# Si number density = 20.468581 Si / 1000 Ang^3
#
#
#
# Elastic Constant Matrix: (Units=GPa)
#
#
# Indices 1 2 3 4 5 6 
#
# 1 47.4939 21.0356 -13.2179 0.0000 0.0000 0.0000
# 2 21.0356 113.0156 46.2556 0.0000 0.0000 0.0000
# 3 -13.2179 46.2556 126.2579 0.0000 0.0000 0.0000
# 4 0.0000 0.0000 0.0000 -27.0047 0.0000 0.0000
# 5 0.0000 0.0000 0.0000 0.0000 26.9740 0.0000
# 6 0.0000 0.0000 0.0000 0.0000 0.0000 17.5022
#
#
#
# Elastic Compliance Matrix: (Units=1/GPa)
#
#
# Indices 1 2 3 4 5 6 
#
# 1 0.025550 -0.006882 0.005196 0.000000 0.000000 0.000000
# 2 -0.006882 0.012263 -0.005213 0.000000 0.000000 0.000000
# 3 0.005196 -0.005213 0.010374 0.000000 0.000000 0.000000
# 4 0.000000 0.000000 0.000000 -0.037031 0.000000 0.000000
# 5 0.000000 0.000000 0.000000 0.000000 0.037073 0.000000
# 6 0.000000 0.000000 0.000000 0.000000 0.000000 0.057136
#
#
# Mechanical properties :
#
#
# Convention : Reuss Voigt Hill
#
# Bulk Modulus (GPa) = 29.07965 43.87933 36.47949
# Shear Modulus (GPa) = 38.27725 19.00724 28.64224
#
# Velocity S-wave (km/s) = 4.32910 3.05061 3.74482
# Velocity P-wave (km/s) = 6.26306 5.82170 6.04641
#
# Compressibility (1/GPa) = 0.03438831
#
# Stress axis : x y z
#
# Youngs Moduli (GPa) = 39.13944 81.54618 96.39342
#
# Poissons Ratio (x) = 0.56122 -0.50087
# Poissons Ratio (y) = 0.26937 0.50251
# Poissons Ratio (z) = -0.20337 0.42511
#
# Static dielectric constant tensor:
#      x y z
#    x 1.794230 0.000000 0.000000 
#    y 0.000000 1.738250 0.000000 
#    z 0.000000 0.000000 1.745090 
# 
# From -- ./inp_files/14035.got.cif
#   From: 2010.05.17/outbox.cif.g08.bks.cpg/sg37_8_cif.got.tgz:14035.got - 2010.06.03 17:53:42.
