data_PCOD9355692
_publ_section_title
;
Structure prediction by ZEFSAII (Michael W. Deem and Ramdas Pophale) SiO2 
 PCOD9355692
Probable space group: C C C 2
;
_chemical_formula_sum "Si O2"
_cell_formula_units_Z 48
_cell_length_a 12.602546
_cell_length_b 6.473905
_cell_length_c 26.853261
_cell_angle_alpha 90.000000
_cell_angle_beta 90.000000
_cell_angle_gamma 90.000000
_cell_volume 2190.895415
_symmetry_space_group_name_H-M "C C C 2"
_symmetry_group_IT_number 37
_symmetry_cell_setting 'orthorhombic'
loop_
_space_group_symop_operation_xyz
x,y,z
-x,-y,z
-x,y,1/2+z
x,-y,1/2+z
1/2+x,1/2+y,z
1/2-x,1/2-y,z
1/2-x,1/2+y,1/2+z
1/2+x,1/2-y,1/2+z
loop_
_atom_site_type_symbol
_atom_site_label
_atom_site_fract_x
_atom_site_fract_y
_atom_site_fract_z
Si Si1 0.000000 0.000000 0.413790
Si Si2 0.000000 0.000000 0.654468
Si Si3 0.000000 0.500000 0.797059
Si Si4 0.858691 0.625263 0.130414
Si Si5 0.633519 0.789309 0.972036
Si Si6 0.368185 0.208899 0.718552
Si Si7 0.000000 0.500000 0.051023
Si Si8 0.138799 0.631968 0.883305
O O1 0.954449 0.802008 0.386604
O O2 0.099109 0.918106 0.444708
O O3 0.948377 0.195977 0.627644
O O4 0.095269 0.095337 0.686607
O O5 0.040503 0.323588 0.759399
O O6 0.103244 0.526704 0.831950
O O7 0.750000 0.750000 0.125033
O O8 0.863563 0.490736 0.181202
O O9 0.896007 0.473576 0.085899
O O10 0.750000 0.750000 0.993617
O O11 0.636769 0.974560 0.930541
O O12 0.542884 0.829294 0.012564
O O13 0.250000 0.250000 0.738354
O O14 0.250000 0.750000 0.880697
#
# Coordination Sequence:
#
# PCOD9355692 Si02
#       8
#     4   4   4   8   8   8   4   8
#     4  12  22  46  74  94 142 190 220 282 350 414
#     4  12  22  46  74  94 142 190 220 282 350 414
#     4  12  26  46  68 116 138 172 246 294 336 416
#     4  12  25  46  72 105 140 186 231 284 355 413
#     4  12  25  46  72 105 140 186 231 284 355 413
#     4  12  26  46  73 102 141 186 231 284 352 417
#     4  12  24  46  70 112 140 172 244 296 334 416
#     4  12  26  46  73 102 141 186 231 284 352 417
#
# _framework density 21.908850000000001
#
# number of rings (size 3 to 8) (size 9 to 14) (size 15 to 20)
#    0.000    0.000   10.000    0.500    0.000    5.333 
#    0.000    2.500    0.000    0.000    0.000    0.000 
#    0.000    0.000    0.000    0.000    0.000    0.000 
#
# Total GULP energy -133810.206323 kJ/mol
# GULP energy per Si atom -5575.425263 kJ/mol
# Density = 2.185898 g / cm^3
# Si number density = 21.908850 Si / 1000 Ang^3
#
#
#
# Elastic Constant Matrix: (Units=GPa)
#
#
# Indices 1 2 3 4 5 6 
#
# 1 112.4276 18.1016 12.3489 0.0000 0.0000 0.0000
# 2 18.1016 72.6717 18.9914 0.0000 0.0000 0.0000
# 3 12.3489 18.9914 81.8483 0.0000 0.0000 0.0000
# 4 0.0000 0.0000 0.0000 3.8487 0.0000 0.0000
# 5 0.0000 0.0000 0.0000 0.0000 9.6502 0.0000
# 6 0.0000 0.0000 0.0000 0.0000 0.0000 54.6443
#
#
#
# Elastic Compliance Matrix: (Units=1/GPa)
#
#
# Indices 1 2 3 4 5 6 
#
# 1 0.009332 -0.002083 -0.000925 0.000000 0.000000 0.000000
# 2 -0.002083 0.015114 -0.003193 0.000000 0.000000 0.000000
# 3 -0.000925 -0.003193 0.013098 0.000000 0.000000 0.000000
# 4 0.000000 0.000000 0.000000 0.259831 0.000000 0.000000
# 5 0.000000 0.000000 0.000000 0.000000 0.103625 0.000000
# 6 0.000000 0.000000 0.000000 0.000000 0.000000 0.018300
#
#
# Mechanical properties :
#
#
# Convention : Reuss Voigt Hill
#
# Bulk Modulus (GPa) = 39.77216 40.64792 40.21004
# Shear Modulus (GPa) = 11.36156 28.12901 19.74528
#
# Velocity S-wave (km/s) = 2.27971 3.58706 3.00533
# Velocity P-wave (km/s) = 5.01222 5.97908 5.51687
#
# Compressibility (1/GPa) = 0.02514321
#
# Stress axis : x y z
#
# Youngs Moduli (GPa) = 107.16378 66.16547 76.34740
#
# Poissons Ratio (x) = 0.13780 0.07059
# Poissons Ratio (y) = 0.22319 0.24375
# Poissons Ratio (z) = 0.09909 0.21124
#
# Static dielectric constant tensor:
#      x y z
#    x 1.840310 0.000000 0.000000 
#    y 0.000000 1.775660 0.000000 
#    z 0.000000 0.000000 1.821190 
# 
# From -- ./inp_files/19932.got.cif
#   From: 2010.05.17/outbox.cif.g08.bks.cpg/sg37_10_cif.got.tgz:19932.got - 2010.06.03 17:53:42.
