data_PCOD9355269
_publ_section_title
;
Structure prediction by ZEFSAII (Michael W. Deem and Ramdas Pophale) SiO2 
 PCOD9355269
Probable space group: C C C 2
;
_chemical_formula_sum "Si O2"
_cell_formula_units_Z 48
_cell_length_a 5.250264
_cell_length_b 23.953097
_cell_length_c 14.809702
_cell_angle_alpha 90.000000
_cell_angle_beta 90.000000
_cell_angle_gamma 90.000000
_cell_volume 1862.469351
_symmetry_space_group_name_H-M "C C C 2"
_symmetry_group_IT_number 37
_symmetry_cell_setting 'orthorhombic'
loop_
_space_group_symop_operation_xyz
x,y,z
-x,-y,z
-x,y,1/2+z
x,-y,1/2+z
1/2+x,1/2+y,z
1/2-x,1/2-y,z
1/2-x,1/2+y,1/2+z
1/2+x,1/2-y,1/2+z
loop_
_atom_site_type_symbol
_atom_site_label
_atom_site_fract_x
_atom_site_fract_y
_atom_site_fract_z
Si Si1 0.923767 0.098380 0.063510
Si Si2 0.500000 0.500000 0.432915
Si Si3 0.250000 0.250000 0.779379
Si Si4 0.500000 0.000000 0.814714
Si Si5 0.046613 0.155440 0.893639
Si Si6 0.250000 0.250000 0.476703
Si Si7 0.990716 0.689182 0.125839
Si Si8 0.699738 0.404956 0.728759
O O1 0.019819 0.068772 0.153784
O O2 0.714384 0.143677 0.097488
O O3 0.114341 0.130937 0.992000
O O4 0.868237 0.047291 0.996035
O O5 0.253561 0.515514 0.372002
O O6 0.262788 0.304247 0.842000
O O7 0.037293 0.267240 0.707462
O O8 0.576612 0.053737 0.755957
O O9 0.941339 0.112674 0.819905
O O10 0.819519 0.197898 0.916193
O O11 0.016816 0.269393 0.540418
O O12 0.781505 0.649288 0.170599
#
# Coordination Sequence:
#
# PCOD9355269 Si02
#       8
#     8   4   4   4   8   4   8   8
#     4  11  27  48  75 114 156 198 272 331 407 480
#     4  12  30  54  82 116 160 208 274 336 420 480
#     4  11  22  42  71 104 152 204 257 324 387 492
#     4  12  32  52  86 116 158 216 274 336 416 490
#     4  11  23  46  71 112 152 210 257 331 401 488
#     4   9  22  42  65 104 150 194 257 312 387 484
#     4  10  24  44  70 108 149 200 261 318 401 473
#     4  12  27  47  80 109 155 210 266 338 406 491
#
# _framework density 25.772235999999999
#
# number of rings (size 3 to 8) (size 9 to 14) (size 15 to 20)
#    0.000    1.000    3.333    1.000   11.667    0.000 
#    0.000    0.000    0.000    0.000    0.000    0.000 
#    0.000    0.000    0.000    0.000    0.000    0.000 
#
# Total GULP energy -133869.206825 kJ/mol
# GULP energy per Si atom -5577.883618 kJ/mol
# Density = 2.571358 g / cm^3
# Si number density = 25.772236 Si / 1000 Ang^3
#
#
#
# Elastic Constant Matrix: (Units=GPa)
#
#
# Indices 1 2 3 4 5 6 
#
# 1 88.3551 27.6081 49.5093 0.0000 0.0000 0.0000
# 2 27.6081 113.2326 47.3374 0.0000 0.0000 0.0000
# 3 49.5093 47.3374 198.7381 0.0000 0.0000 0.0000
# 4 0.0000 0.0000 0.0000 70.1119 0.0000 0.0000
# 5 0.0000 0.0000 0.0000 0.0000 10.9169 0.0000
# 6 0.0000 0.0000 0.0000 0.0000 0.0000 41.5358
#
#
#
# Elastic Compliance Matrix: (Units=1/GPa)
#
#
# Indices 1 2 3 4 5 6 
#
# 1 0.013593 -0.002109 -0.002884 0.000000 0.000000 0.000000
# 2 -0.002109 0.010135 -0.001889 0.000000 0.000000 0.000000
# 3 -0.002884 -0.001889 0.006200 0.000000 0.000000 0.000000
# 4 0.000000 0.000000 0.000000 0.014263 0.000000 0.000000
# 5 0.000000 0.000000 0.000000 0.000000 0.091601 0.000000
# 6 0.000000 0.000000 0.000000 0.000000 0.000000 0.024076
#
#
# Mechanical properties :
#
#
# Convention : Reuss Voigt Hill
#
# Bulk Modulus (GPa) = 61.86050 72.13729 66.99889
# Shear Modulus (GPa) = 27.93006 42.90431 35.41719
#
# Velocity S-wave (km/s) = 3.29557 4.08456 3.71109
# Velocity P-wave (km/s) = 6.20773 7.09196 6.66453
#
# Compressibility (1/GPa) = 0.01616540
#
# Stress axis : x y z
#
# Youngs Moduli (GPa) = 73.56812 98.66707 161.28765
#
# Poissons Ratio (x) = 0.20804 0.46515
# Poissons Ratio (y) = 0.15512 0.30464
# Poissons Ratio (z) = 0.21217 0.18636
#
# Static dielectric constant tensor:
#      x y z
#    x 2.232210 0.000000 0.000000 
#    y 0.000000 2.214310 0.000000 
#    z 0.000000 0.000000 2.048340 
# 
# From -- ./inp_files/9810.got.cif
#   From: 2010.05.17/outbox.cif.g08.bks.cpg/sg37_5_cif.got.tgz:9810.got - 2010.06.03 17:53:42.
