data_PCOD9355638
_publ_section_title
;
Structure prediction by ZEFSAII (Michael W. Deem and Ramdas Pophale) SiO2 
 PCOD9355638
Probable space group: C C C 2
;
_chemical_formula_sum "Si O2"
_cell_formula_units_Z 40
_cell_length_a 14.761266
_cell_length_b 10.543242
_cell_length_c 10.990988
_cell_angle_alpha 90.000000
_cell_angle_beta 90.000000
_cell_angle_gamma 90.000000
_cell_volume 1710.545044
_symmetry_space_group_name_H-M "C C C 2"
_symmetry_group_IT_number 37
_symmetry_cell_setting 'orthorhombic'
loop_
_space_group_symop_operation_xyz
x,y,z
-x,-y,z
-x,y,1/2+z
x,-y,1/2+z
1/2+x,1/2+y,z
1/2-x,1/2-y,z
1/2-x,1/2+y,1/2+z
1/2+x,1/2-y,1/2+z
loop_
_atom_site_type_symbol
_atom_site_label
_atom_site_fract_x
_atom_site_fract_y
_atom_site_fract_z
Si Si1 0.352554 0.130064 0.925550
Si Si2 0.750000 0.750000 0.304356
Si Si3 0.750000 0.750000 0.710797
Si Si4 0.000000 0.000000 0.588632
Si Si5 0.064724 0.262104 0.157043
Si Si6 0.000000 0.500000 0.796075
Si Si7 0.699853 0.546726 0.506445
O O1 0.326451 0.206405 0.805238
O O2 0.412670 0.011797 0.881420
O O3 0.414612 0.209768 0.016157
O O4 0.262858 0.077590 0.993368
O O5 0.838885 0.733712 0.223649
O O6 0.726336 0.632024 0.391241
O O7 0.724797 0.631171 0.625034
O O8 0.906853 0.981488 0.513739
O O9 0.017213 0.873443 0.666841
O O10 0.007893 0.376856 0.212614
#
# Coordination Sequence:
#
# PCOD9355638 Si02
#       7
#     8   4   4   4   8   4   8
#     4  12  25  48  76 109 155 211 260 323 398 478
#     4  11  25  50  78 110 163 205 262 332 402 471
#     4  11  25  46  72 108 153 207 260 322 398 481
#     4  12  28  46  78 116 162 192 264 334 400 466
#     4  12  27  49  77 119 156 209 266 330 401 485
#     4  12  26  48  82 110 156 216 270 324 390 492
#     4  11  26  48  74 112 157 211 261 329 397 481
#
# _framework density 23.384357999999999
#
# number of rings (size 3 to 8) (size 9 to 14) (size 15 to 20)
#    0.000    0.400    2.000    6.000    5.600    2.400 
#    0.000    0.000    0.000    0.000    0.000    0.000 
#    0.000    0.000    0.000    0.000    0.000    0.000 
#
# Total GULP energy -112032.171259 kJ/mol
# GULP energy per Si atom -5601.608563 kJ/mol
# Density = 2.333113 g / cm^3
# Si number density = 23.384358 Si / 1000 Ang^3
#
#
#
# Elastic Constant Matrix: (Units=GPa)
#
#
# Indices 1 2 3 4 5 6 
#
# 1 145.4692 53.2253 40.7282 0.0000 0.0000 0.0000
# 2 53.2253 141.5342 43.2451 0.0000 0.0000 0.0000
# 3 40.7282 43.2451 110.8677 0.0000 0.0000 0.0000
# 4 0.0000 0.0000 0.0000 21.0568 0.0000 0.0000
# 5 0.0000 0.0000 0.0000 0.0000 23.3455 0.0000
# 6 0.0000 0.0000 0.0000 0.0000 0.0000 46.4335
#
#
#
# Elastic Compliance Matrix: (Units=1/GPa)
#
#
# Indices 1 2 3 4 5 6 
#
# 1 0.008381 -0.002510 -0.002100 0.000000 0.000000 0.000000
# 2 -0.002510 0.008773 -0.002500 0.000000 0.000000 0.000000
# 3 -0.002100 -0.002500 0.010766 0.000000 0.000000 0.000000
# 4 0.000000 0.000000 0.000000 0.047491 0.000000 0.000000
# 5 0.000000 0.000000 0.000000 0.000000 0.042835 0.000000
# 6 0.000000 0.000000 0.000000 0.000000 0.000000 0.021536
#
#
# Mechanical properties :
#
#
# Convention : Reuss Voigt Hill
#
# Bulk Modulus (GPa) = 72.98904 74.69647 73.84276
# Shear Modulus (GPa) = 31.53227 35.54534 33.53881
#
# Velocity S-wave (km/s) = 3.67609 3.90301 3.79125
# Velocity P-wave (km/s) = 7.02130 7.23350 7.12819
#
# Compressibility (1/GPa) = 0.01370069
#
# Stress axis : x y z
#
# Youngs Moduli (GPa) = 119.32395 113.98317 92.88323
#
# Poissons Ratio (x) = 0.28611 0.19502
# Poissons Ratio (y) = 0.29951 0.23221
# Poissons Ratio (z) = 0.25053 0.28496
#
# Static dielectric constant tensor:
#      x y z
#    x 1.878000 0.000000 0.000000 
#    y 0.000000 1.795410 0.000000 
#    z 0.000000 0.000000 1.846150 
# 
# From -- ./inp_files/2770.got.cif
#   From: 2010.05.17/outbox.cif.g08.bks.cpg/sg37_2_cif.got.tgz:2770.got - 2010.06.03 17:53:42.
