data_PCOD9355278
_publ_section_title
;
Structure prediction by ZEFSAII (Michael W. Deem and Ramdas Pophale) SiO2 
 PCOD9355278
Probable space group: C C C 2
;
_chemical_formula_sum "Si O2"
_cell_formula_units_Z 60
_cell_length_a 26.880223
_cell_length_b 7.840405
_cell_length_c 12.656726
_cell_angle_alpha 90.000000
_cell_angle_beta 90.000000
_cell_angle_gamma 90.000000
_cell_volume 2667.428227
_symmetry_space_group_name_H-M "C C C 2"
_symmetry_group_IT_number 37
_symmetry_cell_setting 'orthorhombic'
loop_
_space_group_symop_operation_xyz
x,y,z
-x,-y,z
-x,y,1/2+z
x,-y,1/2+z
1/2+x,1/2+y,z
1/2-x,1/2-y,z
1/2-x,1/2+y,1/2+z
1/2+x,1/2-y,1/2+z
loop_
_atom_site_type_symbol
_atom_site_label
_atom_site_fract_x
_atom_site_fract_y
_atom_site_fract_z
Si Si1 0.307243 0.801762 0.611540
Si Si2 0.000000 0.000000 0.992939
Si Si3 0.489234 0.804459 0.159480
Si Si4 0.066606 0.128036 0.315112
Si Si5 0.693103 0.320400 0.387731
Si Si6 0.329841 0.286045 0.349466
Si Si7 0.882188 0.183174 0.203313
Si Si8 0.196109 0.314544 0.561372
O O1 0.250000 0.750000 0.601075
O O2 0.328733 0.728747 0.502510
O O3 0.321504 0.739459 0.726437
O O4 0.314290 0.003181 0.610209
O O5 0.954527 0.016506 0.911290
O O6 0.999360 0.167732 0.066101
O O7 0.523875 0.734664 0.255865
O O8 0.430967 0.796282 0.188369
O O9 0.500000 0.000000 0.132213
O O10 0.111129 0.237552 0.362846
O O11 0.093586 0.999124 0.233296
O O12 0.750000 0.250000 0.374701
O O13 0.690182 0.525304 0.377722
O O14 0.655331 0.260225 0.296356
O O15 0.304088 0.165642 0.434785
O O16 0.846905 0.187052 0.100652
O O17 0.250000 0.250000 0.595542
#
# Coordination Sequence:
#
# PCOD9355278 Si02
#       8
#     8   4   8   8   8   8   8   8
#     4  11  27  45  70 108 150 197 251 309 369 448
#     4  12  22  52  76 106 152 194 246 318 382 460
#     4  12  27  48  76 112 149 194 256 314 380 460
#     4  11  25  48  78 104 147 194 247 306 392 455
#     4  10  24  44  75 104 149 194 251 306 375 445
#     4  11  27  46  74 107 144 197 252 305 382 448
#     4  11  24  47  75 106 144 202 245 310 384 451
#     4  12  27  46  75 107 153 194 254 308 380 457
#
# _framework density 22.493575
#
# number of rings (size 3 to 8) (size 9 to 14) (size 15 to 20)
#    0.000    0.800    2.667    3.200   13.067    1.600 
#    0.000    0.000    0.000    0.000    0.000    0.000 
#    0.000    0.000    0.000    0.000    0.000    0.000 
#
# Total GULP energy -167690.886190 kJ/mol
# GULP energy per Si atom -5589.696206 kJ/mol
# Density = 2.244238 g / cm^3
# Si number density = 22.493575 Si / 1000 Ang^3
#
#
#
# Elastic Constant Matrix: (Units=GPa)
#
#
# Indices 1 2 3 4 5 6 
#
# 1 129.8262 25.3309 40.3894 0.0000 0.0000 0.0000
# 2 25.3309 118.4163 51.4716 0.0000 0.0000 0.0000
# 3 40.3894 51.4716 136.6254 0.0000 0.0000 0.0000
# 4 0.0000 0.0000 0.0000 27.7630 0.0000 0.0000
# 5 0.0000 0.0000 0.0000 0.0000 21.0061 0.0000
# 6 0.0000 0.0000 0.0000 0.0000 0.0000 24.3998
#
#
#
# Elastic Compliance Matrix: (Units=1/GPa)
#
#
# Indices 1 2 3 4 5 6 
#
# 1 0.008558 -0.000874 -0.002201 0.000000 0.000000 0.000000
# 2 -0.000874 0.010188 -0.003580 0.000000 0.000000 0.000000
# 3 -0.002201 -0.003580 0.009318 0.000000 0.000000 0.000000
# 4 0.000000 0.000000 0.000000 0.036019 0.000000 0.000000
# 5 0.000000 0.000000 0.000000 0.000000 0.047605 0.000000
# 6 0.000000 0.000000 0.000000 0.000000 0.000000 0.040984
#
#
# Mechanical properties :
#
#
# Convention : Reuss Voigt Hill
#
# Bulk Modulus (GPa) = 67.77264 68.80575 68.28920
# Shear Modulus (GPa) = 29.25698 32.47884 30.86791
#
# Velocity S-wave (km/s) = 3.61041 3.80401 3.70847
# Velocity P-wave (km/s) = 6.89748 7.06750 6.98301
#
# Compressibility (1/GPa) = 0.01475522
#
# Stress axis : x y z
#
# Youngs Moduli (GPa) = 116.85310 98.15725 107.31452
#
# Poissons Ratio (x) = 0.08580 0.23615
# Poissons Ratio (y) = 0.10214 0.38415
# Poissons Ratio (z) = 0.25714 0.35137
#
# Static dielectric constant tensor:
#      x y z
#    x 1.910410 0.000000 0.000000 
#    y 0.000000 1.858230 0.000000 
#    z 0.000000 0.000000 1.879180 
# 
# From -- ./inp_files/9091.got.cif
#   From: 2010.05.17/outbox.cif.g08.bks.cpg/sg37_5_cif.got.tgz:9091.got - 2010.06.03 17:53:42.
