data_PCOD9355716
_publ_section_title
;
Structure prediction by ZEFSAII (Michael W. Deem and Ramdas Pophale) SiO2 
 PCOD9355716
Probable space group: C C C 2
;
_chemical_formula_sum "Si O2"
_cell_formula_units_Z 28
_cell_length_a 8.269057
_cell_length_b 13.593499
_cell_length_c 10.180301
_cell_angle_alpha 90.000000
_cell_angle_beta 90.000000
_cell_angle_gamma 90.000000
_cell_volume 1144.320990
_symmetry_space_group_name_H-M "C C C 2"
_symmetry_group_IT_number 37
_symmetry_cell_setting 'orthorhombic'
loop_
_space_group_symop_operation_xyz
x,y,z
-x,-y,z
-x,y,1/2+z
x,-y,1/2+z
1/2+x,1/2+y,z
1/2-x,1/2-y,z
1/2-x,1/2+y,1/2+z
1/2+x,1/2-y,1/2+z
loop_
_atom_site_type_symbol
_atom_site_label
_atom_site_fract_x
_atom_site_fract_y
_atom_site_fract_z
Si Si1 0.539266 0.173684 0.018460
Si Si2 0.566678 0.284019 0.751155
Si Si3 0.000000 0.000000 0.767837
Si Si4 0.671782 0.013040 0.417561
O O1 0.549111 0.219945 0.159895
O O2 0.534928 0.254564 0.902954
O O3 0.379377 0.105009 0.006025
O O4 0.677026 0.092012 0.991073
O O5 0.750000 0.250000 0.727764
O O6 0.547701 0.396334 0.705869
O O7 0.838261 0.972346 0.847229
O O8 0.500000 0.000000 0.335518
#
# Coordination Sequence:
#
# PCOD9355716 Si02
#       4
#     8   8   4   8
#     4   9  24  48  74 100 166 195 252 343 398 456
#     4  12  25  49  74 117 158 209 269 335 403 492
#     4  12  24  46  84 112 156 206 284 316 410 488
#     4   8  21  47  77 110 147 205 263 325 402 479
#
# _framework density 24.468658999999999
#
# number of rings (size 3 to 8) (size 9 to 14) (size 15 to 20)
#    1.714    0.000    2.857    0.000    4.000    5.714 
#    5.143    0.000    6.286    0.000    0.000    0.000 
#    0.000    0.000    0.000    0.000    0.000    0.000 
#
# Total GULP energy -78098.753606 kJ/mol
# GULP energy per Si atom -5578.482400 kJ/mol
# Density = 2.441297 g / cm^3
# Si number density = 24.468659 Si / 1000 Ang^3
#
#
#
# Elastic Constant Matrix: (Units=GPa)
#
#
# Indices 1 2 3 4 5 6 
#
# 1 124.1504 19.0212 12.3247 0.0000 0.0000 0.0000
# 2 19.0212 152.3804 12.2664 0.0000 0.0000 0.0000
# 3 12.3247 12.2664 52.5887 0.0000 0.0000 0.0000
# 4 0.0000 0.0000 0.0000 15.5833 0.0000 0.0000
# 5 0.0000 0.0000 0.0000 0.0000 -5.1149 0.0000
# 6 0.0000 0.0000 0.0000 0.0000 0.0000 32.1739
#
#
#
# Elastic Compliance Matrix: (Units=1/GPa)
#
#
# Indices 1 2 3 4 5 6 
#
# 1 0.008367 -0.000904 -0.001750 0.000000 0.000000 0.000000
# 2 -0.000904 0.006786 -0.001371 0.000000 0.000000 0.000000
# 3 -0.001750 -0.001371 0.019745 0.000000 0.000000 0.000000
# 4 0.000000 0.000000 0.000000 0.064171 0.000000 0.000000
# 5 0.000000 0.000000 0.000000 0.000000 -0.195506 0.000000
# 6 0.000000 0.000000 0.000000 0.000000 0.000000 0.031081
#
#
# Mechanical properties :
#
#
# Convention : Reuss Voigt Hill
#
# Bulk Modulus (GPa) = 37.24579 46.26047 41.75313
# Shear Modulus (GPa) = -103.39934 27.56226 -37.91854
#
# Velocity S-wave (km/s) = -6.50766 3.35988 -3.94087
# Velocity P-wave (km/s) = 6.41960 5.83084 1.89902
#
# Compressibility (1/GPa) = 0.02684867
#
# Stress axis : x y z
#
# Youngs Moduli (GPa) = 119.51836 147.36928 50.64464
#
# Poissons Ratio (x) = 0.13315 0.08863
# Poissons Ratio (y) = 0.10799 0.06943
# Poissons Ratio (z) = 0.20917 0.20205
#
# Static dielectric constant tensor:
#      x y z
#    x 1.871250 0.000000 0.000000 
#    y 0.000000 2.018850 0.000000 
#    z 0.000000 0.000000 1.944010 
# 
# From -- ./inp_files/5863.got.cif
#   From: 2010.05.17/outbox.cif.g08.bks.cpg/sg37_3_cif.got.tgz:5863.got - 2010.06.03 17:53:42.
