data_PCOD9355731
_publ_section_title
;
Structure prediction by ZEFSAII (Michael W. Deem and Ramdas Pophale) SiO2 
 PCOD9355731
Probable space group: C C C 2
;
_chemical_formula_sum "Si O2"
_cell_formula_units_Z 36
_cell_length_a 10.447113
_cell_length_b 12.092887
_cell_length_c 11.115406
_cell_angle_alpha 90.000000
_cell_angle_beta 90.000000
_cell_angle_gamma 90.000000
_cell_volume 1404.273231
_symmetry_space_group_name_H-M "C C C 2"
_symmetry_group_IT_number 37
_symmetry_cell_setting 'orthorhombic'
loop_
_space_group_symop_operation_xyz
x,y,z
-x,-y,z
-x,y,1/2+z
x,-y,1/2+z
1/2+x,1/2+y,z
1/2-x,1/2-y,z
1/2-x,1/2+y,1/2+z
1/2+x,1/2-y,1/2+z
loop_
_atom_site_type_symbol
_atom_site_label
_atom_site_fract_x
_atom_site_fract_y
_atom_site_fract_z
Si Si1 0.750000 0.750000 0.065910
Si Si2 0.201202 0.356680 0.478969
Si Si3 0.664511 0.438912 0.379734
Si Si4 0.039937 0.224371 0.278798
Si Si5 0.112516 0.422924 0.710277
O O1 0.870917 0.770911 0.158046
O O2 0.732571 0.646349 0.974212
O O3 0.250000 0.250000 0.551972
O O4 0.312441 0.441185 0.441909
O O5 0.124857 0.293494 0.374366
O O6 0.111417 0.423850 0.567212
O O7 0.531816 0.384220 0.332477
O O8 0.751582 0.456492 0.261442
O O9 0.920025 0.301821 0.253500
O O10 0.000000 0.500000 0.758161
#
# Coordination Sequence:
#
# PCOD9355731 Si02
#       5
#     4   8   8   8   8
#     4  12  26  52  84 126 168 216 288 352 434 512
#     4  12  28  49  73 119 169 220 278 343 430 509
#     4  12  27  50  84 120 164 225 281 353 429 499
#     4  12  25  49  81 120 166 217 283 351 427 514
#     4  12  25  47  81 119 162 220 284 347 424 507
#
# _framework density 25.636039
#
# number of rings (size 3 to 8) (size 9 to 14) (size 15 to 20)
#    0.000    0.000    5.556    4.000    3.111    0.889 
#    0.000    0.000    0.000    0.000    0.000    0.000 
#    0.000    0.000    0.000    0.000    0.000    0.000 
#
# Total GULP energy -100417.527492 kJ/mol
# GULP energy per Si atom -5578.751527 kJ/mol
# Density = 2.557769 g / cm^3
# Si number density = 25.636039 Si / 1000 Ang^3
#
#
#
# Elastic Constant Matrix: (Units=GPa)
#
#
# Indices 1 2 3 4 5 6 
#
# 1 117.3263 52.0739 37.0293 0.0000 0.0000 0.0000
# 2 52.0739 184.1128 37.9891 0.0000 0.0000 0.0000
# 3 37.0293 37.9891 110.2251 0.0000 0.0000 0.0000
# 4 0.0000 0.0000 0.0000 0.9123 0.0000 0.0000
# 5 0.0000 0.0000 0.0000 0.0000 -51.5255 0.0000
# 6 0.0000 0.0000 0.0000 0.0000 0.0000 40.6202
#
#
#
# Elastic Compliance Matrix: (Units=1/GPa)
#
#
# Indices 1 2 3 4 5 6 
#
# 1 0.010433 -0.002398 -0.002678 0.000000 0.000000 0.000000
# 2 -0.002398 0.006399 -0.001400 0.000000 0.000000 0.000000
# 3 -0.002678 -0.001400 0.010454 0.000000 0.000000 0.000000
# 4 0.000000 0.000000 0.000000 1.096082 0.000000 0.000000
# 5 0.000000 0.000000 0.000000 0.000000 -0.019408 0.000000
# 6 0.000000 0.000000 0.000000 0.000000 0.000000 0.024618
#
#
# Mechanical properties :
#
#
# Convention : Reuss Voigt Hill
#
# Bulk Modulus (GPa) = 69.76555 73.98318 71.87436
# Shear Modulus (GPa) = 4.36183 16.97287 10.66735
#
# Velocity S-wave (km/s) = 1.30581 2.57586 2.04208
# Velocity P-wave (km/s) = 5.43566 6.14561 5.80151
#
# Compressibility (1/GPa) = 0.01433372
#
# Stress axis : x y z
#
# Youngs Moduli (GPa) = 95.85016 156.28576 95.65279
#
# Poissons Ratio (x) = 0.37480 0.25619
# Poissons Ratio (y) = 0.22987 0.13388
# Poissons Ratio (z) = 0.25672 0.21874
#
# Static dielectric constant tensor:
#      x y z
#    x 2.513320 0.000000 0.000000 
#    y 0.000000 2.069040 0.000000 
#    z 0.000000 0.000000 2.090040 
# 
# From -- ./inp_files/6897.got.cif
#   From: 2010.05.17/outbox.cif.g08.bks.cpg/sg37_4_cif.got.tgz:6897.got - 2010.06.03 17:53:42.
