data_PCOD9355915
_publ_section_title
;
Structure prediction by ZEFSAII (Michael W. Deem and Ramdas Pophale) SiO2 
 PCOD9355915
Probable space group: A M M 2
;
_chemical_formula_sum "Si O2"
_cell_formula_units_Z 56
_cell_length_a 15.958794
_cell_length_b 8.390280
_cell_length_c 20.658506
_cell_angle_alpha 90.000000
_cell_angle_beta 90.000000
_cell_angle_gamma 90.000000
_cell_volume 2766.148133
_symmetry_space_group_name_H-M "A M M 2"
_symmetry_group_IT_number 38
_symmetry_cell_setting 'orthorhombic'
loop_
_space_group_symop_operation_xyz
x,y,z
-x,-y,z
-x,y,z
x,-y,z
x,1/2+y,1/2+z
-x,1/2-y,1/2+z
-x,1/2+y,1/2+z
x,1/2-y,1/2+z
loop_
_atom_site_type_symbol
_atom_site_label
_atom_site_fract_x
_atom_site_fract_y
_atom_site_fract_z
Si Si1 0.372380 0.313531 0.868040
Si Si2 0.408699 0.687244 0.505401
Si Si3 0.408761 0.806004 0.220699
Si Si4 0.226526 0.186147 0.533531
Si Si5 0.093435 0.308526 0.274491
Si Si6 0.806567 0.812621 0.897154
Si Si7 0.771672 0.690380 0.672067
O O1 0.392819 0.500000 0.878043
O O2 0.407289 0.213546 0.927927
O O3 0.402126 0.265994 0.796939
O O4 0.272592 0.288788 0.872330
O O5 0.500000 0.740905 0.529568
O O6 0.399559 0.500000 0.520444
O O7 0.326218 0.775512 0.529954
O O8 0.500000 0.752360 0.195940
O O9 0.323173 0.750045 0.187158
O O10 0.407865 0.000000 0.216842
O O11 0.184473 0.275153 0.472849
O O12 0.197815 0.241321 0.603826
O O13 0.213744 0.000000 0.524612
O O14 0.094865 0.500000 0.266067
O O15 0.117109 0.277171 0.349365
O O16 0.165151 0.237816 0.228927
O O17 0.000000 0.250266 0.259232
O O18 0.785563 0.000000 0.890332
O O19 0.767747 0.500000 0.667538
#
# Coordination Sequence:
#
# PCOD9355915 Si02
#       7
#     8   8   8   8   8   8   8
#     4  10  17  29  51  79 112 149 192 241 295 350
#     4  10  20  33  50  76 111 152 200 251 300 351
#     4   9  18  31  50  79 115 155 197 241 291 345
#     4  11  23  38  58  82 115 158 202 246 300 356
#     4  10  22  41  66  94 123 154 190 239 300 362
#     4  10  19  35  60  87 116 149 191 241 296 353
#     4  11  22  39  61  87 122 161 204 248 295 353
#
# _framework density 20.244757
#
# number of rings (size 3 to 8) (size 9 to 14) (size 15 to 20)
#    0.000    1.857    1.429    5.143    0.000    3.143 
#    0.000    2.143    0.000    6.429    0.000    0.000 
#    0.000    0.000    0.000    0.000    0.000    0.000 
#
# Total GULP energy -156355.062096 kJ/mol
# GULP energy per Si atom -5584.109361 kJ/mol
# Density = 2.019868 g / cm^3
# Si number density = 20.244757 Si / 1000 Ang^3
#
#
#
# Elastic Constant Matrix: (Units=GPa)
#
#
# Indices 1 2 3 4 5 6 
#
# 1 72.9436 6.7272 26.9365 0.0000 0.0000 0.0000
# 2 6.7272 31.8222 5.9946 0.0000 0.0000 0.0000
# 3 26.9365 5.9946 105.0341 0.0000 0.0000 0.0000
# 4 0.0000 0.0000 0.0000 23.9935 0.0000 0.0000
# 5 0.0000 0.0000 0.0000 0.0000 -7.5531 0.0000
# 6 0.0000 0.0000 0.0000 0.0000 0.0000 17.2666
#
#
#
# Elastic Compliance Matrix: (Units=1/GPa)
#
#
# Indices 1 2 3 4 5 6 
#
# 1 0.015342 -0.002529 -0.003790 0.000000 0.000000 0.000000
# 2 -0.002529 0.032183 -0.001188 0.000000 0.000000 0.000000
# 3 -0.003790 -0.001188 0.010561 0.000000 0.000000 0.000000
# 4 0.000000 0.000000 0.000000 0.041678 0.000000 0.000000
# 5 0.000000 0.000000 0.000000 0.000000 -0.132396 0.000000
# 6 0.000000 0.000000 0.000000 0.000000 0.000000 0.057915
#
#
# Mechanical properties :
#
#
# Convention : Reuss Voigt Hill
#
# Bulk Modulus (GPa) = 23.21775 32.12406 27.67091
# Shear Modulus (GPa) = 91.48253 18.08418 54.78335
#
# Velocity S-wave (km/s) = 6.72951 2.99202 5.20762
# Velocity P-wave (km/s) = 8.47793 5.27622 7.06094
#
# Compressibility (1/GPa) = 0.04307049
#
# Stress axis : x y z
#
# Youngs Moduli (GPa) = 65.17997 31.07218 94.69209
#
# Poissons Ratio (x) = 0.07859 0.35890
# Poissons Ratio (y) = 0.16486 0.11251
# Poissons Ratio (z) = 0.24705 0.03692
#
# Static dielectric constant tensor:
#      x y z
#    x 1.729660 0.000000 0.000000 
#    y 0.000000 1.690630 0.000000 
#    z 0.000000 0.000000 1.723190 
# 
# From -- ./inp_files/21026.got.cif
#   From: 2010.05.17/outbox.cif.g08.bks.cpg/sg38_11_cif.got.tgz:21026.got - 2010.06.03 18:07:57.
