data_PCOD9355667
_publ_section_title
;
Structure prediction by ZEFSAII (Michael W. Deem and Ramdas Pophale) SiO2 
 PCOD9355667
Probable space group: C C C 2
;
_chemical_formula_sum "Si O2"
_cell_formula_units_Z 60
_cell_length_a 8.236932
_cell_length_b 26.130508
_cell_length_c 11.925380
_cell_angle_alpha 90.000000
_cell_angle_beta 90.000000
_cell_angle_gamma 90.000000
_cell_volume 2566.761758
_symmetry_space_group_name_H-M "C C C 2"
_symmetry_group_IT_number 37
_symmetry_cell_setting 'orthorhombic'
loop_
_space_group_symop_operation_xyz
x,y,z
-x,-y,z
-x,y,1/2+z
x,-y,1/2+z
1/2+x,1/2+y,z
1/2-x,1/2-y,z
1/2-x,1/2+y,1/2+z
1/2+x,1/2-y,1/2+z
loop_
_atom_site_type_symbol
_atom_site_label
_atom_site_fract_x
_atom_site_fract_y
_atom_site_fract_z
Si Si1 0.122013 0.071164 0.245130
Si Si2 0.243242 0.960211 0.187408
Si Si3 0.261782 0.146487 0.061724
Si Si4 0.514751 0.797066 0.689020
Si Si5 0.906131 0.385080 0.346157
Si Si6 0.750000 0.750000 0.340552
Si Si7 0.567906 0.298831 0.041644
Si Si8 0.745004 0.101918 0.973459
O O1 0.202981 0.113902 0.167252
O O2 0.130917 0.085502 0.375736
O O3 0.935276 0.063456 0.211344
O O4 0.219675 0.019325 0.216817
O O5 0.373927 0.932821 0.266096
O O6 0.283501 0.944243 0.060212
O O7 0.437340 0.171110 0.086424
O O8 0.120461 0.187150 0.041581
O O9 0.281460 0.114189 0.948987
O O10 0.616759 0.834056 0.769939
O O11 0.353971 0.785568 0.761167
O O12 0.583255 0.744278 0.638476
O O13 0.083612 0.386109 0.402148
O O14 0.621352 0.724490 0.423370
O O15 0.680619 0.349835 0.043180
#
# Coordination Sequence:
#
# PCOD9355667 Si02
#       8
#     8   8   8   8   8   4   8   8
#     4  11  26  50  82 110 154 203 270 322 394 473
#     4  11  28  48  80 116 148 213 260 322 398 477
#     4  12  24  49  72 108 149 204 257 327 383 473
#     4  12  25  46  71 109 155 200 261 320 394 468
#     4  12  27  47  74 115 162 199 260 325 400 472
#     4  12  24  46  70 106 150 202 256 328 380 450
#     4  12  26  44  77 103 146 207 255 315 389 463
#     4  12  26  50  76 113 159 202 259 330 397 476
#
# _framework density 23.375757
#
# number of rings (size 3 to 8) (size 9 to 14) (size 15 to 20)
#    0.000    0.267    5.333    2.400    3.733    2.667 
#    0.000    0.000    0.000    0.000    0.000    0.000 
#    0.000    0.000    0.000    0.000    0.000    0.000 
#
# Total GULP energy -167909.858797 kJ/mol
# GULP energy per Si atom -5596.995293 kJ/mol
# Density = 2.332255 g / cm^3
# Si number density = 23.375757 Si / 1000 Ang^3
#
#
#
# Elastic Constant Matrix: (Units=GPa)
#
#
# Indices 1 2 3 4 5 6 
#
# 1 57.4344 16.0710 29.4446 0.0000 0.0000 0.0000
# 2 16.0710 88.4351 35.7935 0.0000 0.0000 0.0000
# 3 29.4446 35.7935 132.7119 0.0000 0.0000 0.0000
# 4 0.0000 0.0000 0.0000 25.4887 0.0000 0.0000
# 5 0.0000 0.0000 0.0000 0.0000 45.8449 0.0000
# 6 0.0000 0.0000 0.0000 0.0000 0.0000 24.5483
#
#
#
# Elastic Compliance Matrix: (Units=1/GPa)
#
#
# Indices 1 2 3 4 5 6 
#
# 1 0.019975 -0.002061 -0.003876 0.000000 0.000000 0.000000
# 2 -0.002061 0.012906 -0.003024 0.000000 0.000000 0.000000
# 3 -0.003876 -0.003024 0.009211 0.000000 0.000000 0.000000
# 4 0.000000 0.000000 0.000000 0.039233 0.000000 0.000000
# 5 0.000000 0.000000 0.000000 0.000000 0.021813 0.000000
# 6 0.000000 0.000000 0.000000 0.000000 0.000000 0.040736
#
#
# Mechanical properties :
#
#
# Convention : Reuss Voigt Hill
#
# Bulk Modulus (GPa) = 41.37324 49.02217 45.19771
# Shear Modulus (GPa) = 29.43749 32.32787 30.88268
#
# Velocity S-wave (km/s) = 3.55254 3.72286 3.63869
# Velocity P-wave (km/s) = 5.87920 6.28462 6.08529
#
# Compressibility (1/GPa) = 0.02417021
#
# Stress axis : x y z
#
# Youngs Moduli (GPa) = 50.06271 77.48292 108.57138
#
# Poissons Ratio (x) = 0.15971 0.42081
# Poissons Ratio (y) = 0.10319 0.32827
# Poissons Ratio (z) = 0.19404 0.23427
#
# Static dielectric constant tensor:
#      x y z
#    x 1.875430 0.000000 0.000000 
#    y 0.000000 1.895390 0.000000 
#    z 0.000000 0.000000 1.848330 
# 
# From -- ./inp_files/6527.got.cif
#   From: 2010.05.17/outbox.cif.g08.bks.cpg/sg37_4_cif.got.tgz:6527.got - 2010.06.03 17:53:42.
