data_PCOD9355021
_publ_section_title
;
Structure prediction by ZEFSAII (Michael W. Deem and Ramdas Pophale) SiO2 
 PCOD9355021
Probable space group: C C C 2
;
_chemical_formula_sum "Si O2"
_cell_formula_units_Z 32
_cell_length_a 7.457746
_cell_length_b 7.681248
_cell_length_c 23.408941
_cell_angle_alpha 90.000000
_cell_angle_beta 90.000000
_cell_angle_gamma 90.000000
_cell_volume 1340.976423
_symmetry_space_group_name_H-M "C C C 2"
_symmetry_group_IT_number 37
_symmetry_cell_setting 'orthorhombic'
loop_
_space_group_symop_operation_xyz
x,y,z
-x,-y,z
-x,y,1/2+z
x,-y,1/2+z
1/2+x,1/2+y,z
1/2-x,1/2-y,z
1/2-x,1/2+y,1/2+z
1/2+x,1/2-y,1/2+z
loop_
_atom_site_type_symbol
_atom_site_label
_atom_site_fract_x
_atom_site_fract_y
_atom_site_fract_z
Si Si1 0.040589 0.794916 0.700740
Si Si2 0.750000 0.250000 0.417744
Si Si3 0.250000 0.250000 0.604695
Si Si4 0.203027 0.940730 0.528957
Si Si5 0.959082 0.207415 0.827097
O O1 0.250000 0.750000 0.692204
O O2 0.989938 0.723432 0.763725
O O3 0.916415 0.743855 0.648396
O O4 0.000000 0.000000 0.704624
O O5 0.769748 0.087500 0.461340
O O6 0.581504 0.219287 0.377218
O O7 0.200479 0.406853 0.561878
O O8 0.250000 0.750000 0.552543
O O9 0.000000 0.000000 0.538726
O O10 0.750000 0.250000 0.835215
O O11 0.000000 0.000000 0.828180
#
# Coordination Sequence:
#
# PCOD9355021 Si02
#       5
#     8   4   4   8   8
#     4  10  24  44  74 114 149 193 261 319 394 476
#     4  10  23  50  70 108 153 196 264 324 392 470
#     4  12  25  48  78 104 157 212 248 332 390 468
#     4  10  26  49  69 109 152 203 270 311 387 471
#     4  10  22  46  76 111 151 197 255 330 402 472
#
# _framework density 23.863209000000001
#
# number of rings (size 3 to 8) (size 9 to 14) (size 15 to 20)
#    0.750    1.000    0.000    2.250    0.000    9.000 
#   13.500   10.000    0.000    0.000    3.250    0.000 
#    0.000    0.000    0.000    0.000    0.000    0.000 
#
# Total GULP energy -89413.278284 kJ/mol
# GULP energy per Si atom -5588.329893 kJ/mol
# Density = 2.380889 g / cm^3
# Si number density = 23.863209 Si / 1000 Ang^3
#
#
#
# Elastic Constant Matrix: (Units=GPa)
#
#
# Indices 1 2 3 4 5 6 
#
# 1 135.6178 50.9855 73.6499 0.0000 0.0000 0.0000
# 2 50.9855 129.1759 51.7858 0.0000 0.0000 0.0000
# 3 73.6499 51.7858 188.7676 0.0000 0.0000 0.0000
# 4 0.0000 0.0000 0.0000 -50.0445 0.0000 0.0000
# 5 0.0000 0.0000 0.0000 0.0000 61.2370 0.0000
# 6 0.0000 0.0000 0.0000 0.0000 0.0000 39.5227
#
#
#
# Elastic Compliance Matrix: (Units=1/GPa)
#
#
# Indices 1 2 3 4 5 6 
#
# 1 0.010138 -0.002714 -0.003211 0.000000 0.000000 0.000000
# 2 -0.002714 0.009425 -0.001527 0.000000 0.000000 0.000000
# 3 -0.003211 -0.001527 0.006969 0.000000 0.000000 0.000000
# 4 0.000000 0.000000 0.000000 -0.019982 0.000000 0.000000
# 5 0.000000 0.000000 0.000000 0.000000 0.016330 0.000000
# 6 0.000000 0.000000 0.000000 0.000000 0.000000 0.025302
#
#
# Mechanical properties :
#
#
# Convention : Reuss Voigt Hill
#
# Bulk Modulus (GPa) = 85.99616 89.60040 87.79828
# Shear Modulus (GPa) = 74.67126 28.61906 51.64516
#
# Velocity S-wave (km/s) = 5.59994 3.46684 4.65716
# Velocity P-wave (km/s) = 8.82767 7.32491 8.11117
#
# Compressibility (1/GPa) = 0.01162843
#
# Stress axis : x y z
#
# Youngs Moduli (GPa) = 98.64157 106.10473 143.49213
#
# Poissons Ratio (x) = 0.28799 0.46072
# Poissons Ratio (y) = 0.26773 0.21905
# Poissons Ratio (z) = 0.31671 0.16198
#
# Static dielectric constant tensor:
#      x y z
#    x 1.854350 0.000000 0.000000 
#    y 0.000000 2.051110 0.000000 
#    z 0.000000 0.000000 1.901710 
# 
# From -- ./inp_files/17758.got.cif
#   From: 2010.05.17/outbox.cif.g08.bks.cpg/sg37_9_cif.got.tgz:17758.got - 2010.06.03 17:53:42.
