data_PCOD9355334
_publ_section_title
;
Structure prediction by ZEFSAII (Michael W. Deem and Ramdas Pophale) SiO2 
 PCOD9355334
Probable space group: C C C 2
;
_chemical_formula_sum "Si O2"
_cell_formula_units_Z 44
_cell_length_a 16.464091
_cell_length_b 13.247602
_cell_length_c 9.218126
_cell_angle_alpha 90.000000
_cell_angle_beta 90.000000
_cell_angle_gamma 90.000000
_cell_volume 2010.562926
_symmetry_space_group_name_H-M "C C C 2"
_symmetry_group_IT_number 37
_symmetry_cell_setting 'orthorhombic'
loop_
_space_group_symop_operation_xyz
x,y,z
-x,-y,z
-x,y,1/2+z
x,-y,1/2+z
1/2+x,1/2+y,z
1/2-x,1/2-y,z
1/2-x,1/2+y,1/2+z
1/2+x,1/2-y,1/2+z
loop_
_atom_site_type_symbol
_atom_site_label
_atom_site_fract_x
_atom_site_fract_y
_atom_site_fract_z
Si Si1 0.611714 0.827891 0.753980
Si Si2 0.913870 0.887595 0.697947
Si Si3 0.253289 0.902199 0.044840
Si Si4 0.500000 0.500000 0.945269
Si Si5 0.500000 0.000000 0.164698
Si Si6 0.341858 0.116022 0.055748
Si Si7 0.250000 0.750000 0.788441
O O1 0.563160 0.725854 0.735501
O O2 0.670848 0.843499 0.616952
O O3 0.553293 0.923416 0.757086
O O4 0.658982 0.825476 0.904343
O O5 0.820220 0.895863 0.656776
O O6 0.933657 0.955577 0.836282
O O7 0.962497 0.919767 0.555153
O O8 0.282676 0.018483 0.035863
O O9 0.228031 0.842863 0.898181
O O10 0.568431 0.931958 0.084201
O O11 0.314471 0.193236 0.182661
#
# Coordination Sequence:
#
# PCOD9355334 Si02
#       7
#     8   8   8   4   4   8   4
#     4  11  24  45  73 106 141 189 235 297 371 436
#     4  11  25  47  72  98 148 184 248 294 363 437
#     4  11  24  47  72 103 147 186 234 308 365 438
#     4  10  28  46  68 106 134 200 238 298 364 434
#     4  10  24  48  74 108 156 178 244 314 374 450
#     4  11  27  44  77 113 142 197 244 304 376 446
#     4  12  26  44  72 112 144 192 256 290 380 450
#
# _framework density 21.884419000000001
#
# number of rings (size 3 to 8) (size 9 to 14) (size 15 to 20)
#    0.000    1.091    1.818    2.727   10.182    2.909 
#    0.000    0.000    0.000    0.000    0.000    0.000 
#    0.000    0.000    0.000    0.000    0.000    0.000 
#
# Total GULP energy -122878.342242 kJ/mol
# GULP energy per Si atom -5585.379193 kJ/mol
# Density = 2.183461 g / cm^3
# Si number density = 21.884419 Si / 1000 Ang^3
#
#
#
# Elastic Constant Matrix: (Units=GPa)
#
#
# Indices 1 2 3 4 5 6 
#
# 1 53.9807 35.0942 16.2559 0.0000 0.0000 0.0000
# 2 35.0942 98.3660 78.6926 0.0000 0.0000 0.0000
# 3 16.2559 78.6926 138.7344 0.0000 0.0000 0.0000
# 4 0.0000 0.0000 0.0000 17.1792 0.0000 0.0000
# 5 0.0000 0.0000 0.0000 0.0000 28.8450 0.0000
# 6 0.0000 0.0000 0.0000 0.0000 0.0000 69.1026
#
#
#
# Elastic Compliance Matrix: (Units=1/GPa)
#
#
# Indices 1 2 3 4 5 6 
#
# 1 0.025242 -0.012155 0.003937 0.000000 0.000000 0.000000
# 2 -0.012155 0.024465 -0.012453 0.000000 0.000000 0.000000
# 3 0.003937 -0.012453 0.013810 0.000000 0.000000 0.000000
# 4 0.000000 0.000000 0.000000 0.058210 0.000000 0.000000
# 5 0.000000 0.000000 0.000000 0.000000 0.034668 0.000000
# 6 0.000000 0.000000 0.000000 0.000000 0.000000 0.014471
#
#
# Mechanical properties :
#
#
# Convention : Reuss Voigt Hill
#
# Bulk Modulus (GPa) = 45.09555 61.24074 53.16815
# Shear Modulus (GPa) = 22.76874 33.76126 28.26500
#
# Velocity S-wave (km/s) = 3.22904 3.93199 3.59772
# Velocity P-wave (km/s) = 5.87820 6.97557 6.45026
#
# Compressibility (1/GPa) = 0.02217514
#
# Stress axis : x y z
#
# Youngs Moduli (GPa) = 39.61661 40.87500 72.41095
#
# Poissons Ratio (x) = 0.49684 -0.28508
# Poissons Ratio (y) = 0.48155 0.90171
# Poissons Ratio (z) = -0.15597 0.50900
#
# Static dielectric constant tensor:
#      x y z
#    x 1.802220 0.000000 0.000000 
#    y 0.000000 1.834800 0.000000 
#    z 0.000000 0.000000 1.781990 
# 
# From -- ./inp_files/3966.got.cif
#   From: 2010.05.17/outbox.cif.g08.bks.cpg/sg37_2_cif.got.tgz:3966.got - 2010.06.03 17:53:42.
