data_PCOD9355533
_publ_section_title
;
Structure prediction by ZEFSAII (Michael W. Deem and Ramdas Pophale) SiO2 
 PCOD9355533
Probable space group: C C C 2
;
_chemical_formula_sum "Si O2"
_cell_formula_units_Z 48
_cell_length_a 8.553199
_cell_length_b 14.573316
_cell_length_c 18.749666
_cell_angle_alpha 90.000000
_cell_angle_beta 90.000000
_cell_angle_gamma 90.000000
_cell_volume 2337.117214
_symmetry_space_group_name_H-M "C C C 2"
_symmetry_group_IT_number 37
_symmetry_cell_setting 'orthorhombic'
loop_
_space_group_symop_operation_xyz
x,y,z
-x,-y,z
-x,y,1/2+z
x,-y,1/2+z
1/2+x,1/2+y,z
1/2-x,1/2-y,z
1/2-x,1/2+y,1/2+z
1/2+x,1/2-y,1/2+z
loop_
_atom_site_type_symbol
_atom_site_label
_atom_site_fract_x
_atom_site_fract_y
_atom_site_fract_z
Si Si1 0.164078 0.558684 0.359650
Si Si2 0.385074 0.578580 0.097289
Si Si3 0.667711 0.604315 0.432174
Si Si4 0.003005 0.708885 0.945817
Si Si5 0.066216 0.265929 0.111036
Si Si6 0.396500 0.089635 0.702319
O O1 0.299193 0.486806 0.384443
O O2 0.183530 0.596262 0.279434
O O3 0.000000 0.500000 0.362766
O O4 0.130811 0.648240 0.408129
O O5 0.500000 0.500000 0.121734
O O6 0.468948 0.673219 0.113952
O O7 0.226556 0.575899 0.139939
O O8 0.355457 0.570597 0.013091
O O9 0.831643 0.659510 0.429861
O O10 0.534020 0.684136 0.422587
O O11 0.971593 0.700007 0.030598
O O12 0.250000 0.250000 0.116305
O O13 0.006010 0.328581 0.175367
O O14 0.500000 0.000000 0.706612
#
# Coordination Sequence:
#
# PCOD9355533 Si02
#       6
#     8   8   8   8   8   8
#     4   9  20  37  61  93 130 168 214 263 338 400
#     4  11  23  40  65  95 128 168 217 271 318 384
#     4   9  18  36  64  90 126 164 220 271 322 392
#     4   9  18  36  63  92 121 171 214 275 327 385
#     4  11  23  40  65  97 125 166 226 271 323 392
#     4  11  23  41  63  97 132 173 209 263 336 399
#
# _framework density 20.538122999999999
#
# number of rings (size 3 to 8) (size 9 to 14) (size 15 to 20)
#    0.000    2.000    1.667    1.500    4.667    0.000 
#   12.000    2.500    0.000    0.000    0.000    0.000 
#    0.000    0.000    0.000    0.000    0.000    0.000 
#
# Total GULP energy -133888.373741 kJ/mol
# GULP energy per Si atom -5578.682239 kJ/mol
# Density = 2.049138 g / cm^3
# Si number density = 20.538123 Si / 1000 Ang^3
#
#
#
# Elastic Constant Matrix: (Units=GPa)
#
#
# Indices 1 2 3 4 5 6 
#
# 1 58.5034 27.0734 20.5995 0.0000 0.0000 0.0000
# 2 27.0734 96.0075 85.5436 0.0000 0.0000 0.0000
# 3 20.5995 85.5436 100.7423 0.0000 0.0000 0.0000
# 4 0.0000 0.0000 0.0000 1.9761 0.0000 0.0000
# 5 0.0000 0.0000 0.0000 0.0000 -48.6913 0.0000
# 6 0.0000 0.0000 0.0000 0.0000 0.0000 15.6962
#
#
#
# Elastic Compliance Matrix: (Units=1/GPa)
#
#
# Indices 1 2 3 4 5 6 
#
# 1 0.019856 -0.008141 0.002853 0.000000 0.000000 0.000000
# 2 -0.008141 0.046129 -0.037505 0.000000 0.000000 0.000000
# 3 0.002853 -0.037505 0.041189 0.000000 0.000000 0.000000
# 4 0.000000 0.000000 0.000000 0.506049 0.000000 0.000000
# 5 0.000000 0.000000 0.000000 0.000000 -0.020538 0.000000
# 6 0.000000 0.000000 0.000000 0.000000 0.000000 0.063710
#
#
# Mechanical properties :
#
#
# Convention : Reuss Voigt Hill
#
# Bulk Modulus (GPa) = 46.32191 57.96515 52.14353
# Shear Modulus (GPa) = 6.67399 1.93197 4.30298
#
# Velocity S-wave (km/s) = 1.80461 0.97094 1.44902
# Velocity P-wave (km/s) = 5.19088 5.43520 5.31445
#
# Compressibility (1/GPa) = 0.02158806
#
# Stress axis : x y z
#
# Youngs Moduli (GPa) = 50.36273 21.67854 24.27807
#
# Poissons Ratio (x) = 0.17649 -0.06926
# Poissons Ratio (y) = 0.41001 0.91054
# Poissons Ratio (z) = -0.14367 0.81305
#
# Static dielectric constant tensor:
#      x y z
#    x 1.729890 0.000000 0.000000 
#    y 0.000000 1.768040 0.000000 
#    z 0.000000 0.000000 1.730960 
# 
# From -- ./inp_files/14508.got.cif
#   From: 2010.05.17/outbox.cif.g08.bks.cpg/sg37_8_cif.got.tgz:14508.got - 2010.06.03 17:53:42.
