data_PCOD9355877
_publ_section_title
;
Structure prediction by ZEFSAII (Michael W. Deem and Ramdas Pophale) SiO2 
 PCOD9355877
Probable space group: A M M 2
;
_chemical_formula_sum "Si O2"
_cell_formula_units_Z 64
_cell_length_a 7.513787
_cell_length_b 31.144503
_cell_length_c 15.221527
_cell_angle_alpha 90.000000
_cell_angle_beta 90.000000
_cell_angle_gamma 90.000000
_cell_volume 3562.037660
_symmetry_space_group_name_H-M "A M M 2"
_symmetry_group_IT_number 38
_symmetry_cell_setting 'orthorhombic'
loop_
_space_group_symop_operation_xyz
x,y,z
-x,-y,z
-x,y,z
x,-y,z
x,1/2+y,1/2+z
-x,1/2-y,1/2+z
-x,1/2+y,1/2+z
x,1/2-y,1/2+z
loop_
_atom_site_type_symbol
_atom_site_label
_atom_site_fract_x
_atom_site_fract_y
_atom_site_fract_z
Si Si1 0.289479 0.863991 0.087570
Si Si2 0.706552 0.786716 0.562439
Si Si3 0.217552 0.950873 0.362907
Si Si4 0.213856 0.548256 0.662084
Si Si5 0.713970 0.276145 0.257023
Si Si6 0.798536 0.367744 0.951237
Si Si7 0.713814 0.674707 0.769851
Si Si8 0.718746 0.204840 0.948695
O O1 0.500000 0.855668 0.089843
O O2 0.263862 0.914865 0.093889
O O3 0.217935 0.845499 0.179467
O O4 0.223322 0.836180 0.005872
O O5 0.500000 0.774598 0.574381
O O6 0.783953 0.788890 0.660772
O O7 0.713668 0.832488 0.514519
O O8 0.777488 0.748458 0.499714
O O9 0.275083 0.941291 0.262121
O O10 0.280626 0.914762 0.430993
O O11 0.000000 0.949069 0.362960
O O12 0.268003 0.000000 0.382500
O O13 0.275661 0.500000 0.641099
O O14 0.000000 0.547231 0.665776
O O15 0.500000 0.283643 0.256113
O O16 0.743586 0.225340 0.266900
O O17 0.780796 0.296436 0.347930
O O18 0.798126 0.346255 0.854978
O O19 0.000000 0.373429 0.982830
O O20 0.500000 0.667989 0.777102
O O21 0.500000 0.206065 0.945598
#
# Coordination Sequence:
#
# PCOD9355877 Si02
#       8
#     8   8   8   8   8   8   8   8
#     4  10  18  27  44  70  94 117 152 193 225 253
#     4  10  18  30  48  66  88 119 154 186 219 264
#     4   8  15  28  44  61  84 116 149 177 212 268
#     4   9  17  30  46  63  88 123 154 179 220 279
#     4   9  16  28  47  66  86 120 158 185 211 257
#     4  11  20  29  44  67  92 119 151 186 225 262
#     4  10  17  27  45  66  90 121 154 183 215 259
#     4   9  16  27  45  67  90 118 153 184 215 265
#
# _framework density 17.967241999999999
#
# number of rings (size 3 to 8) (size 9 to 14) (size 15 to 20)
#    0.000    2.500    3.750    1.125    0.000    0.250 
#    0.000    1.250    0.000    1.500    0.000    0.875 
#    0.000    5.000    0.000    0.000    0.000    0.000 
#
# Total GULP energy -178386.673165 kJ/mol
# GULP energy per Si atom -5574.583536 kJ/mol
# Density = 1.792635 g / cm^3
# Si number density = 17.967242 Si / 1000 Ang^3
#
#
#
# Elastic Constant Matrix: (Units=GPa)
#
#
# Indices 1 2 3 4 5 6 
#
# 1 40.7375 0.3977 0.7543 0.0000 0.0000 0.0000
# 2 0.3977 94.2920 58.3269 0.0000 0.0000 0.0000
# 3 0.7543 58.3269 120.9302 0.0000 0.0000 0.0000
# 4 0.0000 0.0000 0.0000 23.8377 0.0000 0.0000
# 5 0.0000 0.0000 0.0000 0.0000 14.7570 0.0000
# 6 0.0000 0.0000 0.0000 0.0000 0.0000 15.0287
#
#
#
# Elastic Compliance Matrix: (Units=1/GPa)
#
#
# Indices 1 2 3 4 5 6 
#
# 1 0.024550 -0.000013 -0.000147 0.000000 0.000000 0.000000
# 2 -0.000013 0.015115 -0.007290 0.000000 0.000000 0.000000
# 3 -0.000147 -0.007290 0.011786 0.000000 0.000000 0.000000
# 4 0.000000 0.000000 0.000000 0.041950 0.000000 0.000000
# 5 0.000000 0.000000 0.000000 0.000000 0.067765 0.000000
# 6 0.000000 0.000000 0.000000 0.000000 0.000000 0.066539
#
#
# Mechanical properties :
#
#
# Convention : Reuss Voigt Hill
#
# Bulk Modulus (GPa) = 27.35832 41.65750 34.50791
# Shear Modulus (GPa) = 19.62406 23.82339 21.72372
#
# Velocity S-wave (km/s) = 3.30845 3.64529 3.48095
# Velocity P-wave (km/s) = 5.46391 6.39946 5.95010
#
# Compressibility (1/GPa) = 0.03655196
#
# Stress axis : x y z
#
# Youngs Moduli (GPa) = 40.73275 66.15975 84.84406
#
# Poissons Ratio (x) = 0.00083 0.01248
# Poissons Ratio (y) = 0.00051 0.61853
# Poissons Ratio (z) = 0.00599 0.48231
#
# Static dielectric constant tensor:
#      x y z
#    x 1.615290 0.000000 0.000000 
#    y 0.000000 1.629630 0.000000 
#    z 0.000000 0.000000 1.613080 
# 
# From -- ./inp_files/13078.got.cif
#   From: 2010.05.17/outbox.cif.g08.bks.cpg/sg38_7_cif.got.tgz:13078.got - 2010.06.03 18:07:57.
