data_PCOD9355954
_publ_section_title
;
Structure prediction by ZEFSAII (Michael W. Deem and Ramdas Pophale) SiO2 
 PCOD9355954
Probable space group: A M M 2
;
_chemical_formula_sum "Si O2"
_cell_formula_units_Z 64
_cell_length_a 9.375459
_cell_length_b 35.126160
_cell_length_c 13.934906
_cell_angle_alpha 90.000000
_cell_angle_beta 90.000000
_cell_angle_gamma 90.000000
_cell_volume 4589.097213
_symmetry_space_group_name_H-M "A M M 2"
_symmetry_group_IT_number 38
_symmetry_cell_setting 'orthorhombic'
loop_
_space_group_symop_operation_xyz
x,y,z
-x,-y,z
-x,y,z
x,-y,z
x,1/2+y,1/2+z
-x,1/2-y,1/2+z
-x,1/2+y,1/2+z
x,1/2-y,1/2+z
loop_
_atom_site_type_symbol
_atom_site_label
_atom_site_fract_x
_atom_site_fract_y
_atom_site_fract_z
Si Si1 0.833706 0.041946 0.655140
Si Si2 0.671312 0.803537 0.561557
Si Si3 0.169718 0.264745 0.664136
Si Si4 0.330015 0.883004 0.659838
Si Si5 0.166251 0.542480 0.387992
Si Si6 0.167842 0.188093 0.977791
Si Si7 0.670140 0.381959 0.386643
Si Si8 0.169046 0.229995 0.385133
O O1 0.746651 0.078805 0.623983
O O2 0.827118 0.041799 0.771591
O O3 0.000000 0.045537 0.629063
O O4 0.782280 0.000000 0.623259
O O5 0.500000 0.799781 0.560067
O O6 0.740174 0.771678 0.630782
O O7 0.708547 0.845248 0.601290
O O8 0.738251 0.795070 0.457520
O O9 0.196386 0.297846 0.586350
O O10 0.201031 0.275697 0.773359
O O11 0.000000 0.255541 0.657801
O O12 0.500000 0.888290 0.653912
O O13 0.295484 0.877212 0.772869
O O14 0.209778 0.500000 0.420708
O O15 0.262019 0.577874 0.419008
O O16 0.000000 0.548339 0.413611
O O17 0.261461 0.153043 0.943358
O O18 0.194484 0.225764 0.913307
O O19 0.000000 0.178593 0.969145
O O20 0.500000 0.382557 0.396513
O O21 0.000000 0.223021 0.401647
#
# Coordination Sequence:
#
# PCOD9355954 Si02
#       8
#     8   8   8   8   8   8   8   8
#     4   8  14  24  38  56  76 101 135 169 198 231
#     4  10  19  29  42  62  86 109 137 171 205 246
#     4   9  18  32  47  61  79 106 140 175 209 245
#     4   9  18  28  37  55  83 112 138 164 197 237
#     4   8  14  25  39  54  75 104 135 165 198 235
#     4   9  17  28  42  60  80 103 133 168 204 242
#     4  10  18  26  38  57  82 110 138 167 197 233
#     4   9  18  32  47  61  79 106 140 175 210 245
#
# _framework density 13.946097999999999
#
# number of rings (size 3 to 8) (size 9 to 14) (size 15 to 20)
#    0.000    3.000    0.000    3.000    0.000    4.500 
#    0.000    2.500    0.000    0.000    0.000    0.000 
#    0.000    1.000    0.000    9.000    0.000    6.250 
#
# Total GULP energy -178180.190232 kJ/mol
# GULP energy per Si atom -5568.130945 kJ/mol
# Density = 1.391436 g / cm^3
# Si number density = 13.946098 Si / 1000 Ang^3
#
#
#
# Elastic Constant Matrix: (Units=GPa)
#
#
# Indices 1 2 3 4 5 6 
#
# 1 52.8386 71.1817 37.5325 0.0000 0.0000 0.0000
# 2 71.1817 137.5196 51.3594 0.0000 0.0000 0.0000
# 3 37.5325 51.3594 69.3782 0.0000 0.0000 0.0000
# 4 0.0000 0.0000 0.0000 17.7455 0.0000 0.0000
# 5 0.0000 0.0000 0.0000 0.0000 17.0915 0.0000
# 6 0.0000 0.0000 0.0000 0.0000 0.0000 22.3472
#
#
#
# Elastic Compliance Matrix: (Units=1/GPa)
#
#
# Indices 1 2 3 4 5 6 
#
# 1 0.073495 -0.032055 -0.016030 0.000000 0.000000 0.000000
# 2 -0.032055 0.024031 -0.000449 0.000000 0.000000 0.000000
# 3 -0.016030 -0.000449 0.023418 0.000000 0.000000 0.000000
# 4 0.000000 0.000000 0.000000 0.056352 0.000000 0.000000
# 5 0.000000 0.000000 0.000000 0.000000 0.058509 0.000000
# 6 0.000000 0.000000 0.000000 0.000000 0.000000 0.044748
#
#
# Mechanical properties :
#
#
# Convention : Reuss Voigt Hill
#
# Bulk Modulus (GPa) = 41.88145 64.43152 53.15648
# Shear Modulus (GPa) = 12.96748 18.08104 15.52426
#
# Velocity S-wave (km/s) = 3.05262 3.60459 3.34003
# Velocity P-wave (km/s) = 6.52080 7.97652 7.28511
#
# Compressibility (1/GPa) = 0.02387692
#
# Stress axis : x y z
#
# Youngs Moduli (GPa) = 13.60633 41.61228 42.70266
#
# Poissons Ratio (x) = 1.33389 0.68452
# Poissons Ratio (y) = 0.43615 0.01916
# Poissons Ratio (z) = 0.21811 0.01867
#
# Static dielectric constant tensor:
#      x y z
#    x 1.462600 0.000000 0.000000 
#    y 0.000000 1.454750 0.000000 
#    z 0.000000 0.000000 1.444740 
# 
# From -- ./inp_files/13047.got.cif
#   From: 2010.05.17/outbox.cif.g08.bks.cpg/sg38_7_cif.got.tgz:13047.got - 2010.06.03 18:07:57.
