data_PCOD9355948
_publ_section_title
;
Structure prediction by ZEFSAII (Michael W. Deem and Ramdas Pophale) SiO2 
 PCOD9355948
Probable space group: A M M 2
;
_chemical_formula_sum "Si O2"
_cell_formula_units_Z 60
_cell_length_a 27.484989
_cell_length_b 18.918208
_cell_length_c 5.573534
_cell_angle_alpha 90.000000
_cell_angle_beta 90.000000
_cell_angle_gamma 90.000000
_cell_volume 2898.052297
_symmetry_space_group_name_H-M "A M M 2"
_symmetry_group_IT_number 38
_symmetry_cell_setting 'orthorhombic'
loop_
_space_group_symop_operation_xyz
x,y,z
-x,-y,z
-x,y,z
x,-y,z
x,1/2+y,1/2+z
-x,1/2-y,1/2+z
-x,1/2+y,1/2+z
x,1/2-y,1/2+z
loop_
_atom_site_type_symbol
_atom_site_label
_atom_site_fract_x
_atom_site_fract_y
_atom_site_fract_z
Si Si1 0.891162 0.665618 0.742380
Si Si2 0.442757 0.414276 0.242618
Si Si3 0.600827 0.918378 0.242615
Si Si4 0.745875 0.377449 0.242159
Si Si5 0.284709 0.893464 0.242172
Si Si6 0.331121 0.756336 0.741998
Si Si7 0.000000 0.294477 0.742255
Si Si8 0.147323 0.171478 0.742380
O O1 0.949392 0.663793 0.742307
O O2 0.873907 0.748570 0.742403
O O3 0.870850 0.636939 0.490719
O O4 0.870871 0.636938 0.994078
O O5 0.500000 0.399493 0.242459
O O6 0.436299 0.500000 0.242670
O O7 0.418793 0.388239 0.490986
O O8 0.418740 0.388250 0.994362
O O9 0.659234 0.916851 0.242376
O O10 0.584378 0.000000 0.242665
O O11 0.741790 0.415730 0.497857
O O12 0.697534 0.329355 0.242037
O O13 0.794494 0.330800 0.242301
O O14 0.741835 0.415706 0.986396
O O15 0.290574 0.807041 0.242044
O O16 0.358378 0.750000 0.491998
O O17 0.000000 0.250017 0.492222
#
# Coordination Sequence:
#
# PCOD9355948 Si02
#       8
#     8   8   8   8   8   8   4   8
#     4  10  19  24  38  50  72 100 143 175 219 252
#     4   9  17  30  49  70  90 112 134 167 211 246
#     4  10  19  31  47  67  94 117 141 167 195 251
#     4  10  19  28  42  57  86 105 143 185 221 240
#     4  10  19  29  41  61  84 117 137 168 212 249
#     4   8  16  25  37  54  75 105 129 168 208 235
#     4  12  16  30  32  50  72 102 136 196 206 252
#     4  10  18  25  36  55  69 100 135 177 222 247
#
# _framework density 20.703558000000001
#
# number of rings (size 3 to 8) (size 9 to 14) (size 15 to 20)
#    0.000    2.267    2.667    2.000   11.200    1.600 
#    0.000    0.000    0.000    0.000    0.000    0.000 
#    0.000   96.000    0.000    0.000    0.000    0.000 
#
# Total GULP energy -167129.298518 kJ/mol
# GULP energy per Si atom -5570.976617 kJ/mol
# Density = 2.065644 g / cm^3
# Si number density = 20.703558 Si / 1000 Ang^3
#
#
#
# Elastic Constant Matrix: (Units=GPa)
#
#
# Indices 1 2 3 4 5 6 
#
# 1 95.9595 1.5760 58.6013 0.0000 0.0000 0.0000
# 2 1.5760 33.3008 2.5863 0.0000 0.0000 0.0000
# 3 58.6013 2.5863 263.2188 0.0000 0.0000 0.0000
# 4 0.0000 0.0000 0.0000 -8.1466 0.0000 0.0000
# 5 0.0000 0.0000 0.0000 0.0000 38.8360 0.0000
# 6 0.0000 0.0000 0.0000 0.0000 0.0000 18.7165
#
#
#
# Elastic Compliance Matrix: (Units=1/GPa)
#
#
# Indices 1 2 3 4 5 6 
#
# 1 0.012065 -0.000363 -0.002683 0.000000 0.000000 0.000000
# 2 -0.000363 0.030063 -0.000215 0.000000 0.000000 0.000000
# 3 -0.002683 -0.000215 0.004398 0.000000 0.000000 0.000000
# 4 0.000000 0.000000 0.000000 -0.122751 0.000000 0.000000
# 5 0.000000 0.000000 0.000000 0.000000 0.025749 0.000000
# 6 0.000000 0.000000 0.000000 0.000000 0.000000 0.053429
#
#
# Mechanical properties :
#
#
# Convention : Reuss Voigt Hill
#
# Bulk Modulus (GPa) = 24.99555 57.55625 41.27590
# Shear Modulus (GPa) = 219.20754 31.86223 125.53489
#
# Velocity S-wave (km/s) = 10.30092 3.92723 7.79526
# Velocity P-wave (km/s) = 12.39266 6.95879 10.04994
#
# Compressibility (1/GPa) = 0.04000712
#
# Stress axis : x y z
#
# Youngs Moduli (GPa) = 82.88282 33.26328 227.35248
#
# Poissons Ratio (x) = 0.01206 0.60989
# Poissons Ratio (y) = 0.03006 0.04880
# Poissons Ratio (z) = 0.22234 0.00714
#
# Static dielectric constant tensor:
#      x y z
#    x 1.686070 0.000000 0.000000 
#    y 0.000000 1.750690 0.000000 
#    z 0.000000 0.000000 1.871490 
# 
# From -- ./inp_files/1999.got.cif
#   From: 2010.05.17/outbox.cif.g08.bks.cpg/sg38_1_cif.got.tgz:1999.got - 2010.06.03 18:07:57.
