data_PCOD9355023
_publ_section_title
;
Structure prediction by ZEFSAII (Michael W. Deem and Ramdas Pophale) SiO2 
 PCOD9355023
Probable space group: C C C 2
;
_chemical_formula_sum "Si O2"
_cell_formula_units_Z 32
_cell_length_a 12.862283
_cell_length_b 5.194434
_cell_length_c 19.248890
_cell_angle_alpha 90.000000
_cell_angle_beta 90.000000
_cell_angle_gamma 90.000000
_cell_volume 1286.062231
_symmetry_space_group_name_H-M "C C C 2"
_symmetry_group_IT_number 37
_symmetry_cell_setting 'orthorhombic'
loop_
_space_group_symop_operation_xyz
x,y,z
-x,-y,z
-x,y,1/2+z
x,-y,1/2+z
1/2+x,1/2+y,z
1/2-x,1/2-y,z
1/2-x,1/2+y,1/2+z
1/2+x,1/2-y,1/2+z
loop_
_atom_site_type_symbol
_atom_site_label
_atom_site_fract_x
_atom_site_fract_y
_atom_site_fract_z
Si Si1 0.250000 0.750000 0.079180
Si Si2 0.095934 0.841494 0.641054
Si Si3 0.632695 0.855823 0.995919
Si Si4 0.677707 0.993418 0.259208
Si Si5 0.000000 0.500000 0.873674
O O1 0.305946 0.533797 0.127053
O O2 0.163319 0.636327 0.026871
O O3 0.075901 0.761960 0.562414
O O4 0.119036 0.591103 0.687691
O O5 0.000000 0.000000 0.672113
O O6 0.750000 0.750000 0.983322
O O7 0.559110 0.820830 0.930229
O O8 0.750000 0.750000 0.270018
O O9 0.594263 0.966365 0.320355
O O10 0.750000 0.250000 0.262207
#
# Coordination Sequence:
#
# PCOD9355023 Si02
#       5
#     4   8   8   8   4
#     4  10  22  46  80 122 158 202 262 354 396 484
#     4  11  26  47  83 122 159 208 279 340 413 483
#     4  10  23  47  80 116 161 204 274 342 411 479
#     4  12  32  55  80 118 169 218 273 333 412 490
#     4  12  28  52  78 114 168 218 272 328 410 504
#
# _framework density 24.882152999999999
#
# number of rings (size 3 to 8) (size 9 to 14) (size 15 to 20)
#    0.000    1.000    0.000    4.500   12.250    1.000 
#   13.500    0.000    0.000    0.000    0.000    0.000 
#    0.000    0.000    0.000    0.000    0.000    0.000 
#
# Total GULP energy -89235.259032 kJ/mol
# GULP energy per Si atom -5577.203690 kJ/mol
# Density = 2.482552 g / cm^3
# Si number density = 24.882153 Si / 1000 Ang^3
#
#
#
# Elastic Constant Matrix: (Units=GPa)
#
#
# Indices 1 2 3 4 5 6 
#
# 1 149.3367 54.4560 64.1542 0.0000 0.0000 0.0000
# 2 54.4560 132.2733 38.5380 0.0000 0.0000 0.0000
# 3 64.1542 38.5380 179.0115 0.0000 0.0000 0.0000
# 4 0.0000 0.0000 0.0000 -234.0171 0.0000 0.0000
# 5 0.0000 0.0000 0.0000 0.0000 45.9987 0.0000
# 6 0.0000 0.0000 0.0000 0.0000 0.0000 44.9213
#
#
#
# Elastic Compliance Matrix: (Units=1/GPa)
#
#
# Indices 1 2 3 4 5 6 
#
# 1 0.008848 -0.002901 -0.002546 0.000000 0.000000 0.000000
# 2 -0.002901 0.009017 -0.000902 0.000000 0.000000 0.000000
# 3 -0.002546 -0.000902 0.006693 0.000000 0.000000 0.000000
# 4 0.000000 0.000000 0.000000 -0.004273 0.000000 0.000000
# 5 0.000000 0.000000 0.000000 0.000000 0.021740 0.000000
# 6 0.000000 0.000000 0.000000 0.000000 0.000000 0.022261
#
#
# Mechanical properties :
#
#
# Convention : Reuss Voigt Hill
#
# Bulk Modulus (GPa) = 84.31519 86.10200 85.20860
# Shear Modulus (GPa) = 61.77662 -8.38788 26.69437
#
# Velocity S-wave (km/s) = 4.98814 -1.83803 3.27896
# Velocity P-wave (km/s) = 8.19358 5.49314 6.97529
#
# Compressibility (1/GPa) = 0.01186026
#
# Stress axis : x y z
#
# Youngs Moduli (GPa) = 113.02011 110.90146 149.41107
#
# Poissons Ratio (x) = 0.32170 0.38047
# Poissons Ratio (y) = 0.32784 0.13471
# Poissons Ratio (z) = 0.28780 0.09999
#
# Static dielectric constant tensor:
#      x y z
#    x 1.946890 0.000000 0.000000 
#    y 0.000000 2.071780 0.000000 
#    z 0.000000 0.000000 1.995890 
# 
# From -- ./inp_files/15162.got.cif
#   From: 2010.05.17/outbox.cif.g08.bks.cpg/sg37_8_cif.got.tgz:15162.got - 2010.06.03 17:53:42.
