data_PCOD9355542
_publ_section_title
;
Structure prediction by ZEFSAII (Michael W. Deem and Ramdas Pophale) SiO2 
 PCOD9355542
Probable space group: C C C 2
;
_chemical_formula_sum "Si O2"
_cell_formula_units_Z 60
_cell_length_a 5.290289
_cell_length_b 24.518055
_cell_length_c 25.139053
_cell_angle_alpha 90.000000
_cell_angle_beta 90.000000
_cell_angle_gamma 90.000000
_cell_volume 3260.726147
_symmetry_space_group_name_H-M "C C C 2"
_symmetry_group_IT_number 37
_symmetry_cell_setting 'orthorhombic'
loop_
_space_group_symop_operation_xyz
x,y,z
-x,-y,z
-x,y,1/2+z
x,-y,1/2+z
1/2+x,1/2+y,z
1/2-x,1/2-y,z
1/2-x,1/2+y,1/2+z
1/2+x,1/2-y,1/2+z
loop_
_atom_site_type_symbol
_atom_site_label
_atom_site_fract_x
_atom_site_fract_y
_atom_site_fract_z
Si Si1 0.883340 0.938415 0.761560
Si Si2 0.750017 0.462884 0.453333
Si Si3 0.660195 0.373836 0.364324
Si Si4 0.158449 0.690404 0.892763
Si Si5 0.826036 0.125665 0.545194
Si Si6 0.000000 0.500000 0.221466
Si Si7 0.598495 0.556995 0.148734
Si Si8 0.163445 0.690282 0.018340
O O1 0.928102 0.895271 0.806597
O O2 0.932564 0.923874 0.699644
O O3 0.590676 0.953340 0.761647
O O4 0.000000 0.000000 0.768865
O O5 0.500000 0.500000 0.455103
O O6 0.737637 0.425268 0.400801
O O7 0.746629 0.421904 0.503489
O O8 0.000000 0.500000 0.453735
O O9 0.408893 0.346563 0.388291
O O10 0.906315 0.334169 0.365254
O O11 0.250000 0.750000 0.873502
O O12 0.098388 0.694295 0.955606
O O13 0.860974 0.100302 0.603470
O O14 0.590952 0.167413 0.544866
O O15 0.092465 0.151820 0.527120
O O16 0.162247 0.464826 0.180604
O O17 0.500000 0.500000 0.123756
O O18 0.250000 0.750000 0.036921
#
# Coordination Sequence:
#
# PCOD9355542 Si02
#       8
#     8   8   8   8   8   4   8   8
#     4   9  21  37  58  88 121 163 205 244 290 371
#     4  12  24  36  53  92 135 158 190 238 306 372
#     4  12  23  39  63  90 122 164 202 246 316 357
#     4  11  23  42  63  89 120 156 212 258 298 365
#     4  12  23  39  63  90 122 164 202 246 316 357
#     4   8  18  36  56  84 116 164 210 236 294 346
#     4   9  21  37  58  88 121 163 205 244 290 371
#     4  11  23  42  63  89 120 156 212 258 298 365
#
# _framework density 18.40081
#
# number of rings (size 3 to 8) (size 9 to 14) (size 15 to 20)
#    0.000    1.600    2.667    3.200    9.333    2.133 
#    0.000    0.000    0.000    3.200    0.000    0.000 
#    0.000    0.000    0.000    0.000    0.000    0.000 
#
# Total GULP energy -167060.429572 kJ/mol
# GULP energy per Si atom -5568.680986 kJ/mol
# Density = 1.835893 g / cm^3
# Si number density = 18.400810 Si / 1000 Ang^3
#
#
#
# Elastic Constant Matrix: (Units=GPa)
#
#
# Indices 1 2 3 4 5 6 
#
# 1 73.0768 17.5541 7.3479 0.0000 0.0000 0.0000
# 2 17.5541 68.0178 33.4305 0.0000 0.0000 0.0000
# 3 7.3479 33.4305 74.0273 0.0000 0.0000 0.0000
# 4 0.0000 0.0000 0.0000 22.6357 0.0000 0.0000
# 5 0.0000 0.0000 0.0000 0.0000 -18.5984 0.0000
# 6 0.0000 0.0000 0.0000 0.0000 0.0000 37.1363
#
#
#
# Elastic Compliance Matrix: (Units=1/GPa)
#
#
# Indices 1 2 3 4 5 6 
#
# 1 0.014595 -0.003926 0.000324 0.000000 0.000000 0.000000
# 2 -0.003926 0.019952 -0.008621 0.000000 0.000000 0.000000
# 3 0.000324 -0.008621 0.017369 0.000000 0.000000 0.000000
# 4 0.000000 0.000000 0.000000 0.044178 0.000000 0.000000
# 5 0.000000 0.000000 0.000000 0.000000 -0.053768 0.000000
# 6 0.000000 0.000000 0.000000 0.000000 0.000000 0.026928
#
#
# Mechanical properties :
#
#
# Convention : Reuss Voigt Hill
#
# Bulk Modulus (GPa) = 36.40118 36.86520 36.63319
# Shear Modulus (GPa) = 48.61159 18.68736 33.64947
#
# Velocity S-wave (km/s) = 5.14544 3.19026 4.28096
# Velocity P-wave (km/s) = 7.42469 5.80073 6.66237
#
# Compressibility (1/GPa) = 0.02747164
#
# Stress axis : x y z
#
# Youngs Moduli (GPa) = 68.51794 50.11950 57.57246
#
# Poissons Ratio (x) = 0.19677 -0.01867
# Poissons Ratio (y) = 0.26900 0.49632
# Poissons Ratio (z) = -0.02222 0.43207
#
# Static dielectric constant tensor:
#      x y z
#    x 1.800970 0.000000 0.000000 
#    y 0.000000 1.641840 0.000000 
#    z 0.000000 0.000000 1.618270 
# 
# From -- ./inp_files/18101.got.cif
#   From: 2010.05.17/outbox.cif.g08.bks.cpg/sg37_10_cif.got.tgz:18101.got - 2010.06.03 17:53:42.
