data_PCOD9355689
_publ_section_title
;
Structure prediction by ZEFSAII (Michael W. Deem and Ramdas Pophale) SiO2 
 PCOD9355689
Probable space group: C C C 2
;
_chemical_formula_sum "Si O2"
_cell_formula_units_Z 36
_cell_length_a 8.992793
_cell_length_b 20.913302
_cell_length_c 8.081019
_cell_angle_alpha 90.000000
_cell_angle_beta 90.000000
_cell_angle_gamma 90.000000
_cell_volume 1519.789129
_symmetry_space_group_name_H-M "C C C 2"
_symmetry_group_IT_number 37
_symmetry_cell_setting 'orthorhombic'
loop_
_space_group_symop_operation_xyz
x,y,z
-x,-y,z
-x,y,1/2+z
x,-y,1/2+z
1/2+x,1/2+y,z
1/2-x,1/2-y,z
1/2-x,1/2+y,1/2+z
1/2+x,1/2-y,1/2+z
loop_
_atom_site_type_symbol
_atom_site_label
_atom_site_fract_x
_atom_site_fract_y
_atom_site_fract_z
Si Si1 0.500000 0.500000 0.687620
Si Si2 0.543294 0.074249 0.456188
Si Si3 0.446406 0.633942 0.009964
Si Si4 0.273792 0.324614 0.824070
Si Si5 0.262430 0.921059 0.791009
O O1 0.534114 0.561872 0.578792
O O2 0.656067 0.484232 0.781510
O O3 0.639452 0.123713 0.344346
O O4 0.632723 0.075592 0.629335
O O5 0.372690 0.095364 0.443398
O O6 0.500000 0.000000 0.407651
O O7 0.352967 0.670079 0.146666
O O8 0.609204 0.656298 0.964973
O O9 0.362520 0.631435 0.832453
O O10 0.250000 0.250000 0.851605
#
# Coordination Sequence:
#
# PCOD9355689 Si02
#       5
#     4   8   8   8   8
#     4  12  22  44  82 118 146 214 260 332 404 490
#     4  12  25  46  73 121 159 204 260 345 394 470
#     4  12  25  49  79 112 154 215 269 327 400 503
#     4  12  28  52  78 116 162 221 271 331 414 494
#     4  12  25  44  77 114 164 200 268 328 411 474
#
# _framework density 23.687494999999998
#
# number of rings (size 3 to 8) (size 9 to 14) (size 15 to 20)
#    0.000    0.000    4.444    5.333    0.000    3.556 
#    0.000    3.333    0.000    0.000    0.000    0.000 
#    0.000    0.000    0.000    0.000    0.000    0.000 
#
# Total GULP energy -100233.154849 kJ/mol
# GULP energy per Si atom -5568.508603 kJ/mol
# Density = 2.363358 g / cm^3
# Si number density = 23.687495 Si / 1000 Ang^3
#
#
#
# Elastic Constant Matrix: (Units=GPa)
#
#
# Indices 1 2 3 4 5 6 
#
# 1 190.1577 77.1251 65.3288 0.0000 0.0000 0.0000
# 2 77.1251 113.8770 49.6827 0.0000 0.0000 0.0000
# 3 65.3288 49.6827 118.0571 0.0000 0.0000 0.0000
# 4 0.0000 0.0000 0.0000 -23.9094 0.0000 0.0000
# 5 0.0000 0.0000 0.0000 0.0000 51.2006 0.0000
# 6 0.0000 0.0000 0.0000 0.0000 0.0000 5.8185
#
#
#
# Elastic Compliance Matrix: (Units=1/GPa)
#
#
# Indices 1 2 3 4 5 6 
#
# 1 0.007843 -0.004187 -0.002578 0.000000 0.000000 0.000000
# 2 -0.004187 0.012991 -0.003150 0.000000 0.000000 0.000000
# 3 -0.002578 -0.003150 0.011223 0.000000 0.000000 0.000000
# 4 0.000000 0.000000 0.000000 -0.041825 0.000000 0.000000
# 5 0.000000 0.000000 0.000000 0.000000 0.019531 0.000000
# 6 0.000000 0.000000 0.000000 0.000000 0.000000 0.171864
#
#
# Mechanical properties :
#
#
# Convention : Reuss Voigt Hill
#
# Bulk Modulus (GPa) = 81.78877 89.59610 85.69244
# Shear Modulus (GPa) = 24.32697 21.95230 23.13964
#
# Velocity S-wave (km/s) = 3.20815 3.04755 3.12888
# Velocity P-wave (km/s) = 6.95171 7.09153 7.02197
#
# Compressibility (1/GPa) = 0.01222662
#
# Stress axis : x y z
#
# Youngs Moduli (GPa) = 127.51019 76.97351 89.10446
#
# Poissons Ratio (x) = 0.32227 0.22969
# Poissons Ratio (y) = 0.53386 0.28072
# Poissons Ratio (z) = 0.32870 0.24250
#
# Static dielectric constant tensor:
#      x y z
#    x 2.070620 0.000000 0.000000 
#    y 0.000000 2.028520 0.000000 
#    z 0.000000 0.000000 2.022770 
# 
# From -- ./inp_files/2148.got.cif
#   From: 2010.05.17/outbox.cif.g08.bks.cpg/sg37_2_cif.got.tgz:2148.got - 2010.06.03 17:53:42.
