data_PCOD9355302
_publ_section_title
;
Structure prediction by ZEFSAII (Michael W. Deem and Ramdas Pophale) SiO2 
 PCOD9355302
Probable space group: C C C 2
;
_chemical_formula_sum "Si O2"
_cell_formula_units_Z 32
_cell_length_a 11.804374
_cell_length_b 15.481437
_cell_length_c 7.912048
_cell_angle_alpha 90.000000
_cell_angle_beta 90.000000
_cell_angle_gamma 90.000000
_cell_volume 1445.916268
_symmetry_space_group_name_H-M "C C C 2"
_symmetry_group_IT_number 37
_symmetry_cell_setting 'orthorhombic'
loop_
_space_group_symop_operation_xyz
x,y,z
-x,-y,z
-x,y,1/2+z
x,-y,1/2+z
1/2+x,1/2+y,z
1/2-x,1/2-y,z
1/2-x,1/2+y,1/2+z
1/2+x,1/2-y,1/2+z
loop_
_atom_site_type_symbol
_atom_site_label
_atom_site_fract_x
_atom_site_fract_y
_atom_site_fract_z
Si Si1 0.603194 0.885330 0.337060
Si Si2 0.135904 0.420461 0.728059
Si Si3 0.864782 0.106039 0.432679
Si Si4 0.500000 0.500000 0.686217
Si Si5 0.250000 0.250000 0.130300
O O1 0.636507 0.894551 0.532502
O O2 0.468616 0.871318 0.317844
O O3 0.681291 0.816786 0.245099
O O4 0.618473 0.976839 0.242936
O O5 0.249569 0.404623 0.830086
O O6 0.894828 0.033592 0.574010
O O7 0.843670 0.197188 0.522222
O O8 0.963046 0.082467 0.298298
#
# Coordination Sequence:
#
# PCOD9355302 Si02
#       5
#     8   8   8   4   4
#     4  11  23  40  69 101 133 172 220 270 330 397
#     4  11  22  44  69  95 131 181 221 261 327 413
#     4  11  24  43  68  96 131 174 224 275 328 392
#     4  10  24  46  70  92 128 184 230 262 326 412
#     4  12  26  42  66 104 138 166 216 284 336 382
#
# _framework density 22.131294
#
# number of rings (size 3 to 8) (size 9 to 14) (size 15 to 20)
#    0.000    1.000    0.000    9.000    0.000    7.000 
#    0.000    0.000    0.000    0.000    0.000    0.000 
#    0.000    0.000    0.000    0.000    0.000    0.000 
#
# Total GULP energy -89430.154045 kJ/mol
# GULP energy per Si atom -5589.384628 kJ/mol
# Density = 2.208092 g / cm^3
# Si number density = 22.131294 Si / 1000 Ang^3
#
#
#
# Elastic Constant Matrix: (Units=GPa)
#
#
# Indices 1 2 3 4 5 6 
#
# 1 125.7448 48.4013 72.5574 0.0000 0.0000 0.0000
# 2 48.4013 97.5346 73.5421 0.0000 0.0000 0.0000
# 3 72.5574 73.5421 165.9158 0.0000 0.0000 0.0000
# 4 0.0000 0.0000 0.0000 29.5172 0.0000 0.0000
# 5 0.0000 0.0000 0.0000 0.0000 17.9340 0.0000
# 6 0.0000 0.0000 0.0000 0.0000 0.0000 41.8913
#
#
#
# Elastic Compliance Matrix: (Units=1/GPa)
#
#
# Indices 1 2 3 4 5 6 
#
# 1 0.011117 -0.002780 -0.003629 0.000000 0.000000 0.000000
# 2 -0.002780 0.016095 -0.005918 0.000000 0.000000 0.000000
# 3 -0.003629 -0.005918 0.010238 0.000000 0.000000 0.000000
# 4 0.000000 0.000000 0.000000 0.033879 0.000000 0.000000
# 5 0.000000 0.000000 0.000000 0.000000 0.055760 0.000000
# 6 0.000000 0.000000 0.000000 0.000000 0.000000 0.023871
#
#
# Mechanical properties :
#
#
# Convention : Reuss Voigt Hill
#
# Bulk Modulus (GPa) = 78.16225 86.46630 82.31427
# Shear Modulus (GPa) = 27.79643 30.84813 29.32228
#
# Velocity S-wave (km/s) = 3.54782 3.73751 3.64390
# Velocity P-wave (km/s) = 7.22336 7.60130 7.41474
#
# Compressibility (1/GPa) = 0.01279390
#
# Stress axis : x y z
#
# Youngs Moduli (GPa) = 89.95283 62.13174 97.68005
#
# Poissons Ratio (x) = 0.17274 0.35450
# Poissons Ratio (y) = 0.25009 0.57809
# Poissons Ratio (z) = 0.32646 0.36771
#
# Static dielectric constant tensor:
#      x y z
#    x 1.853080 0.000000 0.000000 
#    y 0.000000 1.789330 0.000000 
#    z 0.000000 0.000000 1.831670 
# 
# From -- ./inp_files/2602.got.cif
#   From: 2010.05.17/outbox.cif.g08.bks.cpg/sg37_2_cif.got.tgz:2602.got - 2010.06.03 17:53:42.
