data_PCOD9355562
_publ_section_title
;
Structure prediction by ZEFSAII (Michael W. Deem and Ramdas Pophale) SiO2 
 PCOD9355562
Probable space group: C C C 2
;
_chemical_formula_sum "Si O2"
_cell_formula_units_Z 44
_cell_length_a 5.094253
_cell_length_b 26.924256
_cell_length_c 15.852238
_cell_angle_alpha 90.000000
_cell_angle_beta 90.000000
_cell_angle_gamma 90.000000
_cell_volume 2174.276666
_symmetry_space_group_name_H-M "C C C 2"
_symmetry_group_IT_number 37
_symmetry_cell_setting 'orthorhombic'
loop_
_space_group_symop_operation_xyz
x,y,z
-x,-y,z
-x,y,1/2+z
x,-y,1/2+z
1/2+x,1/2+y,z
1/2-x,1/2-y,z
1/2-x,1/2+y,1/2+z
1/2+x,1/2-y,1/2+z
loop_
_atom_site_type_symbol
_atom_site_label
_atom_site_fract_x
_atom_site_fract_y
_atom_site_fract_z
Si Si1 0.122063 0.700536 0.953460
Si Si2 0.537729 0.656743 0.719166
Si Si3 0.460320 0.862348 0.604758
Si Si4 0.750000 0.250000 0.314887
Si Si5 0.070075 0.442401 0.969696
Si Si6 0.422247 0.607320 0.891211
O O1 0.250000 0.750000 0.989316
O O2 0.351912 0.661789 0.929129
O O3 0.946911 0.717678 0.873796
O O4 0.951932 0.674106 0.024370
O O5 0.775330 0.644997 0.656861
O O6 0.587381 0.711242 0.758389
O O7 0.516447 0.618508 0.797067
O O8 0.274730 0.650651 0.666260
O O9 0.459618 0.916208 0.560801
O O10 0.356774 0.425034 0.937990
O O11 0.000000 0.500000 0.974934
O O12 0.856399 0.419519 0.904782
#
# Coordination Sequence:
#
# PCOD9355562 Si02
#       6
#     8   8   8   4   8   8
#     4  11  24  42  66  94 136 193 236 270 329 412
#     4  12  25  44  61 102 142 174 220 280 345 391
#     4  11  26  42  66  97 140 173 220 289 340 398
#     4  12  26  40  68  92 144 202 236 268 322 426
#     4  11  24  48  75  98 125 180 235 282 347 420
#     4  11  23  45  70  98 133 175 229 284 332 408
#
# _framework density 20.236616000000001
#
# number of rings (size 3 to 8) (size 9 to 14) (size 15 to 20)
#    0.000    0.727    1.818    7.091    3.818    0.000 
#    0.000    5.455    0.000    0.000    0.000    0.000 
#    0.000    0.000    0.000    0.000    0.000    0.000 
#
# Total GULP energy -123029.885008 kJ/mol
# GULP energy per Si atom -5592.267500 kJ/mol
# Density = 2.019056 g / cm^3
# Si number density = 20.236616 Si / 1000 Ang^3
#
#
#
# Elastic Constant Matrix: (Units=GPa)
#
#
# Indices 1 2 3 4 5 6 
#
# 1 184.5624 47.0268 88.1153 0.0000 0.0000 0.0000
# 2 47.0268 141.7222 57.9576 0.0000 0.0000 0.0000
# 3 88.1153 57.9576 153.8780 0.0000 0.0000 0.0000
# 4 0.0000 0.0000 0.0000 13.0892 0.0000 0.0000
# 5 0.0000 0.0000 0.0000 0.0000 47.3620 0.0000
# 6 0.0000 0.0000 0.0000 0.0000 0.0000 29.5895
#
#
#
# Elastic Compliance Matrix: (Units=1/GPa)
#
#
# Indices 1 2 3 4 5 6 
#
# 1 0.007547 -0.000871 -0.003993 0.000000 0.000000 0.000000
# 2 -0.000871 0.008441 -0.002681 0.000000 0.000000 0.000000
# 3 -0.003993 -0.002681 0.009795 0.000000 0.000000 0.000000
# 4 0.000000 0.000000 0.000000 0.076399 0.000000 0.000000
# 5 0.000000 0.000000 0.000000 0.000000 0.021114 0.000000
# 6 0.000000 0.000000 0.000000 0.000000 0.000000 0.033796
#
#
# Mechanical properties :
#
#
# Convention : Reuss Voigt Hill
#
# Bulk Modulus (GPa) = 93.51951 96.26247 94.89099
# Shear Modulus (GPa) = 28.45009 37.14566 32.79788
#
# Velocity S-wave (km/s) = 3.75356 4.28900 4.03018
# Velocity P-wave (km/s) = 8.06839 8.49700 8.28547
#
# Compressibility (1/GPa) = 0.01069296
#
# Stress axis : x y z
#
# Youngs Moduli (GPa) = 132.50755 118.46466 102.09243
#
# Poissons Ratio (x) = 0.10319 0.40770
# Poissons Ratio (y) = 0.11542 0.27367
# Poissons Ratio (z) = 0.52916 0.31756
#
# Static dielectric constant tensor:
#      x y z
#    x 1.720640 0.000000 0.000000 
#    y 0.000000 1.747670 0.000000 
#    z 0.000000 0.000000 1.703710 
# 
# From -- ./inp_files/9696.got.cif
#   From: 2010.05.17/outbox.cif.g08.bks.cpg/sg37_5_cif.got.tgz:9696.got - 2010.06.03 17:53:42.
