data_PCOD9355270
_publ_section_title
;
Structure prediction by ZEFSAII (Michael W. Deem and Ramdas Pophale) SiO2 
 PCOD9355270
Probable space group: C C C 2
;
_chemical_formula_sum "Si O2"
_cell_formula_units_Z 48
_cell_length_a 5.278312
_cell_length_b 25.501837
_cell_length_c 14.797133
_cell_angle_alpha 90.000000
_cell_angle_beta 90.000000
_cell_angle_gamma 90.000000
_cell_volume 1991.792536
_symmetry_space_group_name_H-M "C C C 2"
_symmetry_group_IT_number 37
_symmetry_cell_setting 'orthorhombic'
loop_
_space_group_symop_operation_xyz
x,y,z
-x,-y,z
-x,y,1/2+z
x,-y,1/2+z
1/2+x,1/2+y,z
1/2-x,1/2-y,z
1/2-x,1/2+y,1/2+z
1/2+x,1/2-y,1/2+z
loop_
_atom_site_type_symbol
_atom_site_label
_atom_site_fract_x
_atom_site_fract_y
_atom_site_fract_z
Si Si1 0.750000 0.250000 0.405061
Si Si2 0.873965 0.944723 0.160550
Si Si3 0.827062 0.904555 0.503785
Si Si4 0.953601 0.701769 0.549601
Si Si5 0.500000 0.000000 0.055105
Si Si6 0.977275 0.310633 0.763466
Si Si7 0.019630 0.876003 0.314225
O O1 0.692961 0.206584 0.481560
O O2 0.969466 0.262542 0.332212
O O3 0.948992 0.927453 0.258229
O O4 0.594265 0.955380 0.126281
O O5 0.000000 0.000000 0.140943
O O6 0.996324 0.904909 0.091381
O O7 0.654198 0.854236 0.520560
O O8 0.996939 0.892722 0.417181
O O9 0.683978 0.961689 0.496492
O O10 0.750000 0.750000 0.532512
O O11 0.015149 0.703149 0.656850
O O12 0.215158 0.349682 0.785576
O O13 0.715209 0.338289 0.788115
#
# Coordination Sequence:
#
# PCOD9355270 Si02
#       7
#     4   8   8   8   4   8   8
#     4  12  28  48  76 112 154 204 268 320 394 476
#     4  10  24  44  71 107 149 196 258 317 391 462
#     4  11  24  47  72 107 148 199 255 320 390 463
#     4  12  26  47  77 108 156 206 252 325 393 464
#     4  10  24  44  74 102 148 198 256 320 382 470
#     4  12  28  48  74 112 151 201 260 318 389 473
#     4  12  27  46  77 106 152 199 252 322 386 467
#
# _framework density 24.098893
#
# number of rings (size 3 to 8) (size 9 to 14) (size 15 to 20)
#    0.000    0.667    4.167    2.000    7.000    5.333 
#    0.000    0.000    0.000    0.000    0.000    0.000 
#    0.000    0.000    0.000    0.000    0.000    0.000 
#
# Total GULP energy -133866.365457 kJ/mol
# GULP energy per Si atom -5577.765227 kJ/mol
# Density = 2.404404 g / cm^3
# Si number density = 24.098893 Si / 1000 Ang^3
#
#
#
# Elastic Constant Matrix: (Units=GPa)
#
#
# Indices 1 2 3 4 5 6 
#
# 1 35.7483 14.7406 -31.8926 0.0000 0.0000 0.0000
# 2 14.7406 93.9240 6.5022 0.0000 0.0000 0.0000
# 3 -31.8926 6.5022 130.4880 0.0000 0.0000 0.0000
# 4 0.0000 0.0000 0.0000 41.0135 0.0000 0.0000
# 5 0.0000 0.0000 0.0000 0.0000 1.1489 0.0000
# 6 0.0000 0.0000 0.0000 0.0000 0.0000 -15.2379
#
#
#
# Elastic Compliance Matrix: (Units=1/GPa)
#
#
# Indices 1 2 3 4 5 6 
#
# 1 0.039834 -0.006950 0.010082 0.000000 0.000000 0.000000
# 2 -0.006950 0.011896 -0.002291 0.000000 0.000000 0.000000
# 3 0.010082 -0.002291 0.010242 0.000000 0.000000 0.000000
# 4 0.000000 0.000000 0.000000 0.024382 0.000000 0.000000
# 5 0.000000 0.000000 0.000000 0.000000 0.870425 0.000000
# 6 0.000000 0.000000 0.000000 0.000000 0.000000 -0.065626
#
#
# Mechanical properties :
#
#
# Convention : Reuss Voigt Hill
#
# Bulk Modulus (GPa) = 15.70993 26.54008 21.12500
# Shear Modulus (GPa) = 5.49035 23.43889 14.46462
#
# Velocity S-wave (km/s) = 1.51103 3.12206 2.45259
# Velocity P-wave (km/s) = 3.09473 4.90237 4.09943
#
# Compressibility (1/GPa) = 0.06365401
#
# Stress axis : x y z
#
# Youngs Moduli (GPa) = 25.10447 84.06048 97.63849
#
# Poissons Ratio (x) = 0.58418 -0.98439
# Poissons Ratio (y) = 0.17446 0.22372
# Poissons Ratio (z) = -0.25310 0.19261
#
# Static dielectric constant tensor:
#      x y z
#    x 2.264020 0.000000 0.000000 
#    y 0.000000 2.058920 0.000000 
#    z 0.000000 0.000000 1.851870 
# 
# From -- ./inp_files/9775.got.cif
#   From: 2010.05.17/outbox.cif.g08.bks.cpg/sg37_5_cif.got.tgz:9775.got - 2010.06.03 17:53:42.
