data_PCOD9355719
_publ_section_title
;
Structure prediction by ZEFSAII (Michael W. Deem and Ramdas Pophale) SiO2 
 PCOD9355719
Probable space group: C C C 2
;
_chemical_formula_sum "Si O2"
_cell_formula_units_Z 56
_cell_length_a 11.923093
_cell_length_b 16.675210
_cell_length_c 13.109307
_cell_angle_alpha 90.000000
_cell_angle_beta 90.000000
_cell_angle_gamma 90.000000
_cell_volume 2606.393462
_symmetry_space_group_name_H-M "C C C 2"
_symmetry_group_IT_number 37
_symmetry_cell_setting 'orthorhombic'
loop_
_space_group_symop_operation_xyz
x,y,z
-x,-y,z
-x,y,1/2+z
x,-y,1/2+z
1/2+x,1/2+y,z
1/2-x,1/2-y,z
1/2-x,1/2+y,1/2+z
1/2+x,1/2-y,1/2+z
loop_
_atom_site_type_symbol
_atom_site_label
_atom_site_fract_x
_atom_site_fract_y
_atom_site_fract_z
Si Si1 0.485737 0.170944 0.827130
Si Si2 0.250000 0.250000 0.759113
Si Si3 0.486350 0.286464 0.989751
Si Si4 0.271313 0.025291 0.027283
Si Si5 0.000000 0.500000 0.932169
Si Si6 0.134417 0.890415 0.144021
Si Si7 0.406644 0.437283 0.868028
Si Si8 0.659468 0.813416 0.143165
O O1 0.362847 0.213671 0.813615
O O2 0.547665 0.223922 0.914731
O O3 0.561142 0.171785 0.725342
O O4 0.477949 0.079826 0.866168
O O5 0.217461 0.175584 0.688962
O O6 0.433217 0.352496 0.917092
O O7 0.552784 0.338896 0.072551
O O8 0.396626 0.233023 0.049013
O O9 0.286228 0.105363 0.096569
O O10 0.194423 0.960997 0.083631
O O11 0.212444 0.040721 0.917578
O O12 0.392524 0.989461 0.003863
O O13 0.084744 0.928770 0.246929
O O14 0.500000 0.500000 0.903407
O O15 0.750000 0.750000 0.186307
#
# Coordination Sequence:
#
# PCOD9355719 Si02
#       8
#     8   4   8   8   4   8   8   8
#     4  12  29  49  78 110 152 201 259 321 387 465
#     4  12  26  50  74 108 144 206 256 308 388 464
#     4  12  24  52  74 109 149 201 255 313 382 452
#     4  12  29  48  75 112 159 205 251 322 396 461
#     4  12  30  50  74 112 160 204 252 322 394 470
#     4  12  29  46  77 111 153 200 260 320 381 463
#     4  12  26  48  79 114 152 198 262 322 388 455
#     4  12  27  48  78 109 152 204 258 313 386 466
#
# _framework density 21.485627999999998
#
# number of rings (size 3 to 8) (size 9 to 14) (size 15 to 20)
#    0.000    0.000    7.143    0.857   11.000    2.286 
#    0.000    0.000    0.000    0.000    0.000    0.000 
#    0.000    0.000    0.000    0.000    0.000    0.000 
#
# Total GULP energy -156446.591663 kJ/mol
# GULP energy per Si atom -5587.378274 kJ/mol
# Density = 2.143673 g / cm^3
# Si number density = 21.485628 Si / 1000 Ang^3
#
#
#
# Elastic Constant Matrix: (Units=GPa)
#
#
# Indices 1 2 3 4 5 6 
#
# 1 76.1718 32.6405 32.9070 0.0000 0.0000 0.0000
# 2 32.6405 137.7836 36.5131 0.0000 0.0000 0.0000
# 3 32.9070 36.5131 101.8452 0.0000 0.0000 0.0000
# 4 0.0000 0.0000 0.0000 33.9108 0.0000 0.0000
# 5 0.0000 0.0000 0.0000 0.0000 18.3126 0.0000
# 6 0.0000 0.0000 0.0000 0.0000 0.0000 41.7680
#
#
#
# Elastic Compliance Matrix: (Units=1/GPa)
#
#
# Indices 1 2 3 4 5 6 
#
# 1 0.016115 -0.002694 -0.004241 0.000000 0.000000 0.000000
# 2 -0.002694 0.008470 -0.002166 0.000000 0.000000 0.000000
# 3 -0.004241 -0.002166 0.011966 0.000000 0.000000 0.000000
# 4 0.000000 0.000000 0.000000 0.029489 0.000000 0.000000
# 5 0.000000 0.000000 0.000000 0.000000 0.054607 0.000000
# 6 0.000000 0.000000 0.000000 0.000000 0.000000 0.023942
#
#
# Mechanical properties :
#
#
# Convention : Reuss Voigt Hill
#
# Bulk Modulus (GPa) = 54.50049 57.76908 56.13479
# Shear Modulus (GPa) = 29.60217 33.04762 31.32490
#
# Velocity S-wave (km/s) = 3.71585 3.92615 3.82245
# Velocity P-wave (km/s) = 6.62051 6.89192 6.75758
#
# Compressibility (1/GPa) = 0.01834846
#
# Stress axis : x y z
#
# Youngs Moduli (GPa) = 62.05529 118.06462 83.57155
#
# Poissons Ratio (x) = 0.31802 0.35443
# Poissons Ratio (y) = 0.16715 0.18104
# Poissons Ratio (z) = 0.26318 0.25576
#
# Static dielectric constant tensor:
#      x y z
#    x 1.826680 0.000000 0.000000 
#    y 0.000000 1.772940 0.000000 
#    z 0.000000 0.000000 1.817680 
# 
# From -- ./inp_files/11653.got.cif
#   From: 2010.05.17/outbox.cif.g08.bks.cpg/sg37_6_cif.got.tgz:11653.got - 2010.06.03 17:53:42.
