data_PCOD9355100
_publ_section_title
;
Structure prediction by ZEFSAII (Michael W. Deem and Ramdas Pophale) SiO2 
 PCOD9355100
Probable space group: C C C 2
;
_chemical_formula_sum "Si O2"
_cell_formula_units_Z 56
_cell_length_a 11.744337
_cell_length_b 15.556476
_cell_length_c 13.667756
_cell_angle_alpha 90.000000
_cell_angle_beta 90.000000
_cell_angle_gamma 90.000000
_cell_volume 2497.105810
_symmetry_space_group_name_H-M "C C C 2"
_symmetry_group_IT_number 37
_symmetry_cell_setting 'orthorhombic'
loop_
_space_group_symop_operation_xyz
x,y,z
-x,-y,z
-x,y,1/2+z
x,-y,1/2+z
1/2+x,1/2+y,z
1/2-x,1/2-y,z
1/2-x,1/2+y,1/2+z
1/2+x,1/2-y,1/2+z
loop_
_atom_site_type_symbol
_atom_site_label
_atom_site_fract_x
_atom_site_fract_y
_atom_site_fract_z
Si Si1 0.561429 0.810686 0.737400
Si Si2 0.692453 0.156184 0.746041
Si Si3 0.230747 0.049536 0.414998
Si Si4 0.800431 0.889817 0.044053
Si Si5 0.000000 0.000000 0.342727
Si Si6 0.227056 0.350822 0.585903
Si Si7 0.466772 0.619075 0.162504
Si Si8 0.250000 0.750000 0.391101
O O1 0.440449 0.843993 0.771156
O O2 0.623776 0.870577 0.657640
O O3 0.528411 0.720550 0.684802
O O4 0.655585 0.793128 0.820712
O O5 0.750000 0.250000 0.770422
O O6 0.742263 0.073615 0.803392
O O7 0.718153 0.140994 0.631435
O O8 0.289069 0.126605 0.473861
O O9 0.257083 0.965640 0.479742
O O10 0.094858 0.042342 0.409453
O O11 0.922136 0.906123 0.098955
O O12 0.814046 0.815901 0.962745
O O13 0.039871 0.926973 0.267411
O O14 0.250000 0.250000 0.598281
O O15 0.344627 0.397282 0.613844
#
# Coordination Sequence:
#
# PCOD9355100 Si02
#       8
#     8   8   8   8   4   8   8   4
#     4  11  23  44  74 100 140 189 243 297 356 442
#     4  12  25  49  72 104 146 193 244 301 363 435
#     4  12  26  40  70 108 141 189 236 300 361 433
#     4  12  25  44  73 105 145 184 243 299 366 429
#     4  12  22  40  70 102 146 174 234 304 370 422
#     4  10  23  42  67 102 142 183 232 293 360 431
#     4  11  20  42  72 101 139 183 230 305 364 423
#     4  12  24  46  74 106 140 194 244 294 368 440
#
# _framework density 22.42596
#
# number of rings (size 3 to 8) (size 9 to 14) (size 15 to 20)
#    0.000    0.571    5.714    3.000    0.000    4.571 
#    0.000    4.286    0.000    0.000    0.000    0.000 
#    0.000    0.000    0.000    0.000    0.000    0.000 
#
# Total GULP energy -156271.605155 kJ/mol
# GULP energy per Si atom -5581.128756 kJ/mol
# Density = 2.237492 g / cm^3
# Si number density = 22.425960 Si / 1000 Ang^3
#
#
#
# Elastic Constant Matrix: (Units=GPa)
#
#
# Indices 1 2 3 4 5 6 
#
# 1 114.8134 17.8547 35.0794 0.0000 0.0000 0.0000
# 2 17.8547 51.0942 25.7246 0.0000 0.0000 0.0000
# 3 35.0794 25.7246 119.9027 0.0000 0.0000 0.0000
# 4 0.0000 0.0000 0.0000 46.1192 0.0000 0.0000
# 5 0.0000 0.0000 0.0000 0.0000 31.3847 0.0000
# 6 0.0000 0.0000 0.0000 0.0000 0.0000 26.1637
#
#
#
# Elastic Compliance Matrix: (Units=1/GPa)
#
#
# Indices 1 2 3 4 5 6 
#
# 1 0.009784 -0.002217 -0.002387 0.000000 0.000000 0.000000
# 2 -0.002217 0.022444 -0.004167 0.000000 0.000000 0.000000
# 3 -0.002387 -0.004167 0.009932 0.000000 0.000000 0.000000
# 4 0.000000 0.000000 0.000000 0.021683 0.000000 0.000000
# 5 0.000000 0.000000 0.000000 0.000000 0.031863 0.000000
# 6 0.000000 0.000000 0.000000 0.000000 0.000000 0.038221
#
#
# Mechanical properties :
#
#
# Convention : Reuss Voigt Hill
#
# Bulk Modulus (GPa) = 40.61873 49.23642 44.92757
# Shear Modulus (GPa) = 31.31371 34.54363 32.92867
#
# Velocity S-wave (km/s) = 3.74078 3.92898 3.83603
# Velocity P-wave (km/s) = 6.06710 6.52574 6.30059
#
# Compressibility (1/GPa) = 0.02461919
#
# Stress axis : x y z
#
# Youngs Moduli (GPa) = 102.20965 44.55478 100.68168
#
# Poissons Ratio (x) = 0.09879 0.24030
# Poissons Ratio (y) = 0.22663 0.41950
# Poissons Ratio (z) = 0.24394 0.18564
#
# Static dielectric constant tensor:
#      x y z
#    x 1.829910 0.000000 0.000000 
#    y 0.000000 1.910310 0.000000 
#    z 0.000000 0.000000 1.916480 
# 
# From -- ./inp_files/11645.got.cif
#   From: 2010.05.17/outbox.cif.g08.bks.cpg/sg37_6_cif.got.tgz:11645.got - 2010.06.03 17:53:42.
