data_PCOD9355886
_publ_section_title
;
Structure prediction by ZEFSAII (Michael W. Deem and Ramdas Pophale) SiO2 
 PCOD9355886
Probable space group: A M M 2
;
_chemical_formula_sum "Si O2"
_cell_formula_units_Z 56
_cell_length_a 21.131132
_cell_length_b 7.513247
_cell_length_c 15.549076
_cell_angle_alpha 90.000000
_cell_angle_beta 90.000000
_cell_angle_gamma 90.000000
_cell_volume 2468.624392
_symmetry_space_group_name_H-M "A M M 2"
_symmetry_group_IT_number 38
_symmetry_cell_setting 'orthorhombic'
loop_
_space_group_symop_operation_xyz
x,y,z
-x,-y,z
-x,y,z
x,-y,z
x,1/2+y,1/2+z
-x,1/2-y,1/2+z
-x,1/2+y,1/2+z
x,1/2-y,1/2+z
loop_
_atom_site_type_symbol
_atom_site_label
_atom_site_fract_x
_atom_site_fract_y
_atom_site_fract_z
Si Si1 0.567923 0.716952 0.760180
Si Si2 0.837713 0.282666 0.517165
Si Si3 0.841693 0.215289 0.207077
Si Si4 0.928866 0.789454 0.867365
Si Si5 0.432308 0.713602 0.963859
Si Si6 0.296984 0.297075 0.750849
Si Si7 0.296310 0.291958 0.448256
O O1 0.500000 0.776193 0.723660
O O2 0.569207 0.500000 0.756141
O O3 0.567309 0.762898 0.862046
O O4 0.635043 0.782823 0.724208
O O5 0.837642 0.500000 0.515914
O O6 0.859392 0.227992 0.611397
O O7 0.883779 0.216944 0.442472
O O8 0.765151 0.228795 0.499441
O O9 0.891567 0.269309 0.278553
O O10 0.770446 0.282902 0.226083
O O11 0.839044 0.000000 0.210183
O O12 0.000000 0.716021 0.865134
O O13 0.934081 0.000000 0.883869
O O14 0.500000 0.778001 0.000327
O O15 0.432492 0.500000 0.968358
O O16 0.363679 0.773453 0.995806
O O17 0.296497 0.500000 0.717626
O O18 0.298495 0.300676 0.855133
O O19 0.287466 0.500000 0.429096
#
# Coordination Sequence:
#
# PCOD9355886 Si02
#       7
#     8   8   8   8   8   8   8
#     4   7  10  18  34  58  88 121 158 201 248 295
#     4   9  19  35  54  79 110 145 178 211 264 325
#     4  10  20  35  57  82 108 140 181 224 259 308
#     4  10  21  39  60  80 107 141 174 212 265 327
#     4   8  14  25  41  64  97 135 176 221 267 314
#     4   9  16  27  46  71  98 131 174 221 263 301
#     4  10  17  27  47  71 101 138 176 217 261 317
#
# _framework density 22.684698000000001
#
# number of rings (size 3 to 8) (size 9 to 14) (size 15 to 20)
#    0.000    3.000    1.429    2.143    0.000    1.143 
#    0.000    3.571    0.000    0.857    0.000    4.000 
#    0.000    0.000    0.000    0.000    0.000    0.143 
#
# Total GULP energy -156167.307958 kJ/mol
# GULP energy per Si atom -5577.403856 kJ/mol
# Density = 2.263307 g / cm^3
# Si number density = 22.684698 Si / 1000 Ang^3
#
#
#
# Elastic Constant Matrix: (Units=GPa)
#
#
# Indices 1 2 3 4 5 6 
#
# 1 233.1868 6.3985 76.5855 0.0000 0.0000 0.0000
# 2 6.3985 62.2876 -7.4000 0.0000 0.0000 0.0000
# 3 76.5855 -7.4000 94.8643 0.0000 0.0000 0.0000
# 4 0.0000 0.0000 0.0000 3.8317 0.0000 0.0000
# 5 0.0000 0.0000 0.0000 0.0000 -15.1725 0.0000
# 6 0.0000 0.0000 0.0000 0.0000 0.0000 16.6709
#
#
#
# Elastic Compliance Matrix: (Units=1/GPa)
#
#
# Indices 1 2 3 4 5 6 
#
# 1 0.005921 -0.001187 -0.004873 0.000000 0.000000 0.000000
# 2 -0.001187 0.016443 0.002241 0.000000 0.000000 0.000000
# 3 -0.004873 0.002241 0.014650 0.000000 0.000000 0.000000
# 4 0.000000 0.000000 0.000000 0.260979 0.000000 0.000000
# 5 0.000000 0.000000 0.000000 0.000000 -0.065909 0.000000
# 6 0.000000 0.000000 0.000000 0.000000 0.000000 0.059985
#
#
# Mechanical properties :
#
#
# Convention : Reuss Voigt Hill
#
# Bulk Modulus (GPa) = 34.04129 60.16743 47.10436
# Shear Modulus (GPa) = 16.15511 22.04968 19.10240
#
# Velocity S-wave (km/s) = 2.67153 3.12108 2.90501
# Velocity P-wave (km/s) = 4.95529 6.29040 5.66234
#
# Compressibility (1/GPa) = 0.02937609
#
# Stress axis : x y z
#
# Youngs Moduli (GPa) = 168.87744 60.81704 68.25789
#
# Poissons Ratio (x) = 0.07220 0.33263
# Poissons Ratio (y) = 0.20049 -0.15297
# Poissons Ratio (z) = 0.82296 -0.13630
#
# Static dielectric constant tensor:
#      x y z
#    x 1.885310 0.000000 0.000000 
#    y 0.000000 1.891190 0.000000 
#    z 0.000000 0.000000 1.812500 
# 
# From -- ./inp_files/15496.got.cif
#   From: 2010.05.17/outbox.cif.g08.bks.cpg/sg38_8_cif.got.tgz:15496.got - 2010.06.03 18:07:57.
