data_PCOD9355994
_publ_section_title
;
Structure prediction by ZEFSAII (Michael W. Deem and Ramdas Pophale) SiO2 
 PCOD9355994
Probable space group: A M M 2
;
_chemical_formula_sum "Si O2"
_cell_formula_units_Z 64
_cell_length_a 8.686615
_cell_length_b 18.915302
_cell_length_c 27.156214
_cell_angle_alpha 90.000000
_cell_angle_beta 90.000000
_cell_angle_gamma 90.000000
_cell_volume 4462.036058
_symmetry_space_group_name_H-M "A M M 2"
_symmetry_group_IT_number 38
_symmetry_cell_setting 'orthorhombic'
loop_
_space_group_symop_operation_xyz
x,y,z
-x,-y,z
-x,y,z
x,-y,z
x,1/2+y,1/2+z
-x,1/2-y,1/2+z
-x,1/2+y,1/2+z
x,1/2-y,1/2+z
loop_
_atom_site_type_symbol
_atom_site_label
_atom_site_fract_x
_atom_site_fract_y
_atom_site_fract_z
Si Si1 0.815998 0.917834 0.854790
Si Si2 0.682873 0.668982 0.447185
Si Si3 0.314321 0.082418 0.340100
Si Si4 0.814591 0.580665 0.649920
Si Si5 0.685239 0.164886 0.240351
Si Si6 0.183307 0.290111 0.890771
Si Si7 0.185391 0.417416 0.536662
Si Si8 0.316033 0.703282 0.298134
O O1 0.741196 0.882511 0.903183
O O2 0.761629 0.871939 0.807905
O O3 0.000000 0.911942 0.859698
O O4 0.774228 0.000000 0.851114
O O5 0.500000 0.675728 0.443953
O O6 0.760224 0.745437 0.437628
O O7 0.733992 0.633379 0.497958
O O8 0.500000 0.089120 0.343653
O O9 0.267976 0.115877 0.287100
O O10 0.237740 0.129730 0.382700
O O11 0.274059 0.000000 0.342263
O O12 0.763378 0.500000 0.660962
O O13 0.751150 0.633613 0.690433
O O14 0.770893 0.596880 0.593449
O O15 0.000000 0.581119 0.651631
O O16 0.500000 0.162763 0.238465
O O17 0.730466 0.245755 0.253103
O O18 0.265832 0.249092 0.845678
O O19 0.000000 0.284715 0.886186
O O20 0.221846 0.500000 0.526260
O O21 0.000000 0.410299 0.532297
O O22 0.500000 0.695353 0.297939
#
# Coordination Sequence:
#
# PCOD9355994 Si02
#       8
#     8   8   8   8   8   8   8   8
#     4  10  19  29  42  61  84 109 137 170 208 247
#     4  11  20  29  43  61  81 108 142 173 205 247
#     4   9  17  29  43  60  85 114 141 171 207 244
#     4   9  18  30  43  60  82 109 140 173 207 242
#     4   9  17  28  42  60  82 110 141 171 204 240
#     4  10  18  28  42  59  81 108 138 172 207 243
#     4   9  18  32  45  58  81 110 139 173 210 243
#     4   9  17  29  42  57  80 109 140 171 204 243
#
# _framework density 14.343228
#
# number of rings (size 3 to 8) (size 9 to 14) (size 15 to 20)
#    0.000    2.500    0.000    6.750    0.000    6.750 
#    0.000    1.250    0.000    0.000    0.000    0.000 
#    0.000    1.000    0.000    7.000    0.000    5.500 
#
# Total GULP energy -178289.128605 kJ/mol
# GULP energy per Si atom -5571.535269 kJ/mol
# Density = 1.431058 g / cm^3
# Si number density = 14.343228 Si / 1000 Ang^3
#
#
#
# Elastic Constant Matrix: (Units=GPa)
#
#
# Indices 1 2 3 4 5 6 
#
# 1 18.0827 23.2441 14.4243 0.0000 0.0000 0.0000
# 2 23.2441 96.3035 45.9187 0.0000 0.0000 0.0000
# 3 14.4243 45.9187 71.5743 0.0000 0.0000 0.0000
# 4 0.0000 0.0000 0.0000 26.8746 0.0000 0.0000
# 5 0.0000 0.0000 0.0000 0.0000 23.8831 0.0000
# 6 0.0000 0.0000 0.0000 0.0000 0.0000 22.2827
#
#
#
# Elastic Compliance Matrix: (Units=1/GPa)
#
#
# Indices 1 2 3 4 5 6 
#
# 1 0.081648 -0.017088 -0.005491 0.000000 0.000000 0.000000
# 2 -0.017088 0.018537 -0.008448 0.000000 0.000000 0.000000
# 3 -0.005491 -0.008448 0.020498 0.000000 0.000000 0.000000
# 4 0.000000 0.000000 0.000000 0.037210 0.000000 0.000000
# 5 0.000000 0.000000 0.000000 0.000000 0.041871 0.000000
# 6 0.000000 0.000000 0.000000 0.000000 0.000000 0.044878
#
#
# Mechanical properties :
#
#
# Convention : Reuss Voigt Hill
#
# Bulk Modulus (GPa) = 17.05716 39.23717 28.14717
# Shear Modulus (GPa) = 15.32618 21.43299 18.37959
#
# Velocity S-wave (km/s) = 3.27239 3.86980 3.58357
# Velocity P-wave (km/s) = 5.11820 6.88349 6.06541
#
# Compressibility (1/GPa) = 0.05862640
#
# Stress axis : x y z
#
# Youngs Moduli (GPa) = 12.24774 53.94708 48.78463
#
# Poissons Ratio (x) = 0.92187 0.26789
# Poissons Ratio (y) = 0.20930 0.41215
# Poissons Ratio (z) = 0.06725 0.45577
#
# Static dielectric constant tensor:
#      x y z
#    x 1.479750 0.000000 0.000000 
#    y 0.000000 1.496250 0.000000 
#    z 0.000000 0.000000 1.464000 
# 
# From -- ./inp_files/22283.got.cif
#   From: 2010.05.17/outbox.cif.g08.bks.cpg/sg38_12_cif.got.tgz:22283.got - 2010.06.03 18:07:57.
