data_PCOD9355863
_publ_section_title
;
Structure prediction by ZEFSAII (Michael W. Deem and Ramdas Pophale) SiO2 
 PCOD9355863
Probable space group: A M M 2
;
_chemical_formula_sum "Si O2"
_cell_formula_units_Z 64
_cell_length_a 7.733148
_cell_length_b 15.329683
_cell_length_c 28.680104
_cell_angle_alpha 90.000000
_cell_angle_beta 90.000000
_cell_angle_gamma 90.000000
_cell_volume 3399.931898
_symmetry_space_group_name_H-M "A M M 2"
_symmetry_group_IT_number 38
_symmetry_cell_setting 'orthorhombic'
loop_
_space_group_symop_operation_xyz
x,y,z
-x,-y,z
-x,y,z
x,-y,z
x,1/2+y,1/2+z
-x,1/2-y,1/2+z
-x,1/2+y,1/2+z
x,1/2-y,1/2+z
loop_
_atom_site_type_symbol
_atom_site_label
_atom_site_fract_x
_atom_site_fract_y
_atom_site_fract_z
Si Si1 0.297365 0.224224 0.200750
Si Si2 0.791438 0.901456 0.285136
Si Si3 0.792674 0.276562 0.430377
Si Si4 0.292089 0.597703 0.514096
Si Si5 0.211082 0.099844 0.847801
Si Si6 0.288363 0.598901 0.620616
Si Si7 0.788730 0.097864 0.392477
Si Si8 0.206457 0.097010 0.742446
O O1 0.500000 0.227901 0.192806
O O2 0.265702 0.169163 0.247788
O O3 0.222120 0.169287 0.157570
O O4 0.240209 0.323167 0.208381
O O5 0.738389 0.883929 0.338587
O O6 0.000000 0.901254 0.284972
O O7 0.733302 0.000000 0.272759
O O8 0.756269 0.328354 0.477549
O O9 0.725986 0.333747 0.386802
O O10 0.729596 0.177382 0.424753
O O11 0.000000 0.273003 0.425723
O O12 0.500000 0.594174 0.515182
O O13 0.230243 0.500000 0.500237
O O14 0.233918 0.614770 0.567194
O O15 0.269934 0.118515 0.794971
O O16 0.000000 0.103646 0.847784
O O17 0.258749 0.000000 0.859069
O O18 0.500000 0.599889 0.620976
O O19 0.237118 0.500000 0.633699
O O20 0.000000 0.095994 0.393052
O O21 0.730544 0.000000 0.404726
O O22 0.000000 0.090569 0.746337
O O23 0.271417 0.000000 0.729533
#
# Coordination Sequence:
#
# PCOD9355863 Si02
#       8
#     8   8   8   8   8   8   8   8
#     4  11  20  29  47  72  95 120 152 192 234 275
#     4   9  17  30  48  69  94 125 159 190 221 267
#     4  10  17  26  46  71  91 114 148 190 228 261
#     4   9  18  33  50  66  88 118 148 180 223 276
#     4   8  14  25  42  64  89 118 150 180 215 265
#     4   8  16  32  50  66  88 120 151 176 216 280
#     4   8  15  28  45  65  91 125 160 187 215 260
#     4   9  18  33  50  66  90 127 164 192 220 262
#
# _framework density 18.823906000000001
#
# number of rings (size 3 to 8) (size 9 to 14) (size 15 to 20)
#    0.000    3.000    0.000    4.125    0.000    3.750 
#    0.000    3.750    0.000    4.125    0.000    3.500 
#    0.000    0.000    0.000    0.000    0.000    0.000 
#
# Total GULP energy -178421.819726 kJ/mol
# GULP energy per Si atom -5575.681866 kJ/mol
# Density = 1.878106 g / cm^3
# Si number density = 18.823906 Si / 1000 Ang^3
#
#
#
# Elastic Constant Matrix: (Units=GPa)
#
#
# Indices 1 2 3 4 5 6 
#
# 1 24.1165 8.1724 4.0521 0.0000 0.0000 0.0000
# 2 8.1724 177.7850 110.2505 0.0000 0.0000 0.0000
# 3 4.0521 110.2505 99.3637 0.0000 0.0000 0.0000
# 4 0.0000 0.0000 0.0000 32.9480 0.0000 0.0000
# 5 0.0000 0.0000 0.0000 0.0000 17.5169 0.0000
# 6 0.0000 0.0000 0.0000 0.0000 0.0000 10.6136
#
#
#
# Elastic Compliance Matrix: (Units=1/GPa)
#
#
# Indices 1 2 3 4 5 6 
#
# 1 0.042181 -0.002796 0.001383 0.000000 0.000000 0.000000
# 2 -0.002796 0.018218 -0.020100 0.000000 0.000000 0.000000
# 3 0.001383 -0.020100 0.032310 0.000000 0.000000 0.000000
# 4 0.000000 0.000000 0.000000 0.030351 0.000000 0.000000
# 5 0.000000 0.000000 0.000000 0.000000 0.057088 0.000000
# 6 0.000000 0.000000 0.000000 0.000000 0.000000 0.094219
#
#
# Mechanical properties :
#
#
# Convention : Reuss Voigt Hill
#
# Bulk Modulus (GPa) = 20.12837 60.69057 40.40947
# Shear Modulus (GPa) = 14.97211 24.13505 19.55358
#
# Velocity S-wave (km/s) = 2.82330 3.58460 3.22648
# Velocity P-wave (km/s) = 4.61998 7.03162 5.94928
#
# Compressibility (1/GPa) = 0.04968111
#
# Stress axis : x y z
#
# Youngs Moduli (GPa) = 23.70750 54.89057 30.95015
#
# Poissons Ratio (x) = 0.15349 -0.04279
# Poissons Ratio (y) = 0.06629 0.62210
# Poissons Ratio (z) = -0.03278 1.10331
#
# Static dielectric constant tensor:
#      x y z
#    x 1.707070 0.000000 0.000000 
#    y 0.000000 1.693090 0.000000 
#    z 0.000000 0.000000 1.641080 
# 
# From -- ./inp_files/24701.got.cif
#   From: 2010.05.17/outbox.cif.g08.bks.cpg/sg38_13_cif.got.tgz:24701.got - 2010.06.03 18:07:57.
