data_PCOD9355396
_publ_section_title
;
Structure prediction by ZEFSAII (Michael W. Deem and Ramdas Pophale) SiO2 
 PCOD9355396
Probable space group: C C C 2
;
_chemical_formula_sum "Si O2"
_cell_formula_units_Z 56
_cell_length_a 19.321111
_cell_length_b 13.096554
_cell_length_c 8.384801
_cell_angle_alpha 90.000000
_cell_angle_beta 90.000000
_cell_angle_gamma 90.000000
_cell_volume 2121.689823
_symmetry_space_group_name_H-M "C C C 2"
_symmetry_group_IT_number 37
_symmetry_cell_setting 'orthorhombic'
loop_
_space_group_symop_operation_xyz
x,y,z
-x,-y,z
-x,y,1/2+z
x,-y,1/2+z
1/2+x,1/2+y,z
1/2-x,1/2-y,z
1/2-x,1/2+y,1/2+z
1/2+x,1/2-y,1/2+z
loop_
_atom_site_type_symbol
_atom_site_label
_atom_site_fract_x
_atom_site_fract_y
_atom_site_fract_z
Si Si1 0.460364 0.310743 0.585590
Si Si2 0.864365 0.642286 0.819200
Si Si3 0.150573 0.571793 0.679398
Si Si4 0.318191 0.646005 0.217532
Si Si5 0.288349 0.442234 0.362610
Si Si6 0.560031 0.583009 0.256116
Si Si7 0.479842 0.884345 0.896191
O O1 0.402597 0.354076 0.705880
O O2 0.453860 0.384889 0.435742
O O3 0.537505 0.322135 0.648519
O O4 0.449049 0.197437 0.518739
O O5 0.846011 0.606692 0.998329
O O6 0.947149 0.660964 0.836477
O O7 0.852982 0.550523 0.695540
O O8 0.816582 0.734463 0.761369
O O9 0.219150 0.600137 0.779790
O O10 0.079251 0.604470 0.763470
O O11 0.289636 0.566668 0.348759
O O12 0.295908 0.606800 0.039387
O O13 0.357343 0.425906 0.254607
O O14 0.500000 0.500000 0.217285
O O15 0.500000 0.000000 0.952628
#
# Coordination Sequence:
#
# PCOD9355396 Si02
#       7
#     8   8   8   8   8   8   8
#     4  11  24  44  74 115 152 206 280 336 405 489
#     4  11  27  50  85 124 163 219 292 347 423 508
#     4  11  27  54  82 121 171 214 279 357 433 508
#     4  11  26  49  82 122 164 219 278 342 412 504
#     4  11  26  52  81 118 173 217 274 347 432 509
#     4  11  23  43  74 113 156 209 271 333 402 487
#     4  10  26  47  82 114 159 213 280 355 414 492
#
# _framework density 26.394055999999999
#
# number of rings (size 3 to 8) (size 9 to 14) (size 15 to 20)
#    0.000    1.143    1.429    2.143   10.000    3.429 
#    5.143    5.000    0.000    0.000    0.000    0.000 
#    0.000    0.000    0.000    0.000    0.000    0.000 
#
# Total GULP energy -156590.111977 kJ/mol
# GULP energy per Si atom -5592.503999 kJ/mol
# Density = 2.633398 g / cm^3
# Si number density = 26.394056 Si / 1000 Ang^3
#
#
#
# Elastic Constant Matrix: (Units=GPa)
#
#
# Indices 1 2 3 4 5 6 
#
# 1 212.8405 58.4705 60.3071 0.0000 0.0000 0.0000
# 2 58.4705 117.9755 65.7950 0.0000 0.0000 0.0000
# 3 60.3071 65.7950 110.8813 0.0000 0.0000 0.0000
# 4 0.0000 0.0000 0.0000 50.9668 0.0000 0.0000
# 5 0.0000 0.0000 0.0000 0.0000 42.9173 0.0000
# 6 0.0000 0.0000 0.0000 0.0000 0.0000 10.7494
#
#
#
# Elastic Compliance Matrix: (Units=1/GPa)
#
#
# Indices 1 2 3 4 5 6 
#
# 1 0.005763 -0.001656 -0.002152 0.000000 0.000000 0.000000
# 2 -0.001656 0.013145 -0.006899 0.000000 0.000000 0.000000
# 3 -0.002152 -0.006899 0.014283 0.000000 0.000000 0.000000
# 4 0.000000 0.000000 0.000000 0.019621 0.000000 0.000000
# 5 0.000000 0.000000 0.000000 0.000000 0.023301 0.000000
# 6 0.000000 0.000000 0.000000 0.000000 0.000000 0.093028
#
#
# Mechanical properties :
#
#
# Convention : Reuss Voigt Hill
#
# Bulk Modulus (GPa) = 84.91442 90.09360 87.50401
# Shear Modulus (GPa) = 25.70968 38.06835 31.88901
#
# Velocity S-wave (km/s) = 3.12440 3.80189 3.47967
# Velocity P-wave (km/s) = 6.72737 7.31305 7.02631
#
# Compressibility (1/GPa) = 0.01177656
#
# Stress axis : x y z
#
# Youngs Moduli (GPa) = 173.52043 76.07559 70.01481
#
# Poissons Ratio (x) = 0.12600 0.15065
# Poissons Ratio (y) = 0.28740 0.48304
# Poissons Ratio (z) = 0.37335 0.52485
#
# Static dielectric constant tensor:
#      x y z
#    x 2.149140 0.000000 0.000000 
#    y 0.000000 2.297970 0.000000 
#    z 0.000000 0.000000 2.026570 
# 
# From -- ./inp_files/4386.got.cif
#   From: 2010.05.17/outbox.cif.g08.bks.cpg/sg37_3_cif.got.tgz:4386.got - 2010.06.03 17:53:42.
