data_PCOD9355845
_publ_section_title
;
Structure prediction by ZEFSAII (Michael W. Deem and Ramdas Pophale) SiO2 
 PCOD9355845
Probable space group: A M M 2
;
_chemical_formula_sum "Si O2"
_cell_formula_units_Z 56
_cell_length_a 12.760781
_cell_length_b 29.673078
_cell_length_c 9.691518
_cell_angle_alpha 90.000000
_cell_angle_beta 90.000000
_cell_angle_gamma 90.000000
_cell_volume 3669.709281
_symmetry_space_group_name_H-M "A M M 2"
_symmetry_group_IT_number 38
_symmetry_cell_setting 'orthorhombic'
loop_
_space_group_symop_operation_xyz
x,y,z
-x,-y,z
-x,y,z
x,-y,z
x,1/2+y,1/2+z
-x,1/2-y,1/2+z
-x,1/2+y,1/2+z
x,1/2-y,1/2+z
loop_
_atom_site_type_symbol
_atom_site_label
_atom_site_fract_x
_atom_site_fract_y
_atom_site_fract_z
Si Si1 0.124467 0.653048 0.703700
Si Si2 0.872699 0.948057 0.721825
Si Si3 0.377930 0.299248 0.418630
Si Si4 0.879057 0.899655 0.454528
Si Si5 0.812948 0.637426 0.390555
Si Si6 0.114767 0.308540 0.132400
Si Si7 0.722204 0.764783 0.191102
O O1 0.161111 0.611950 0.802559
O O2 0.141728 0.641502 0.543719
O O3 0.196440 0.696320 0.736311
O O4 0.000000 0.661284 0.728960
O O5 0.835016 0.934201 0.567357
O O6 0.824835 0.912287 0.828125
O O7 0.000000 0.941917 0.725280
O O8 0.850072 0.000000 0.751454
O O9 0.500000 0.307352 0.395492
O O10 0.304635 0.342688 0.391359
O O11 0.336386 0.260032 0.315961
O O12 0.355255 0.284535 0.576027
O O13 0.876016 0.851227 0.531809
O O14 0.000000 0.913397 0.435887
O O15 0.874652 0.670390 0.285465
O O16 0.205619 0.272609 0.116052
O O17 0.000000 0.287819 0.113385
#
# Coordination Sequence:
#
# PCOD9355845 Si02
#       7
#     8   8   8   8   8   8   8
#     4  10  17  26  40  63  95 120 143 177 215 257
#     4   9  16  29  48  67  88 114 141 168 207 267
#     4  10  20  33  45  59  85 117 154 195 224 248
#     4   8  15  25  38  57  85 118 142 165 200 247
#     4   9  18  29  44  64  86 116 149 180 220 263
#     4   9  15  26  41  60  88 117 147 176 207 254
#     4  10  19  28  43  64  84 117 154 184 217 253
#
# _framework density 15.260064
#
# number of rings (size 3 to 8) (size 9 to 14) (size 15 to 20)
#    0.000    2.714    0.000    3.857    0.000    0.000 
#    0.000    5.000    0.000    3.000    0.000    0.000 
#    0.000    0.000    0.000    0.000    0.000    0.000 
#
# Total GULP energy -155891.460924 kJ/mol
# GULP energy per Si atom -5567.552176 kJ/mol
# Density = 1.522533 g / cm^3
# Si number density = 15.260064 Si / 1000 Ang^3
#
#
#
# Elastic Constant Matrix: (Units=GPa)
#
#
# Indices 1 2 3 4 5 6 
#
# 1 76.9590 29.2960 20.4794 0.0000 0.0000 0.0000
# 2 29.2960 76.1218 19.7900 0.0000 0.0000 0.0000
# 3 20.4794 19.7900 71.8092 0.0000 0.0000 0.0000
# 4 0.0000 0.0000 0.0000 14.7555 0.0000 0.0000
# 5 0.0000 0.0000 0.0000 0.0000 13.7132 0.0000
# 6 0.0000 0.0000 0.0000 0.0000 0.0000 9.8123
#
#
#
# Elastic Compliance Matrix: (Units=1/GPa)
#
#
# Indices 1 2 3 4 5 6 
#
# 1 0.015822 -0.005296 -0.003053 0.000000 0.000000 0.000000
# 2 -0.005296 0.015923 -0.002878 0.000000 0.000000 0.000000
# 3 -0.003053 -0.002878 0.015590 0.000000 0.000000 0.000000
# 4 0.000000 0.000000 0.000000 0.067771 0.000000 0.000000
# 5 0.000000 0.000000 0.000000 0.000000 0.072923 0.000000
# 6 0.000000 0.000000 0.000000 0.000000 0.000000 0.101913
#
#
# Mechanical properties :
#
#
# Convention : Reuss Voigt Hill
#
# Bulk Modulus (GPa) = 40.18996 40.44677 40.31837
# Shear Modulus (GPa) = 15.59144 18.01117 16.80131
#
# Velocity S-wave (km/s) = 3.19990 3.43925 3.32173
# Velocity P-wave (km/s) = 6.32822 6.50644 6.41795
#
# Compressibility (1/GPa) = 0.02488184
#
# Stress axis : x y z
#
# Youngs Moduli (GPa) = 63.20226 62.80186 64.14525
#
# Poissons Ratio (x) = 0.33257 0.19583
# Poissons Ratio (y) = 0.33469 0.18461
# Poissons Ratio (z) = 0.19295 0.18074
#
# Static dielectric constant tensor:
#      x y z
#    x 1.494440 0.000000 0.000000 
#    y 0.000000 1.499060 0.000000 
#    z 0.000000 0.000000 1.538810 
# 
# From -- ./inp_files/5965.got.cif
#   From: 2010.05.17/outbox.cif.g08.bks.cpg/sg38_3_cif.got.tgz:5965.got - 2010.06.03 18:07:57.
