data_PCOD9355355
_publ_section_title
;
Structure prediction by ZEFSAII (Michael W. Deem and Ramdas Pophale) SiO2 
 PCOD9355355
Probable space group: C C C 2
;
_chemical_formula_sum "Si O2"
_cell_formula_units_Z 32
_cell_length_a 17.210285
_cell_length_b 7.953736
_cell_length_c 10.769228
_cell_angle_alpha 90.000000
_cell_angle_beta 90.000000
_cell_angle_gamma 90.000000
_cell_volume 1474.157227
_symmetry_space_group_name_H-M "C C C 2"
_symmetry_group_IT_number 37
_symmetry_cell_setting 'orthorhombic'
loop_
_space_group_symop_operation_xyz
x,y,z
-x,-y,z
-x,y,1/2+z
x,-y,1/2+z
1/2+x,1/2+y,z
1/2-x,1/2-y,z
1/2-x,1/2+y,1/2+z
1/2+x,1/2-y,1/2+z
loop_
_atom_site_type_symbol
_atom_site_label
_atom_site_fract_x
_atom_site_fract_y
_atom_site_fract_z
Si Si1 0.839505 0.561924 0.068270
Si Si2 0.067818 0.250000 0.486229
Si Si3 0.451172 0.750000 0.717171
Si Si4 0.160495 0.938076 0.568270
O O1 0.893866 0.592439 0.188953
O O2 0.841659 0.750000 0.009268
O O3 0.750000 0.975012 0.098045
O O4 0.878445 0.414406 0.991809
O O5 0.013711 0.250001 0.607512
O O6 0.878446 0.914407 0.491809
O O7 0.021213 0.250001 0.357447
O O8 0.393866 0.592440 0.688953
#
# Coordination Sequence:
#
# PCOD9355355 Si02
#       4
#     8   8   8   8
#     4   9  22  43  65  99 134 168 220 278 333 396
#     4  12  23  45  69  97 137 182 215 276 338 388
#     4  10  25  43  65  99 139 170 229 272 322 408
#     4   9  22  43  65  99 134 168 220 278 333 396
#
# _framework density 21.707318999999998
#
# number of rings (size 3 to 8) (size 9 to 14) (size 15 to 20)
#    1.500    0.500    0.000    2.250    0.000   12.000 
#    4.500    0.000    0.000    0.000    0.000    0.000 
#    0.000    0.000    0.000    0.000    0.000    0.000 
#
# Total GULP energy -89124.018308 kJ/mol
# GULP energy per Si atom -5570.251144 kJ/mol
# Density = 2.165791 g / cm^3
# Si number density = 21.707319 Si / 1000 Ang^3
#
#
#
# Elastic Constant Matrix: (Units=GPa)
#
#
# Indices 1 2 3 4 5 6 
#
# 1 127.3423 45.3563 48.5439 0.0000 0.0000 0.0000
# 2 45.3563 91.6196 62.0041 0.0000 0.0000 0.0000
# 3 48.5439 62.0041 125.2330 0.0000 0.0000 0.0000
# 4 0.0000 0.0000 0.0000 11.8576 0.0000 0.0000
# 5 0.0000 0.0000 0.0000 0.0000 18.3468 0.0000
# 6 0.0000 0.0000 0.0000 0.0000 0.0000 21.1097
#
#
#
# Elastic Compliance Matrix: (Units=1/GPa)
#
#
# Indices 1 2 3 4 5 6 
#
# 1 0.009895 -0.003463 -0.002121 0.000000 0.000000 0.000000
# 2 -0.003463 0.017627 -0.007385 0.000000 0.000000 0.000000
# 3 -0.002121 -0.007385 0.012464 0.000000 0.000000 0.000000
# 4 0.000000 0.000000 0.000000 0.084334 0.000000 0.000000
# 5 0.000000 0.000000 0.000000 0.000000 0.054505 0.000000
# 6 0.000000 0.000000 0.000000 0.000000 0.000000 0.047372
#
#
# Mechanical properties :
#
#
# Convention : Reuss Voigt Hill
#
# Bulk Modulus (GPa) = 71.18685 72.88928 72.03806
# Shear Modulus (GPa) = 19.46915 22.81552 21.14233
#
# Velocity S-wave (km/s) = 2.99807 3.24551 3.12424
# Velocity P-wave (km/s) = 6.69699 6.90620 6.80240
#
# Compressibility (1/GPa) = 0.01404754
#
# Stress axis : x y z
#
# Youngs Moduli (GPa) = 101.06291 56.73173 80.23412
#
# Poissons Ratio (x) = 0.19647 0.17017
# Poissons Ratio (y) = 0.34999 0.59251
# Poissons Ratio (z) = 0.21434 0.41895
#
# Static dielectric constant tensor:
#      x y z
#    x 1.811580 0.000000 0.000000 
#    y 0.000000 1.821860 0.000000 
#    z 0.000000 0.000000 1.785910 
# 
# From -- ./inp_files/8115.got.cif
#   From: 2010.05.17/outbox.cif.g08.bks.cpg/sg37_5_cif.got.tgz:8115.got - 2010.06.03 17:53:42.
