data_PCOD9355479
_publ_section_title
;
Structure prediction by ZEFSAII (Michael W. Deem and Ramdas Pophale) SiO2 
 PCOD9355479
Probable space group: C C C 2
;
_chemical_formula_sum "Si O2"
_cell_formula_units_Z 64
_cell_length_a 14.756032
_cell_length_b 19.245655
_cell_length_c 11.827860
_cell_angle_alpha 90.000000
_cell_angle_beta 90.000000
_cell_angle_gamma 90.000000
_cell_volume 3358.988060
_symmetry_space_group_name_H-M "C C C 2"
_symmetry_group_IT_number 37
_symmetry_cell_setting 'orthorhombic'
loop_
_space_group_symop_operation_xyz
x,y,z
-x,-y,z
-x,y,1/2+z
x,-y,1/2+z
1/2+x,1/2+y,z
1/2-x,1/2-y,z
1/2-x,1/2+y,1/2+z
1/2+x,1/2-y,1/2+z
loop_
_atom_site_type_symbol
_atom_site_label
_atom_site_fract_x
_atom_site_fract_y
_atom_site_fract_z
Si Si1 0.106789 0.360126 0.330800
Si Si2 0.703093 0.921740 0.910955
Si Si3 0.830554 0.305599 0.600984
Si Si4 0.825639 0.807713 0.810744
Si Si5 0.281546 0.067361 0.517550
Si Si6 0.014437 0.254511 0.945451
Si Si7 0.098089 0.511869 0.221421
Si Si8 0.667435 0.302662 0.047740
O O1 0.161484 0.317490 0.235487
O O2 0.151181 0.381244 0.449855
O O3 0.105851 0.434785 0.270748
O O4 0.016948 0.317369 0.363359
O O5 0.776456 0.880070 0.837049
O O6 0.615649 0.938530 0.831078
O O7 0.686962 0.874023 0.022270
O O8 0.737501 0.997539 0.947695
O O9 0.750000 0.250000 0.582787
O O10 0.927912 0.280297 0.553491
O O11 0.750000 0.750000 0.840627
O O12 0.915279 0.795260 0.882252
O O13 0.848494 0.794679 0.680955
O O14 0.331236 0.040034 0.630097
O O15 0.196403 0.117305 0.533774
O O16 0.921738 0.217720 0.980352
O O17 0.000000 0.500000 0.164482
O O18 0.750000 0.250000 0.017930
#
# Coordination Sequence:
#
# PCOD9355479 Si02
#       8
#     8   8   8   8   8   8   8   8
#     4  11  26  39  64  97 132 171 217 284 325 404
#     4  11  21  44  65  93 134 172 225 263 347 398
#     4  12  24  42  67  97 132 173 221 285 337 397
#     4  11  22  42  71  96 132 183 222 282 336 413
#     4  11  24  43  63  92 135 181 210 278 339 399
#     4  12  23  41  68 102 130 172 228 280 342 396
#     4  11  24  38  67  95 135 175 216 267 338 419
#     4  11  24  43  66  95 136 181 222 278 340 412
#
# _framework density 19.053356999999998
#
# number of rings (size 3 to 8) (size 9 to 14) (size 15 to 20)
#    0.000    0.750    6.250    1.500    3.500    2.000 
#    0.000    0.625    0.000    1.500    0.000    0.000 
#    0.000    0.000    0.000    0.000    0.000    0.000 
#
# Total GULP energy -178323.196788 kJ/mol
# GULP energy per Si atom -5572.599900 kJ/mol
# Density = 1.900999 g / cm^3
# Si number density = 19.053357 Si / 1000 Ang^3
#
#
#
# Elastic Constant Matrix: (Units=GPa)
#
#
# Indices 1 2 3 4 5 6 
#
# 1 115.2321 61.7612 34.1207 0.0000 0.0000 0.0000
# 2 61.7612 119.5336 29.2851 0.0000 0.0000 0.0000
# 3 34.1207 29.2851 37.0422 0.0000 0.0000 0.0000
# 4 0.0000 0.0000 0.0000 34.6756 0.0000 0.0000
# 5 0.0000 0.0000 0.0000 0.0000 60.8765 0.0000
# 6 0.0000 0.0000 0.0000 0.0000 0.0000 35.1680
#
#
#
# Elastic Compliance Matrix: (Units=1/GPa)
#
#
# Indices 1 2 3 4 5 6 
#
# 1 0.014036 -0.005066 -0.008924 0.000000 0.000000 0.000000
# 2 -0.005066 0.012204 -0.004982 0.000000 0.000000 0.000000
# 3 -0.008924 -0.004982 0.039155 0.000000 0.000000 0.000000
# 4 0.000000 0.000000 0.000000 0.028839 0.000000 0.000000
# 5 0.000000 0.000000 0.000000 0.000000 0.016427 0.000000
# 6 0.000000 0.000000 0.000000 0.000000 0.000000 0.028435
#
#
# Mechanical properties :
#
#
# Convention : Reuss Voigt Hill
#
# Bulk Modulus (GPa) = 36.42806 58.01578 47.22192
# Shear Modulus (GPa) = 26.85462 35.92009 31.38735
#
# Velocity S-wave (km/s) = 3.75833 4.34664 4.06315
# Velocity P-wave (km/s) = 6.16391 7.46366 6.84471
#
# Compressibility (1/GPa) = 0.02745137
#
# Stress axis : x y z
#
# Youngs Moduli (GPa) = 71.24759 81.94183 25.53966
#
# Poissons Ratio (x) = 0.41509 0.22791
# Poissons Ratio (y) = 0.36092 0.12724
# Poissons Ratio (z) = 0.63579 0.40823
#
# Static dielectric constant tensor:
#      x y z
#    x 1.680700 0.000000 0.000000 
#    y 0.000000 1.686610 0.000000 
#    z 0.000000 0.000000 1.711960 
# 
# From -- ./inp_files/7976.got.cif
#   From: 2010.05.17/outbox.cif.g08.bks.cpg/sg37_4_cif.got.tgz:7976.got - 2010.06.03 17:53:42.
