data_PCOD9355286
_publ_section_title
;
Structure prediction by ZEFSAII (Michael W. Deem and Ramdas Pophale) SiO2 
 PCOD9355286
Probable space group: C C C 2
;
_chemical_formula_sum "Si O2"
_cell_formula_units_Z 56
_cell_length_a 15.659003
_cell_length_b 14.488572
_cell_length_c 10.017745
_cell_angle_alpha 90.000000
_cell_angle_beta 90.000000
_cell_angle_gamma 90.000000
_cell_volume 2272.791849
_symmetry_space_group_name_H-M "C C C 2"
_symmetry_group_IT_number 37
_symmetry_cell_setting 'orthorhombic'
loop_
_space_group_symop_operation_xyz
x,y,z
-x,-y,z
-x,y,1/2+z
x,-y,1/2+z
1/2+x,1/2+y,z
1/2-x,1/2-y,z
1/2-x,1/2+y,1/2+z
1/2+x,1/2-y,1/2+z
loop_
_atom_site_type_symbol
_atom_site_label
_atom_site_fract_x
_atom_site_fract_y
_atom_site_fract_z
Si Si1 0.326143 0.188051 0.558640
Si Si2 0.425536 0.432802 0.858967
Si Si3 0.812444 0.574551 0.314769
Si Si4 0.061949 0.572301 0.259425
Si Si5 0.341567 0.544404 0.636448
Si Si6 0.153134 0.747559 0.631517
Si Si7 0.000069 0.261124 0.928725
O O1 0.250000 0.250000 0.614417
O O2 0.281208 0.119103 0.452421
O O3 0.375570 0.128531 0.666106
O O4 0.404670 0.244297 0.488659
O O5 0.500000 0.500000 0.907482
O O6 0.397933 0.468991 0.713626
O O7 0.464500 0.330519 0.856270
O O8 0.354215 0.445599 0.976674
O O9 0.881250 0.496468 0.348912
O O10 0.749669 0.530206 0.205495
O O11 0.841346 0.667080 0.238194
O O12 0.009508 0.647633 0.340548
O O13 0.000000 0.500000 0.184584
O O14 0.362977 0.649214 0.685538
O O15 0.250000 0.750000 0.569093
O O16 0.072810 0.725789 0.540617
#
# Coordination Sequence:
#
# PCOD9355286 Si02
#       7
#     8   8   8   8   8   8   8
#     4  12  29  49  78 110 160 208 267 323 400 478
#     4  11  26  44  73 106 148 199 255 324 400 475
#     4  11  25  44  78 104 149 200 254 310 401 476
#     4  12  28  47  77 116 152 204 263 335 402 476
#     4  10  24  45  71 108 148 196 257 321 390 480
#     4   9  21  45  76 108 149 207 254 318 404 488
#     4  11  27  48  75 108 160 200 260 328 401 474
#
# _framework density 24.639299999999999
#
# number of rings (size 3 to 8) (size 9 to 14) (size 15 to 20)
#    0.000    1.143    1.429    2.571   10.000    6.286 
#    0.000    0.000    0.000    0.000    0.000    0.000 
#    0.000    0.000    0.000    0.000    0.000    0.000 
#
# Total GULP energy -156461.436324 kJ/mol
# GULP energy per Si atom -5587.908440 kJ/mol
# Density = 2.458322 g / cm^3
# Si number density = 24.639300 Si / 1000 Ang^3
#
#
#
# Elastic Constant Matrix: (Units=GPa)
#
#
# Indices 1 2 3 4 5 6 
#
# 1 105.4602 29.3373 24.8083 0.0000 0.0000 0.0000
# 2 29.3373 144.9323 21.8717 0.0000 0.0000 0.0000
# 3 24.8083 21.8717 48.6415 0.0000 0.0000 0.0000
# 4 0.0000 0.0000 0.0000 25.2594 0.0000 0.0000
# 5 0.0000 0.0000 0.0000 0.0000 16.3833 0.0000
# 6 0.0000 0.0000 0.0000 0.0000 0.0000 55.5686
#
#
#
# Elastic Compliance Matrix: (Units=1/GPa)
#
#
# Indices 1 2 3 4 5 6 
#
# 1 0.011067 -0.001489 -0.004975 0.000000 0.000000 0.000000
# 2 -0.001489 0.007603 -0.002659 0.000000 0.000000 0.000000
# 3 -0.004975 -0.002659 0.024291 0.000000 0.000000 0.000000
# 4 0.000000 0.000000 0.000000 0.039589 0.000000 0.000000
# 5 0.000000 0.000000 0.000000 0.000000 0.061038 0.000000
# 6 0.000000 0.000000 0.000000 0.000000 0.000000 0.017996
#
#
# Mechanical properties :
#
#
# Convention : Reuss Voigt Hill
#
# Bulk Modulus (GPa) = 40.46147 50.11872 45.29009
# Shear Modulus (GPa) = 26.58622 34.31006 30.44814
#
# Velocity S-wave (km/s) = 3.28840 3.73566 3.51914
# Velocity P-wave (km/s) = 5.55655 6.24436 5.91047
#
# Compressibility (1/GPa) = 0.02471487
#
# Stress axis : x y z
#
# Youngs Moduli (GPa) = 90.36025 131.53554 41.16701
#
# Poissons Ratio (x) = 0.19591 0.20479
# Poissons Ratio (y) = 0.13459 0.10946
# Poissons Ratio (z) = 0.44951 0.34973
#
# Static dielectric constant tensor:
#      x y z
#    x 2.068840 0.000000 0.000000 
#    y 0.000000 1.928340 0.000000 
#    z 0.000000 0.000000 1.957350 
# 
# From -- ./inp_files/7832.got.cif
#   From: 2010.05.17/outbox.cif.g08.bks.cpg/sg37_4_cif.got.tgz:7832.got - 2010.06.03 17:53:42.
