data_PCOD9355487
_publ_section_title
;
Structure prediction by ZEFSAII (Michael W. Deem and Ramdas Pophale) SiO2 
 PCOD9355487
Probable space group: C C C 2
;
_chemical_formula_sum "Si O2"
_cell_formula_units_Z 36
_cell_length_a 12.123636
_cell_length_b 15.632818
_cell_length_c 8.725005
_cell_angle_alpha 90.000000
_cell_angle_beta 90.000000
_cell_angle_gamma 90.000000
_cell_volume 1653.620490
_symmetry_space_group_name_H-M "C C C 2"
_symmetry_group_IT_number 37
_symmetry_cell_setting 'orthorhombic'
loop_
_space_group_symop_operation_xyz
x,y,z
-x,-y,z
-x,y,1/2+z
x,-y,1/2+z
1/2+x,1/2+y,z
1/2-x,1/2-y,z
1/2-x,1/2+y,1/2+z
1/2+x,1/2-y,1/2+z
loop_
_atom_site_type_symbol
_atom_site_label
_atom_site_fract_x
_atom_site_fract_y
_atom_site_fract_z
Si Si1 0.391712 0.834161 0.770600
Si Si2 0.784859 0.888188 0.725987
Si Si3 0.091955 0.268122 0.600862
Si Si4 0.000000 0.500000 0.927236
Si Si5 0.232594 0.439357 0.063193
O O1 0.467677 0.791063 0.642678
O O2 0.280131 0.866495 0.691789
O O3 0.453657 0.919999 0.831743
O O4 0.383514 0.776325 0.921135
O O5 0.877347 0.823218 0.669298
O O6 0.671337 0.838201 0.682841
O O7 0.787256 0.976996 0.635096
O O8 0.785658 0.906786 0.906489
O O9 0.893339 0.532557 0.019834
#
# Coordination Sequence:
#
# PCOD9355487 Si02
#       5
#     8   8   8   4   8
#     4  12  20  36  63  90 123 162 201 248 310 369
#     4  11  22  37  57  92 126 155 202 262 307 360
#     4  11  22  37  57  92 126 155 202 262 307 360
#     4  12  18  28  62  96 114 156 202 240 286 388
#     4  12  20  36  63  90 123 162 201 248 310 369
#
# _framework density 21.770413999999999
#
# number of rings (size 3 to 8) (size 9 to 14) (size 15 to 20)
#    0.000    0.444    8.889    0.667    0.000    0.000 
#    0.000   15.556    0.000    4.000    0.000    0.000 
#    0.000    0.000    0.000    0.000    0.000    0.000 
#
# Total GULP energy -100724.917404 kJ/mol
# GULP energy per Si atom -5595.828745 kJ/mol
# Density = 2.172086 g / cm^3
# Si number density = 21.770414 Si / 1000 Ang^3
#
#
#
# Elastic Constant Matrix: (Units=GPa)
#
#
# Indices 1 2 3 4 5 6 
#
# 1 14.8220 30.8604 6.7932 0.0000 0.0000 0.0000
# 2 30.8604 115.7401 81.1659 0.0000 0.0000 0.0000
# 3 6.7932 81.1659 159.8713 0.0000 0.0000 0.0000
# 4 0.0000 0.0000 0.0000 -12.7239 0.0000 0.0000
# 5 0.0000 0.0000 0.0000 0.0000 11.0741 0.0000
# 6 0.0000 0.0000 0.0000 0.0000 0.0000 34.3145
#
#
#
# Elastic Compliance Matrix: (Units=1/GPa)
#
#
# Indices 1 2 3 4 5 6 
#
# 1 0.224622 -0.082611 0.032397 0.000000 0.000000 0.000000
# 2 -0.082611 0.043800 -0.018727 0.000000 0.000000 0.000000
# 3 0.032397 -0.018727 0.014386 0.000000 0.000000 0.000000
# 4 0.000000 0.000000 0.000000 -0.078592 0.000000 0.000000
# 5 0.000000 0.000000 0.000000 0.000000 0.090300 0.000000
# 6 0.000000 0.000000 0.000000 0.000000 0.000000 0.029142
#
#
# Mechanical properties :
#
#
# Convention : Reuss Voigt Hill
#
# Bulk Modulus (GPa) = 6.90010 58.67469 32.78740
# Shear Modulus (GPa) = 9.80683 17.97388 13.89035
#
# Velocity S-wave (km/s) = 2.12472 2.87646 2.52868
# Velocity P-wave (km/s) = 3.03243 6.16783 4.85992
#
# Compressibility (1/GPa) = 0.14492535
#
# Stress axis : x y z
#
# Youngs Moduli (GPa) = 4.45192 22.83117 69.51261
#
# Poissons Ratio (x) = 1.88612 -2.25199
# Poissons Ratio (y) = 0.36778 1.30174
# Poissons Ratio (z) = -0.14423 0.42755
#
# Static dielectric constant tensor:
#      x y z
#    x 1.791560 0.000000 0.000000 
#    y 0.000000 1.814700 0.000000 
#    z 0.000000 0.000000 1.817550 
# 
# From -- ./inp_files/3280.got.cif
#   From: 2010.05.17/outbox.cif.g08.bks.cpg/sg37_2_cif.got.tgz:3280.got - 2010.06.03 17:53:42.
