data_PCOD9355974
_publ_section_title
;
Structure prediction by ZEFSAII (Michael W. Deem and Ramdas Pophale) SiO2 
 PCOD9355974
Probable space group: A M M 2
;
_chemical_formula_sum "Si O2"
_cell_formula_units_Z 64
_cell_length_a 8.804191
_cell_length_b 35.761190
_cell_length_c 14.086426
_cell_angle_alpha 90.000000
_cell_angle_beta 90.000000
_cell_angle_gamma 90.000000
_cell_volume 4435.087943
_symmetry_space_group_name_H-M "A M M 2"
_symmetry_group_IT_number 38
_symmetry_cell_setting 'orthorhombic'
loop_
_space_group_symop_operation_xyz
x,y,z
-x,-y,z
-x,y,z
x,-y,z
x,1/2+y,1/2+z
-x,1/2-y,1/2+z
-x,1/2+y,1/2+z
x,1/2-y,1/2+z
loop_
_atom_site_type_symbol
_atom_site_label
_atom_site_fract_x
_atom_site_fract_y
_atom_site_fract_z
Si Si1 0.816071 0.235463 0.385280
Si Si2 0.817214 0.618336 0.172045
Si Si3 0.183953 0.192537 0.569506
Si Si4 0.678987 0.540680 0.167431
Si Si5 0.816782 0.269833 0.668709
Si Si6 0.318957 0.192548 0.987566
Si Si7 0.818463 0.619435 0.394528
Si Si8 0.320675 0.458766 0.397014
O O1 0.769658 0.204751 0.463730
O O2 0.773692 0.225136 0.278203
O O3 0.747409 0.274846 0.419360
O O4 0.000000 0.239193 0.388597
O O5 0.759840 0.653437 0.111013
O O6 0.759859 0.578362 0.135206
O O7 0.772875 0.622970 0.282958
O O8 0.000000 0.618122 0.170302
O O9 0.223654 0.227530 0.636839
O O10 0.000000 0.190448 0.569256
O O11 0.500000 0.542879 0.146310
O O12 0.736412 0.500000 0.133635
O O13 0.693798 0.540446 0.282220
O O14 0.740235 0.297074 0.592739
O O15 0.000000 0.273431 0.660121
O O16 0.500000 0.193418 0.984911
O O17 0.257724 0.152755 0.952527
O O18 0.767103 0.578243 0.428507
O O19 0.000000 0.622716 0.399736
O O20 0.500000 0.455037 0.418134
O O21 0.269318 0.500000 0.431110
#
# Coordination Sequence:
#
# PCOD9355974 Si02
#       8
#     8   8   8   8   8   8   8   8
#     4   9  17  31  49  63  79 108 142 174 210 251
#     4   9  16  25  39  59  82 107 136 170 202 236
#     4   8  14  25  41  61  81 101 130 167 204 241
#     4   8  14  24  36  51  75 107 138 165 196 236
#     4   9  17  31  48  61  78 107 141 173 206 246
#     4  11  21  30  42  62  87 111 138 173 211 250
#     4  10  18  27  40  58  82 113 147 176 202 238
#     4   8  14  25  39  55  78 107 136 168 209 250
#
# _framework density 14.430379
#
# number of rings (size 3 to 8) (size 9 to 14) (size 15 to 20)
#    0.000    3.000    0.000    3.750    0.000    3.500 
#    0.000    5.000    0.000    0.000    0.000    0.000 
#    0.000    1.000    0.000    9.250    0.000    3.625 
#
# Total GULP energy -178140.903827 kJ/mol
# GULP energy per Si atom -5566.903245 kJ/mol
# Density = 1.439754 g / cm^3
# Si number density = 14.430379 Si / 1000 Ang^3
#
#
#
# Elastic Constant Matrix: (Units=GPa)
#
#
# Indices 1 2 3 4 5 6 
#
# 1 27.4490 37.0371 25.6417 0.0000 0.0000 0.0000
# 2 37.0371 145.8501 58.3755 0.0000 0.0000 0.0000
# 3 25.6417 58.3755 79.2910 0.0000 0.0000 0.0000
# 4 0.0000 0.0000 0.0000 19.2039 0.0000 0.0000
# 5 0.0000 0.0000 0.0000 0.0000 9.3941 0.0000
# 6 0.0000 0.0000 0.0000 0.0000 0.0000 18.8785
#
#
#
# Elastic Compliance Matrix: (Units=1/GPa)
#
#
# Indices 1 2 3 4 5 6 
#
# 1 0.062691 -0.011066 -0.012126 0.000000 0.000000 0.000000
# 2 -0.011066 0.011674 -0.005016 0.000000 0.000000 0.000000
# 3 -0.012126 -0.005016 0.020226 0.000000 0.000000 0.000000
# 4 0.000000 0.000000 0.000000 0.052073 0.000000 0.000000
# 5 0.000000 0.000000 0.000000 0.000000 0.106450 0.000000
# 6 0.000000 0.000000 0.000000 0.000000 0.000000 0.052970
#
#
# Mechanical properties :
#
#
# Convention : Reuss Voigt Hill
#
# Bulk Modulus (GPa) = 26.19578 54.96653 40.58115
# Shear Modulus (GPa) = 13.32531 18.26436 15.79484
#
# Velocity S-wave (km/s) = 3.04208 3.56151 3.31199
# Velocity P-wave (km/s) = 5.52554 7.42200 6.54285
#
# Compressibility (1/GPa) = 0.03817409
#
# Stress axis : x y z
#
# Youngs Moduli (GPa) = 15.95129 85.65935 49.44100
#
# Poissons Ratio (x) = 0.94793 0.59953
# Poissons Ratio (y) = 0.17652 0.24800
# Poissons Ratio (z) = 0.19343 0.42967
#
# Static dielectric constant tensor:
#      x y z
#    x 1.483600 0.000000 0.000000 
#    y 0.000000 1.489680 0.000000 
#    z 0.000000 0.000000 1.462890 
# 
# From -- ./inp_files/13132.got.cif
#   From: 2010.05.17/outbox.cif.g08.bks.cpg/sg38_7_cif.got.tgz:13132.got - 2010.06.03 18:07:57.
