data_PCOD9355069
_publ_section_title
;
Structure prediction by ZEFSAII (Michael W. Deem and Ramdas Pophale) SiO2 
 PCOD9355069
Probable space group: C C C 2
;
_chemical_formula_sum "Si O2"
_cell_formula_units_Z 60
_cell_length_a 17.791732
_cell_length_b 5.830773
_cell_length_c 26.553022
_cell_angle_alpha 90.000000
_cell_angle_beta 90.000000
_cell_angle_gamma 90.000000
_cell_volume 2754.598569
_symmetry_space_group_name_H-M "C C C 2"
_symmetry_group_IT_number 37
_symmetry_cell_setting 'orthorhombic'
loop_
_space_group_symop_operation_xyz
x,y,z
-x,-y,z
-x,y,1/2+z
x,-y,1/2+z
1/2+x,1/2+y,z
1/2-x,1/2-y,z
1/2-x,1/2+y,1/2+z
1/2+x,1/2-y,1/2+z
loop_
_atom_site_type_symbol
_atom_site_label
_atom_site_fract_x
_atom_site_fract_y
_atom_site_fract_z
Si Si1 0.421648 0.481537 0.911750
Si Si2 0.705722 0.998973 0.148313
Si Si3 0.000000 0.000000 0.623711
Si Si4 0.827097 0.705544 0.474004
Si Si5 0.929495 0.323843 0.817161
Si Si6 0.678071 0.095332 0.375165
Si Si7 0.929945 0.673658 0.206295
Si Si8 0.080729 0.381152 0.567348
O O1 0.500000 0.500000 0.940022
O O2 0.358547 0.563378 0.949881
O O3 0.432645 0.650842 0.864117
O O4 0.394523 0.244402 0.889907
O O5 0.750000 0.750000 0.144736
O O6 0.647150 0.960578 0.194521
O O7 0.750000 0.250000 0.151836
O O8 0.648129 0.021097 0.101290
O O9 0.940146 0.869098 0.588721
O O10 0.049653 0.845743 0.661505
O O11 0.750000 0.750000 0.503167
O O12 0.808437 0.552934 0.425244
O O13 0.890061 0.608417 0.510488
O O14 0.850325 0.450345 0.827979
O O15 0.927458 0.215149 0.761772
O O16 0.000000 0.500000 0.818308
O O17 0.750000 0.250000 0.364533
O O18 0.000000 0.500000 0.206578
O O19 0.000000 0.500000 0.572750
#
# Coordination Sequence:
#
# PCOD9355069 Si02
#       8
#     8   8   4   8   8   8   8   8
#     4  11  23  42  66  97 133 182 226 283 347 426
#     4  12  26  49  74 107 151 190 242 315 381 450
#     4  12  22  46  74  94 146 188 254 312 372 436
#     4  11  26  44  65 102 136 181 236 285 367 439
#     4  10  23  40  68 104 133 176 244 285 352 438
#     4  11  23  44  68  94 144 182 220 297 360 434
#     4  11  24  45  72 102 138 193 243 304 370 446
#     4  12  27  46  72 104 135 192 246 305 367 443
#
# _framework density 21.781759000000001
#
# number of rings (size 3 to 8) (size 9 to 14) (size 15 to 20)
#    0.000    0.800    5.333    1.200    3.733    1.067 
#    2.400    0.000    0.000    0.000    0.000    0.000 
#    0.000    0.000    0.000    0.000    0.000    0.000 
#
# Total GULP energy -167344.857265 kJ/mol
# GULP energy per Si atom -5578.161909 kJ/mol
# Density = 2.173218 g / cm^3
# Si number density = 21.781759 Si / 1000 Ang^3
#
#
#
# Elastic Constant Matrix: (Units=GPa)
#
#
# Indices 1 2 3 4 5 6 
#
# 1 138.6845 40.4823 26.7983 0.0000 0.0000 0.0000
# 2 40.4823 63.0823 2.0255 0.0000 0.0000 0.0000
# 3 26.7983 2.0255 69.8863 0.0000 0.0000 0.0000
# 4 0.0000 0.0000 0.0000 9.7972 0.0000 0.0000
# 5 0.0000 0.0000 0.0000 0.0000 57.4648 0.0000
# 6 0.0000 0.0000 0.0000 0.0000 0.0000 49.7493
#
#
#
# Elastic Compliance Matrix: (Units=1/GPa)
#
#
# Indices 1 2 3 4 5 6 
#
# 1 0.009672 -0.006093 -0.003532 0.000000 0.000000 0.000000
# 2 -0.006093 0.019706 0.001765 0.000000 0.000000 0.000000
# 3 -0.003532 0.001765 0.015612 0.000000 0.000000 0.000000
# 4 0.000000 0.000000 0.000000 0.102069 0.000000 0.000000
# 5 0.000000 0.000000 0.000000 0.000000 0.017402 0.000000
# 6 0.000000 0.000000 0.000000 0.000000 0.000000 0.020101
#
#
# Mechanical properties :
#
#
# Convention : Reuss Voigt Hill
#
# Bulk Modulus (GPa) = 34.16485 45.58501 39.87493
# Shear Modulus (GPa) = 23.80512 36.89206 30.34859
#
# Velocity S-wave (km/s) = 3.30948 4.11994 3.73675
# Velocity P-wave (km/s) = 5.50660 6.60344 6.07980
#
# Compressibility (1/GPa) = 0.02926985
#
# Stress axis : x y z
#
# Youngs Moduli (GPa) = 103.39356 50.74608 64.05252
#
# Poissons Ratio (x) = 0.30921 0.22624
# Poissons Ratio (y) = 0.63001 -0.11308
# Poissons Ratio (z) = 0.36520 -0.08959
#
# Static dielectric constant tensor:
#      x y z
#    x 1.795090 0.000000 0.000000 
#    y 0.000000 1.842680 0.000000 
#    z 0.000000 0.000000 1.782820 
# 
# From -- ./inp_files/19502.got.cif
#   From: 2010.05.17/outbox.cif.g08.bks.cpg/sg37_10_cif.got.tgz:19502.got - 2010.06.03 17:53:42.
