data_PCOD9355341
_publ_section_title
;
Structure prediction by ZEFSAII (Michael W. Deem and Ramdas Pophale) SiO2 
 PCOD9355341
Probable space group: C C C 2
;
_chemical_formula_sum "Si O2"
_cell_formula_units_Z 52
_cell_length_a 5.416273
_cell_length_b 19.413390
_cell_length_c 21.545908
_cell_angle_alpha 90.000000
_cell_angle_beta 90.000000
_cell_angle_gamma 90.000000
_cell_volume 2265.513877
_symmetry_space_group_name_H-M "C C C 2"
_symmetry_group_IT_number 37
_symmetry_cell_setting 'orthorhombic'
loop_
_space_group_symop_operation_xyz
x,y,z
-x,-y,z
-x,y,1/2+z
x,-y,1/2+z
1/2+x,1/2+y,z
1/2-x,1/2-y,z
1/2-x,1/2+y,1/2+z
1/2+x,1/2-y,1/2+z
loop_
_atom_site_type_symbol
_atom_site_label
_atom_site_fract_x
_atom_site_fract_y
_atom_site_fract_z
Si Si1 0.025447 0.577759 0.415360
Si Si2 0.720677 0.325896 0.994909
Si Si3 0.742784 0.109486 0.789392
Si Si4 0.106775 0.120074 0.621217
Si Si5 0.000000 0.000000 0.201825
Si Si6 0.907193 0.819369 0.870801
Si Si7 0.398465 0.178107 0.175661
O O1 0.954812 0.632914 0.468237
O O2 0.847729 0.582606 0.355458
O O3 0.000000 0.500000 0.438552
O O4 0.271691 0.608396 0.385483
O O5 0.750000 0.250000 0.023273
O O6 0.567142 0.310200 0.932808
O O7 0.604019 0.374772 0.046904
O O8 0.553291 0.148589 0.744756
O O9 0.941817 0.167042 0.808531
O O10 0.846574 0.047942 0.748363
O O11 0.337601 0.169217 0.641864
O O12 0.824965 0.135600 0.642619
O O13 0.159933 0.048236 0.656111
O O14 0.750000 0.750000 0.864629
O O15 0.250000 0.250000 0.178874
#
# Coordination Sequence:
#
# PCOD9355341 Si02
#       7
#     8   8   8   8   4   8   8
#     4  11  25  42  70 102 141 186 236 295 380 439
#     4  11  24  46  70 105 142 188 244 312 365 448
#     4  10  25  39  69  97 144 181 242 300 372 442
#     4  11  27  45  75 100 146 193 252 301 375 442
#     4  10  24  50  66 108 140 206 242 314 378 462
#     4  11  24  42  73 107 144 192 242 305 383 451
#     4  11  25  43  68 107 137 190 247 303 367 441
#
# _framework density 22.952850000000002
#
# number of rings (size 3 to 8) (size 9 to 14) (size 15 to 20)
#    0.000    1.231    1.538    2.308   10.769    5.538 
#    2.769    0.000    0.000    0.000    0.000    0.000 
#    0.000    0.000    0.000    0.000    0.000    0.000 
#
# Total GULP energy -144988.312578 kJ/mol
# GULP energy per Si atom -5576.473561 kJ/mol
# Density = 2.290061 g / cm^3
# Si number density = 22.952850 Si / 1000 Ang^3
#
#
#
# Elastic Constant Matrix: (Units=GPa)
#
#
# Indices 1 2 3 4 5 6 
#
# 1 59.7370 24.3409 8.0299 0.0000 0.0000 0.0000
# 2 24.3409 84.7815 38.0769 0.0000 0.0000 0.0000
# 3 8.0299 38.0769 94.6573 0.0000 0.0000 0.0000
# 4 0.0000 0.0000 0.0000 93.4431 0.0000 0.0000
# 5 0.0000 0.0000 0.0000 0.0000 23.5671 0.0000
# 6 0.0000 0.0000 0.0000 0.0000 0.0000 25.2780
#
#
#
# Elastic Compliance Matrix: (Units=1/GPa)
#
#
# Indices 1 2 3 4 5 6 
#
# 1 0.018997 -0.005773 0.000711 0.000000 0.000000 0.000000
# 2 -0.005773 0.016150 -0.006007 0.000000 0.000000 0.000000
# 3 0.000711 -0.006007 0.012920 0.000000 0.000000 0.000000
# 4 0.000000 0.000000 0.000000 0.010702 0.000000 0.000000
# 5 0.000000 0.000000 0.000000 0.000000 0.042432 0.000000
# 6 0.000000 0.000000 0.000000 0.000000 0.000000 0.039560
#
#
# Mechanical properties :
#
#
# Convention : Reuss Voigt Hill
#
# Bulk Modulus (GPa) = 38.56679 42.23013 40.39846
# Shear Modulus (GPa) = 29.14713 39.70617 34.42665
#
# Velocity S-wave (km/s) = 3.56739 4.16372 3.87704
# Velocity P-wave (km/s) = 5.81442 6.44624 6.13846
#
# Compressibility (1/GPa) = 0.02592904
#
# Stress axis : x y z
#
# Youngs Moduli (GPa) = 52.64005 61.91808 77.39652
#
# Poissons Ratio (x) = 0.35747 -0.05502
# Poissons Ratio (y) = 0.30391 0.46491
# Poissons Ratio (z) = -0.03742 0.37194
#
# Static dielectric constant tensor:
#      x y z
#    x 1.897500 0.000000 0.000000 
#    y 0.000000 1.728120 0.000000 
#    z 0.000000 0.000000 1.857320 
# 
# From -- ./inp_files/15837.got.cif
#   From: 2010.05.17/outbox.cif.g08.bks.cpg/sg37_8_cif.got.tgz:15837.got - 2010.06.03 17:53:42.
