data_PCOD9355898
_publ_section_title
;
Structure prediction by ZEFSAII (Michael W. Deem and Ramdas Pophale) SiO2 
 PCOD9355898
Probable space group: A M M 2
;
_chemical_formula_sum "Si O2"
_cell_formula_units_Z 64
_cell_length_a 7.903711
_cell_length_b 31.716496
_cell_length_c 14.872220
_cell_angle_alpha 90.000000
_cell_angle_beta 90.000000
_cell_angle_gamma 90.000000
_cell_volume 3728.138638
_symmetry_space_group_name_H-M "A M M 2"
_symmetry_group_IT_number 38
_symmetry_cell_setting 'orthorhombic'
loop_
_space_group_symop_operation_xyz
x,y,z
-x,-y,z
-x,y,z
x,-y,z
x,1/2+y,1/2+z
-x,1/2-y,1/2+z
-x,1/2+y,1/2+z
x,1/2-y,1/2+z
loop_
_atom_site_type_symbol
_atom_site_label
_atom_site_fract_x
_atom_site_fract_y
_atom_site_fract_z
Si Si1 0.705972 0.368084 0.703330
Si Si2 0.703188 0.227630 0.874808
Si Si3 0.191877 0.132004 0.573831
Si Si4 0.297925 0.673513 0.893307
Si Si5 0.198985 0.286472 0.171197
Si Si6 0.702775 0.798819 0.066510
Si Si7 0.297809 0.452909 0.993775
Si Si8 0.706778 0.452321 0.787488
O O1 0.500000 0.368845 0.696727
O O2 0.747010 0.344537 0.796319
O O3 0.769289 0.338801 0.622573
O O4 0.763867 0.415992 0.719302
O O5 0.500000 0.222266 0.868111
O O6 0.734384 0.276938 0.893030
O O7 0.776196 0.216114 0.778012
O O8 0.767355 0.204388 0.964408
O O9 0.202722 0.151107 0.473718
O O10 0.273335 0.169333 0.633635
O O11 0.260282 0.084818 0.561966
O O12 0.000000 0.127355 0.604828
O O13 0.500000 0.666219 0.906931
O O14 0.268930 0.244730 0.121593
O O15 0.000000 0.286368 0.150059
O O16 0.500000 0.803150 0.060163
O O17 0.500000 0.455247 0.987646
O O18 0.234925 0.500000 0.017672
O O19 0.239475 0.443305 0.890995
O O20 0.500000 0.451456 0.787718
O O21 0.758806 0.500000 0.765419
#
# Coordination Sequence:
#
# PCOD9355898 Si02
#       8
#     8   8   8   8   8   8   8   8
#     4   9  15  25  43  67  92 119 153 191 230 276
#     4  10  20  33  49  67  90 124 165 206 243 279
#     4  11  22  32  44  68  99 131 161 192 237 288
#     4  10  17  28  48  68  91 124 159 198 237 277
#     4  11  23  34  46  67  97 129 161 196 237 292
#     4  10  19  32  50  71  92 120 163 205 242 285
#     4   9  17  30  49  71  93 122 161 199 236 283
#     4   8  13  22  40  67  95 120 147 181 224 276
#
# _framework density 17.166743
#
# number of rings (size 3 to 8) (size 9 to 14) (size 15 to 20)
#    0.000    2.250    3.750    1.500    0.000    2.750 
#    0.000    0.000    0.000    0.000    0.000    0.875 
#    0.000    3.000    0.000    0.000    0.000    0.000 
#
# Total GULP energy -178333.081959 kJ/mol
# GULP energy per Si atom -5572.908811 kJ/mol
# Density = 1.712767 g / cm^3
# Si number density = 17.166743 Si / 1000 Ang^3
#
#
#
# Elastic Constant Matrix: (Units=GPa)
#
#
# Indices 1 2 3 4 5 6 
#
# 1 7.3955 9.5483 -3.8033 0.0000 0.0000 0.0000
# 2 9.5483 93.2316 25.7695 0.0000 0.0000 0.0000
# 3 -3.8033 25.7695 64.7388 0.0000 0.0000 0.0000
# 4 0.0000 0.0000 0.0000 25.7305 0.0000 0.0000
# 5 0.0000 0.0000 0.0000 0.0000 51.2170 0.0000
# 6 0.0000 0.0000 0.0000 0.0000 0.0000 4.0657
#
#
#
# Elastic Compliance Matrix: (Units=1/GPa)
#
#
# Indices 1 2 3 4 5 6 
#
# 1 0.175523 -0.023401 0.019626 0.000000 0.000000 0.000000
# 2 -0.023401 0.015172 -0.007414 0.000000 0.000000 0.000000
# 3 0.019626 -0.007414 0.019551 0.000000 0.000000 0.000000
# 4 0.000000 0.000000 0.000000 0.038864 0.000000 0.000000
# 5 0.000000 0.000000 0.000000 0.000000 0.019525 0.000000
# 6 0.000000 0.000000 0.000000 0.000000 0.000000 0.245957
#
#
# Mechanical properties :
#
#
# Convention : Reuss Voigt Hill
#
# Bulk Modulus (GPa) = 5.32287 25.37721 15.35004
# Shear Modulus (GPa) = 8.33901 25.12607 16.73254
#
# Velocity S-wave (km/s) = 2.20640 3.82992 3.12542
# Velocity P-wave (km/s) = 3.09812 5.86281 4.68886
#
# Compressibility (1/GPa) = 0.18786861
#
# Stress axis : x y z
#
# Youngs Moduli (GPa) = 5.69727 65.91163 51.14863
#
# Poissons Ratio (x) = 1.54239 -1.00387
# Poissons Ratio (y) = 0.13332 0.37921
# Poissons Ratio (z) = -0.11182 0.48867
#
# Static dielectric constant tensor:
#      x y z
#    x 1.627620 0.000000 0.000000 
#    y 0.000000 1.619950 0.000000 
#    z 0.000000 0.000000 1.570800 
# 
# From -- ./inp_files/13063.got.cif
#   From: 2010.05.17/outbox.cif.g08.bks.cpg/sg38_7_cif.got.tgz:13063.got - 2010.06.03 18:07:57.
