data_PCOD9355173
_publ_section_title
;
Structure prediction by ZEFSAII (Michael W. Deem and Ramdas Pophale) SiO2 
 PCOD9355173
Probable space group: C C C 2
;
_chemical_formula_sum "Si O2"
_cell_formula_units_Z 60
_cell_length_a 32.365446
_cell_length_b 8.222102
_cell_length_c 10.493988
_cell_angle_alpha 90.000000
_cell_angle_beta 90.000000
_cell_angle_gamma 90.000000
_cell_volume 2792.576117
_symmetry_space_group_name_H-M "C C C 2"
_symmetry_group_IT_number 37
_symmetry_cell_setting 'orthorhombic'
loop_
_space_group_symop_operation_xyz
x,y,z
-x,-y,z
-x,y,1/2+z
x,-y,1/2+z
1/2+x,1/2+y,z
1/2-x,1/2-y,z
1/2-x,1/2+y,1/2+z
1/2+x,1/2-y,1/2+z
loop_
_atom_site_type_symbol
_atom_site_label
_atom_site_fract_x
_atom_site_fract_y
_atom_site_fract_z
Si Si1 0.845419 0.912412 0.987940
Si Si2 0.640442 0.930647 0.119726
Si Si3 0.225656 0.579677 0.111018
Si Si4 0.427274 0.174308 0.561376
Si Si5 0.392645 0.553994 0.222215
Si Si6 0.072352 0.729771 0.783129
Si Si7 0.242303 0.943165 0.365908
Si Si8 0.500000 0.000000 0.180940
O O1 0.874907 0.930681 0.864596
O O2 0.801785 0.968053 0.930614
O O3 0.844499 0.726999 0.040519
O O4 0.858761 0.016669 0.111689
O O5 0.614623 0.861474 0.240262
O O6 0.677917 0.053920 0.152094
O O7 0.605091 0.027807 0.044469
O O8 0.250000 0.750000 0.100884
O O9 0.250979 0.488387 0.223972
O O10 0.226301 0.512055 0.968773
O O11 0.413194 0.279135 0.681072
O O12 0.426969 0.270865 0.431189
O O13 0.472300 0.111371 0.591598
O O14 0.424469 0.402505 0.211969
O O15 0.033271 0.613249 0.754962
O O16 0.250000 0.750000 0.356337
#
# Coordination Sequence:
#
# PCOD9355173 Si02
#       8
#     8   8   8   8   8   8   8   4
#     4  11  23  45  67  98 140 178 233 283 344 402
#     4  10  25  41  70  96 134 182 229 285 343 414
#     4  11  26  42  63  96 131 178 234 283 340 396
#     4  11  24  42  71  99 133 176 224 275 347 408
#     4  11  24  43  72 103 136 181 228 282 335 416
#     4  10  23  46  68 104 135 178 226 277 348 413
#     4  11  24  42  62  92 134 178 225 284 340 389
#     4  10  24  46  70 102 136 172 222 284 338 422
#
# _framework density 21.485537999999998
#
# number of rings (size 3 to 8) (size 9 to 14) (size 15 to 20)
#    0.000    1.333    2.667    1.200   11.200    1.067 
#    4.800    1.333    0.000    0.000    0.000    0.000 
#    0.000    0.000    0.000    0.000    0.000    0.000 
#
# Total GULP energy -167331.980989 kJ/mol
# GULP energy per Si atom -5577.732700 kJ/mol
# Density = 2.143664 g / cm^3
# Si number density = 21.485538 Si / 1000 Ang^3
#
#
#
# Elastic Constant Matrix: (Units=GPa)
#
#
# Indices 1 2 3 4 5 6 
#
# 1 88.0012 13.2418 1.5433 0.0000 0.0000 0.0000
# 2 13.2418 42.8375 -1.1598 0.0000 0.0000 0.0000
# 3 1.5433 -1.1598 91.9053 0.0000 0.0000 0.0000
# 4 0.0000 0.0000 0.0000 5.8006 0.0000 0.0000
# 5 0.0000 0.0000 0.0000 0.0000 24.2385 0.0000
# 6 0.0000 0.0000 0.0000 0.0000 0.0000 24.9401
#
#
#
# Elastic Compliance Matrix: (Units=1/GPa)
#
#
# Indices 1 2 3 4 5 6 
#
# 1 0.011923 -0.003692 -0.000247 0.000000 0.000000 0.000000
# 2 -0.003692 0.024495 0.000371 0.000000 0.000000 0.000000
# 3 -0.000247 0.000371 0.010890 0.000000 0.000000 0.000000
# 4 0.000000 0.000000 0.000000 0.172397 0.000000 0.000000
# 5 0.000000 0.000000 0.000000 0.000000 0.041257 0.000000
# 6 0.000000 0.000000 0.000000 0.000000 0.000000 0.040096
#
#
# Mechanical properties :
#
#
# Convention : Reuss Voigt Hill
#
# Bulk Modulus (GPa) = 24.89281 27.77718 26.33499
# Shear Modulus (GPa) = 15.54798 24.93709 20.24253
#
# Velocity S-wave (km/s) = 2.69299 3.41052 3.07277
# Velocity P-wave (km/s) = 4.61309 5.33528 4.98728
#
# Compressibility (1/GPa) = 0.04017225
#
# Stress axis : x y z
#
# Youngs Moduli (GPa) = 83.86850 40.82386 91.83084
#
# Poissons Ratio (x) = 0.15074 0.02266
# Poissons Ratio (y) = 0.30968 -0.03408
# Poissons Ratio (z) = 0.02070 -0.01515
#
# Static dielectric constant tensor:
#      x y z
#    x 1.794590 0.000000 0.000000 
#    y 0.000000 1.924970 0.000000 
#    z 0.000000 0.000000 1.788710 
# 
# From -- ./inp_files/9202.got.cif
#   From: 2010.05.17/outbox.cif.g08.bks.cpg/sg37_5_cif.got.tgz:9202.got - 2010.06.03 17:53:42.
