data_PCOD9355178
_publ_section_title
;
Structure prediction by ZEFSAII (Michael W. Deem and Ramdas Pophale) SiO2 
 PCOD9355178
Probable space group: C C C 2
;
_chemical_formula_sum "Si O2"
_cell_formula_units_Z 32
_cell_length_a 10.368189
_cell_length_b 16.891124
_cell_length_c 7.665246
_cell_angle_alpha 90.000000
_cell_angle_beta 90.000000
_cell_angle_gamma 90.000000
_cell_volume 1342.417338
_symmetry_space_group_name_H-M "C C C 2"
_symmetry_group_IT_number 37
_symmetry_cell_setting 'orthorhombic'
loop_
_space_group_symop_operation_xyz
x,y,z
-x,-y,z
-x,y,1/2+z
x,-y,1/2+z
1/2+x,1/2+y,z
1/2-x,1/2-y,z
1/2-x,1/2+y,1/2+z
1/2+x,1/2-y,1/2+z
loop_
_atom_site_type_symbol
_atom_site_label
_atom_site_fract_x
_atom_site_fract_y
_atom_site_fract_z
Si Si1 0.218550 0.838045 0.127700
Si Si2 0.626652 0.948279 0.825843
Si Si3 0.620042 0.558768 0.325843
Si Si4 0.218550 0.161955 0.023986
O O1 0.250000 0.750000 0.066064
O O2 0.348377 0.889812 0.161793
O O3 0.163255 0.831153 0.325843
O O4 0.132051 0.886000 0.994656
O O5 0.651623 0.889812 0.989893
O O6 0.500000 0.000000 0.825843
O O7 0.751595 0.004767 0.825843
O O8 0.500000 0.500000 0.325843
O O9 0.632051 0.613999 0.157029
O O10 0.250000 0.250000 0.085622
#
# Coordination Sequence:
#
# PCOD9355178 Si02
#       4
#     8   8   8   8
#     4   9  22  46  71 105 151 190 243 309 377 445
#     4  10  23  46  73 106 135 188 251 304 363 436
#     4  12  25  42  71 112 145 192 243 298 379 458
#     4   9  22  46  71 105 151 190 243 309 377 445
#
# _framework density 23.837596000000001
#
# number of rings (size 3 to 8) (size 9 to 14) (size 15 to 20)
#    1.500    0.500    0.000    2.250    0.000    9.000 
#    0.000   15.000    0.000    0.000    0.000    0.000 
#    0.000    0.000    0.000    0.000    0.000    0.000 
#
# Total GULP energy -89462.551079 kJ/mol
# GULP energy per Si atom -5591.409442 kJ/mol
# Density = 2.378334 g / cm^3
# Si number density = 23.837596 Si / 1000 Ang^3
#
#
#
# Elastic Constant Matrix: (Units=GPa)
#
#
# Indices 1 2 3 4 5 6 
#
# 1 187.2648 118.1249 55.1787 0.0000 0.0000 0.0000
# 2 118.1249 242.1522 77.2578 0.0000 0.0000 0.0000
# 3 55.1787 77.2578 113.0626 0.0000 0.0000 0.0000
# 4 0.0000 0.0000 0.0000 30.7269 0.0000 0.0000
# 5 0.0000 0.0000 0.0000 0.0000 20.9734 0.0000
# 6 0.0000 0.0000 0.0000 0.0000 0.0000 41.0905
#
#
#
# Elastic Compliance Matrix: (Units=1/GPa)
#
#
# Indices 1 2 3 4 5 6 
#
# 1 0.007925 -0.003366 -0.001568 0.000000 0.000000 0.000000
# 2 -0.003366 0.006710 -0.002943 0.000000 0.000000 0.000000
# 3 -0.001568 -0.002943 0.011621 0.000000 0.000000 0.000000
# 4 0.000000 0.000000 0.000000 0.032545 0.000000 0.000000
# 5 0.000000 0.000000 0.000000 0.000000 0.047680 0.000000
# 6 0.000000 0.000000 0.000000 0.000000 0.000000 0.024337
#
#
# Mechanical properties :
#
#
# Convention : Reuss Voigt Hill
#
# Bulk Modulus (GPa) = 95.20668 115.95584 105.58126
# Shear Modulus (GPa) = 33.31764 38.01936 35.66850
#
# Velocity S-wave (km/s) = 3.74263 3.99799 3.87242
# Velocity P-wave (km/s) = 7.66177 8.37028 8.02385
#
# Compressibility (1/GPa) = 0.01050346
#
# Stress axis : x y z
#
# Youngs Moduli (GPa) = 126.18156 149.02367 86.05383
#
# Poissons Ratio (x) = 0.50157 0.13492
# Poissons Ratio (y) = 0.42469 0.25323
# Poissons Ratio (z) = 0.19784 0.43853
#
# Static dielectric constant tensor:
#      x y z
#    x 1.898850 0.000000 0.000000 
#    y 0.000000 1.923180 0.000000 
#    z 0.000000 0.000000 1.988930 
# 
# From -- ./inp_files/6080.got.cif
#   From: 2010.05.17/outbox.cif.g08.bks.cpg/sg37_4_cif.got.tgz:6080.got - 2010.06.03 17:53:42.
