data_PCOD9355067
_publ_section_title
;
Structure prediction by ZEFSAII (Michael W. Deem and Ramdas Pophale) SiO2 
 PCOD9355067
Probable space group: C C C 2
;
_chemical_formula_sum "Si O2"
_cell_formula_units_Z 56
_cell_length_a 16.225116
_cell_length_b 9.571298
_cell_length_c 15.042605
_cell_angle_alpha 90.000000
_cell_angle_beta 90.000000
_cell_angle_gamma 90.000000
_cell_volume 2336.047666
_symmetry_space_group_name_H-M "C C C 2"
_symmetry_group_IT_number 37
_symmetry_cell_setting 'orthorhombic'
loop_
_space_group_symop_operation_xyz
x,y,z
-x,-y,z
-x,y,1/2+z
x,-y,1/2+z
1/2+x,1/2+y,z
1/2-x,1/2-y,z
1/2-x,1/2+y,1/2+z
1/2+x,1/2-y,1/2+z
loop_
_atom_site_type_symbol
_atom_site_label
_atom_site_fract_x
_atom_site_fract_y
_atom_site_fract_z
Si Si1 0.807618 0.113408 0.572780
Si Si2 0.307618 0.886592 0.979327
Si Si3 0.025802 0.750000 0.776053
Si Si4 0.843295 0.017794 0.761124
Si Si5 0.431352 0.126012 0.636038
Si Si6 0.431352 0.373988 0.916068
Si Si7 0.843295 0.517794 0.290983
O O1 0.750000 0.250000 0.595170
O O2 0.845919 0.026874 0.654932
O O3 0.880286 0.154778 0.504615
O O4 0.750000 1.000000 0.526053
O O5 0.250000 0.750000 0.956936
O O6 0.380286 0.845222 0.047491
O O7 0.345919 0.973126 0.897174
O O8 0.085148 0.878003 0.787157
O O9 0.085149 0.621997 0.764950
O O10 0.977024 0.755340 0.683606
O O11 0.977024 0.744660 0.868501
O O12 0.750000 0.064319 0.776053
O O13 0.864123 0.902823 0.835951
O O14 0.500000 0.000000 0.621733
O O15 0.364122 0.097177 0.716156
O O16 0.500000 0.500000 0.930374
#
# Coordination Sequence:
#
# PCOD9355067 Si02
#       7
#     8   8   8   8   8   8   8
#     4  12  27  46  73 107 139 188 240 289 349 423
#     4  12  27  46  73 107 139 188 240 289 349 423
#     4  10  23  40  67 102 134 190 224 296 347 414
#     4  11  22  44  70  95 141 185 232 282 353 423
#     4  10  25  44  68 103 142 180 239 290 356 409
#     4  10  25  44  68 103 142 180 239 290 356 409
#     4  11  22  44  70  95 141 185 232 282 353 423
#
# _framework density 23.972111999999999
#
# number of rings (size 3 to 8) (size 9 to 14) (size 15 to 20)
#    0.000    1.143    2.857    2.143    8.000    4.571 
#    0.000    0.000    0.000    0.000    0.000    0.000 
#    0.000    0.000    0.000    0.000    0.000    0.000 
#
# Total GULP energy -155868.246189 kJ/mol
# GULP energy per Si atom -5566.723078 kJ/mol
# Density = 2.391755 g / cm^3
# Si number density = 23.972112 Si / 1000 Ang^3
#
#
#
# Elastic Constant Matrix: (Units=GPa)
#
#
# Indices 1 2 3 4 5 6 
#
# 1 116.1898 12.3777 53.0646 0.0000 0.0000 0.0000
# 2 12.3777 18.8463 -6.6831 0.0000 0.0000 0.0000
# 3 53.0646 -6.6831 97.9998 0.0000 0.0000 0.0000
# 4 0.0000 0.0000 0.0000 22.4758 0.0000 0.0000
# 5 0.0000 0.0000 0.0000 0.0000 58.8848 0.0000
# 6 0.0000 0.0000 0.0000 0.0000 0.0000 20.1569
#
#
#
# Elastic Compliance Matrix: (Units=1/GPa)
#
#
# Indices 1 2 3 4 5 6 
#
# 1 0.013598 -0.011827 -0.008169 0.000000 0.000000 0.000000
# 2 -0.011827 0.064664 0.010814 0.000000 0.000000 0.000000
# 3 -0.008169 0.010814 0.015365 0.000000 0.000000 0.000000
# 4 0.000000 0.000000 0.000000 0.044492 0.000000 0.000000
# 5 0.000000 0.000000 0.000000 0.000000 0.016982 0.000000
# 6 0.000000 0.000000 0.000000 0.000000 0.000000 0.049611
#
#
# Mechanical properties :
#
#
# Convention : Reuss Voigt Hill
#
# Bulk Modulus (GPa) = 13.28715 38.95047 26.11881
# Shear Modulus (GPa) = 20.14798 31.92197 26.03498
#
# Velocity S-wave (km/s) = 2.90224 3.65311 3.29911
# Velocity P-wave (km/s) = 4.09701 5.83756 5.04294
#
# Compressibility (1/GPa) = 0.07526067
#
# Stress axis : x y z
#
# Youngs Moduli (GPa) = 73.54255 15.46466 65.08271
#
# Poissons Ratio (x) = 0.18291 0.53168
# Poissons Ratio (y) = 0.86982 -0.70380
# Poissons Ratio (z) = 0.60079 -0.16723
#
# Static dielectric constant tensor:
#      x y z
#    x 2.049160 0.000000 0.000000 
#    y 0.000000 1.965730 0.000000 
#    z 0.000000 0.000000 1.965210 
# 
# From -- ./inp_files/11593.got.cif
#   From: 2010.05.17/outbox.cif.g08.bks.cpg/sg37_6_cif.got.tgz:11593.got - 2010.06.03 17:53:42.
