data_PCOD9355635
_publ_section_title
;
Structure prediction by ZEFSAII (Michael W. Deem and Ramdas Pophale) SiO2 
 PCOD9355635
Probable space group: C C C 2
;
_chemical_formula_sum "Si O2"
_cell_formula_units_Z 40
_cell_length_a 12.326933
_cell_length_b 15.301347
_cell_length_c 7.568004
_cell_angle_alpha 90.000000
_cell_angle_beta 90.000000
_cell_angle_gamma 90.000000
_cell_volume 1427.466919
_symmetry_space_group_name_H-M "C C C 2"
_symmetry_group_IT_number 37
_symmetry_cell_setting 'orthorhombic'
loop_
_space_group_symop_operation_xyz
x,y,z
-x,-y,z
-x,y,1/2+z
x,-y,1/2+z
1/2+x,1/2+y,z
1/2-x,1/2-y,z
1/2-x,1/2+y,1/2+z
1/2+x,1/2-y,1/2+z
loop_
_atom_site_type_symbol
_atom_site_label
_atom_site_fract_x
_atom_site_fract_y
_atom_site_fract_z
Si Si1 0.483392 0.811712 0.989530
Si Si2 0.231705 0.342697 0.327441
Si Si3 0.173578 0.047067 0.646258
Si Si4 0.903648 0.431441 0.276067
Si Si5 0.388596 0.633389 0.507961
O O1 0.399506 0.837334 0.830252
O O2 0.581024 0.881389 0.959527
O O3 0.411536 0.848631 0.147577
O O4 0.524229 0.712607 0.006405
O O5 0.250000 0.250000 0.420442
O O6 0.296035 0.406799 0.461582
O O7 0.290979 0.337045 0.137674
O O8 0.292289 0.021002 0.726966
O O9 0.100953 0.963146 0.597173
O O10 0.130890 0.110231 0.801566
O O11 0.000000 0.500000 0.260048
#
# Coordination Sequence:
#
# PCOD9355635 Si02
#       5
#     8   8   8   8   8
#     4  11  27  46  81 123 159 217 288 361 450 520
#     4  11  26  50  79 116 168 218 286 362 429 521
#     4  11  27  46  79 117 164 221 277 349 432 519
#     4  11  25  45  74 120 157 204 280 357 432 521
#     4  12  26  51  82 121 166 224 283 354 435 526
#
# _framework density 28.021666
#
# number of rings (size 3 to 8) (size 9 to 14) (size 15 to 20)
#    0.000    0.800    2.000    3.000   16.800    0.000 
#    0.000    1.000    0.000    0.000    0.000    0.000 
#    0.000    0.000    0.000    0.000    0.000    0.000 
#
# Total GULP energy -111660.618581 kJ/mol
# GULP energy per Si atom -5583.030929 kJ/mol
# Density = 2.795789 g / cm^3
# Si number density = 28.021666 Si / 1000 Ang^3
#
#
#
# Elastic Constant Matrix: (Units=GPa)
#
#
# Indices 1 2 3 4 5 6 
#
# 1 133.8141 96.6833 52.7722 0.0000 0.0000 0.0000
# 2 96.6833 215.7520 85.7924 0.0000 0.0000 0.0000
# 3 52.7722 85.7924 191.1875 0.0000 0.0000 0.0000
# 4 0.0000 0.0000 0.0000 38.9686 0.0000 0.0000
# 5 0.0000 0.0000 0.0000 0.0000 24.9677 0.0000
# 6 0.0000 0.0000 0.0000 0.0000 0.0000 56.2046
#
#
#
# Elastic Compliance Matrix: (Units=1/GPa)
#
#
# Indices 1 2 3 4 5 6 
#
# 1 0.011213 -0.004618 -0.001023 0.000000 0.000000 0.000000
# 2 -0.004618 0.007544 -0.002110 0.000000 0.000000 0.000000
# 3 -0.001023 -0.002110 0.006460 0.000000 0.000000 0.000000
# 4 0.000000 0.000000 0.000000 0.025662 0.000000 0.000000
# 5 0.000000 0.000000 0.000000 0.000000 0.040052 0.000000
# 6 0.000000 0.000000 0.000000 0.000000 0.000000 0.017792
#
#
# Mechanical properties :
#
#
# Convention : Reuss Voigt Hill
#
# Bulk Modulus (GPa) = 102.94477 112.36107 107.65292
# Shear Modulus (GPa) = 39.22719 44.39522 41.81121
#
# Velocity S-wave (km/s) = 3.74557 3.98467 3.86697
# Velocity P-wave (km/s) = 7.45138 7.83295 7.64454
#
# Compressibility (1/GPa) = 0.00971395
#
# Stress axis : x y z
#
# Youngs Moduli (GPa) = 89.18138 132.56226 154.80439
#
# Poissons Ratio (x) = 0.61219 0.15833
# Poissons Ratio (y) = 0.41185 0.32669
# Poissons Ratio (z) = 0.09121 0.27976
#
# Static dielectric constant tensor:
#      x y z
#    x 2.474460 0.000000 0.000000 
#    y 0.000000 2.262130 0.000000 
#    z 0.000000 0.000000 2.336370 
# 
# From -- ./inp_files/3336.got.cif
#   From: 2010.05.17/outbox.cif.g08.bks.cpg/sg37_2_cif.got.tgz:3336.got - 2010.06.03 17:53:42.
