data_PCOD9355062
_publ_section_title
;
Structure prediction by ZEFSAII (Michael W. Deem and Ramdas Pophale) SiO2 
 PCOD9355062
Probable space group: C C C 2
;
_chemical_formula_sum "Si O2"
_cell_formula_units_Z 64
_cell_length_a 13.640976
_cell_length_b 13.866842
_cell_length_c 17.797701
_cell_angle_alpha 90.000000
_cell_angle_beta 90.000000
_cell_angle_gamma 90.000000
_cell_volume 3366.564336
_symmetry_space_group_name_H-M "C C C 2"
_symmetry_group_IT_number 37
_symmetry_cell_setting 'orthorhombic'
loop_
_space_group_symop_operation_xyz
x,y,z
-x,-y,z
-x,y,1/2+z
x,-y,1/2+z
1/2+x,1/2+y,z
1/2-x,1/2-y,z
1/2-x,1/2+y,1/2+z
1/2+x,1/2-y,1/2+z
loop_
_atom_site_type_symbol
_atom_site_label
_atom_site_fract_x
_atom_site_fract_y
_atom_site_fract_z
Si Si1 0.814364 0.153892 0.206120
Si Si2 0.659707 0.826945 0.245241
Si Si3 0.420461 0.583546 0.902616
Si Si4 0.678057 0.156190 0.421184
Si Si5 0.279890 0.862628 0.582825
Si Si6 0.750751 0.497272 0.817091
Si Si7 0.471933 0.743712 0.318148
Si Si8 0.115086 0.029745 0.566983
O O1 0.750000 0.250000 0.192858
O O2 0.753595 0.068987 0.246696
O O3 0.896613 0.182266 0.267642
O O4 0.858654 0.106723 0.131425
O O5 0.750000 0.750000 0.252731
O O6 0.668246 0.874209 0.162800
O O7 0.556246 0.779241 0.262355
O O8 0.672086 0.913300 0.304355
O O9 0.500000 0.500000 0.904297
O O10 0.349492 0.559120 0.833472
O O11 0.476042 0.680919 0.882633
O O12 0.371647 0.577957 0.984661
O O13 0.750000 0.250000 0.418856
O O14 0.655129 0.131857 0.507458
O O15 0.734417 0.065125 0.388173
O O16 0.590281 0.177559 0.363899
O O17 0.250000 0.750000 0.584205
O O18 0.187508 0.936346 0.575071
O O19 0.000000 0.000000 0.574319
#
# Coordination Sequence:
#
# PCOD9355062 Si02
#       8
#     8   8   8   8   8   8   8   8
#     4  12  25  44  66  95 130 172 215 267 325 385
#     4  11  25  40  62  97 135 170 211 274 329 377
#     4  11  22  38  66  99 129 162 218 278 317 374
#     4  11  21  41  68  93 127 174 218 260 323 395
#     4  10  23  40  62  95 138 169 207 269 333 383
#     4  12  20  41  67  90 127 174 215 262 322 381
#     4  12  24  40  67  98 127 172 224 267 320 384
#     4  11  26  41  67 102 129 171 218 270 330 385
#
# _framework density 19.010477999999999
#
# number of rings (size 3 to 8) (size 9 to 14) (size 15 to 20)
#    0.000    0.750    7.500    0.000   10.500    0.500 
#    2.250    0.000    0.000    1.500    0.000    0.000 
#    0.000    0.000    0.000    0.000    0.000    0.000 
#
# Total GULP energy -178459.275162 kJ/mol
# GULP energy per Si atom -5576.852349 kJ/mol
# Density = 1.896721 g / cm^3
# Si number density = 19.010478 Si / 1000 Ang^3
#
#
#
# Elastic Constant Matrix: (Units=GPa)
#
#
# Indices 1 2 3 4 5 6 
#
# 1 62.0403 27.8492 19.6958 0.0000 0.0000 0.0000
# 2 27.8492 68.0370 30.7228 0.0000 0.0000 0.0000
# 3 19.6958 30.7228 90.6978 0.0000 0.0000 0.0000
# 4 0.0000 0.0000 0.0000 15.3159 0.0000 0.0000
# 5 0.0000 0.0000 0.0000 0.0000 22.5405 0.0000
# 6 0.0000 0.0000 0.0000 0.0000 0.0000 20.0528
#
#
#
# Elastic Compliance Matrix: (Units=1/GPa)
#
#
# Indices 1 2 3 4 5 6 
#
# 1 0.020008 -0.007352 -0.001854 0.000000 0.000000 0.000000
# 2 -0.007352 0.020054 -0.005196 0.000000 0.000000 0.000000
# 3 -0.001854 -0.005196 0.013189 0.000000 0.000000 0.000000
# 4 0.000000 0.000000 0.000000 0.065292 0.000000 0.000000
# 5 0.000000 0.000000 0.000000 0.000000 0.044365 0.000000
# 6 0.000000 0.000000 0.000000 0.000000 0.000000 0.049868
#
#
# Mechanical properties :
#
#
# Convention : Reuss Voigt Hill
#
# Bulk Modulus (GPa) = 40.90984 41.92341 41.41662
# Shear Modulus (GPa) = 20.02174 21.08232 20.55203
#
# Velocity S-wave (km/s) = 3.24882 3.33375 3.29156
# Velocity P-wave (km/s) = 5.96988 6.07612 6.02323
#
# Compressibility (1/GPa) = 0.02444399
#
# Stress axis : x y z
#
# Youngs Moduli (GPa) = 49.98107 49.86577 75.82348
#
# Poissons Ratio (x) = 0.36663 0.14060
# Poissons Ratio (y) = 0.36747 0.39401
# Poissons Ratio (z) = 0.09268 0.25912
#
# Static dielectric constant tensor:
#      x y z
#    x 1.629220 0.000000 0.000000 
#    y 0.000000 1.644440 0.000000 
#    z 0.000000 0.000000 1.692060 
# 
# From -- ./inp_files/15301.got.cif
#   From: 2010.05.17/outbox.cif.g08.bks.cpg/sg37_8_cif.got.tgz:15301.got - 2010.06.03 17:53:42.
