data_PCOD9355280
_publ_section_title
;
Structure prediction by ZEFSAII (Michael W. Deem and Ramdas Pophale) SiO2 
 PCOD9355280
Probable space group: C C C 2
;
_chemical_formula_sum "Si O2"
_cell_formula_units_Z 40
_cell_length_a 11.990653
_cell_length_b 8.196838
_cell_length_c 15.576271
_cell_angle_alpha 90.000000
_cell_angle_beta 90.000000
_cell_angle_gamma 90.000000
_cell_volume 1530.920651
_symmetry_space_group_name_H-M "C C C 2"
_symmetry_group_IT_number 37
_symmetry_cell_setting 'orthorhombic'
loop_
_space_group_symop_operation_xyz
x,y,z
-x,-y,z
-x,y,1/2+z
x,-y,1/2+z
1/2+x,1/2+y,z
1/2-x,1/2-y,z
1/2-x,1/2+y,1/2+z
1/2+x,1/2-y,1/2+z
loop_
_atom_site_type_symbol
_atom_site_label
_atom_site_fract_x
_atom_site_fract_y
_atom_site_fract_z
Si Si1 0.250000 0.750000 0.463310
Si Si2 0.925743 0.853058 0.699557
Si Si3 0.628228 0.937382 0.391358
Si Si4 0.284179 0.074041 0.199335
Si Si5 0.000000 0.500000 0.700957
Si Si6 0.506852 0.678222 0.500876
O O1 0.217582 0.576748 0.417221
O O2 0.375033 0.723634 0.500877
O O3 0.956252 0.677035 0.738932
O O4 0.956086 0.836180 0.599593
O O5 0.802864 0.929066 0.702990
O O6 0.000000 0.000000 0.737313
O O7 0.665337 0.896230 0.294346
O O8 0.602817 0.784162 0.453130
O O9 0.500000 0.000000 0.388335
O O10 0.250000 0.250000 0.168034
O O11 0.391808 0.031097 0.143790
O O12 0.500000 0.500000 0.459092
#
# Coordination Sequence:
#
# PCOD9355280 Si02
#       6
#     4   8   8   8   4   8
#     4  10  24  44  76 102 154 192 252 324 384 466
#     4  11  26  49  74 111 153 204 260 320 393 471
#     4  10  24  47  75 111 148 199 257 318 392 461
#     4  12  26  48  74 109 156 203 261 318 387 470
#     4  12  26  48  74 106 150 206 254 322 384 460
#     4  10  25  48  71 111 145 197 261 320 394 467
#
# _framework density 26.128067999999999
#
# number of rings (size 3 to 8) (size 9 to 14) (size 15 to 20)
#    0.000    1.200    3.000    0.600    9.800    3.200 
#    7.200    0.000    0.000    0.000    0.000    0.000 
#    0.000    0.000    0.000    0.000    0.000    0.000 
#
# Total GULP energy -111438.208048 kJ/mol
# GULP energy per Si atom -5571.910402 kJ/mol
# Density = 2.606860 g / cm^3
# Si number density = 26.128068 Si / 1000 Ang^3
#
#
#
# Elastic Constant Matrix: (Units=GPa)
#
#
# Indices 1 2 3 4 5 6 
#
# 1 227.4936 78.9616 27.4306 0.0000 0.0000 0.0000
# 2 78.9616 218.5229 23.2645 0.0000 0.0000 0.0000
# 3 27.4306 23.2645 76.6821 0.0000 0.0000 0.0000
# 4 0.0000 0.0000 0.0000 37.8357 0.0000 0.0000
# 5 0.0000 0.0000 0.0000 0.0000 38.5179 0.0000
# 6 0.0000 0.0000 0.0000 0.0000 0.0000 69.9647
#
#
#
# Elastic Compliance Matrix: (Units=1/GPa)
#
#
# Indices 1 2 3 4 5 6 
#
# 1 0.005152 -0.001721 -0.001321 0.000000 0.000000 0.000000
# 2 -0.001721 0.005304 -0.000993 0.000000 0.000000 0.000000
# 3 -0.001321 -0.000993 0.013815 0.000000 0.000000 0.000000
# 4 0.000000 0.000000 0.000000 0.026430 0.000000 0.000000
# 5 0.000000 0.000000 0.000000 0.000000 0.025962 0.000000
# 6 0.000000 0.000000 0.000000 0.000000 0.000000 0.014293
#
#
# Mechanical properties :
#
#
# Convention : Reuss Voigt Hill
#
# Bulk Modulus (GPa) = 61.72844 86.89024 74.30934
# Shear Modulus (GPa) = 47.88033 55.46647 51.67340
#
# Velocity S-wave (km/s) = 4.28544 4.61246 4.45196
# Velocity P-wave (km/s) = 6.93998 7.85456 7.41139
#
# Compressibility (1/GPa) = 0.01619999
#
# Stress axis : x y z
#
# Youngs Moduli (GPa) = 194.08422 188.54160 72.38624
#
# Poissons Ratio (x) = 0.32451 0.09562
# Poissons Ratio (y) = 0.33405 0.07191
# Poissons Ratio (z) = 0.25637 0.18731
#
# Static dielectric constant tensor:
#      x y z
#    x 2.316760 0.000000 0.000000 
#    y 0.000000 2.610690 0.000000 
#    z 0.000000 0.000000 2.130730 
# 
# From -- ./inp_files/14878.got.cif
#   From: 2010.05.17/outbox.cif.g08.bks.cpg/sg37_8_cif.got.tgz:14878.got - 2010.06.03 17:53:42.
