data_PCOD9355838
_publ_section_title
;
Structure prediction by ZEFSAII (Michael W. Deem and Ramdas Pophale) SiO2 
 PCOD9355838
Probable space group: A M M 2
;
_chemical_formula_sum "Si O2"
_cell_formula_units_Z 64
_cell_length_a 8.316728
_cell_length_b 27.354058
_cell_length_c 19.064480
_cell_angle_alpha 90.000000
_cell_angle_beta 90.000000
_cell_angle_gamma 90.000000
_cell_volume 4337.097900
_symmetry_space_group_name_H-M "A M M 2"
_symmetry_group_IT_number 38
_symmetry_cell_setting 'orthorhombic'
loop_
_space_group_symop_operation_xyz
x,y,z
-x,-y,z
-x,y,z
x,-y,z
x,1/2+y,1/2+z
-x,1/2-y,1/2+z
-x,1/2+y,1/2+z
x,1/2-y,1/2+z
loop_
_atom_site_type_symbol
_atom_site_label
_atom_site_fract_x
_atom_site_fract_y
_atom_site_fract_z
Si Si1 0.194111 0.055786 0.809660
Si Si2 0.691569 0.851725 0.893854
Si Si3 0.308259 0.747416 0.145541
Si Si4 0.191007 0.849738 0.567384
Si Si5 0.687357 0.801796 0.434951
Si Si6 0.696322 0.756296 0.805825
Si Si7 0.187320 0.292293 0.513077
Si Si8 0.804027 0.444997 0.147853
O O1 0.263124 0.096814 0.860216
O O2 0.242744 0.065183 0.728616
O O3 0.000000 0.058084 0.812030
O O4 0.241657 0.000000 0.826955
O O5 0.500000 0.848109 0.901360
O O6 0.745637 0.807918 0.840991
O O7 0.771232 0.840411 0.969051
O O8 0.500000 0.753692 0.144723
O O9 0.267433 0.694710 0.111593
O O10 0.250581 0.748529 0.225794
O O11 0.230554 0.787913 0.094619
O O12 0.227596 0.840395 0.485545
O O13 0.249675 0.901525 0.597256
O O14 0.000000 0.846655 0.577739
O O15 0.500000 0.814288 0.430946
O O16 0.748729 0.787619 0.357562
O O17 0.708254 0.750280 0.476107
O O18 0.500000 0.756137 0.806247
O O19 0.000000 0.280160 0.504064
O O20 0.750451 0.500000 0.129450
O O21 0.000000 0.445576 0.146567
#
# Coordination Sequence:
#
# PCOD9355838 Si02
#       8
#     8   8   8   8   8   8   8   8
#     4   9  17  29  43  59  80 107 138 171 205 236
#     4  10  18  29  43  59  80 108 139 167 200 238
#     4  10  17  27  41  57  79 105 132 162 199 238
#     4  10  17  25  39  59  79 103 137 168 197 234
#     4   9  16  28  41  55  78 106 133 162 199 238
#     4   8  16  27  40  57  77 104 135 163 193 236
#     4  10  18  28  40  57  79 103 133 165 197 234
#     4   8  15  27  41  57  80 109 139 171 204 236
#
# _framework density 14.756410000000001
#
# number of rings (size 3 to 8) (size 9 to 14) (size 15 to 20)
#    0.000    2.750    0.000    6.375    0.000    0.250 
#    0.000    7.500    0.000    3.000    0.000    0.000 
#    0.000    1.000    0.000    8.000    0.000    2.625 
#
# Total GULP energy -178201.204909 kJ/mol
# GULP energy per Si atom -5568.787653 kJ/mol
# Density = 1.472282 g / cm^3
# Si number density = 14.756410 Si / 1000 Ang^3
#
#
#
# Elastic Constant Matrix: (Units=GPa)
#
#
# Indices 1 2 3 4 5 6 
#
# 1 20.8461 11.0639 12.4718 0.0000 0.0000 0.0000
# 2 11.0639 85.4823 57.5338 0.0000 0.0000 0.0000
# 3 12.4718 57.5338 113.8905 0.0000 0.0000 0.0000
# 4 0.0000 0.0000 0.0000 28.0748 0.0000 0.0000
# 5 0.0000 0.0000 0.0000 0.0000 14.5700 0.0000
# 6 0.0000 0.0000 0.0000 0.0000 0.0000 1.4626
#
#
#
# Elastic Compliance Matrix: (Units=1/GPa)
#
#
# Indices 1 2 3 4 5 6 
#
# 1 0.052416 -0.004426 -0.003504 0.000000 0.000000 0.000000
# 2 -0.004426 0.018098 -0.008658 0.000000 0.000000 0.000000
# 3 -0.003504 -0.008658 0.013538 0.000000 0.000000 0.000000
# 4 0.000000 0.000000 0.000000 0.035619 0.000000 0.000000
# 5 0.000000 0.000000 0.000000 0.000000 0.068634 0.000000
# 6 0.000000 0.000000 0.000000 0.000000 0.000000 0.683709
#
#
# Mechanical properties :
#
#
# Convention : Reuss Voigt Hill
#
# Bulk Modulus (GPa) = 19.65547 42.48420 31.06984
# Shear Modulus (GPa) = 5.42211 18.09810 11.76011
#
# Velocity S-wave (km/s) = 1.91896 3.50588 2.82609
# Velocity P-wave (km/s) = 4.27302 6.72615 5.63471
#
# Compressibility (1/GPa) = 0.05087641
#
# Stress axis : x y z
#
# Youngs Moduli (GPa) = 19.07814 55.25333 73.86671
#
# Poissons Ratio (x) = 0.24453 0.25885
# Poissons Ratio (y) = 0.08443 0.63955
# Poissons Ratio (z) = 0.06685 0.47839
#
# Static dielectric constant tensor:
#      x y z
#    x 1.509370 0.000000 0.000000 
#    y 0.000000 1.480310 0.000000 
#    z 0.000000 0.000000 1.512990 
# 
# From -- ./inp_files/17350.got.cif
#   From: 2010.05.17/outbox.cif.g08.bks.cpg/sg38_9_cif.got.tgz:17350.got - 2010.06.03 18:07:57.
