data_PCOD9355769
_publ_section_title
;
Structure prediction by ZEFSAII (Michael W. Deem and Ramdas Pophale) SiO2 
 PCOD9355769
Probable space group: C C C 2
;
_chemical_formula_sum "Si O2"
_cell_formula_units_Z 28
_cell_length_a 15.000000
_cell_length_b 21.000000
_cell_length_c 9.000000
_cell_angle_alpha 90.000000
_cell_angle_beta 90.000000
_cell_angle_gamma 90.000000
_cell_volume 2835.000000
_symmetry_space_group_name_H-M "C C C 2"
_symmetry_group_IT_number 37
_symmetry_cell_setting 'orthorhombic'
loop_
_space_group_symop_operation_xyz
x,y,z
-x,-y,z
-x,y,1/2+z
x,-y,1/2+z
1/2+x,1/2+y,z
1/2-x,1/2-y,z
1/2-x,1/2+y,1/2+z
1/2+x,1/2-y,1/2+z
loop_
_atom_site_type_symbol
_atom_site_label
_atom_site_fract_x
_atom_site_fract_y
_atom_site_fract_z
Si Si1 0.027182 0.204056 0.381430
Si Si2 0.637027 0.955713 0.296568
Si Si3 0.922863 0.119675 0.137239
Si Si4 0.307368 0.452441 0.856348
Si Si5 0.885605 0.749291 0.118222
Si Si6 0.000000 0.000000 0.472821
Si Si7 0.244771 0.359590 0.120073
Si Si8 0.500000 0.000000 0.042628
O O1 0.978489 0.155833 0.266178
O O2 0.953961 0.232112 0.491358
O O3 0.091138 0.165644 0.495159
O O4 0.067833 0.258946 0.277821
O O5 0.696762 0.894021 0.257923
O O6 0.717856 0.007188 0.320325
O O7 0.572337 0.966717 0.152727
O O8 0.566159 0.959282 0.433372
O O9 0.835129 0.091470 0.215902
O O10 0.982277 0.061972 0.073113
O O11 0.403397 0.488552 0.889801
O O12 0.280970 0.410473 0.000631
O O13 0.829836 0.689480 0.062003
O O14 0.825116 0.811380 0.152737
#
# Coordination Sequence:
#
# PCOD9355769 Si02
#       8
#     8   8   8   8   8   4   8   4
#     4  10  21  40  63  93 125 183 224 272 328 402
#     4  11  24  44  68  95 129 173 231 281 354 399
#     4  11  21  36  61  94 145 172 221 265 327 423
#     4  12  23  40  65 106 138 186 212 285 343 431
#     4  10  23  42  68  90 132 179 226 279 338 391
#     4  12  24  36  62 110 144 186 210 256 370 430
#     4  11  23  43  67  95 134 175 227 283 337 406
#     4  10  24  46  66  90 128 178 224 300 338 396
#
# _framework density 9.8765429999999999
#
# number of rings (size 3 to 8) (size 9 to 14) (size 15 to 20)
#    0.000    1.143    4.286    2.143    2.000    1.143 
#    0.000    0.000   12.571    0.000    0.000    0.000 
#    0.000    0.000    0.000    0.000    0.000    0.000 
#
# Total GULP energy -156080.915754 kJ/mol
# GULP energy per Si atom -5574.318420 kJ/mol
# Density = 0.985406 g / cm^3
# Si number density = 9.876543 Si / 1000 Ang^3
#
#
#
# Elastic Constant Matrix: (Units=GPa)
#
#
# Indices 1 2 3 4 5 6 
#
# 1 123.2472 26.1424 34.6248 0.0000 0.0000 0.0000
# 2 26.1424 42.9838 11.6562 0.0000 0.0000 0.0000
# 3 34.6248 11.6562 103.3472 0.0000 0.0000 0.0000
# 4 0.0000 0.0000 0.0000 16.9675 0.0000 0.0000
# 5 0.0000 0.0000 0.0000 0.0000 45.5025 0.0000
# 6 0.0000 0.0000 0.0000 0.0000 0.0000 29.4338
#
#
#
# Elastic Compliance Matrix: (Units=1/GPa)
#
#
# Indices 1 2 3 4 5 6 
#
# 1 0.010022 -0.005348 -0.002755 0.000000 0.000000 0.000000
# 2 -0.005348 0.026853 -0.001237 0.000000 0.000000 0.000000
# 3 -0.002755 -0.001237 0.010738 0.000000 0.000000 0.000000
# 4 0.000000 0.000000 0.000000 0.058936 0.000000 0.000000
# 5 0.000000 0.000000 0.000000 0.000000 0.021977 0.000000
# 6 0.000000 0.000000 0.000000 0.000000 0.000000 0.033975
#
#
# Mechanical properties :
#
#
# Convention : Reuss Voigt Hill
#
# Bulk Modulus (GPa) = 34.56132 46.04720 40.30426
# Shear Modulus (GPa) = 26.20201 31.52442 28.86321
#
# Velocity S-wave (km/s) = 3.64603 3.99924 3.82671
# Velocity P-wave (km/s) = 5.93796 6.68485 6.32244
#
# Compressibility (1/GPa) = 0.02893408
#
# Stress axis : x y z
#
# Youngs Moduli (GPa) = 99.77963 37.24002 93.12319
#
# Poissons Ratio (x) = 0.19917 0.25651
# Poissons Ratio (y) = 0.53366 0.11517
# Poissons Ratio (z) = 0.27484 0.04606
#
# Static dielectric constant tensor:
#      x y z
#    x 1.714930 0.000000 0.000000 
#    y 0.000000 1.734680 0.000000 
#    z 0.000000 0.000000 1.714940 
# 
# From -- ./inp_files/3672.got.cif
#   From: 2010.05.17/outbox.ucp.g08.bks.cvg/sg37_2_cif.got.tgz:3672.got - 2010.06.11 10:38:43.
