data_PCOD9355584
_publ_section_title
;
Structure prediction by ZEFSAII (Michael W. Deem and Ramdas Pophale) SiO2 
 PCOD9355584
Probable space group: C C C 2
;
_chemical_formula_sum "Si O2"
_cell_formula_units_Z 32
_cell_length_a 4.727457
_cell_length_b 24.325738
_cell_length_c 11.094783
_cell_angle_alpha 90.000000
_cell_angle_beta 90.000000
_cell_angle_gamma 90.000000
_cell_volume 1275.887623
_symmetry_space_group_name_H-M "C C C 2"
_symmetry_group_IT_number 37
_symmetry_cell_setting 'orthorhombic'
loop_
_space_group_symop_operation_xyz
x,y,z
-x,-y,z
-x,y,1/2+z
x,-y,1/2+z
1/2+x,1/2+y,z
1/2-x,1/2-y,z
1/2-x,1/2+y,1/2+z
1/2+x,1/2-y,1/2+z
loop_
_atom_site_type_symbol
_atom_site_label
_atom_site_fract_x
_atom_site_fract_y
_atom_site_fract_z
Si Si1 0.247650 0.538779 0.585130
Si Si2 0.012826 0.623903 0.416790
Si Si3 0.461523 0.362845 0.255089
Si Si4 0.535624 0.214302 0.617664
O O1 0.500000 0.500000 0.552051
O O2 0.121302 0.567173 0.468003
O O3 0.391348 0.588759 0.661189
O O4 0.000000 0.500000 0.643025
O O5 0.218176 0.644009 0.305052
O O6 0.969704 0.663857 0.530907
O O7 0.699124 0.616959 0.371747
O O8 0.275402 0.309193 0.212889
O O9 0.750000 0.250000 0.535627
O O10 0.250000 0.250000 0.644058
#
# Coordination Sequence:
#
# PCOD9355584 Si02
#       4
#     8   8   8   8
#     4  11  24  41  64  96 131 171 219 268 326 399
#     4  11  24  42  65  95 131 171 218 274 330 393
#     4  11  24  42  65  95 131 171 218 274 330 393
#     4  11  24  43  66  94 128 169 220 274 330 397
#
# _framework density 25.080580000000001
#
# number of rings (size 3 to 8) (size 9 to 14) (size 15 to 20)
#    0.000    1.000    0.000    6.000    0.000   18.000 
#    0.000    0.000    0.000    0.000    0.000    0.000 
#    0.000    0.000    0.000    0.000    0.000    0.000 
#
# Total GULP energy -89157.078782 kJ/mol
# GULP energy per Si atom -5572.317424 kJ/mol
# Density = 2.502350 g / cm^3
# Si number density = 25.080580 Si / 1000 Ang^3
#
#
#
# Elastic Constant Matrix: (Units=GPa)
#
#
# Indices 1 2 3 4 5 6 
#
# 1 158.8898 39.7430 1.6392 0.0000 0.0000 0.0000
# 2 39.7430 113.9799 0.9296 0.0000 0.0000 0.0000
# 3 1.6392 0.9296 36.0490 0.0000 0.0000 0.0000
# 4 0.0000 0.0000 0.0000 -1.2923 0.0000 0.0000
# 5 0.0000 0.0000 0.0000 0.0000 25.8597 0.0000
# 6 0.0000 0.0000 0.0000 0.0000 0.0000 209.5401
#
#
#
# Elastic Compliance Matrix: (Units=1/GPa)
#
#
# Indices 1 2 3 4 5 6 
#
# 1 0.006897 -0.002403 -0.000252 0.000000 0.000000 0.000000
# 2 -0.002403 0.009612 -0.000139 0.000000 0.000000 0.000000
# 3 -0.000252 -0.000139 0.027755 0.000000 0.000000 0.000000
# 4 0.000000 0.000000 0.000000 -0.773835 0.000000 0.000000
# 5 0.000000 0.000000 0.000000 0.000000 0.038670 0.000000
# 6 0.000000 0.000000 0.000000 0.000000 0.000000 0.004772
#
#
# Mechanical properties :
#
#
# Convention : Reuss Voigt Hill
#
# Bulk Modulus (GPa) = 25.85424 43.72692 34.79058
# Shear Modulus (GPa) = -7.48897 64.59532 28.55317
#
# Velocity S-wave (km/s) = -1.72987 5.08046 3.37776
# Velocity P-wave (km/s) = 2.51812 7.20327 5.39574
#
# Compressibility (1/GPa) = 0.03867837
#
# Stress axis : x y z
#
# Youngs Moduli (GPa) = 144.98406 104.03157 36.02954
#
# Poissons Ratio (x) = 0.24998 0.00907
# Poissons Ratio (y) = 0.34839 0.00499
# Poissons Ratio (z) = 0.03649 0.01442
#
# Static dielectric constant tensor:
#      x y z
#    x 1.981440 0.000000 0.000000 
#    y 0.000000 2.639540 0.000000 
#    z 0.000000 0.000000 2.003720 
# 
# From -- ./inp_files/5338.got.cif
#   From: 2010.05.17/outbox.cif.g08.bks.cpg/sg37_3_cif.got.tgz:5338.got - 2010.06.03 17:53:42.
