data_PCOD9355707
_publ_section_title
;
Structure prediction by ZEFSAII (Michael W. Deem and Ramdas Pophale) SiO2 
 PCOD9355707
Probable space group: C C C 2
;
_chemical_formula_sum "Si O2"
_cell_formula_units_Z 40
_cell_length_a 10.227096
_cell_length_b 9.997528
_cell_length_c 20.095030
_cell_angle_alpha 90.000000
_cell_angle_beta 90.000000
_cell_angle_gamma 90.000000
_cell_volume 2054.629979
_symmetry_space_group_name_H-M "C C C 2"
_symmetry_group_IT_number 37
_symmetry_cell_setting 'orthorhombic'
loop_
_space_group_symop_operation_xyz
x,y,z
-x,-y,z
-x,y,1/2+z
x,-y,1/2+z
1/2+x,1/2+y,z
1/2-x,1/2-y,z
1/2-x,1/2+y,1/2+z
1/2+x,1/2-y,1/2+z
loop_
_atom_site_type_symbol
_atom_site_label
_atom_site_fract_x
_atom_site_fract_y
_atom_site_fract_z
Si Si1 0.343814 0.005081 0.640240
Si Si2 0.000000 0.000000 0.425711
Si Si3 0.000000 0.500000 0.894760
Si Si4 0.493704 0.271367 0.816368
Si Si5 0.264124 0.912808 0.992300
Si Si6 0.750000 0.250000 0.228309
Si Si7 0.250000 0.750000 0.723835
O O1 0.297697 0.031409 0.565138
O O2 0.303219 0.131953 0.683311
O O3 0.500000 0.000000 0.640400
O O4 0.283976 0.875057 0.676267
O O5 0.001036 0.872405 0.377548
O O6 0.870591 0.980785 0.469168
O O7 0.971471 0.624618 0.846867
O O8 0.121609 0.543340 0.941187
O O9 0.368394 0.305108 0.772283
O O10 0.624959 0.275094 0.771830
O O11 0.250000 0.750000 0.992777
#
# Coordination Sequence:
#
# PCOD9355707 Si02
#       7
#     8   4   4   8   8   4   4
#     4  12  26  48  73 102 144 191 236 295 357 413
#     4  12  26  44  72 110 140 186 236 292 354 416
#     4  12  24  46  76  98 150 194 224 294 366 416
#     4  12  24  44  72 108 146 182 238 289 355 431
#     4  12  26  48  73 104 146 186 243 298 344 421
#     4  12  24  44  74 100 140 192 234 284 356 418
#     4  12  26  46  74 108 146 186 236 298 352 424
#
# _framework density 19.468226000000001
#
# number of rings (size 3 to 8) (size 9 to 14) (size 15 to 20)
#    0.000    0.000    6.000    4.800    0.000    4.800 
#    0.000    0.000    0.000    0.000    0.000    0.000 
#    0.000    0.000    0.000    0.000    0.000    0.000 
#
# Total GULP energy -111946.309642 kJ/mol
# GULP energy per Si atom -5597.315482 kJ/mol
# Density = 1.942392 g / cm^3
# Si number density = 19.468226 Si / 1000 Ang^3
#
#
#
# Elastic Constant Matrix: (Units=GPa)
#
#
# Indices 1 2 3 4 5 6 
#
# 1 188.6319 47.3490 89.6262 0.0000 0.0000 0.0000
# 2 47.3490 131.3929 52.2183 0.0000 0.0000 0.0000
# 3 89.6262 52.2183 136.8618 0.0000 0.0000 0.0000
# 4 0.0000 0.0000 0.0000 31.4848 0.0000 0.0000
# 5 0.0000 0.0000 0.0000 0.0000 37.3112 0.0000
# 6 0.0000 0.0000 0.0000 0.0000 0.0000 31.5152
#
#
#
# Elastic Compliance Matrix: (Units=1/GPa)
#
#
# Indices 1 2 3 4 5 6 
#
# 1 0.007789 -0.000919 -0.004750 0.000000 0.000000 0.000000
# 2 -0.000919 0.009080 -0.002862 0.000000 0.000000 0.000000
# 3 -0.004750 -0.002862 0.011509 0.000000 0.000000 0.000000
# 4 0.000000 0.000000 0.000000 0.031761 0.000000 0.000000
# 5 0.000000 0.000000 0.000000 0.000000 0.026802 0.000000
# 6 0.000000 0.000000 0.000000 0.000000 0.000000 0.031731
#
#
# Mechanical properties :
#
#
# Convention : Reuss Voigt Hill
#
# Bulk Modulus (GPa) = 88.37880 92.80818 90.59349
# Shear Modulus (GPa) = 35.84070 37.90844 36.87457
#
# Velocity S-wave (km/s) = 4.29532 4.41749 4.35684
# Velocity P-wave (km/s) = 8.37226 8.59035 8.48200
#
# Compressibility (1/GPa) = 0.01131493
#
# Stress axis : x y z
#
# Youngs Moduli (GPa) = 128.38662 110.13812 86.88545
#
# Poissons Ratio (x) = 0.10122 0.41271
# Poissons Ratio (y) = 0.11800 0.24869
# Poissons Ratio (z) = 0.60985 0.31525
#
# Static dielectric constant tensor:
#      x y z
#    x 1.634010 0.000000 0.000000 
#    y 0.000000 1.663720 0.000000 
#    z 0.000000 0.000000 1.666360 
# 
# From -- ./inp_files/14296.got.cif
#   From: 2010.05.17/outbox.cif.g08.bks.cpg/sg37_8_cif.got.tgz:14296.got - 2010.06.03 17:53:42.
