data_PCOD9355394
_publ_section_title
;
Structure prediction by ZEFSAII (Michael W. Deem and Ramdas Pophale) SiO2 
 PCOD9355394
Probable space group: C C C 2
;
_chemical_formula_sum "Si O2"
_cell_formula_units_Z 56
_cell_length_a 9.587078
_cell_length_b 20.586618
_cell_length_c 12.793967
_cell_angle_alpha 90.000000
_cell_angle_beta 90.000000
_cell_angle_gamma 90.000000
_cell_volume 2525.087854
_symmetry_space_group_name_H-M "C C C 2"
_symmetry_group_IT_number 37
_symmetry_cell_setting 'orthorhombic'
loop_
_space_group_symop_operation_xyz
x,y,z
-x,-y,z
-x,y,1/2+z
x,-y,1/2+z
1/2+x,1/2+y,z
1/2-x,1/2-y,z
1/2-x,1/2+y,1/2+z
1/2+x,1/2-y,1/2+z
loop_
_atom_site_type_symbol
_atom_site_label
_atom_site_fract_x
_atom_site_fract_y
_atom_site_fract_z
Si Si1 0.713584 0.920256 0.026670
Si Si2 0.153598 0.624750 0.181675
Si Si3 0.368405 0.536446 0.055972
Si Si4 0.111523 0.844666 0.901574
Si Si5 0.694593 0.322545 0.372346
Si Si6 0.500000 0.000000 0.910306
Si Si7 0.250000 0.750000 0.052948
Si Si8 0.844130 0.406705 0.758239
O O1 0.731489 0.925026 0.150920
O O2 0.808798 0.978563 0.985123
O O3 0.765234 0.851615 0.985010
O O4 0.562604 0.942984 0.984003
O O5 0.239120 0.568088 0.121170
O O6 0.224913 0.631092 0.293534
O O7 0.183705 0.691971 0.120374
O O8 0.990747 0.618784 0.209239
O O9 0.500000 0.500000 0.110702
O O10 0.412143 0.594697 0.979451
O O11 0.243446 0.860522 0.827048
O O12 0.967475 0.829136 0.844748
O O13 0.140357 0.783901 0.976578
O O14 0.750000 0.250000 0.362034
O O15 0.390425 0.965518 0.832996
#
# Coordination Sequence:
#
# PCOD9355394 Si02
#       8
#     8   8   8   8   8   4   4   8
#     4  12  26  45  73 109 154 190 251 316 384 461
#     4  11  25  47  75 106 147 198 252 316 382 458
#     4  11  23  46  74 111 149 192 246 312 392 454
#     4  11  27  47  75 109 146 199 253 316 383 459
#     4  12  28  49  73 105 152 197 251 316 373 455
#     4  12  22  44  74 112 154 194 246 318 384 466
#     4  10  26  46  76 100 148 196 258 316 380 452
#     4  12  27  44  74 113 145 203 253 313 391 463
#
# _framework density 22.177446
#
# number of rings (size 3 to 8) (size 9 to 14) (size 15 to 20)
#    0.000    0.571    5.000    2.143    8.000    0.000 
#    1.286    0.000    0.000    0.000    0.000    0.000 
#    0.000    0.000    0.000    0.000    0.000    0.000 
#
# Total GULP energy -156273.859414 kJ/mol
# GULP energy per Si atom -5581.209265 kJ/mol
# Density = 2.212697 g / cm^3
# Si number density = 22.177446 Si / 1000 Ang^3
#
#
#
# Elastic Constant Matrix: (Units=GPa)
#
#
# Indices 1 2 3 4 5 6 
#
# 1 138.2296 43.0156 19.8491 0.0000 0.0000 0.0000
# 2 43.0156 83.9253 16.1189 0.0000 0.0000 0.0000
# 3 19.8491 16.1189 71.7898 0.0000 0.0000 0.0000
# 4 0.0000 0.0000 0.0000 24.9461 0.0000 0.0000
# 5 0.0000 0.0000 0.0000 0.0000 31.8011 0.0000
# 6 0.0000 0.0000 0.0000 0.0000 0.0000 30.4717
#
#
#
# Elastic Compliance Matrix: (Units=1/GPa)
#
#
# Indices 1 2 3 4 5 6 
#
# 1 0.008754 -0.004203 -0.001477 0.000000 0.000000 0.000000
# 2 -0.004203 0.014471 -0.002087 0.000000 0.000000 0.000000
# 3 -0.001477 -0.002087 0.014806 0.000000 0.000000 0.000000
# 4 0.000000 0.000000 0.000000 0.040086 0.000000 0.000000
# 5 0.000000 0.000000 0.000000 0.000000 0.031445 0.000000
# 6 0.000000 0.000000 0.000000 0.000000 0.000000 0.032817
#
#
# Mechanical properties :
#
#
# Convention : Reuss Voigt Hill
#
# Bulk Modulus (GPa) = 44.44950 50.21244 47.33097
# Shear Modulus (GPa) = 30.22717 31.77449 31.00083
#
# Velocity S-wave (km/s) = 3.69585 3.78926 3.74284
# Velocity P-wave (km/s) = 6.18858 6.46800 6.32983
#
# Compressibility (1/GPa) = 0.02249744
#
# Stress axis : x y z
#
# Youngs Moduli (GPa) = 114.22747 69.10546 67.53831
#
# Poissons Ratio (x) = 0.29048 0.09974
# Poissons Ratio (y) = 0.48015 0.14094
# Poissons Ratio (z) = 0.16868 0.14421
#
# Static dielectric constant tensor:
#      x y z
#    x 1.931170 0.000000 0.000000 
#    y 0.000000 1.785460 0.000000 
#    z 0.000000 0.000000 1.828390 
# 
# From -- ./inp_files/10846.got.cif
#   From: 2010.05.17/outbox.cif.g08.bks.cpg/sg37_6_cif.got.tgz:10846.got - 2010.06.03 17:53:42.
