data_PCOD9355932
_publ_section_title
;
Structure prediction by ZEFSAII (Michael W. Deem and Ramdas Pophale) SiO2 
 PCOD9355932
Probable space group: A M M 2
;
_chemical_formula_sum "Si O2"
_cell_formula_units_Z 58
_cell_length_a 7.354272
_cell_length_b 22.788330
_cell_length_c 15.610787
_cell_angle_alpha 90.000000
_cell_angle_beta 90.000000
_cell_angle_gamma 90.000000
_cell_volume 2616.236415
_symmetry_space_group_name_H-M "A M M 2"
_symmetry_group_IT_number 38
_symmetry_cell_setting 'orthorhombic'
loop_
_space_group_symop_operation_xyz
x,y,z
-x,-y,z
-x,y,z
x,-y,z
x,1/2+y,1/2+z
-x,1/2-y,1/2+z
-x,1/2+y,1/2+z
x,1/2-y,1/2+z
loop_
_atom_site_type_symbol
_atom_site_label
_atom_site_fract_x
_atom_site_fract_y
_atom_site_fract_z
Si Si1 0.279782 0.882444 0.041260
Si Si2 0.279791 0.238152 0.950699
Si Si3 0.500000 0.500000 0.774665
Si Si4 0.295779 0.930484 0.866208
Si Si5 0.722024 0.683192 0.098795
Si Si6 0.281788 0.738366 0.760848
Si Si7 0.722646 0.433216 0.181960
Si Si8 0.201851 0.399944 0.736058
O O1 0.500000 0.887040 0.050183
O O2 0.206551 0.901925 0.132078
O O3 0.232888 0.817050 0.010563
O O4 0.216498 0.919039 0.958872
O O5 0.500000 0.238533 0.946219
O O6 0.215538 0.237216 0.852800
O O7 0.220082 0.293537 0.006454
O O8 0.343039 0.447585 0.769909
O O9 0.500000 0.903841 0.869538
O O10 0.213715 0.911796 0.776180
O O11 0.310992 0.000000 0.856231
O O12 0.500000 0.684951 0.099718
O O13 0.782013 0.725549 0.177249
O O14 0.776860 0.616580 0.116290
O O15 0.500000 0.744730 0.760054
O O16 0.243643 0.668745 0.755805
O O17 0.500000 0.434357 0.186031
O O18 0.780758 0.500000 0.165236
O O19 0.000000 0.413044 0.767097
#
# Coordination Sequence:
#
# PCOD9355932 Si02
#       8
#     8   8   2   8   8   8   8   8
#     4  10  17  31  52  83 122 157 196 252 309 370
#     4   9  17  27  51  82 110 157 207 251 314 380
#     4  12  26  48  68  86 124 168 210 268 324 370
#     4   8  14  21  37  64  99 145 191 232 290 361
#     4   9  15  25  46  75 108 156 202 252 310 369
#     4  10  18  35  58  82 121 163 207 268 320 368
#     4   8  13  22  36  65 110 152 197 252 303 358
#     4  12  25  41  65  93 122 165 215 260 320 387
#
# _framework density 22.169250999999999
#
# number of rings (size 3 to 8) (size 9 to 14) (size 15 to 20)
#    0.000    2.483    2.759    1.862    0.966    3.310 
#    0.000    0.690    1.517    0.000    0.000    0.000 
#    0.000    0.552    0.000    0.000    0.000    0.000 
#
# Total GULP energy -161553.174245 kJ/mol
# GULP energy per Si atom -5570.799112 kJ/mol
# Density = 2.211879 g / cm^3
# Si number density = 22.169251 Si / 1000 Ang^3
#
#
#
# Elastic Constant Matrix: (Units=GPa)
#
#
# Indices 1 2 3 4 5 6 
#
# 1 100.3369 7.6591 -1.5148 0.0000 0.0000 0.0000
# 2 7.6591 80.9588 4.9638 0.0000 0.0000 0.0000
# 3 -1.5148 4.9638 53.2426 0.0000 0.0000 0.0000
# 4 0.0000 0.0000 0.0000 34.3807 0.0000 0.0000
# 5 0.0000 0.0000 0.0000 0.0000 28.6954 0.0000
# 6 0.0000 0.0000 0.0000 0.0000 0.0000 -23.9436
#
#
#
# Elastic Compliance Matrix: (Units=1/GPa)
#
#
# Indices 1 2 3 4 5 6 
#
# 1 0.010046 -0.000974 0.000377 0.000000 0.000000 0.000000
# 2 -0.000974 0.012517 -0.001195 0.000000 0.000000 0.000000
# 3 0.000377 -0.001195 0.018904 0.000000 0.000000 0.000000
# 4 0.000000 0.000000 0.000000 0.029086 0.000000 0.000000
# 5 0.000000 0.000000 0.000000 0.000000 0.034849 0.000000
# 6 0.000000 0.000000 0.000000 0.000000 0.000000 -0.041765
#
#
# Mechanical properties :
#
#
# Convention : Reuss Voigt Hill
#
# Bulk Modulus (GPa) = 26.39601 28.52829 27.46215
# Shear Modulus (GPa) = 62.61807 22.72186 42.66996
#
# Velocity S-wave (km/s) = 5.32041 3.20492 4.39194
# Velocity P-wave (km/s) = 7.04804 5.15671 6.17521
#
# Compressibility (1/GPa) = 0.03788451
#
# Stress axis : x y z
#
# Youngs Moduli (GPa) = 99.53796 79.88939 52.89874
#
# Poissons Ratio (x) = 0.07777 -0.01992
# Poissons Ratio (y) = 0.09690 0.06320
# Poissons Ratio (z) = -0.03748 0.09544
#
# Static dielectric constant tensor:
#      x y z
#    x 1.810190 0.000000 0.000000 
#    y 0.000000 1.847140 0.000000 
#    z 0.000000 0.000000 1.805830 
# 
# From -- ./inp_files/12640.got.cif
#   From: 2010.05.17/outbox.cif.g08.bks.cpg/sg38_7_cif.got.tgz:12640.got - 2010.06.03 18:07:57.
