data_PCOD9355957
_publ_section_title
;
Structure prediction by ZEFSAII (Michael W. Deem and Ramdas Pophale) SiO2 
 PCOD9355957
Probable space group: A M M 2
;
_chemical_formula_sum "Si O2"
_cell_formula_units_Z 56
_cell_length_a 9.021127
_cell_length_b 22.628844
_cell_length_c 18.251529
_cell_angle_alpha 90.000000
_cell_angle_beta 90.000000
_cell_angle_gamma 90.000000
_cell_volume 3725.824706
_symmetry_space_group_name_H-M "A M M 2"
_symmetry_group_IT_number 38
_symmetry_cell_setting 'orthorhombic'
loop_
_space_group_symop_operation_xyz
x,y,z
-x,-y,z
-x,y,z
x,-y,z
x,1/2+y,1/2+z
-x,1/2-y,1/2+z
-x,1/2+y,1/2+z
x,1/2-y,1/2+z
loop_
_atom_site_type_symbol
_atom_site_label
_atom_site_fract_x
_atom_site_fract_y
_atom_site_fract_z
Si Si1 0.822909 0.430778 0.698250
Si Si2 0.324387 0.351034 0.821276
Si Si3 0.176583 0.776594 0.618960
Si Si4 0.674103 0.715521 0.267831
Si Si5 0.324735 0.650634 0.580748
Si Si6 0.824890 0.815788 0.464046
Si Si7 0.325063 0.306920 0.426480
O O1 0.786277 0.500000 0.700697
O O2 0.755836 0.396293 0.767571
O O3 0.755711 0.399703 0.626475
O O4 0.000000 0.424086 0.698118
O O5 0.500000 0.360473 0.820458
O O6 0.297767 0.284155 0.790866
O O7 0.262667 0.353474 0.903990
O O8 0.229248 0.799473 0.697507
O O9 0.259477 0.714143 0.605556
O O10 0.212064 0.819522 0.550350
O O11 0.000000 0.766265 0.617957
O O12 0.500000 0.710899 0.249373
O O13 0.702653 0.678034 0.341803
O O14 0.500000 0.649904 0.596844
O O15 0.304794 0.647400 0.492685
O O16 0.778804 0.748400 0.445308
O O17 0.000000 0.824331 0.454297
O O18 0.500000 0.287773 0.429747
#
# Coordination Sequence:
#
# PCOD9355957 Si02
#       7
#     8   8   8   8   8   8   8
#     4  11  23  35  47  64  86 114 149 188 226 264
#     4  10  19  31  46  62  82 113 148 183 222 259
#     4  10  18  26  40  63  90 119 148 177 212 258
#     4   9  16  26  41  62  87 115 145 178 214 256
#     4  10  18  30  46  61  82 114 148 185 223 257
#     4   9  17  27  40  60  85 114 145 177 214 257
#     4   8  16  28  41  59  83 112 147 179 212 259
#
# _framework density 15.03023
#
# number of rings (size 3 to 8) (size 9 to 14) (size 15 to 20)
#    0.000    2.429    1.429    3.000    0.000    5.714 
#    0.000    0.000    0.000    0.000    0.000    0.000 
#    0.000    1.143    0.000    7.429    0.000    5.571 
#
# Total GULP energy -155942.381411 kJ/mol
# GULP energy per Si atom -5569.370765 kJ/mol
# Density = 1.499602 g / cm^3
# Si number density = 15.030230 Si / 1000 Ang^3
#
#
#
# Elastic Constant Matrix: (Units=GPa)
#
#
# Indices 1 2 3 4 5 6 
#
# 1 54.6661 30.6436 57.9195 0.0000 0.0000 0.0000
# 2 30.6436 45.7929 40.8401 0.0000 0.0000 0.0000
# 3 57.9195 40.8401 143.6907 0.0000 0.0000 0.0000
# 4 0.0000 0.0000 0.0000 10.3622 0.0000 0.0000
# 5 0.0000 0.0000 0.0000 0.0000 27.5630 0.0000
# 6 0.0000 0.0000 0.0000 0.0000 0.0000 9.0112
#
#
#
# Elastic Compliance Matrix: (Units=1/GPa)
#
#
# Indices 1 2 3 4 5 6 
#
# 1 0.039314 -0.016309 -0.011211 0.000000 0.000000 0.000000
# 2 -0.016309 0.036018 -0.003663 0.000000 0.000000 0.000000
# 3 -0.011211 -0.003663 0.012520 0.000000 0.000000 0.000000
# 4 0.000000 0.000000 0.000000 0.096505 0.000000 0.000000
# 5 0.000000 0.000000 0.000000 0.000000 0.036280 0.000000
# 6 0.000000 0.000000 0.000000 0.000000 0.000000 0.110974
#
#
# Mechanical properties :
#
#
# Convention : Reuss Voigt Hill
#
# Bulk Modulus (GPa) = 39.23998 55.88401 47.56200
# Shear Modulus (GPa) = 12.42322 17.03705 14.73014
#
# Velocity S-wave (km/s) = 2.87810 3.37043 3.13395
# Velocity P-wave (km/s) = 6.09989 7.23935 6.69391
#
# Compressibility (1/GPa) = 0.02548421
#
# Stress axis : x y z
#
# Youngs Moduli (GPa) = 25.43652 27.76376 79.87440
#
# Poissons Ratio (x) = 0.45280 0.89549
# Poissons Ratio (y) = 0.41485 0.29260
# Poissons Ratio (z) = 0.28518 0.10171
#
# Static dielectric constant tensor:
#      x y z
#    x 1.501890 0.000000 0.000000 
#    y 0.000000 1.454960 0.000000 
#    z 0.000000 0.000000 1.553060 
# 
# From -- ./inp_files/17063.got.cif
#   From: 2010.05.17/outbox.cif.g08.bks.cpg/sg38_9_cif.got.tgz:17063.got - 2010.06.03 18:07:57.
