data_PCOD9355328
_publ_section_title
;
Structure prediction by ZEFSAII (Michael W. Deem and Ramdas Pophale) SiO2 
 PCOD9355328
Probable space group: C C C 2
;
_chemical_formula_sum "Si O2"
_cell_formula_units_Z 60
_cell_length_a 25.931797
_cell_length_b 5.423170
_cell_length_c 18.986406
_cell_angle_alpha 90.000000
_cell_angle_beta 90.000000
_cell_angle_gamma 90.000000
_cell_volume 2670.106568
_symmetry_space_group_name_H-M "C C C 2"
_symmetry_group_IT_number 37
_symmetry_cell_setting 'orthorhombic'
loop_
_space_group_symop_operation_xyz
x,y,z
-x,-y,z
-x,y,1/2+z
x,-y,1/2+z
1/2+x,1/2+y,z
1/2-x,1/2-y,z
1/2-x,1/2+y,1/2+z
1/2+x,1/2-y,1/2+z
loop_
_atom_site_type_symbol
_atom_site_label
_atom_site_fract_x
_atom_site_fract_y
_atom_site_fract_z
Si Si1 0.369530 0.290417 0.578230
Si Si2 0.944029 0.438768 0.532878
Si Si3 0.750000 0.750000 0.892073
Si Si4 0.141984 0.877468 0.454010
Si Si5 0.722666 0.000231 0.116093
Si Si6 0.558885 0.402883 0.671214
Si Si7 0.194548 0.486388 0.775316
Si Si8 0.628219 0.475978 0.797580
O O1 0.343146 0.445859 0.518163
O O2 0.390172 0.446448 0.643281
O O3 0.422185 0.209656 0.543274
O O4 0.336583 0.048550 0.595768
O O5 0.904245 0.292465 0.483463
O O6 0.944366 0.315160 0.611767
O O7 0.000000 0.500000 0.504018
O O8 0.802919 0.758849 0.934650
O O9 0.763053 0.533654 0.836735
O O10 0.122556 0.005689 0.382266
O O11 0.750000 0.750000 0.093596
O O12 0.750000 0.250000 0.091296
O O13 0.722306 0.008902 0.200444
O O14 0.500000 0.500000 0.669093
O O15 0.576457 0.406837 0.753288
O O16 0.163291 0.738189 0.781846
O O17 0.156802 0.241564 0.779670
#
# Coordination Sequence:
#
# PCOD9355328 Si02
#       8
#     8   8   4   8   8   8   8   8
#     4  11  25  47  69 103 148 192 251 311 373 458
#     4  11  24  48  78 104 145 199 255 306 389 452
#     4  10  24  48  72 106 148 206 248 298 386 456
#     4  10  27  45  73 107 153 200 248 315 376 469
#     4  12  26  42  68 111 143 191 248 314 376 438
#     4  11  23  45  76 110 139 189 252 321 380 452
#     4  11  23  44  72  99 150 197 246 304 373 457
#     4  11  25  46  71 109 145 194 250 312 377 441
#
# _framework density 22.471014
#
# number of rings (size 3 to 8) (size 9 to 14) (size 15 to 20)
#    0.000    1.067    3.333    1.600    9.333    1.067 
#    2.400    0.000    0.000    0.000    0.000    0.000 
#    0.000    0.000    0.000    0.000    0.000    0.000 
#
# Total GULP energy -167181.499075 kJ/mol
# GULP energy per Si atom -5572.716636 kJ/mol
# Density = 2.241987 g / cm^3
# Si number density = 22.471014 Si / 1000 Ang^3
#
#
#
# Elastic Constant Matrix: (Units=GPa)
#
#
# Indices 1 2 3 4 5 6 
#
# 1 118.2624 33.8605 59.3802 0.0000 0.0000 0.0000
# 2 33.8605 97.9799 23.2578 0.0000 0.0000 0.0000
# 3 59.3802 23.2578 95.1156 0.0000 0.0000 0.0000
# 4 0.0000 0.0000 0.0000 -16.6907 0.0000 0.0000
# 5 0.0000 0.0000 0.0000 0.0000 90.9631 0.0000
# 6 0.0000 0.0000 0.0000 0.0000 0.0000 38.8907
#
#
#
# Elastic Compliance Matrix: (Units=1/GPa)
#
#
# Indices 1 2 3 4 5 6 
#
# 1 0.012964 -0.002717 -0.007429 0.000000 0.000000 0.000000
# 2 -0.002717 0.011404 -0.001093 0.000000 0.000000 0.000000
# 3 -0.007429 -0.001093 0.015419 0.000000 0.000000 0.000000
# 4 0.000000 0.000000 0.000000 -0.059914 0.000000 0.000000
# 5 0.000000 0.000000 0.000000 0.000000 0.010993 0.000000
# 6 0.000000 0.000000 0.000000 0.000000 0.000000 0.025713
#
#
# Mechanical properties :
#
#
# Convention : Reuss Voigt Hill
#
# Bulk Modulus (GPa) = 57.76923 60.48387 59.12655
# Shear Modulus (GPa) = 111.54236 35.62324 73.58280
#
# Velocity S-wave (km/s) = 7.05309 3.98590 5.72859
# Velocity P-wave (km/s) = 9.59647 6.93960 8.37408
#
# Compressibility (1/GPa) = 0.01731025
#
# Stress axis : x y z
#
# Youngs Moduli (GPa) = 77.13861 87.68572 64.85711
#
# Poissons Ratio (x) = 0.23821 0.48182
# Poissons Ratio (y) = 0.20956 0.07086
# Poissons Ratio (z) = 0.57305 0.09581
#
# Static dielectric constant tensor:
#      x y z
#    x 1.237450 0.000000 0.000000 
#    y 0.000000 1.882800 0.000000 
#    z 0.000000 0.000000 1.948460 
# 
# From -- ./inp_files/17604.got.cif
#   From: 2010.05.17/outbox.cif.g08.bks.cpg/sg37_9_cif.got.tgz:17604.got - 2010.06.03 17:53:42.
