data_PCOD9355042
_publ_section_title
;
Structure prediction by ZEFSAII (Michael W. Deem and Ramdas Pophale) SiO2 
 PCOD9355042
Probable space group: C C C 2
;
_chemical_formula_sum "Si O2"
_cell_formula_units_Z 40
_cell_length_a 23.062770
_cell_length_b 6.456205
_cell_length_c 12.132444
_cell_angle_alpha 90.000000
_cell_angle_beta 90.000000
_cell_angle_gamma 90.000000
_cell_volume 1806.496295
_symmetry_space_group_name_H-M "C C C 2"
_symmetry_group_IT_number 37
_symmetry_cell_setting 'orthorhombic'
loop_
_space_group_symop_operation_xyz
x,y,z
-x,-y,z
-x,y,1/2+z
x,-y,1/2+z
1/2+x,1/2+y,z
1/2-x,1/2-y,z
1/2-x,1/2+y,1/2+z
1/2+x,1/2-y,1/2+z
loop_
_atom_site_type_symbol
_atom_site_label
_atom_site_fract_x
_atom_site_fract_y
_atom_site_fract_z
Si Si1 0.500000 0.000000 0.736420
Si Si2 0.157185 0.074386 0.697043
Si Si3 0.948204 0.142948 0.585385
Si Si4 0.250000 0.250000 0.131232
Si Si5 0.695593 0.126782 0.997680
Si Si6 0.889848 0.639802 0.878697
O O1 0.477343 0.819712 0.657913
O O2 0.553517 0.922040 0.809741
O O3 0.095117 0.981590 0.664409
O O4 0.204592 0.891575 0.698149
O O5 0.173796 0.228679 0.597263
O O6 0.150716 0.209077 0.806823
O O7 0.911269 0.242016 0.487374
O O8 0.000000 0.000000 0.540720
O O9 0.216292 0.412290 0.053373
O O10 0.750000 0.250000 0.948132
O O11 0.645630 0.064301 0.913419
#
# Coordination Sequence:
#
# PCOD9355042 Si02
#       6
#     4   8   8   4   8   8
#     4  12  28  48  72 112 150 190 248 312 374 450
#     4  11  25  48  75 109 149 195 251 312 377 450
#     4  12  27  48  71 107 154 188 246 315 364 448
#     4  10  22  52  72 102 156 186 244 324 368 434
#     4  10  24  51  72 108 150 192 251 318 369 446
#     4  12  26  46  78 110 146 205 246 301 386 444
#
# _framework density 22.142309000000001
#
# number of rings (size 3 to 8) (size 9 to 14) (size 15 to 20)
#    0.000    0.800    4.000    1.800    5.600    0.000 
#    7.200    0.000    0.000    0.000    0.000    0.000 
#    0.000    0.000    0.000    0.000    0.000    0.000 
#
# Total GULP energy -112072.394298 kJ/mol
# GULP energy per Si atom -5603.619715 kJ/mol
# Density = 2.209191 g / cm^3
# Si number density = 22.142309 Si / 1000 Ang^3
#
#
#
# Elastic Constant Matrix: (Units=GPa)
#
#
# Indices 1 2 3 4 5 6 
#
# 1 111.1827 57.4637 41.4101 0.0000 0.0000 0.0000
# 2 57.4637 127.3173 44.9676 0.0000 0.0000 0.0000
# 3 41.4101 44.9676 96.4756 0.0000 0.0000 0.0000
# 4 0.0000 0.0000 0.0000 -2.2180 0.0000 0.0000
# 5 0.0000 0.0000 0.0000 0.0000 56.1668 0.0000
# 6 0.0000 0.0000 0.0000 0.0000 0.0000 66.7430
#
#
#
# Elastic Compliance Matrix: (Units=1/GPa)
#
#
# Indices 1 2 3 4 5 6 
#
# 1 0.012545 -0.004501 -0.003287 0.000000 0.000000 0.000000
# 2 -0.004501 0.011017 -0.003203 0.000000 0.000000 0.000000
# 3 -0.003287 -0.003203 0.013269 0.000000 0.000000 0.000000
# 4 0.000000 0.000000 0.000000 -0.450847 0.000000 0.000000
# 5 0.000000 0.000000 0.000000 0.000000 0.017804 0.000000
# 6 0.000000 0.000000 0.000000 0.000000 0.000000 0.014983
#
#
# Mechanical properties :
#
#
# Convention : Reuss Voigt Hill
#
# Bulk Modulus (GPa) = 67.34352 69.18427 68.26390
# Shear Modulus (GPa) = -14.11242 36.88065 11.38411
#
# Velocity S-wave (km/s) = -2.52732 4.08563 2.26991
# Velocity P-wave (km/s) = 4.68653 7.31912 6.14545
#
# Compressibility (1/GPa) = 0.01484924
#
# Stress axis : x y z
#
# Youngs Moduli (GPa) = 79.71527 90.76644 75.36372
#
# Poissons Ratio (x) = 0.40855 0.24768
# Poissons Ratio (y) = 0.35881 0.24140
# Poissons Ratio (z) = 0.26199 0.29074
#
# Static dielectric constant tensor:
#      x y z
#    x 1.809780 0.000000 0.000000 
#    y 0.000000 1.826960 0.000000 
#    z 0.000000 0.000000 1.791360 
# 
# From -- ./inp_files/5564.got.cif
#   From: 2010.05.17/outbox.cif.g08.bks.cpg/sg37_3_cif.got.tgz:5564.got - 2010.06.03 17:53:42.
