data_PCOD9355960
_publ_section_title
;
Structure prediction by ZEFSAII (Michael W. Deem and Ramdas Pophale) SiO2 
 PCOD9355960
Probable space group: A M M 2
;
_chemical_formula_sum "Si O2"
_cell_formula_units_Z 56
_cell_length_a 7.698505
_cell_length_b 14.285519
_cell_length_c 30.486400
_cell_angle_alpha 90.000000
_cell_angle_beta 90.000000
_cell_angle_gamma 90.000000
_cell_volume 3352.807064
_symmetry_space_group_name_H-M "A M M 2"
_symmetry_group_IT_number 38
_symmetry_cell_setting 'orthorhombic'
loop_
_space_group_symop_operation_xyz
x,y,z
-x,-y,z
-x,y,z
x,-y,z
x,1/2+y,1/2+z
-x,1/2-y,1/2+z
-x,1/2+y,1/2+z
x,1/2-y,1/2+z
loop_
_atom_site_type_symbol
_atom_site_label
_atom_site_fract_x
_atom_site_fract_y
_atom_site_fract_z
Si Si1 0.290348 0.104877 0.221390
Si Si2 0.704994 0.604163 0.177849
Si Si3 0.798415 0.386151 0.450748
Si Si4 0.793916 0.293789 0.267072
Si Si5 0.291027 0.210268 0.134529
Si Si6 0.209034 0.393282 0.545814
Si Si7 0.212916 0.608861 0.355076
O O1 0.500000 0.101992 0.220208
O O2 0.241774 0.185763 0.255635
O O3 0.229774 0.141120 0.173483
O O4 0.227097 0.000000 0.230559
O O5 0.500000 0.597276 0.168421
O O6 0.780412 0.500000 0.174116
O O7 0.721345 0.644133 0.227145
O O8 0.776595 0.686151 0.146524
O O9 0.798166 0.500000 0.450898
O O10 0.722934 0.359630 0.498181
O O11 0.723745 0.359546 0.403316
O O12 0.000000 0.355523 0.450463
O O13 0.728928 0.329098 0.314130
O O14 0.000000 0.308128 0.266479
O O15 0.500000 0.213077 0.138079
O O16 0.248683 0.171534 0.086902
O O17 0.271476 0.500000 0.553953
O O18 0.000000 0.398250 0.541774
O O19 0.261365 0.500000 0.348180
O O20 0.000000 0.610634 0.356588
#
# Coordination Sequence:
#
# PCOD9355960 Si02
#       7
#     8   8   8   8   8   8   8
#     4   9  18  32  45  56  77 112 146 168 192 236
#     4   9  18  32  45  56  77 111 144 168 194 237
#     4   7  11  21  36  54  78 107 134 156 184 232
#     4  10  18  26  41  66  88 104 130 169 208 240
#     4   9  17  28  42  59  77 101 134 166 198 235
#     4   9  16  25  39  60  83 106 132 161 194 234
#     4   8  13  22  37  58  84 110 132 156 191 237
#
# _framework density 16.702423
#
# number of rings (size 3 to 8) (size 9 to 14) (size 15 to 20)
#    0.000    3.286    0.000    3.857    0.000    4.286 
#    0.000    0.000    0.000    1.714    0.000    5.000 
#    0.000    5.714    0.000    0.000    0.000    0.000 
#
# Total GULP energy -155878.230835 kJ/mol
# GULP energy per Si atom -5567.079673 kJ/mol
# Density = 1.666441 g / cm^3
# Si number density = 16.702423 Si / 1000 Ang^3
#
#
#
# Elastic Constant Matrix: (Units=GPa)
#
#
# Indices 1 2 3 4 5 6 
#
# 1 25.2349 2.1689 -1.2311 0.0000 0.0000 0.0000
# 2 2.1689 112.7268 80.9267 0.0000 0.0000 0.0000
# 3 -1.2311 80.9267 170.9143 0.0000 0.0000 0.0000
# 4 0.0000 0.0000 0.0000 25.0587 0.0000 0.0000
# 5 0.0000 0.0000 0.0000 0.0000 33.5601 0.0000
# 6 0.0000 0.0000 0.0000 0.0000 0.0000 11.9836
#
#
#
# Elastic Compliance Matrix: (Units=1/GPa)
#
#
# Indices 1 2 3 4 5 6 
#
# 1 0.039802 -0.001472 0.000984 0.000000 0.000000 0.000000
# 2 -0.001472 0.013494 -0.006400 0.000000 0.000000 0.000000
# 3 0.000984 -0.006400 0.008888 0.000000 0.000000 0.000000
# 4 0.000000 0.000000 0.000000 0.039906 0.000000 0.000000
# 5 0.000000 0.000000 0.000000 0.000000 0.029797 0.000000
# 6 0.000000 0.000000 0.000000 0.000000 0.000000 0.083447
#
#
# Mechanical properties :
#
#
# Convention : Reuss Voigt Hill
#
# Bulk Modulus (GPa) = 20.65777 52.51168 36.58472
# Shear Modulus (GPa) = 20.38759 29.25459 24.82109
#
# Velocity S-wave (km/s) = 3.49755 4.18965 3.85915
# Velocity P-wave (km/s) = 5.35775 7.41027 6.46597
#
# Compressibility (1/GPa) = 0.04840795
#
# Stress axis : x y z
#
# Youngs Moduli (GPa) = 25.12423 74.10846 112.50847
#
# Poissons Ratio (x) = 0.10909 -0.11067
# Poissons Ratio (y) = 0.03698 0.72003
# Poissons Ratio (z) = -0.02471 0.47428
#
# Static dielectric constant tensor:
#      x y z
#    x 1.625250 0.000000 0.000000 
#    y 0.000000 1.559340 0.000000 
#    z 0.000000 0.000000 1.588220 
# 
# From -- ./inp_files/24639.got.cif
#   From: 2010.05.17/outbox.cif.g08.bks.cpg/sg38_13_cif.got.tgz:24639.got - 2010.06.03 18:07:57.
