data_PCOD9355304
_publ_section_title
;
Structure prediction by ZEFSAII (Michael W. Deem and Ramdas Pophale) SiO2 
 PCOD9355304
Probable space group: C C C 2
;
_chemical_formula_sum "Si O2"
_cell_formula_units_Z 56
_cell_length_a 15.854955
_cell_length_b 11.739191
_cell_length_c 14.118229
_cell_angle_alpha 90.000000
_cell_angle_beta 90.000000
_cell_angle_gamma 90.000000
_cell_volume 2627.746126
_symmetry_space_group_name_H-M "C C C 2"
_symmetry_group_IT_number 37
_symmetry_cell_setting 'orthorhombic'
loop_
_space_group_symop_operation_xyz
x,y,z
-x,-y,z
-x,y,1/2+z
x,-y,1/2+z
1/2+x,1/2+y,z
1/2-x,1/2-y,z
1/2-x,1/2+y,1/2+z
1/2+x,1/2-y,1/2+z
loop_
_atom_site_type_symbol
_atom_site_label
_atom_site_fract_x
_atom_site_fract_y
_atom_site_fract_z
Si Si1 0.216030 0.487237 0.008910
Si Si2 0.062975 0.770296 0.584062
Si Si3 0.756458 0.388072 0.719507
Si Si4 0.500000 0.500000 0.004031
Si Si5 0.750000 0.250000 0.492897
Si Si6 0.848802 0.878233 0.400890
Si Si7 0.446437 0.101820 0.249444
Si Si8 0.931127 0.356317 0.950885
O O1 0.240829 0.447017 0.115733
O O2 0.238059 0.374396 0.946593
O O3 0.277124 0.585631 0.974456
O O4 0.122647 0.538864 0.994167
O O5 0.158169 0.755984 0.545275
O O6 0.054047 0.716463 0.687788
O O7 0.996826 0.696935 0.523498
O O8 0.038510 0.900892 0.569220
O O9 0.750000 0.250000 0.712211
O O10 0.683887 0.412060 0.796360
O O11 0.847294 0.426002 0.760171
O O12 0.569584 0.445769 0.935649
O O13 0.868990 0.745399 0.415580
O O14 0.480953 0.117631 0.354512
O O15 0.500000 0.000000 0.203480
#
# Coordination Sequence:
#
# PCOD9355304 Si02
#       8
#     8   8   8   4   4   8   8   8
#     4  12  22  41  73 104 137 186 234 296 352 425
#     4  11  25  46  68 108 142 191 237 297 362 426
#     4  12  22  42  71 104 136 191 237 286 355 441
#     4  10  24  46  72 100 148 194 242 304 358 432
#     4  12  24  38  76  96 142 180 238 284 356 420
#     4  11  23  45  72 105 135 195 241 290 360 441
#     4  12  25  41  71 111 137 182 239 292 365 425
#     4  11  26  44  73 100 150 180 238 295 362 423
#
# _framework density 21.311039000000001
#
# number of rings (size 3 to 8) (size 9 to 14) (size 15 to 20)
#    0.000    0.571    6.429    1.286    2.000    0.000 
#    0.000    9.286    3.143    0.000    0.000    0.000 
#    0.000    0.000    0.000    0.000    0.000    0.000 
#
# Total GULP energy -156208.711454 kJ/mol
# GULP energy per Si atom -5578.882552 kJ/mol
# Density = 2.126253 g / cm^3
# Si number density = 21.311039 Si / 1000 Ang^3
#
#
#
# Elastic Constant Matrix: (Units=GPa)
#
#
# Indices 1 2 3 4 5 6 
#
# 1 102.3597 46.7180 22.3049 0.0000 0.0000 0.0000
# 2 46.7180 136.3425 37.4507 0.0000 0.0000 0.0000
# 3 22.3049 37.4507 99.9029 0.0000 0.0000 0.0000
# 4 0.0000 0.0000 0.0000 22.9458 0.0000 0.0000
# 5 0.0000 0.0000 0.0000 0.0000 35.9145 0.0000
# 6 0.0000 0.0000 0.0000 0.0000 0.0000 52.3265
#
#
#
# Elastic Compliance Matrix: (Units=1/GPa)
#
#
# Indices 1 2 3 4 5 6 
#
# 1 0.011716 -0.003674 -0.001238 0.000000 0.000000 0.000000
# 2 -0.003674 0.009329 -0.002677 0.000000 0.000000 0.000000
# 3 -0.001238 -0.002677 0.011290 0.000000 0.000000 0.000000
# 4 0.000000 0.000000 0.000000 0.043581 0.000000 0.000000
# 5 0.000000 0.000000 0.000000 0.000000 0.027844 0.000000
# 6 0.000000 0.000000 0.000000 0.000000 0.000000 0.019111
#
#
# Mechanical properties :
#
#
# Convention : Reuss Voigt Hill
#
# Bulk Modulus (GPa) = 58.28994 61.28357 59.78675
# Shear Modulus (GPa) = 34.77824 37.71282 36.24553
#
# Velocity S-wave (km/s) = 4.04410 4.21127 4.12853
# Velocity P-wave (km/s) = 7.01554 7.24331 7.13033
#
# Compressibility (1/GPa) = 0.01715562
#
# Stress axis : x y z
#
# Youngs Moduli (GPa) = 85.35054 107.19525 88.57685
#
# Poissons Ratio (x) = 0.39389 0.10970
# Poissons Ratio (y) = 0.31362 0.23709
# Poissons Ratio (z) = 0.10570 0.28693
#
# Static dielectric constant tensor:
#      x y z
#    x 1.813700 0.000000 0.000000 
#    y 0.000000 1.817810 0.000000 
#    z 0.000000 0.000000 1.831930 
# 
# From -- ./inp_files/12182.got.cif
#   From: 2010.05.17/outbox.cif.g08.bks.cpg/sg37_7_cif.got.tgz:12182.got - 2010.06.03 17:53:42.
