data_PCOD9355597
_publ_section_title
;
Structure prediction by ZEFSAII (Michael W. Deem and Ramdas Pophale) SiO2 
 PCOD9355597
Probable space group: C C C 2
;
_chemical_formula_sum "Si O2"
_cell_formula_units_Z 56
_cell_length_a 9.142286
_cell_length_b 12.174443
_cell_length_c 22.659107
_cell_angle_alpha 90.000000
_cell_angle_beta 90.000000
_cell_angle_gamma 90.000000
_cell_volume 2522.009361
_symmetry_space_group_name_H-M "C C C 2"
_symmetry_group_IT_number 37
_symmetry_cell_setting 'orthorhombic'
loop_
_space_group_symop_operation_xyz
x,y,z
-x,-y,z
-x,y,1/2+z
x,-y,1/2+z
1/2+x,1/2+y,z
1/2-x,1/2-y,z
1/2-x,1/2+y,1/2+z
1/2+x,1/2-y,1/2+z
loop_
_atom_site_type_symbol
_atom_site_label
_atom_site_fract_x
_atom_site_fract_y
_atom_site_fract_z
Si Si1 0.356221 0.830749 0.525090
Si Si2 0.096940 0.613017 0.113018
Si Si3 0.155159 0.043771 0.827233
Si Si4 0.655159 0.543771 0.531020
Si Si5 1.000000 0.814340 0.429126
Si Si6 0.643779 0.169251 0.833162
Si Si7 0.903060 0.386983 0.245234
O O1 0.503484 0.830755 0.562296
O O2 0.100918 0.733570 0.466523
O O3 0.268986 0.944416 0.514601
O O4 0.000000 0.000000 0.554280
O O5 0.000000 0.500000 0.117484
O O6 0.256309 0.600672 0.083911
O O7 0.102069 0.658554 0.179126
O O8 0.100508 0.113092 0.884445
O O9 0.243691 0.100672 0.774342
O O10 0.268986 0.944416 0.843652
O O11 0.000000 0.000000 0.803972
O O12 0.750000 0.750000 0.060529
O O13 0.600508 0.613092 0.473808
O O14 0.899082 0.733570 0.391729
O O15 0.750000 0.250000 0.797723
O O16 0.496516 0.169245 0.795957
O O17 0.000000 0.500000 0.240768
#
# Coordination Sequence:
#
# PCOD9355597 Si02
#       7
#     8   8   8   8   8   8   8
#     4  11  25  42  67 101 131 188 225 276 354 411
#     4   9  22  46  70  97 136 179 233 290 342 408
#     4  11  24  43  67  99 137 179 227 284 348 409
#     4  11  24  43  67  99 137 179 227 284 348 409
#     4  12  27  44  69 100 152 179 226 292 333 428
#     4  11  25  42  67 101 131 188 225 276 354 411
#     4   9  22  46  70  97 136 179 233 290 342 408
#
# _framework density 22.204516000000002
#
# number of rings (size 3 to 8) (size 9 to 14) (size 15 to 20)
#    0.000    1.429    2.857    0.429    4.000    1.143 
#    5.143    2.857    0.000    0.000    0.000    0.000 
#    0.000    0.000    0.000    0.000    0.000    0.000 
#
# Total GULP energy -156068.990184 kJ/mol
# GULP energy per Si atom -5573.892507 kJ/mol
# Density = 2.215398 g / cm^3
# Si number density = 22.204516 Si / 1000 Ang^3
#
#
#
# Elastic Constant Matrix: (Units=GPa)
#
#
# Indices 1 2 3 4 5 6 
#
# 1 196.5110 35.6192 94.0179 0.0000 0.0000 0.0000
# 2 35.6192 55.7004 38.2707 0.0000 0.0000 0.0000
# 3 94.0179 38.2707 125.6059 0.0000 0.0000 0.0000
# 4 0.0000 0.0000 0.0000 18.3524 0.0000 0.0000
# 5 0.0000 0.0000 0.0000 0.0000 7.4472 0.0000
# 6 0.0000 0.0000 0.0000 0.0000 0.0000 42.2941
#
#
#
# Elastic Compliance Matrix: (Units=1/GPa)
#
#
# Indices 1 2 3 4 5 6 
#
# 1 0.007998 -0.001266 -0.005601 0.000000 0.000000 0.000000
# 2 -0.001266 0.022907 -0.006032 0.000000 0.000000 0.000000
# 3 -0.005601 -0.006032 0.013991 0.000000 0.000000 0.000000
# 4 0.000000 0.000000 0.000000 0.054489 0.000000 0.000000
# 5 0.000000 0.000000 0.000000 0.000000 0.134279 0.000000
# 6 0.000000 0.000000 0.000000 0.000000 0.000000 0.023644
#
#
# Mechanical properties :
#
#
# Convention : Reuss Voigt Hill
#
# Bulk Modulus (GPa) = 52.35859 79.29255 65.82557
# Shear Modulus (GPa) = 17.27281 27.61270 22.44275
#
# Velocity S-wave (km/s) = 2.79210 3.53024 3.18265
# Velocity P-wave (km/s) = 5.83316 7.23909 6.57382
#
# Compressibility (1/GPa) = 0.01909906
#
# Stress axis : x y z
#
# Youngs Moduli (GPa) = 125.03323 43.65424 71.47247
#
# Poissons Ratio (x) = 0.05528 0.40029
# Poissons Ratio (y) = 0.15833 0.43110
# Poissons Ratio (z) = 0.70027 0.26331
#
# Static dielectric constant tensor:
#      x y z
#    x 1.951440 0.000000 0.000000 
#    y 0.000000 1.987580 0.000000 
#    z 0.000000 0.000000 1.813960 
# 
# From -- ./inp_files/16433.got.cif
#   From: 2010.05.17/outbox.cif.g08.bks.cpg/sg37_9_cif.got.tgz:16433.got - 2010.06.03 17:53:42.
