data_PCOD9355345
_publ_section_title
;
Structure prediction by ZEFSAII (Michael W. Deem and Ramdas Pophale) SiO2 
 PCOD9355345
Probable space group: C C C 2
;
_chemical_formula_sum "Si O2"
_cell_formula_units_Z 40
_cell_length_a 16.579280
_cell_length_b 8.190005
_cell_length_c 11.506923
_cell_angle_alpha 90.000000
_cell_angle_beta 90.000000
_cell_angle_gamma 90.000000
_cell_volume 1562.460475
_symmetry_space_group_name_H-M "C C C 2"
_symmetry_group_IT_number 37
_symmetry_cell_setting 'orthorhombic'
loop_
_space_group_symop_operation_xyz
x,y,z
-x,-y,z
-x,y,1/2+z
x,-y,1/2+z
1/2+x,1/2+y,z
1/2-x,1/2-y,z
1/2-x,1/2+y,1/2+z
1/2+x,1/2-y,1/2+z
loop_
_atom_site_type_symbol
_atom_site_label
_atom_site_fract_x
_atom_site_fract_y
_atom_site_fract_z
Si Si1 0.500000 0.500000 0.481310
Si Si2 0.000000 0.500000 0.762628
Si Si3 0.750000 0.250000 0.142241
Si Si4 0.647587 0.168196 0.360060
Si Si5 0.825417 0.040269 0.937453
Si Si6 0.250000 0.250000 0.253426
Si Si7 0.894827 0.707000 0.090930
O O1 0.578761 0.578912 0.417384
O O2 0.544505 0.353555 0.551501
O O3 0.946006 0.628485 0.833079
O O4 0.941896 0.403357 0.679429
O O5 0.688806 0.163604 0.233370
O O6 0.798798 0.124286 0.058638
O O7 0.673474 0.347652 0.409315
O O8 0.646037 0.091949 0.490766
O O9 0.759531 0.104150 0.845366
O O10 0.176075 0.223640 0.169302
#
# Coordination Sequence:
#
# PCOD9355345 Si02
#       7
#     4   4   4   8   8   4   8
#     4  10  24  50  84 106 164 210 290 336 422 504
#     4  12  28  48  78 116 168 214 272 346 430 494
#     4  11  25  50  82 120 167 221 284 356 424 505
#     4  11  27  48  82 114 171 218 278 346 430 503
#     4  10  26  49  79 123 158 222 284 348 417 518
#     4  11  27  46  80 116 165 201 282 344 430 487
#     4  11  27  49  77 120 159 215 277 350 416 515
#
# _framework density 25.600646999999999
#
# number of rings (size 3 to 8) (size 9 to 14) (size 15 to 20)
#    0.000    1.200    0.000    2.400   16.800    1.600 
#    3.600    0.000    0.000    0.000    0.000    0.000 
#    0.000    0.000    0.000    0.000    0.000    0.000 
#
# Total GULP energy -111360.627706 kJ/mol
# GULP energy per Si atom -5568.031385 kJ/mol
# Density = 2.554238 g / cm^3
# Si number density = 25.600647 Si / 1000 Ang^3
#
#
#
# Elastic Constant Matrix: (Units=GPa)
#
#
# Indices 1 2 3 4 5 6 
#
# 1 43.4957 37.2984 30.0303 0.0000 0.0000 0.0000
# 2 37.2984 78.6041 26.0307 0.0000 0.0000 0.0000
# 3 30.0303 26.0307 168.4480 0.0000 0.0000 0.0000
# 4 0.0000 0.0000 0.0000 39.0709 0.0000 0.0000
# 5 0.0000 0.0000 0.0000 0.0000 68.3277 0.0000
# 6 0.0000 0.0000 0.0000 0.0000 0.0000 45.1144
#
#
#
# Elastic Compliance Matrix: (Units=1/GPa)
#
#
# Indices 1 2 3 4 5 6 
#
# 1 0.041943 -0.018366 -0.004639 0.000000 0.000000 0.000000
# 2 -0.018366 0.021450 -0.000041 0.000000 0.000000 0.000000
# 3 -0.004639 -0.000041 0.006770 0.000000 0.000000 0.000000
# 4 0.000000 0.000000 0.000000 0.025594 0.000000 0.000000
# 5 0.000000 0.000000 0.000000 0.000000 0.014635 0.000000
# 6 0.000000 0.000000 0.000000 0.000000 0.000000 0.022166
#
#
# Mechanical properties :
#
#
# Convention : Reuss Voigt Hill
#
# Bulk Modulus (GPa) = 41.54289 53.02961 47.28625
# Shear Modulus (GPa) = 26.78458 43.64851 35.21655
#
# Velocity S-wave (km/s) = 3.23808 4.13362 3.71295
# Velocity P-wave (km/s) = 5.49934 6.59860 6.07389
#
# Compressibility (1/GPa) = 0.02407151
#
# Stress axis : x y z
#
# Youngs Moduli (GPa) = 23.84181 46.61949 147.71281
#
# Poissons Ratio (x) = 0.85622 0.68529
# Poissons Ratio (y) = 0.43788 0.00599
# Poissons Ratio (z) = 0.11061 0.00189
#
# Static dielectric constant tensor:
#      x y z
#    x 2.082520 0.000000 0.000000 
#    y 0.000000 0.914240 0.000000 
#    z 0.000000 0.000000 1.996670 
# 
# From -- ./inp_files/6184.got.cif
#   From: 2010.05.17/outbox.cif.g08.bks.cpg/sg37_4_cif.got.tgz:6184.got - 2010.06.03 17:53:42.
