data_PCOD9355923
_publ_section_title
;
Structure prediction by ZEFSAII (Michael W. Deem and Ramdas Pophale) SiO2 
 PCOD9355923
Probable space group: A M M 2
;
_chemical_formula_sum "Si O2"
_cell_formula_units_Z 64
_cell_length_a 7.745142
_cell_length_b 21.669558
_cell_length_c 20.159164
_cell_angle_alpha 90.000000
_cell_angle_beta 90.000000
_cell_angle_gamma 90.000000
_cell_volume 3383.389175
_symmetry_space_group_name_H-M "A M M 2"
_symmetry_group_IT_number 38
_symmetry_cell_setting 'orthorhombic'
loop_
_space_group_symop_operation_xyz
x,y,z
-x,-y,z
-x,y,z
x,-y,z
x,1/2+y,1/2+z
-x,1/2-y,1/2+z
-x,1/2+y,1/2+z
x,1/2-y,1/2+z
loop_
_atom_site_type_symbol
_atom_site_label
_atom_site_fract_x
_atom_site_fract_y
_atom_site_fract_z
Si Si1 0.211612 0.431778 0.072050
Si Si2 0.295433 0.263085 0.286782
Si Si3 0.212167 0.810943 0.073526
Si Si4 0.207474 0.262378 0.433883
Si Si5 0.295404 0.378584 0.784930
Si Si6 0.796827 0.432511 0.647316
Si Si7 0.208017 0.120273 0.432111
Si Si8 0.796532 0.311767 0.148787
O O1 0.268438 0.500000 0.092625
O O2 0.272715 0.374943 0.117444
O O3 0.000000 0.431879 0.073346
O O4 0.264087 0.417935 0.996094
O O5 0.500000 0.260096 0.278662
O O6 0.256937 0.285361 0.361060
O O7 0.227145 0.192330 0.281383
O O8 0.224918 0.304029 0.227212
O O9 0.274860 0.873807 0.107412
O O10 0.272107 0.750609 0.114287
O O11 0.000000 0.811472 0.076113
O O12 0.265103 0.801295 0.997299
O O13 0.269864 0.191321 0.439605
O O14 0.000000 0.260023 0.436740
O O15 0.500000 0.376903 0.774749
O O16 0.218543 0.417682 0.725323
O O17 0.261429 0.401934 0.859317
O O18 0.721158 0.500000 0.633029
O O19 0.000000 0.435051 0.631276
O O20 0.000000 0.121339 0.433076
O O21 0.000000 0.312076 0.133346
#
# Coordination Sequence:
#
# PCOD9355923 Si02
#       8
#     8   8   8   8   8   8   8   8
#     4   9  17  29  48  76 103 125 158 203 245 286
#     4  10  20  32  47  73 103 129 162 204 244 284
#     4   9  16  29  51  75  95 120 162 205 240 284
#     4   9  16  29  50  73  95 125 163 201 244 292
#     4  10  20  32  46  68 100 135 166 199 238 282
#     4  10  20  33  50  72  98 129 163 201 243 287
#     4   9  16  28  47  70  97 130 164 197 236 286
#     4  10  17  30  53  75  96 128 163 200 244 287
#
# _framework density 18.915945000000001
#
# number of rings (size 3 to 8) (size 9 to 14) (size 15 to 20)
#    0.000    2.500    2.500    0.750    0.000    1.750 
#    0.000    3.125    0.000    1.875    0.000    3.500 
#    0.000    0.000    0.000    0.000    0.000    0.000 
#
# Total GULP energy -178505.275862 kJ/mol
# GULP energy per Si atom -5578.289871 kJ/mol
# Density = 1.887289 g / cm^3
# Si number density = 18.915945 Si / 1000 Ang^3
#
#
#
# Elastic Constant Matrix: (Units=GPa)
#
#
# Indices 1 2 3 4 5 6 
#
# 1 25.0653 9.0695 -5.7288 0.0000 0.0000 0.0000
# 2 9.0695 142.5659 84.9805 0.0000 0.0000 0.0000
# 3 -5.7288 84.9805 113.9838 0.0000 0.0000 0.0000
# 4 0.0000 0.0000 0.0000 21.5638 0.0000 0.0000
# 5 0.0000 0.0000 0.0000 0.0000 -82.0950 0.0000
# 6 0.0000 0.0000 0.0000 0.0000 0.0000 2.5960
#
#
#
# Elastic Compliance Matrix: (Units=1/GPa)
#
#
# Indices 1 2 3 4 5 6 
#
# 1 0.044384 -0.007475 0.007804 0.000000 0.000000 0.000000
# 2 -0.007475 0.013884 -0.010727 0.000000 0.000000 0.000000
# 3 0.007804 -0.010727 0.017163 0.000000 0.000000 0.000000
# 4 0.000000 0.000000 0.000000 0.046374 0.000000 0.000000
# 5 0.000000 0.000000 0.000000 0.000000 -0.012181 0.000000
# 6 0.000000 0.000000 0.000000 0.000000 0.000000 0.385214
#
#
# Mechanical properties :
#
#
# Convention : Reuss Voigt Hill
#
# Bulk Modulus (GPa) = 18.30344 50.91748 34.61046
# Shear Modulus (GPa) = 9.36601 1.29921 5.33261
#
# Velocity S-wave (km/s) = 2.22758 0.82965 1.68084
# Velocity P-wave (km/s) = 4.03898 5.28147 4.70145
#
# Compressibility (1/GPa) = 0.05463454
#
# Stress axis : x y z
#
# Youngs Moduli (GPa) = 22.53051 72.02603 58.26568
#
# Poissons Ratio (x) = 0.53842 -0.45470
# Poissons Ratio (y) = 0.16842 0.62500
# Poissons Ratio (z) = -0.17583 0.77261
#
# Static dielectric constant tensor:
#      x y z
#    x 1.680700 0.000000 0.000000 
#    y 0.000000 1.668230 0.000000 
#    z 0.000000 0.000000 1.649700 
# 
# From -- ./inp_files/20202.got.cif
#   From: 2010.05.17/outbox.cif.g08.bks.cpg/sg38_11_cif.got.tgz:20202.got - 2010.06.03 18:07:57.
