data_PCOD9355780
_publ_section_title
;
Structure prediction by ZEFSAII (Michael W. Deem and Ramdas Pophale) SiO2 
 PCOD9355780
Probable space group: C C C 2
;
_chemical_formula_sum "Si O2"
_cell_formula_units_Z 32
_cell_length_a 30.000000
_cell_length_b 9.000000
_cell_length_c 12.000000
_cell_angle_alpha 90.000000
_cell_angle_beta 90.000000
_cell_angle_gamma 90.000000
_cell_volume 3240.000000
_symmetry_space_group_name_H-M "C C C 2"
_symmetry_group_IT_number 37
_symmetry_cell_setting 'orthorhombic'
loop_
_space_group_symop_operation_xyz
x,y,z
-x,-y,z
-x,y,1/2+z
x,-y,1/2+z
1/2+x,1/2+y,z
1/2-x,1/2-y,z
1/2-x,1/2+y,1/2+z
1/2+x,1/2-y,1/2+z
loop_
_atom_site_type_symbol
_atom_site_label
_atom_site_fract_x
_atom_site_fract_y
_atom_site_fract_z
Si Si1 0.376969 0.644983 0.565470
Si Si2 0.202084 0.833670 0.394917
Si Si3 0.837058 0.833309 0.649022
Si Si4 0.964162 0.131746 0.407786
Si Si5 0.700171 0.305146 0.911055
Si Si6 0.422640 0.848024 0.213967
Si Si7 0.530948 0.861616 0.479896
Si Si8 0.109371 0.669376 0.794908
O O1 0.337904 0.711898 0.482614
O O2 0.352724 0.502325 0.621893
O O3 0.418859 0.600466 0.482400
O O4 0.392913 0.745796 0.672673
O O5 0.250000 0.750000 0.417225
O O6 0.188079 0.808184 0.266109
O O7 0.202434 0.014781 0.400570
O O8 0.809419 0.777339 0.542215
O O9 0.882991 0.746779 0.661464
O O10 0.948011 0.239062 0.303927
O O11 0.995980 0.228266 0.486832
O O12 0.000000 0.000000 0.372818
O O13 0.750000 0.250000 0.878458
O O14 0.657506 0.227820 0.846102
O O15 0.451307 0.894498 0.104736
O O16 0.399421 0.994106 0.268598
O O17 0.570166 0.812354 0.391083
O O18 0.500000 0.000000 0.438857
#
# Coordination Sequence:
#
# PCOD9355780 Si02
#       8
#     8   8   8   8   8   8   8   8
#     4  11  26  48  74 106 148 191 240 307 371 437
#     4  11  25  47  76 108 147 185 244 305 368 450
#     4  11  23  47  74 105 142 189 238 303 370 436
#     4  12  28  44  73 110 145 195 250 300 368 440
#     4  11  26  47  72 108 145 188 240 300 375 443
#     4  12  27  44  76 104 147 196 246 300 369 438
#     4  12  27  49  70 107 146 194 247 304 362 437
#     4  12  27  48  73 103 151 191 243 308 365 439
#
# _framework density 9.8765429999999999
#
# number of rings (size 3 to 8) (size 9 to 14) (size 15 to 20)
#    0.000    0.500    5.000    1.875    8.750    2.000 
#    0.000    0.000    0.000    0.000    0.000    0.000 
#    0.000    0.000    0.000    0.000    0.000    0.000 
#
# Total GULP energy -178385.603299 kJ/mol
# GULP energy per Si atom -5574.550103 kJ/mol
# Density = 0.985406 g / cm^3
# Si number density = 9.876543 Si / 1000 Ang^3
#
#
#
# Elastic Constant Matrix: (Units=GPa)
#
#
# Indices 1 2 3 4 5 6 
#
# 1 162.0529 37.4761 50.3914 0.0000 0.0000 0.0000
# 2 37.4761 84.3748 19.3762 0.0000 0.0000 0.0000
# 3 50.3914 19.3762 128.2527 0.0000 0.0000 0.0000
# 4 0.0000 0.0000 0.0000 34.0637 0.0000 0.0000
# 5 0.0000 0.0000 0.0000 0.0000 41.7641 0.0000
# 6 0.0000 0.0000 0.0000 0.0000 0.0000 48.3507
#
#
#
# Elastic Compliance Matrix: (Units=1/GPa)
#
#
# Indices 1 2 3 4 5 6 
#
# 1 0.007616 -0.002792 -0.002570 0.000000 0.000000 0.000000
# 2 -0.002792 0.013302 -0.000912 0.000000 0.000000 0.000000
# 3 -0.002570 -0.000912 0.008945 0.000000 0.000000 0.000000
# 4 0.000000 0.000000 0.000000 0.029357 0.000000 0.000000
# 5 0.000000 0.000000 0.000000 0.000000 0.023944 0.000000
# 6 0.000000 0.000000 0.000000 0.000000 0.000000 0.020682
#
#
# Mechanical properties :
#
#
# Convention : Reuss Voigt Hill
#
# Bulk Modulus (GPa) = 57.76380 65.46309 61.61344
# Shear Modulus (GPa) = 40.92768 42.66482 41.79625
#
# Velocity S-wave (km/s) = 4.55682 4.65252 4.60492
# Velocity P-wave (km/s) = 7.54934 7.87870 7.71578
#
# Compressibility (1/GPa) = 0.01731188
#
# Stress axis : x y z
#
# Youngs Moduli (GPa) = 131.30431 75.17838 111.79532
#
# Poissons Ratio (x) = 0.20993 0.28737
# Poissons Ratio (y) = 0.36665 0.10201
# Poissons Ratio (z) = 0.33751 0.06860
#
# Static dielectric constant tensor:
#      x y z
#    x 1.704910 0.000000 0.000000 
#    y 0.000000 1.755710 0.000000 
#    z 0.000000 0.000000 1.721110 
# 
# From -- ./inp_files/9237.got.cif
#   From: 2010.05.17/outbox.ucp.g08.bks.cvg/sg37_5_cif.got.tgz:9237.got - 2010.06.11 10:38:43.
