data_PCOD9355917
_publ_section_title
;
Structure prediction by ZEFSAII (Michael W. Deem and Ramdas Pophale) SiO2 
 PCOD9355917
Probable space group: A M M 2
;
_chemical_formula_sum "Si O2"
_cell_formula_units_Z 64
_cell_length_a 20.101671
_cell_length_b 14.810095
_cell_length_c 10.383530
_cell_angle_alpha 90.000000
_cell_angle_beta 90.000000
_cell_angle_gamma 90.000000
_cell_volume 3091.256389
_symmetry_space_group_name_H-M "A M M 2"
_symmetry_group_IT_number 38
_symmetry_cell_setting 'orthorhombic'
loop_
_space_group_symop_operation_xyz
x,y,z
-x,-y,z
-x,y,z
x,-y,z
x,1/2+y,1/2+z
-x,1/2-y,1/2+z
-x,1/2+y,1/2+z
x,1/2-y,1/2+z
loop_
_atom_site_type_symbol
_atom_site_label
_atom_site_fract_x
_atom_site_fract_y
_atom_site_fract_z
Si Si1 0.286247 0.137081 0.126520
Si Si2 0.426333 0.665559 0.008166
Si Si3 0.794983 0.649883 0.869491
Si Si4 0.219573 0.362054 0.365064
Si Si5 0.287046 0.358930 0.107331
Si Si6 0.573234 0.163570 0.203200
Si Si7 0.924481 0.391218 0.739848
Si Si8 0.925314 0.892056 0.947430
O O1 0.240966 0.108500 0.245778
O O2 0.286947 0.248058 0.118135
O O3 0.362010 0.110422 0.156028
O O4 0.252747 0.103722 0.996107
O O5 0.500000 0.622009 0.016430
O O6 0.360466 0.615020 0.057833
O O7 0.429520 0.751467 0.104824
O O8 0.416376 0.689265 0.855414
O O9 0.774432 0.754142 0.869025
O O10 0.872768 0.643828 0.843510
O O11 0.766674 0.612551 0.001232
O O12 0.261841 0.393744 0.243681
O O13 0.140085 0.377036 0.361966
O O14 0.500000 0.119934 0.196556
O O15 0.920019 0.500000 0.739355
O O16 0.909896 0.358458 0.593489
O O17 0.000000 0.366065 0.769257
O O18 0.000000 0.859450 0.909483
O O19 0.930910 0.000000 0.957768
#
# Coordination Sequence:
#
# PCOD9355917 Si02
#       8
#     8   8   8   8   8   8   8   8
#     4   9  16  27  42  63  91 126 161 195 234 277
#     4   9  16  25  37  57  89 129 164 193 234 287
#     4  10  17  30  48  69  98 125 158 194 239 285
#     4  10  19  30  48  71  97 128 160 196 238 287
#     4   9  18  27  40  66  95 127 156 195 242 279
#     4   9  16  24  36  57  89 129 164 195 237 286
#     4   9  18  33  53  74  95 123 160 201 241 284
#     4   9  18  34  54  73  94 123 161 201 239 283
#
# _framework density 20.703555999999999
#
# number of rings (size 3 to 8) (size 9 to 14) (size 15 to 20)
#    0.000    2.750    2.500    0.750    5.250    0.500 
#    0.000    1.250    0.000    1.500    0.000    0.000 
#    0.000    6.000    0.000    0.000    0.000    0.000 
#
# Total GULP energy -178226.219989 kJ/mol
# GULP energy per Si atom -5569.569375 kJ/mol
# Density = 2.065643 g / cm^3
# Si number density = 20.703556 Si / 1000 Ang^3
#
#
#
# Elastic Constant Matrix: (Units=GPa)
#
#
# Indices 1 2 3 4 5 6 
#
# 1 135.5125 -5.0677 56.1984 0.0000 0.0000 0.0000
# 2 -5.0677 43.7606 11.7639 0.0000 0.0000 0.0000
# 3 56.1984 11.7639 113.4759 0.0000 0.0000 0.0000
# 4 0.0000 0.0000 0.0000 -8.8308 0.0000 0.0000
# 5 0.0000 0.0000 0.0000 0.0000 35.1843 0.0000
# 6 0.0000 0.0000 0.0000 0.0000 0.0000 139.9169
#
#
#
# Elastic Compliance Matrix: (Units=1/GPa)
#
#
# Indices 1 2 3 4 5 6 
#
# 1 0.009534 0.002441 -0.004975 0.000000 0.000000 0.000000
# 2 0.002441 0.024132 -0.003711 0.000000 0.000000 0.000000
# 3 -0.004975 -0.003711 0.011661 0.000000 0.000000 0.000000
# 4 0.000000 0.000000 0.000000 -0.113240 0.000000 0.000000
# 5 0.000000 0.000000 0.000000 0.000000 0.028422 0.000000
# 6 0.000000 0.000000 0.000000 0.000000 0.000000 0.007147
#
#
# Mechanical properties :
#
#
# Convention : Reuss Voigt Hill
#
# Bulk Modulus (GPa) = 30.45229 46.50425 38.47827
# Shear Modulus (GPa) = -561.14364 48.57770 -256.28297
#
# Velocity S-wave (km/s) = -16.48107 4.84916 -11.13803
# Velocity P-wave (km/s) = 18.63939 7.33916 12.11536
#
# Compressibility (1/GPa) = 0.03283826
#
# Stress axis : x y z
#
# Youngs Moduli (GPa) = 104.89086 41.43898 85.75742
#
# Poissons Ratio (x) = -0.10117 0.42661
# Poissons Ratio (y) = -0.25608 0.31823
# Poissons Ratio (z) = 0.52179 0.15377
#
# Static dielectric constant tensor:
#      x y z
#    x 1.779670 0.000000 0.000000 
#    y 0.000000 1.784850 0.000000 
#    z 0.000000 0.000000 1.737610 
# 
# From -- ./inp_files/6566.got.cif
#   From: 2010.05.17/outbox.cif.g08.bks.cpg/sg38_4_cif.got.tgz:6566.got - 2010.06.03 18:07:57.
