data_PCOD9355036
_publ_section_title
;
Structure prediction by ZEFSAII (Michael W. Deem and Ramdas Pophale) SiO2 
 PCOD9355036
Probable space group: C C C 2
;
_chemical_formula_sum "Si O2"
_cell_formula_units_Z 28
_cell_length_a 16.098209
_cell_length_b 7.268241
_cell_length_c 10.121885
_cell_angle_alpha 90.000000
_cell_angle_beta 90.000000
_cell_angle_gamma 90.000000
_cell_volume 1184.317862
_symmetry_space_group_name_H-M "C C C 2"
_symmetry_group_IT_number 37
_symmetry_cell_setting 'orthorhombic'
loop_
_space_group_symop_operation_xyz
x,y,z
-x,-y,z
-x,y,1/2+z
x,-y,1/2+z
1/2+x,1/2+y,z
1/2-x,1/2-y,z
1/2-x,1/2+y,1/2+z
1/2+x,1/2-y,1/2+z
loop_
_atom_site_type_symbol
_atom_site_label
_atom_site_fract_x
_atom_site_fract_y
_atom_site_fract_z
Si Si1 0.159300 0.566291 0.094640
Si Si2 0.764670 0.965913 0.849198
Si Si3 0.500000 0.000000 0.979060
Si Si4 0.074658 0.135086 0.464793
O O1 0.218882 0.503839 0.210337
O O2 0.077926 0.443005 0.070271
O O3 0.210670 0.563523 0.960674
O O4 0.379264 0.726157 0.093902
O O5 0.750000 0.750000 0.874376
O O6 0.857927 0.035147 0.872979
O O7 0.533297 0.178578 0.903435
O O8 0.000000 0.000000 0.498980
#
# Coordination Sequence:
#
# PCOD9355036 Si02
#       4
#     8   8   4   8
#     4  10  25  48  73 112 151 199 260 313 387 460
#     4  12  24  44  76 115 152 202 256 319 391 456
#     4   8  22  46  78 104 152 202 256 306 394 448
#     4  10  22  48  77 109 157 201 260 316 387 457
#
# _framework density 23.642302999999998
#
# number of rings (size 3 to 8) (size 9 to 14) (size 15 to 20)
#    1.714    0.000    0.000    4.286    0.000    3.429 
#    0.000   17.143    0.000    0.000    0.000    0.000 
#    0.000    0.000    0.000    0.000    0.000    0.000 
#
# Total GULP energy -78043.850129 kJ/mol
# GULP energy per Si atom -5574.560723 kJ/mol
# Density = 2.358849 g / cm^3
# Si number density = 23.642303 Si / 1000 Ang^3
#
#
#
# Elastic Constant Matrix: (Units=GPa)
#
#
# Indices 1 2 3 4 5 6 
#
# 1 181.0696 54.1321 61.2295 0.0000 0.0000 0.0000
# 2 54.1321 115.0650 18.6593 0.0000 0.0000 0.0000
# 3 61.2295 18.6593 111.1135 0.0000 0.0000 0.0000
# 4 0.0000 0.0000 0.0000 18.5785 0.0000 0.0000
# 5 0.0000 0.0000 0.0000 0.0000 14.7550 0.0000
# 6 0.0000 0.0000 0.0000 0.0000 0.0000 65.1045
#
#
#
# Elastic Compliance Matrix: (Units=1/GPa)
#
#
# Indices 1 2 3 4 5 6 
#
# 1 0.007683 -0.003010 -0.003729 0.000000 0.000000 0.000000
# 2 -0.003010 0.010113 -0.000040 0.000000 0.000000 0.000000
# 3 -0.003729 -0.000040 0.011061 0.000000 0.000000 0.000000
# 4 0.000000 0.000000 0.000000 0.053826 0.000000 0.000000
# 5 0.000000 0.000000 0.000000 0.000000 0.067774 0.000000
# 6 0.000000 0.000000 0.000000 0.000000 0.000000 0.015360
#
#
# Mechanical properties :
#
#
# Convention : Reuss Voigt Hill
#
# Bulk Modulus (GPa) = 65.35348 75.03220 70.19284
# Shear Modulus (GPa) = 27.10415 37.90276 32.50346
#
# Velocity S-wave (km/s) = 3.38956 4.00831 3.71185
# Velocity P-wave (km/s) = 6.55908 7.29571 6.93718
#
# Compressibility (1/GPa) = 0.01530140
#
# Stress axis : x y z
#
# Youngs Moduli (GPa) = 130.15041 98.88044 90.40713
#
# Poissons Ratio (x) = 0.29763 0.33708
# Poissons Ratio (y) = 0.39176 0.00358
# Poissons Ratio (z) = 0.48527 0.00392
#
# Static dielectric constant tensor:
#      x y z
#    x 1.649790 0.000000 0.000000 
#    y 0.000000 2.007420 0.000000 
#    z 0.000000 0.000000 1.932410 
# 
# From -- ./inp_files/11164.got.cif
#   From: 2010.05.17/outbox.cif.g08.bks.cpg/sg37_6_cif.got.tgz:11164.got - 2010.06.03 17:53:42.
