data_PCOD9355536
_publ_section_title
;
Structure prediction by ZEFSAII (Michael W. Deem and Ramdas Pophale) SiO2 
 PCOD9355536
Probable space group: C C C 2
;
_chemical_formula_sum "Si O2"
_cell_formula_units_Z 64
_cell_length_a 14.865191
_cell_length_b 8.700948
_cell_length_c 22.593157
_cell_angle_alpha 90.000000
_cell_angle_beta 90.000000
_cell_angle_gamma 90.000000
_cell_volume 2922.227256
_symmetry_space_group_name_H-M "C C C 2"
_symmetry_group_IT_number 37
_symmetry_cell_setting 'orthorhombic'
loop_
_space_group_symop_operation_xyz
x,y,z
-x,-y,z
-x,y,1/2+z
x,-y,1/2+z
1/2+x,1/2+y,z
1/2-x,1/2-y,z
1/2-x,1/2+y,1/2+z
1/2+x,1/2-y,1/2+z
loop_
_atom_site_type_symbol
_atom_site_label
_atom_site_fract_x
_atom_site_fract_y
_atom_site_fract_z
Si Si1 0.570821 0.866633 0.190840
Si Si2 0.842193 0.654889 0.317031
Si Si3 0.842147 0.785462 0.081701
Si Si4 0.065262 0.134167 0.747973
Si Si5 0.023161 0.180874 0.405691
Si Si6 0.832728 0.869139 0.631414
Si Si7 0.652026 0.813382 0.859311
Si Si8 0.527585 0.320221 0.034909
O O1 0.623291 0.894767 0.252092
O O2 0.640602 0.815292 0.140877
O O3 0.505257 0.728509 0.208535
O O4 0.500000 0.000000 0.174999
O O5 0.750000 0.750000 0.312830
O O6 0.914171 0.758374 0.352809
O O7 0.836139 0.494504 0.351203
O O8 0.750000 0.750000 0.049320
O O9 0.930479 0.746620 0.044696
O O10 0.828808 0.963373 0.100804
O O11 0.138973 0.091270 0.698766
O O12 0.114653 0.230897 0.798873
O O13 0.000000 0.000000 0.771472
O O14 0.928714 0.271030 0.403101
O O15 0.066754 0.210267 0.470150
O O16 0.000000 0.000000 0.402008
O O17 0.750000 0.750000 0.632537
O O18 0.908055 0.787395 0.590004
O O19 0.750000 0.750000 0.874326
O O20 0.500000 0.500000 0.037363
#
# Coordination Sequence:
#
# PCOD9355536 Si02
#       8
#     8   8   8   8   8   8   8   8
#     4  12  23  40  65  93 134 170 209 262 321 374
#     4  12  26  43  64  95 132 169 214 266 320 384
#     4  11  24  40  64  95 130 164 210 262 317 376
#     4  12  22  40  69  93 129 173 212 256 319 383
#     4  11  23  44  71  92 124 168 215 270 327 380
#     4  11  23  41  64  94 128 168 211 258 314 385
#     4  12  26  42  65  96 131 168 216 264 321 387
#     4   9  21  44  66  90 124 166 211 265 319 375
#
# _framework density 21.901104
#
# number of rings (size 3 to 8) (size 9 to 14) (size 15 to 20)
#    0.000    0.750    5.000    2.625    3.500    3.000 
#    0.000    6.250    0.000    0.000    0.000    0.000 
#    0.000    0.000    0.000    0.000    0.000    0.000 
#
# Total GULP energy -178648.324668 kJ/mol
# GULP energy per Si atom -5582.760146 kJ/mol
# Density = 2.185126 g / cm^3
# Si number density = 21.901104 Si / 1000 Ang^3
#
#
#
# Elastic Constant Matrix: (Units=GPa)
#
#
# Indices 1 2 3 4 5 6 
#
# 1 114.7171 24.8415 4.9991 0.0000 0.0000 0.0000
# 2 24.8415 95.7942 -2.3884 0.0000 0.0000 0.0000
# 3 4.9991 -2.3884 71.3557 0.0000 0.0000 0.0000
# 4 0.0000 0.0000 0.0000 -1.5137 0.0000 0.0000
# 5 0.0000 0.0000 0.0000 0.0000 -1.2831 0.0000
# 6 0.0000 0.0000 0.0000 0.0000 0.0000 41.5775
#
#
#
# Elastic Compliance Matrix: (Units=1/GPa)
#
#
# Indices 1 2 3 4 5 6 
#
# 1 0.009274 -0.002423 -0.000731 0.000000 0.000000 0.000000
# 2 -0.002423 0.011081 0.000541 0.000000 0.000000 0.000000
# 3 -0.000731 0.000541 0.014084 0.000000 0.000000 0.000000
# 4 0.000000 0.000000 0.000000 -0.660642 0.000000 0.000000
# 5 0.000000 0.000000 0.000000 0.000000 -0.779353 0.000000
# 6 0.000000 0.000000 0.000000 0.000000 0.000000 0.024051
#
#
# Mechanical properties :
#
#
# Convention : Reuss Voigt Hill
#
# Bulk Modulus (GPa) = 34.23292 37.41908 35.82600
# Shear Modulus (GPa) = -3.65887 24.71713 10.52913
#
# Velocity S-wave (km/s) = -1.29393 3.36308 2.19500
# Velocity P-wave (km/s) = 3.66501 5.67476 4.77678
#
# Compressibility (1/GPa) = 0.02921165
#
# Stress axis : x y z
#
# Youngs Moduli (GPa) = 107.83242 90.24553 71.00456
#
# Poissons Ratio (x) = 0.21867 0.05189
# Poissons Ratio (y) = 0.26129 -0.03839
# Poissons Ratio (z) = 0.07881 -0.04879
#
# Static dielectric constant tensor:
#      x y z
#    x 1.860330 0.000000 0.000000 
#    y 0.000000 1.940980 0.000000 
#    z 0.000000 0.000000 1.820950 
# 
# From -- ./inp_files/18901.got.cif
#   From: 2010.05.17/outbox.cif.g08.bks.cpg/sg37_10_cif.got.tgz:18901.got - 2010.06.03 17:53:42.
