data_PCOD9355282
_publ_section_title
;
Structure prediction by ZEFSAII (Michael W. Deem and Ramdas Pophale) SiO2 
 PCOD9355282
Probable space group: C C C 2
;
_chemical_formula_sum "Si O2"
_cell_formula_units_Z 40
_cell_length_a 5.039616
_cell_length_b 26.521439
_cell_length_c 12.758488
_cell_angle_alpha 90.000000
_cell_angle_beta 90.000000
_cell_angle_gamma 90.000000
_cell_volume 1705.272309
_symmetry_space_group_name_H-M "C C C 2"
_symmetry_group_IT_number 37
_symmetry_cell_setting 'orthorhombic'
loop_
_space_group_symop_operation_xyz
x,y,z
-x,-y,z
-x,y,1/2+z
x,-y,1/2+z
1/2+x,1/2+y,z
1/2-x,1/2-y,z
1/2-x,1/2+y,1/2+z
1/2+x,1/2-y,1/2+z
loop_
_atom_site_type_symbol
_atom_site_label
_atom_site_fract_x
_atom_site_fract_y
_atom_site_fract_z
Si Si1 0.251297 0.036628 0.380590
Si Si2 0.566298 0.442755 0.651193
Si Si3 0.848104 0.693391 0.157534
Si Si4 0.329906 0.357088 0.754607
Si Si5 0.897106 0.384668 0.479262
O O1 0.223069 0.055317 0.261285
O O2 0.332973 0.085743 0.448255
O O3 0.500000 0.000000 0.390249
O O4 0.000000 0.000000 0.399286
O O5 0.500000 0.500000 0.627667
O O6 0.317378 0.407097 0.681252
O O7 0.732820 0.420038 0.557453
O O8 0.750000 0.750000 0.143455
O O9 0.616521 0.664910 0.222988
O O10 0.114794 0.684437 0.222791
O O11 0.910670 0.666786 0.046015
O O12 0.264796 0.374381 0.872104
#
# Coordination Sequence:
#
# PCOD9355282 Si02
#       5
#     8   8   8   8   8
#     4  11  25  44  67 103 152 196 234 282 348 426
#     4  10  24  45  68 105 151 194 236 287 345 426
#     4  11  27  49  72 102 139 182 240 309 374 431
#     4  11  25  46  71 102 142 186 238 300 360 426
#     4  11  24  44  73 106 140 190 243 294 354 429
#
# _framework density 23.456662000000001
#
# number of rings (size 3 to 8) (size 9 to 14) (size 15 to 20)
#    0.000    1.200    0.000    5.400    0.000   16.800 
#    0.000    1.000    0.000    0.000    0.000    0.000 
#    0.000    0.000    0.000    0.000    0.000    0.000 
#
# Total GULP energy -111972.524602 kJ/mol
# GULP energy per Si atom -5598.626230 kJ/mol
# Density = 2.340327 g / cm^3
# Si number density = 23.456662 Si / 1000 Ang^3
#
#
#
# Elastic Constant Matrix: (Units=GPa)
#
#
# Indices 1 2 3 4 5 6 
#
# 1 139.7532 32.0031 36.5343 0.0000 0.0000 0.0000
# 2 32.0031 162.0114 44.0195 0.0000 0.0000 0.0000
# 3 36.5343 44.0195 181.9570 0.0000 0.0000 0.0000
# 4 0.0000 0.0000 0.0000 35.5211 0.0000 0.0000
# 5 0.0000 0.0000 0.0000 0.0000 13.1412 0.0000
# 6 0.0000 0.0000 0.0000 0.0000 0.0000 45.3865
#
#
#
# Elastic Compliance Matrix: (Units=1/GPa)
#
#
# Indices 1 2 3 4 5 6 
#
# 1 0.007760 -0.001188 -0.001271 0.000000 0.000000 0.000000
# 2 -0.001188 0.006788 -0.001404 0.000000 0.000000 0.000000
# 3 -0.001271 -0.001404 0.006091 0.000000 0.000000 0.000000
# 4 0.000000 0.000000 0.000000 0.028152 0.000000 0.000000
# 5 0.000000 0.000000 0.000000 0.000000 0.076097 0.000000
# 6 0.000000 0.000000 0.000000 0.000000 0.000000 0.022033
#
#
# Mechanical properties :
#
#
# Convention : Reuss Voigt Hill
#
# Bulk Modulus (GPa) = 77.43293 78.75950 78.09622
# Shear Modulus (GPa) = 31.45655 43.55407 37.50531
#
# Velocity S-wave (km/s) = 3.66601 4.31372 4.00299
# Velocity P-wave (km/s) = 7.14158 7.64594 7.39806
#
# Compressibility (1/GPa) = 0.01291440
#
# Stress axis : x y z
#
# Youngs Moduli (GPa) = 128.87246 147.30976 164.18841
#
# Poissons Ratio (x) = 0.17494 0.20864
# Poissons Ratio (y) = 0.15304 0.23049
# Poissons Ratio (z) = 0.16376 0.20680
#
# Static dielectric constant tensor:
#      x y z
#    x 1.922710 0.000000 0.000000 
#    y 0.000000 1.915850 0.000000 
#    z 0.000000 0.000000 1.885800 
# 
# From -- ./inp_files/5530.got.cif
#   From: 2010.05.17/outbox.cif.g08.bks.cpg/sg37_3_cif.got.tgz:5530.got - 2010.06.03 17:53:42.
