data_PCOD9355899
_publ_section_title
;
Structure prediction by ZEFSAII (Michael W. Deem and Ramdas Pophale) SiO2 
 PCOD9355899
Probable space group: A M M 2
;
_chemical_formula_sum "Si O2"
_cell_formula_units_Z 56
_cell_length_a 7.405225
_cell_length_b 19.670277
_cell_length_c 18.534076
_cell_angle_alpha 90.000000
_cell_angle_beta 90.000000
_cell_angle_gamma 90.000000
_cell_volume 2699.725906
_symmetry_space_group_name_H-M "A M M 2"
_symmetry_group_IT_number 38
_symmetry_cell_setting 'orthorhombic'
loop_
_space_group_symop_operation_xyz
x,y,z
-x,-y,z
-x,y,z
x,-y,z
x,1/2+y,1/2+z
-x,1/2-y,1/2+z
-x,1/2+y,1/2+z
x,1/2-y,1/2+z
loop_
_atom_site_type_symbol
_atom_site_label
_atom_site_fract_x
_atom_site_fract_y
_atom_site_fract_z
Si Si1 0.797962 0.646154 0.272930
Si Si2 0.280375 0.573072 0.859123
Si Si3 0.710938 0.279848 0.851900
Si Si4 0.779377 0.576878 0.415519
Si Si5 0.794962 0.300808 0.125284
Si Si6 0.218682 0.788346 0.999537
Si Si7 0.717835 0.574340 0.027947
O O1 0.808634 0.717494 0.315014
O O2 0.718042 0.596728 0.334169
O O3 0.708848 0.667678 0.197502
O O4 0.000000 0.619659 0.256374
O O5 0.500000 0.573775 0.855734
O O6 0.220356 0.500000 0.828882
O O7 0.219929 0.645840 0.830002
O O8 0.232533 0.574423 0.943761
O O9 0.500000 0.275263 0.832645
O O10 0.725116 0.265298 0.937525
O O11 0.725765 0.500000 0.434327
O O12 0.723378 0.637336 0.470254
O O13 0.000000 0.579017 0.413974
O O14 0.799761 0.363664 0.070437
O O15 0.000000 0.280702 0.145836
O O16 0.717274 0.238878 0.077455
O O17 0.000000 0.788092 0.001786
O O18 0.500000 0.580570 0.031224
O O19 0.767046 0.500000 0.057876
#
# Coordination Sequence:
#
# PCOD9355899 Si02
#       7
#     8   8   8   8   8   8   8
#     4   9  19  32  45  64  93 124 151 188 234 278
#     4   8  14  25  42  64  88 114 145 181 222 266
#     4  10  17  28  48  69  87 115 154 191 226 271
#     4   8  14  27  47  66  83 111 153 191 223 269
#     4  10  19  30  45  66  94 127 157 189 233 281
#     4   9  17  29  46  67  90 116 150 193 236 273
#     4   9  17  29  44  64  93 124 150 183 225 265
#
# _framework density 20.742844999999999
#
# number of rings (size 3 to 8) (size 9 to 14) (size 15 to 20)
#    0.000    3.000    1.429    2.143    0.000    1.429 
#    0.000    1.429    0.000    9.429    0.000    2.000 
#    0.000    0.000    0.000    0.000    0.000    0.000 
#
# Total GULP energy -155933.034248 kJ/mol
# GULP energy per Si atom -5569.036937 kJ/mol
# Density = 2.069563 g / cm^3
# Si number density = 20.742845 Si / 1000 Ang^3
#
#
#
# Elastic Constant Matrix: (Units=GPa)
#
#
# Indices 1 2 3 4 5 6 
#
# 1 72.9584 -0.2622 0.5463 0.0000 0.0000 0.0000
# 2 -0.2622 132.9003 5.6723 0.0000 0.0000 0.0000
# 3 0.5463 5.6723 45.4674 0.0000 0.0000 0.0000
# 4 0.0000 0.0000 0.0000 15.0300 0.0000 0.0000
# 5 0.0000 0.0000 0.0000 0.0000 0.8030 0.0000
# 6 0.0000 0.0000 0.0000 0.0000 0.0000 8.2588
#
#
#
# Elastic Compliance Matrix: (Units=1/GPa)
#
#
# Indices 1 2 3 4 5 6 
#
# 1 0.013708 0.000034 -0.000169 0.000000 0.000000 0.000000
# 2 0.000034 0.007565 -0.000944 0.000000 0.000000 0.000000
# 3 -0.000169 -0.000944 0.022114 0.000000 0.000000 0.000000
# 4 0.000000 0.000000 0.000000 0.066534 0.000000 0.000000
# 5 0.000000 0.000000 0.000000 0.000000 1.245333 0.000000
# 6 0.000000 0.000000 0.000000 0.000000 0.000000 0.121082
#
#
# Mechanical properties :
#
#
# Convention : Reuss Voigt Hill
#
# Bulk Modulus (GPa) = 24.25510 29.24878 26.75194
# Shear Modulus (GPa) = 3.35068 21.17635 12.26351
#
# Velocity S-wave (km/s) = 1.27234 3.19862 2.43413
# Velocity P-wave (km/s) = 3.72520 5.26999 4.56344
#
# Compressibility (1/GPa) = 0.04122845
#
# Stress axis : x y z
#
# Youngs Moduli (GPa) = 72.95106 132.19113 45.22109
#
# Poissons Ratio (x) = -0.00453 0.00764
# Poissons Ratio (y) = -0.00250 0.04270
# Poissons Ratio (z) = 0.01233 0.12481
#
# Static dielectric constant tensor:
#      x y z
#    x 1.770740 0.000000 0.000000 
#    y 0.000000 1.760320 0.000000 
#    z 0.000000 0.000000 1.755000 
# 
# From -- ./inp_files/17070.got.cif
#   From: 2010.05.17/outbox.cif.g08.bks.cpg/sg38_9_cif.got.tgz:17070.got - 2010.06.03 18:07:57.
