data_PCOD9355741
_publ_section_title
;
Structure prediction by ZEFSAII (Michael W. Deem and Ramdas Pophale) SiO2 
 PCOD9355741
Probable space group: C C C 2
;
_chemical_formula_sum "Si O2"
_cell_formula_units_Z 40
_cell_length_a 15.441090
_cell_length_b 10.604919
_cell_length_c 8.938739
_cell_angle_alpha 90.000000
_cell_angle_beta 90.000000
_cell_angle_gamma 90.000000
_cell_volume 1463.731997
_symmetry_space_group_name_H-M "C C C 2"
_symmetry_group_IT_number 37
_symmetry_cell_setting 'orthorhombic'
loop_
_space_group_symop_operation_xyz
x,y,z
-x,-y,z
-x,y,1/2+z
x,-y,1/2+z
1/2+x,1/2+y,z
1/2-x,1/2-y,z
1/2-x,1/2+y,1/2+z
1/2+x,1/2-y,1/2+z
loop_
_atom_site_type_symbol
_atom_site_label
_atom_site_fract_x
_atom_site_fract_y
_atom_site_fract_z
Si Si1 0.499091 0.246792 0.887590
Si Si2 0.082933 0.606660 0.633863
Si Si3 0.184730 0.475216 0.855334
Si Si4 0.500000 0.500000 0.578619
Si Si5 0.250000 0.250000 0.441901
Si Si6 0.851226 0.140459 0.204920
O O1 0.566048 0.219835 0.753761
O O2 0.406227 0.266638 0.807467
O O3 0.492535 0.137358 0.012825
O O4 0.503064 0.377075 0.976908
O O5 0.099769 0.493371 0.750376
O O6 0.162064 0.580933 0.518264
O O7 0.261695 0.398539 0.779807
O O8 0.221860 0.619487 0.865076
O O9 0.586874 0.519686 0.675429
O O10 0.171964 0.207973 0.550242
#
# Coordination Sequence:
#
# PCOD9355741 Si02
#       6
#     8   8   8   4   4   8
#     4  12  28  50  86 125 168 221 287 360 436 521
#     4  12  30  54  83 123 166 228 286 360 436 516
#     4  12  29  52  85 120 172 228 287 359 436 529
#     4  12  26  52  84 132 166 224 284 368 432 532
#     4  12  26  50  80 120 168 226 276 352 430 524
#     4  12  26  53  81 126 169 220 287 356 434 521
#
# _framework density 27.327406
#
# number of rings (size 3 to 8) (size 9 to 14) (size 15 to 20)
#    0.000    0.000    4.000    4.200    2.800    2.400 
#    0.000    0.000    0.000    0.000    0.000    0.000 
#    0.000    0.000    0.000    0.000    0.000    0.000 
#
# Total GULP energy -111865.139254 kJ/mol
# GULP energy per Si atom -5593.256963 kJ/mol
# Density = 2.726521 g / cm^3
# Si number density = 27.327406 Si / 1000 Ang^3
#
#
#
# Elastic Constant Matrix: (Units=GPa)
#
#
# Indices 1 2 3 4 5 6 
#
# 1 117.4972 56.1757 50.6210 0.0000 0.0000 0.0000
# 2 56.1757 190.8235 78.1760 0.0000 0.0000 0.0000
# 3 50.6210 78.1760 177.6296 0.0000 0.0000 0.0000
# 4 0.0000 0.0000 0.0000 70.6346 0.0000 0.0000
# 5 0.0000 0.0000 0.0000 0.0000 63.5049 0.0000
# 6 0.0000 0.0000 0.0000 0.0000 0.0000 61.5201
#
#
#
# Elastic Compliance Matrix: (Units=1/GPa)
#
#
# Indices 1 2 3 4 5 6 
#
# 1 0.010447 -0.002264 -0.001981 0.000000 0.000000 0.000000
# 2 -0.002264 0.006884 -0.002384 0.000000 0.000000 0.000000
# 3 -0.001981 -0.002384 0.007244 0.000000 0.000000 0.000000
# 4 0.000000 0.000000 0.000000 0.014157 0.000000 0.000000
# 5 0.000000 0.000000 0.000000 0.000000 0.015747 0.000000
# 6 0.000000 0.000000 0.000000 0.000000 0.000000 0.016255
#
#
# Mechanical properties :
#
#
# Convention : Reuss Voigt Hill
#
# Bulk Modulus (GPa) = 88.37174 95.09952 91.73563
# Shear Modulus (GPa) = 56.97174 59.19710 58.08442
#
# Velocity S-wave (km/s) = 4.57090 4.65931 4.61532
# Velocity P-wave (km/s) = 7.76311 7.98882 7.87677
#
# Compressibility (1/GPa) = 0.01131583
#
# Stress axis : x y z
#
# Youngs Moduli (GPa) = 95.72543 145.26999 138.05369
#
# Poissons Ratio (x) = 0.32887 0.27345
# Poissons Ratio (y) = 0.21671 0.32918
# Poissons Ratio (z) = 0.18961 0.34639
#
# Static dielectric constant tensor:
#      x y z
#    x 2.229670 0.000000 0.000000 
#    y 0.000000 2.147690 0.000000 
#    z 0.000000 0.000000 2.092620 
# 
# From -- ./inp_files/3899.got.cif
#   From: 2010.05.17/outbox.cif.g08.bks.cpg/sg37_2_cif.got.tgz:3899.got - 2010.06.03 17:53:42.
