data_PCOD9355966
_publ_section_title
;
Structure prediction by ZEFSAII (Michael W. Deem and Ramdas Pophale) SiO2 
 PCOD9355966
Probable space group: A M M 2
;
_chemical_formula_sum "Si O2"
_cell_formula_units_Z 56
_cell_length_a 7.449936
_cell_length_b 30.629925
_cell_length_c 14.178745
_cell_angle_alpha 90.000000
_cell_angle_beta 90.000000
_cell_angle_gamma 90.000000
_cell_volume 3235.461730
_symmetry_space_group_name_H-M "A M M 2"
_symmetry_group_IT_number 38
_symmetry_cell_setting 'orthorhombic'
loop_
_space_group_symop_operation_xyz
x,y,z
-x,-y,z
-x,y,z
x,-y,z
x,1/2+y,1/2+z
-x,1/2-y,1/2+z
-x,1/2+y,1/2+z
x,1/2-y,1/2+z
loop_
_atom_site_type_symbol
_atom_site_label
_atom_site_fract_x
_atom_site_fract_y
_atom_site_fract_z
Si Si1 0.280674 0.183372 0.000000
Si Si2 0.281094 0.229073 0.810916
Si Si3 0.719990 0.000000 0.110290
Si Si4 0.795315 0.500000 0.831949
Si Si5 0.716082 0.317706 0.911037
Si Si6 0.211152 0.592986 0.807085
Si Si7 0.292194 0.094625 0.088513
Si Si8 0.718902 0.727275 0.099463
O O1 0.500000 0.182806 0.002160
O O2 0.213716 0.137204 0.038639
O O3 0.228080 0.224091 0.066117
O O4 0.226568 0.196080 0.893880
O O5 0.500000 0.229165 0.810128
O O6 0.225128 0.277669 0.843802
O O7 0.220264 0.218528 0.705577
O O8 0.787972 0.000000 0.217761
O O9 0.780458 0.046132 0.067512
O O10 0.500000 0.000000 0.114270
O O11 0.715715 0.452093 0.852985
O O12 0.000000 0.500000 0.868009
O O13 0.500000 0.316325 0.911666
O O14 0.767075 0.364471 0.870630
O O15 0.776973 0.305689 0.016838
O O16 0.287426 0.600361 0.702132
O O17 0.000000 0.585617 0.792199
O O18 0.500000 0.093178 0.059736
O O19 0.500000 0.726545 0.100098
#
# Coordination Sequence:
#
# PCOD9355966 Si02
#       8
#     8   8   4   4   8   8   8   8
#     4   8  13  20  34  56  76  97 126 156 183 213
#     4   8  13  22  37  57  78  99 127 158 182 211
#     4   8  14  22  34  54  77  98 120 152 189 218
#     4   8  16  28  38  50  71  98 124 148 177 222
#     4   9  16  25  39  58  76  96 125 157 186 216
#     4  10  18  27  39  55  76 100 124 150 184 224
#     4   9  15  24  38  56  78 101 126 154 184 218
#     4   8  13  21  34  54  77  97 121 155 187 214
#
# _framework density 17.308194
#
# number of rings (size 3 to 8) (size 9 to 14) (size 15 to 20)
#    0.000    3.429    0.000    3.000    0.000    2.857 
#    0.000    0.000    0.000    7.714    0.000    1.000 
#    0.000    4.571    0.000    6.571    0.000    1.143 
#
# Total GULP energy -155896.955222 kJ/mol
# GULP energy per Si atom -5567.748401 kJ/mol
# Density = 1.726880 g / cm^3
# Si number density = 17.308194 Si / 1000 Ang^3
#
#
#
# Elastic Constant Matrix: (Units=GPa)
#
#
# Indices 1 2 3 4 5 6 
#
# 1 51.9942 -0.3292 -2.6992 0.0000 0.0000 0.0000
# 2 -0.3292 178.5445 71.2487 0.0000 0.0000 0.0000
# 3 -2.6992 71.2487 102.6240 0.0000 0.0000 0.0000
# 4 0.0000 0.0000 0.0000 27.6348 0.0000 0.0000
# 5 0.0000 0.0000 0.0000 0.0000 -47.9604 0.0000
# 6 0.0000 0.0000 0.0000 0.0000 0.0000 5.9566
#
#
#
# Elastic Compliance Matrix: (Units=1/GPa)
#
#
# Indices 1 2 3 4 5 6 
#
# 1 0.019266 -0.000231 0.000667 0.000000 0.000000 0.000000
# 2 -0.000231 0.007750 -0.005387 0.000000 0.000000 0.000000
# 3 0.000667 -0.005387 0.013502 0.000000 0.000000 0.000000
# 4 0.000000 0.000000 0.000000 0.036186 0.000000 0.000000
# 5 0.000000 0.000000 0.000000 0.000000 -0.020851 0.000000
# 6 0.000000 0.000000 0.000000 0.000000 0.000000 0.167880
#
#
# Mechanical properties :
#
#
# Convention : Reuss Voigt Hill
#
# Bulk Modulus (GPa) = 32.66174 52.17816 42.41995
# Shear Modulus (GPa) = 20.50528 14.78903 17.64716
#
# Velocity S-wave (km/s) = 3.44570 2.92627 3.19656
# Velocity P-wave (km/s) = 5.89425 6.45208 6.17946
#
# Compressibility (1/GPa) = 0.03061686
#
# Stress axis : x y z
#
# Youngs Moduli (GPa) = 51.90473 129.03278 74.06523
#
# Poissons Ratio (x) = 0.02975 -0.04939
# Poissons Ratio (y) = 0.01197 0.39896
# Poissons Ratio (z) = -0.03461 0.69505
#
# Static dielectric constant tensor:
#      x y z
#    x 1.681330 0.000000 0.000000 
#    y 0.000000 1.628580 0.000000 
#    z 0.000000 0.000000 1.558970 
# 
# From -- ./inp_files/13004.got.cif
#   From: 2010.05.17/outbox.cif.g08.bks.cpg/sg38_7_cif.got.tgz:13004.got - 2010.06.03 18:07:57.
