data_PCOD9355468
_publ_section_title
;
Structure prediction by ZEFSAII (Michael W. Deem and Ramdas Pophale) SiO2 
 PCOD9355468
Probable space group: C C C 2
;
_chemical_formula_sum "Si O2"
_cell_formula_units_Z 60
_cell_length_a 9.214964
_cell_length_b 25.376258
_cell_length_c 12.331051
_cell_angle_alpha 90.000000
_cell_angle_beta 90.000000
_cell_angle_gamma 90.000000
_cell_volume 2883.509045
_symmetry_space_group_name_H-M "C C C 2"
_symmetry_group_IT_number 37
_symmetry_cell_setting 'orthorhombic'
loop_
_space_group_symop_operation_xyz
x,y,z
-x,-y,z
-x,y,1/2+z
x,-y,1/2+z
1/2+x,1/2+y,z
1/2-x,1/2-y,z
1/2-x,1/2+y,1/2+z
1/2+x,1/2-y,1/2+z
loop_
_atom_site_type_symbol
_atom_site_label
_atom_site_fract_x
_atom_site_fract_y
_atom_site_fract_z
Si Si1 0.786731 0.353120 0.267890
Si Si2 0.250000 0.250000 0.399293
Si Si3 0.771514 0.809789 0.007662
Si Si4 0.847308 0.044582 0.291078
Si Si5 0.044338 0.942127 0.530022
Si Si6 0.173872 0.925645 0.731877
Si Si7 0.098990 0.165935 0.559197
Si Si8 0.620399 0.170503 0.734299
O O1 0.744490 0.340807 0.393309
O O2 0.775445 0.415884 0.256698
O O3 0.678664 0.329977 0.175634
O O4 0.950445 0.338954 0.242390
O O5 0.178235 0.204821 0.474641
O O6 0.352632 0.218887 0.315826
O O7 0.750000 0.750000 0.972068
O O8 0.663392 0.818907 0.109030
O O9 0.932035 0.816016 0.058071
O O10 0.888794 0.044765 0.415579
O O11 0.997347 0.073208 0.247746
O O12 0.796826 0.985458 0.265851
O O13 0.176749 0.921499 0.602301
O O14 0.920656 0.896558 0.524561
O O15 0.000000 0.000000 0.574803
O O16 0.275540 0.878751 0.772813
#
# Coordination Sequence:
#
# PCOD9355468 Si02
#       8
#     8   4   8   8   8   8   8   8
#     4  12  27  46  72 109 145 187 243 304 369 453
#     4  12  30  46  72 106 140 204 246 300 374 444
#     4  12  27  48  74 100 138 195 243 304 361 432
#     4  11  21  40  70 105 136 182 247 287 366 432
#     4  12  20  40  73 107 135 180 246 305 349 432
#     4  11  21  41  70  99 138 187 234 294 355 432
#     4  12  27  46  75 102 148 185 252 302 366 439
#     4  12  27  48  69 101 155 187 246 302 376 430
#
# _framework density 20.807981000000002
#
# number of rings (size 3 to 8) (size 9 to 14) (size 15 to 20)
#    0.000    0.267    7.333    1.600    6.533    0.533 
#    0.000    0.000    0.000    3.200    0.000    0.000 
#    0.000    0.000    0.000    0.000    0.000    0.000 
#
# Total GULP energy -167109.595547 kJ/mol
# GULP energy per Si atom -5570.319852 kJ/mol
# Density = 2.076062 g / cm^3
# Si number density = 20.807981 Si / 1000 Ang^3
#
#
#
# Elastic Constant Matrix: (Units=GPa)
#
#
# Indices 1 2 3 4 5 6 
#
# 1 88.7024 28.6501 32.5711 0.0000 0.0000 0.0000
# 2 28.6501 125.6209 26.5090 0.0000 0.0000 0.0000
# 3 32.5711 26.5090 130.7200 0.0000 0.0000 0.0000
# 4 0.0000 0.0000 0.0000 31.3828 0.0000 0.0000
# 5 0.0000 0.0000 0.0000 0.0000 10.6578 0.0000
# 6 0.0000 0.0000 0.0000 0.0000 0.0000 23.2004
#
#
#
# Elastic Compliance Matrix: (Units=1/GPa)
#
#
# Indices 1 2 3 4 5 6 
#
# 1 0.013064 -0.002395 -0.002769 0.000000 0.000000 0.000000
# 2 -0.002395 0.008755 -0.001179 0.000000 0.000000 0.000000
# 3 -0.002769 -0.001179 0.008579 0.000000 0.000000 0.000000
# 4 0.000000 0.000000 0.000000 0.031865 0.000000 0.000000
# 5 0.000000 0.000000 0.000000 0.000000 0.093828 0.000000
# 6 0.000000 0.000000 0.000000 0.000000 0.000000 0.043103
#
#
# Mechanical properties :
#
#
# Convention : Reuss Voigt Hill
#
# Bulk Modulus (GPa) = 56.45877 57.83376 57.14627
# Shear Modulus (GPa) = 22.95848 30.20241 26.58044
#
# Velocity S-wave (km/s) = 3.32527 3.81397 3.57797
# Velocity P-wave (km/s) = 6.47575 6.87383 6.67776
#
# Compressibility (1/GPa) = 0.01771204
#
# Stress axis : x y z
#
# Youngs Moduli (GPa) = 76.54516 114.21455 116.56317
#
# Poissons Ratio (x) = 0.27356 0.32282
# Poissons Ratio (y) = 0.18333 0.13740
# Poissons Ratio (z) = 0.21199 0.13463
#
# Static dielectric constant tensor:
#      x y z
#    x 1.729780 0.000000 0.000000 
#    y 0.000000 1.881230 0.000000 
#    z 0.000000 0.000000 1.883250 
# 
# From -- ./inp_files/6555.got.cif
#   From: 2010.05.17/outbox.cif.g08.bks.cpg/sg37_4_cif.got.tgz:6555.got - 2010.06.03 17:53:42.
