data_PCOD9355391
_publ_section_title
;
Structure prediction by ZEFSAII (Michael W. Deem and Ramdas Pophale) SiO2 
 PCOD9355391
Probable space group: C C C 2
;
_chemical_formula_sum "Si O2"
_cell_formula_units_Z 44
_cell_length_a 11.327505
_cell_length_b 21.428119
_cell_length_c 8.434703
_cell_angle_alpha 90.000000
_cell_angle_beta 90.000000
_cell_angle_gamma 90.000000
_cell_volume 2047.331210
_symmetry_space_group_name_H-M "C C C 2"
_symmetry_group_IT_number 37
_symmetry_cell_setting 'orthorhombic'
loop_
_space_group_symop_operation_xyz
x,y,z
-x,-y,z
-x,y,1/2+z
x,-y,1/2+z
1/2+x,1/2+y,z
1/2-x,1/2-y,z
1/2-x,1/2+y,1/2+z
1/2+x,1/2-y,1/2+z
loop_
_atom_site_type_symbol
_atom_site_label
_atom_site_fract_x
_atom_site_fract_y
_atom_site_fract_z
Si Si1 0.162064 0.061418 0.470190
Si Si2 0.907315 0.554848 0.590328
Si Si3 0.067641 0.264575 0.115219
Si Si4 0.000000 0.000000 0.214201
Si Si5 0.146916 0.205421 0.422827
Si Si6 0.062707 0.642897 0.362196
O O1 0.287148 0.030699 0.512324
O O2 0.100557 0.032022 0.318153
O O3 0.181176 0.134521 0.449010
O O4 0.066522 0.050114 0.606958
O O5 0.872559 0.594082 0.747476
O O6 0.000000 0.500000 0.628862
O O7 0.972478 0.601630 0.467475
O O8 0.134433 0.218810 0.234790
O O9 0.006652 0.312221 0.240285
O O10 0.128026 0.310476 0.985107
O O11 0.971168 0.225211 0.016315
O O12 0.250000 0.250000 0.485078
#
# Coordination Sequence:
#
# PCOD9355391 Si02
#       6
#     8   8   8   4   8   8
#     4  11  24  45  65  94 134 173 237 275 332 407
#     4  11  23  37  65  97 133 173 217 278 337 387
#     4   9  19  37  61  91 129 165 214 253 331 397
#     4  10  26  46  66  90 130 192 228 282 328 398
#     4  11  21  40  67  95 128 177 210 280 336 392
#     4   9  19  37  56  96 133 162 206 275 322 403
#
# _framework density 21.491392999999999
#
# number of rings (size 3 to 8) (size 9 to 14) (size 15 to 20)
#    0.000    1.818    0.000    4.909    5.091    0.000 
#    0.000    9.091    0.000    0.000    0.000    0.000 
#    0.000    0.000    0.000    0.000    0.000    0.000 
#
# Total GULP energy -122824.634274 kJ/mol
# GULP energy per Si atom -5582.937922 kJ/mol
# Density = 2.144248 g / cm^3
# Si number density = 21.491393 Si / 1000 Ang^3
#
#
#
# Elastic Constant Matrix: (Units=GPa)
#
#
# Indices 1 2 3 4 5 6 
#
# 1 69.3001 18.2990 14.4722 0.0000 0.0000 0.0000
# 2 18.2990 97.1084 29.3365 0.0000 0.0000 0.0000
# 3 14.4722 29.3365 105.2376 0.0000 0.0000 0.0000
# 4 0.0000 0.0000 0.0000 -36.2573 0.0000 0.0000
# 5 0.0000 0.0000 0.0000 0.0000 36.7247 0.0000
# 6 0.0000 0.0000 0.0000 0.0000 0.0000 25.6959
#
#
#
# Elastic Compliance Matrix: (Units=1/GPa)
#
#
# Indices 1 2 3 4 5 6 
#
# 1 0.015379 -0.002467 -0.001427 0.000000 0.000000 0.000000
# 2 -0.002467 0.011640 -0.002906 0.000000 0.000000 0.000000
# 3 -0.001427 -0.002906 0.010509 0.000000 0.000000 0.000000
# 4 0.000000 0.000000 0.000000 -0.027581 0.000000 0.000000
# 5 0.000000 0.000000 0.000000 0.000000 0.027230 0.000000
# 6 0.000000 0.000000 0.000000 0.000000 0.000000 0.038917
#
#
# Mechanical properties :
#
#
# Convention : Reuss Voigt Hill
#
# Bulk Modulus (GPa) = 41.79076 43.98459 42.88767
# Shear Modulus (GPa) = 51.19264 19.20187 35.19725
#
# Velocity S-wave (km/s) = 4.88588 2.99234 4.05129
# Velocity P-wave (km/s) = 7.16356 5.69643 6.47170
#
# Compressibility (1/GPa) = 0.02392874
#
# Stress axis : x y z
#
# Youngs Moduli (GPa) = 65.02179 85.90740 95.16026
#
# Poissons Ratio (x) = 0.21192 0.13582
# Poissons Ratio (y) = 0.16040 0.27651
# Poissons Ratio (z) = 0.09280 0.24962
#
# Static dielectric constant tensor:
#      x y z
#    x 1.644690 0.000000 0.000000 
#    y 0.000000 1.775470 0.000000 
#    z 0.000000 0.000000 1.805100 
# 
# From -- ./inp_files/2906.got.cif
#   From: 2010.05.17/outbox.cif.g08.bks.cpg/sg37_2_cif.got.tgz:2906.got - 2010.06.03 17:53:42.
