data_PCOD9355964
_publ_section_title
;
Structure prediction by ZEFSAII (Michael W. Deem and Ramdas Pophale) SiO2 
 PCOD9355964
Probable space group: A M M 2
;
_chemical_formula_sum "Si O2"
_cell_formula_units_Z 48
_cell_length_a 14.692023
_cell_length_b 15.081091
_cell_length_c 10.329990
_cell_angle_alpha 90.000000
_cell_angle_beta 90.000000
_cell_angle_gamma 90.000000
_cell_volume 2288.833815
_symmetry_space_group_name_H-M "A M M 2"
_symmetry_group_IT_number 38
_symmetry_cell_setting 'orthorhombic'
loop_
_space_group_symop_operation_xyz
x,y,z
-x,-y,z
-x,y,z
x,-y,z
x,1/2+y,1/2+z
-x,1/2-y,1/2+z
-x,1/2+y,1/2+z
x,1/2-y,1/2+z
loop_
_atom_site_type_symbol
_atom_site_label
_atom_site_fract_x
_atom_site_fract_y
_atom_site_fract_z
Si Si1 0.500000 0.166702 0.317091
Si Si2 0.191730 0.648419 0.674165
Si Si3 0.500000 0.157184 0.000178
Si Si4 0.000000 0.605814 0.778986
Si Si5 0.699342 0.638861 0.428580
Si Si6 0.692828 0.643359 0.912824
Si Si7 0.204304 0.359246 0.167179
Si Si8 0.000000 0.395289 0.074911
O O1 0.500000 0.258360 0.400994
O O2 0.591490 0.120196 0.367304
O O3 0.500000 0.177706 0.158045
O O4 0.234484 0.611575 0.544353
O O5 0.241504 0.611808 0.799740
O O6 0.211707 0.752968 0.671183
O O7 0.086683 0.635350 0.698408
O O8 0.596035 0.111622 0.964049
O O9 0.000000 0.500000 0.787531
O O10 0.000000 0.643021 0.927168
O O11 0.696210 0.747874 0.421645
O O12 0.746365 0.607844 0.296622
O O13 0.735076 0.609704 0.046086
O O14 0.096255 0.375018 0.145492
O O15 0.000000 0.500000 0.060238
#
# Coordination Sequence:
#
# PCOD9355964 Si02
#       8
#     4   8   4   4   8   8   8   4
#     4  10  18  26  44  76 115 150 174 219 269 317
#     4  10  18  35  53  78 109 142 179 220 266 320
#     4  10  18  28  44  76 117 146 174 215 273 323
#     4  11  23  37  57  81 106 141 184 230 278 325
#     4   9  19  29  50  77 110 143 175 220 267 317
#     4   9  17  29  49  74 110 144 178 214 261 318
#     4  10  20  35  54  80 108 145 182 220 270 323
#     4  11  23  39  57  79 106 141 184 230 278 327
#
# _framework density 20.971377
#
# number of rings (size 3 to 8) (size 9 to 14) (size 15 to 20)
#    0.000    2.167    3.333    0.500    7.000    0.667 
#    0.000    1.667    0.000    0.000    0.000    7.000 
#    0.000    0.000    0.000    0.000    0.000    0.000 
#
# Total GULP energy -133766.063405 kJ/mol
# GULP energy per Si atom -5573.585975 kJ/mol
# Density = 2.092365 g / cm^3
# Si number density = 20.971377 Si / 1000 Ang^3
#
#
#
# Elastic Constant Matrix: (Units=GPa)
#
#
# Indices 1 2 3 4 5 6 
#
# 1 227.4682 -7.1303 132.8313 0.0000 0.0000 0.0000
# 2 -7.1303 39.1988 14.6854 0.0000 0.0000 0.0000
# 3 132.8313 14.6854 227.1836 0.0000 0.0000 0.0000
# 4 0.0000 0.0000 0.0000 -8.8821 0.0000 0.0000
# 5 0.0000 0.0000 0.0000 0.0000 52.4498 0.0000
# 6 0.0000 0.0000 0.0000 0.0000 0.0000 -33.9362
#
#
#
# Elastic Compliance Matrix: (Units=1/GPa)
#
#
# Indices 1 2 3 4 5 6 
#
# 1 0.006976 0.002866 -0.004264 0.000000 0.000000 0.000000
# 2 0.002866 0.027322 -0.003442 0.000000 0.000000 0.000000
# 3 -0.004264 -0.003442 0.007117 0.000000 0.000000 0.000000
# 4 0.000000 0.000000 0.000000 -0.112586 0.000000 0.000000
# 5 0.000000 0.000000 0.000000 0.000000 0.019066 0.000000
# 6 0.000000 0.000000 0.000000 0.000000 0.000000 -0.029467
#
#
# Mechanical properties :
#
#
# Convention : Reuss Voigt Hill
#
# Bulk Modulus (GPa) = 31.50997 86.06928 58.78963
# Shear Modulus (GPa) = -81.54770 25.49060 -28.02855
#
# Velocity S-wave (km/s) = -6.24257 3.49018 -3.65980
# Velocity P-wave (km/s) = 6.07468 7.57444 3.19926
#
# Compressibility (1/GPa) = 0.03173598
#
# Stress axis : x y z
#
# Youngs Moduli (GPa) = 143.34548 36.60057 140.50019
#
# Poissons Ratio (x) = -0.10492 0.59912
# Poissons Ratio (y) = -0.41090 0.48362
# Poissons Ratio (z) = 0.61125 0.12598
#
# Static dielectric constant tensor:
#      x y z
#    x 1.725760 0.000000 0.000000 
#    y 0.000000 1.766180 0.000000 
#    z 0.000000 0.000000 1.809420 
# 
# From -- ./inp_files/5524.got.cif
#   From: 2010.05.17/outbox.cif.g08.bks.cpg/sg38_3_cif.got.tgz:5524.got - 2010.06.03 18:07:57.
