data_PCOD9355325
_publ_section_title
;
Structure prediction by ZEFSAII (Michael W. Deem and Ramdas Pophale) SiO2 
 PCOD9355325
Probable space group: C C C 2
;
_chemical_formula_sum "Si O2"
_cell_formula_units_Z 40
_cell_length_a 12.644452
_cell_length_b 15.697524
_cell_length_c 8.047129
_cell_angle_alpha 90.000000
_cell_angle_beta 90.000000
_cell_angle_gamma 90.000000
_cell_volume 1597.247184
_symmetry_space_group_name_H-M "C C C 2"
_symmetry_group_IT_number 37
_symmetry_cell_setting 'orthorhombic'
loop_
_space_group_symop_operation_xyz
x,y,z
-x,-y,z
-x,y,1/2+z
x,-y,1/2+z
1/2+x,1/2+y,z
1/2-x,1/2-y,z
1/2-x,1/2+y,1/2+z
1/2+x,1/2-y,1/2+z
loop_
_atom_site_type_symbol
_atom_site_label
_atom_site_fract_x
_atom_site_fract_y
_atom_site_fract_z
Si Si1 0.571818 0.722634 0.088100
Si Si2 0.627581 0.375094 0.027133
Si Si3 0.250000 0.250000 0.370034
Si Si4 0.119988 0.599016 0.538663
Si Si5 0.000000 0.500000 0.785276
Si Si6 0.349111 0.443853 0.167357
O O1 0.646139 0.744960 0.250300
O O2 0.604209 0.804003 0.979345
O O3 0.605055 0.626441 0.038748
O O4 0.447314 0.701668 0.092303
O O5 0.740448 0.331674 0.987612
O O6 0.604239 0.415888 0.844746
O O7 0.629167 0.457650 0.140868
O O8 0.028355 0.579929 0.671486
O O9 0.226344 0.576460 0.635740
O O10 0.097769 0.530606 0.396307
#
# Coordination Sequence:
#
# PCOD9355325 Si02
#       6
#     8   8   4   8   4   8
#     4  11  23  41  73 104 147 199 248 319 393 463
#     4  11  25  44  79 105 151 200 260 320 400 465
#     4  10  24  48  70 106 158 206 254 328 392 482
#     4  11  22  44  69 101 148 198 249 323 388 461
#     4  10  26  38  70 102 136 196 268 306 380 472
#     4  11  24  46  71 106 152 199 251 330 394 468
#
# _framework density 25.043085999999999
#
# number of rings (size 3 to 8) (size 9 to 14) (size 15 to 20)
#    0.000    1.200    4.000    1.800    5.600    8.000 
#    0.000    0.000    0.000    0.000    0.000    0.000 
#    0.000    0.000    0.000    0.000    0.000    0.000 
#
# Total GULP energy -111393.933606 kJ/mol
# GULP energy per Si atom -5569.696680 kJ/mol
# Density = 2.498609 g / cm^3
# Si number density = 25.043086 Si / 1000 Ang^3
#
#
#
# Elastic Constant Matrix: (Units=GPa)
#
#
# Indices 1 2 3 4 5 6 
#
# 1 87.9713 22.8714 30.5928 0.0000 0.0000 0.0000
# 2 22.8714 144.4586 38.0580 0.0000 0.0000 0.0000
# 3 30.5928 38.0580 58.9843 0.0000 0.0000 0.0000
# 4 0.0000 0.0000 0.0000 -2.8692 0.0000 0.0000
# 5 0.0000 0.0000 0.0000 0.0000 21.6067 0.0000
# 6 0.0000 0.0000 0.0000 0.0000 0.0000 50.8477
#
#
#
# Elastic Compliance Matrix: (Units=1/GPa)
#
#
# Indices 1 2 3 4 5 6 
#
# 1 0.013885 -0.000363 -0.006967 0.000000 0.000000 0.000000
# 2 -0.000363 0.008350 -0.005199 0.000000 0.000000 0.000000
# 3 -0.006967 -0.005199 0.023922 0.000000 0.000000 0.000000
# 4 0.000000 0.000000 0.000000 -0.348533 0.000000 0.000000
# 5 0.000000 0.000000 0.000000 0.000000 0.046282 0.000000
# 6 0.000000 0.000000 0.000000 0.000000 0.000000 0.019667
#
#
# Mechanical properties :
#
#
# Convention : Reuss Voigt Hill
#
# Bulk Modulus (GPa) = 47.39874 52.71764 50.05819
# Shear Modulus (GPa) = -24.46939 27.24320 1.38690
#
# Velocity S-wave (km/s) = -3.12924 3.30184 0.74499
# Velocity P-wave (km/s) = 2.43142 5.96931 4.55766
#
# Compressibility (1/GPa) = 0.02109761
#
# Stress axis : x y z
#
# Youngs Moduli (GPa) = 72.02219 119.76670 41.80252
#
# Poissons Ratio (x) = 0.04344 0.29125
# Poissons Ratio (y) = 0.02612 0.21734
# Poissons Ratio (z) = 0.50181 0.62269
#
# Static dielectric constant tensor:
#      x y z
#    x 2.139720 0.000000 0.000000 
#    y 0.000000 3.116860 0.000000 
#    z 0.000000 0.000000 2.087000 
# 
# From -- ./inp_files/2765.got.cif
#   From: 2010.05.17/outbox.cif.g08.bks.cpg/sg37_2_cif.got.tgz:2765.got - 2010.06.03 17:53:42.
