data_PCOD9355272
_publ_section_title
;
Structure prediction by ZEFSAII (Michael W. Deem and Ramdas Pophale) SiO2 
 PCOD9355272
Probable space group: C C C 2
;
_chemical_formula_sum "Si O2"
_cell_formula_units_Z 48
_cell_length_a 6.051222
_cell_length_b 14.384497
_cell_length_c 24.861148
_cell_angle_alpha 90.000000
_cell_angle_beta 90.000000
_cell_angle_gamma 90.000000
_cell_volume 2164.008414
_symmetry_space_group_name_H-M "C C C 2"
_symmetry_group_IT_number 37
_symmetry_cell_setting 'orthorhombic'
loop_
_space_group_symop_operation_xyz
x,y,z
-x,-y,z
-x,y,1/2+z
x,-y,1/2+z
1/2+x,1/2+y,z
1/2-x,1/2-y,z
1/2-x,1/2+y,1/2+z
1/2+x,1/2-y,1/2+z
loop_
_atom_site_type_symbol
_atom_site_label
_atom_site_fract_x
_atom_site_fract_y
_atom_site_fract_z
Si Si1 0.552584 0.391850 0.564830
Si Si2 0.839019 0.854330 0.949308
Si Si3 0.355864 0.150626 0.154859
Si Si4 0.249029 0.955274 0.757738
Si Si5 0.000000 0.500000 0.425414
Si Si6 0.192421 0.144400 0.363535
Si Si7 0.250000 0.250000 0.630773
O O1 0.500000 0.500000 0.573558
O O2 0.516024 0.367734 0.502339
O O3 0.792021 0.374894 0.593426
O O4 0.407340 0.315270 0.595642
O O5 0.750000 0.750000 0.948210
O O6 0.957878 0.874094 0.892515
O O7 0.653190 0.931461 0.958579
O O8 0.250000 0.250000 0.168071
O O9 0.266214 0.075987 0.196087
O O10 0.611713 0.173679 0.163314
O O11 0.222225 0.871306 0.800385
O O12 0.500000 0.000000 0.768775
O O13 0.000000 0.000000 0.764410
O O14 0.854357 0.569473 0.389987
O O15 0.250000 0.250000 0.378328
#
# Coordination Sequence:
#
# PCOD9355272 Si02
#       7
#     8   8   8   8   4   8   4
#     4  11  25  43  70 107 146 197 252 317 387 462
#     4  12  26  45  75 109 149 199 256 317 396 464
#     4  10  24  45  69 106 146 196 255 315 384 466
#     4  12  28  48  78 113 153 204 258 325 390 470
#     4  12  24  48  68 104 148 192 250 312 386 464
#     4  12  26  48  75 107 146 196 255 320 389 467
#     4  10  24  44  72 102 150 188 256 316 384 468
#
# _framework density 22.181061
#
# number of rings (size 3 to 8) (size 9 to 14) (size 15 to 20)
#    0.000    0.667    2.500    5.000    8.167    4.000 
#    0.000    0.000    0.000    0.000    0.000    0.000 
#    0.000    0.000    0.000    0.000    0.000    0.000 
#
# Total GULP energy -133778.789695 kJ/mol
# GULP energy per Si atom -5574.116237 kJ/mol
# Density = 2.213058 g / cm^3
# Si number density = 22.181061 Si / 1000 Ang^3
#
#
#
# Elastic Constant Matrix: (Units=GPa)
#
#
# Indices 1 2 3 4 5 6 
#
# 1 85.3587 40.4685 3.3381 0.0000 0.0000 0.0000
# 2 40.4685 128.3880 6.3938 0.0000 0.0000 0.0000
# 3 3.3381 6.3938 61.3733 0.0000 0.0000 0.0000
# 4 0.0000 0.0000 0.0000 51.2424 0.0000 0.0000
# 5 0.0000 0.0000 0.0000 0.0000 4.2724 0.0000
# 6 0.0000 0.0000 0.0000 0.0000 0.0000 33.8367
#
#
#
# Elastic Compliance Matrix: (Units=1/GPa)
#
#
# Indices 1 2 3 4 5 6 
#
# 1 0.013779 -0.004328 -0.000299 0.000000 0.000000 0.000000
# 2 -0.004328 0.009189 -0.000722 0.000000 0.000000 0.000000
# 3 -0.000299 -0.000722 0.016385 0.000000 0.000000 0.000000
# 4 0.000000 0.000000 0.000000 0.019515 0.000000 0.000000
# 5 0.000000 0.000000 0.000000 0.000000 0.234059 0.000000
# 6 0.000000 0.000000 0.000000 0.000000 0.000000 0.029554
#
#
# Mechanical properties :
#
#
# Convention : Reuss Voigt Hill
#
# Bulk Modulus (GPa) = 34.89691 41.72453 38.31072
# Shear Modulus (GPa) = 14.58870 32.86494 23.72682
#
# Velocity S-wave (km/s) = 2.56737 3.85342 3.27416
# Velocity P-wave (km/s) = 4.95534 6.21693 5.62164
#
# Compressibility (1/GPa) = 0.02865583
#
# Stress axis : x y z
#
# Youngs Moduli (GPa) = 72.57423 108.82393 61.03075
#
# Poissons Ratio (x) = 0.47103 0.01822
# Poissons Ratio (y) = 0.31413 0.04406
# Poissons Ratio (z) = 0.02166 0.07856
#
# Static dielectric constant tensor:
#      x y z
#    x 2.066560 0.000000 0.000000 
#    y 0.000000 1.714380 0.000000 
#    z 0.000000 0.000000 1.770600 
# 
# From -- ./inp_files/19331.got.cif
#   From: 2010.05.17/outbox.cif.g08.bks.cpg/sg37_10_cif.got.tgz:19331.got - 2010.06.03 17:53:42.
