data_PCOD9355384
_publ_section_title
;
Structure prediction by ZEFSAII (Michael W. Deem and Ramdas Pophale) SiO2 
 PCOD9355384
Probable space group: C C C 2
;
_chemical_formula_sum "Si O2"
_cell_formula_units_Z 28
_cell_length_a 7.676845
_cell_length_b 7.165419
_cell_length_c 23.357747
_cell_angle_alpha 90.000000
_cell_angle_beta 90.000000
_cell_angle_gamma 90.000000
_cell_volume 1284.858533
_symmetry_space_group_name_H-M "C C C 2"
_symmetry_group_IT_number 37
_symmetry_cell_setting 'orthorhombic'
loop_
_space_group_symop_operation_xyz
x,y,z
-x,-y,z
-x,y,1/2+z
x,-y,1/2+z
1/2+x,1/2+y,z
1/2-x,1/2-y,z
1/2-x,1/2+y,1/2+z
1/2+x,1/2-y,1/2+z
loop_
_atom_site_type_symbol
_atom_site_label
_atom_site_fract_x
_atom_site_fract_y
_atom_site_fract_z
Si Si1 0.799989 0.051113 0.097910
Si Si2 0.250000 0.750000 0.984455
Si Si3 0.750000 0.250000 0.675561
Si Si4 0.000000 0.000000 0.254044
Si Si5 0.750000 0.750000 0.832553
Si Si6 0.000000 0.500000 0.910040
O O1 0.750000 0.250000 0.123719
O O2 0.681111 0.901088 0.129549
O O3 0.785452 0.081704 0.029720
O O4 0.000000 0.000000 0.108076
O O5 0.095740 0.663348 0.946561
O O6 0.881740 0.137949 0.715796
O O7 0.878495 0.129381 0.293122
O O8 0.857996 0.605469 0.871413
#
# Coordination Sequence:
#
# PCOD9355384 Si02
#       6
#     8   4   4   4   4   4
#     4  10  26  43  70 109 150 182 235 281 345 459
#     4  10  28  42  76 106 146 188 230 286 370 426
#     4  12  26  48  76 106 152 192 230 294 368 422
#     4  12  28  46  76 100 142 192 242 300 360 410
#     4  12  28  50  70 106 136 184 260 302 342 424
#     4  12  26  46  76  96 144 188 236 304 362 404
#
# _framework density 21.792282
#
# number of rings (size 3 to 8) (size 9 to 14) (size 15 to 20)
#    0.857    0.000    1.429    3.429   10.000    3.429 
#    0.000    0.000    0.000    0.000    0.000    0.000 
#    0.000    0.000    0.000    0.000    0.000    0.000 
#
# Total GULP energy -78133.375332 kJ/mol
# GULP energy per Si atom -5580.955381 kJ/mol
# Density = 2.174268 g / cm^3
# Si number density = 21.792282 Si / 1000 Ang^3
#
#
#
# Elastic Constant Matrix: (Units=GPa)
#
#
# Indices 1 2 3 4 5 6 
#
# 1 113.0653 61.1545 73.8437 0.0000 0.0000 0.0000
# 2 61.1545 149.1767 73.6173 0.0000 0.0000 0.0000
# 3 73.8437 73.6173 156.2488 0.0000 0.0000 0.0000
# 4 0.0000 0.0000 0.0000 32.7291 0.0000 0.0000
# 5 0.0000 0.0000 0.0000 0.0000 108.4496 0.0000
# 6 0.0000 0.0000 0.0000 0.0000 0.0000 64.8306
#
#
#
# Elastic Compliance Matrix: (Units=1/GPa)
#
#
# Indices 1 2 3 4 5 6 
#
# 1 0.013870 -0.003194 -0.005050 0.000000 0.000000 0.000000
# 2 -0.003194 0.009470 -0.002952 0.000000 0.000000 0.000000
# 3 -0.005050 -0.002952 0.010178 0.000000 0.000000 0.000000
# 4 0.000000 0.000000 0.000000 0.030554 0.000000 0.000000
# 5 0.000000 0.000000 0.000000 0.000000 0.009221 0.000000
# 6 0.000000 0.000000 0.000000 0.000000 0.000000 0.015425
#
#
# Mechanical properties :
#
#
# Convention : Reuss Voigt Hill
#
# Bulk Modulus (GPa) = 89.88809 92.85795 91.37302
# Shear Modulus (GPa) = 43.54695 55.19356 49.37025
#
# Velocity S-wave (km/s) = 4.47506 5.03806 4.76488
# Velocity P-wave (km/s) = 8.24856 8.74904 8.50248
#
# Compressibility (1/GPa) = 0.01112494
#
# Stress axis : x y z
#
# Youngs Moduli (GPa) = 72.09628 105.60044 98.25237
#
# Poissons Ratio (x) = 0.33726 0.49621
# Poissons Ratio (y) = 0.23026 0.29007
# Poissons Ratio (z) = 0.36412 0.31176
#
# Static dielectric constant tensor:
#      x y z
#    x 1.791320 0.000000 0.000000 
#    y 0.000000 1.809480 0.000000 
#    z 0.000000 0.000000 1.819200 
# 
# From -- ./inp_files/19589.got.cif
#   From: 2010.05.17/outbox.cif.g08.bks.cpg/sg37_10_cif.got.tgz:19589.got - 2010.06.03 17:53:42.
