data_PCOD9355095
_publ_section_title
;
Structure prediction by ZEFSAII (Michael W. Deem and Ramdas Pophale) SiO2 
 PCOD9355095
Probable space group: C C C 2
;
_chemical_formula_sum "Si O2"
_cell_formula_units_Z 40
_cell_length_a 27.673959
_cell_length_b 4.961908
_cell_length_c 12.158789
_cell_angle_alpha 90.000000
_cell_angle_beta 90.000000
_cell_angle_gamma 90.000000
_cell_volume 1669.591876
_symmetry_space_group_name_H-M "C C C 2"
_symmetry_group_IT_number 37
_symmetry_cell_setting 'orthorhombic'
loop_
_space_group_symop_operation_xyz
x,y,z
-x,-y,z
-x,y,1/2+z
x,-y,1/2+z
1/2+x,1/2+y,z
1/2-x,1/2-y,z
1/2-x,1/2+y,1/2+z
1/2+x,1/2-y,1/2+z
loop_
_atom_site_type_symbol
_atom_site_label
_atom_site_fract_x
_atom_site_fract_y
_atom_site_fract_z
Si Si1 0.056756 0.540495 0.382750
Si Si2 0.193632 0.749379 0.876825
Si Si3 0.120084 0.750000 0.057211
Si Si4 0.806368 0.750621 0.737598
Si Si5 0.056756 0.040495 0.231673
O O1 0.086935 0.455531 0.489006
O O2 0.066406 0.333717 0.281578
O O3 0.000000 0.500000 0.408579
O O4 0.066406 0.833717 0.332844
O O5 0.250000 0.750000 0.909517
O O6 0.185364 0.441206 0.842457
O O7 0.185364 0.941206 0.771966
O O8 0.157465 0.860198 0.967309
O O9 0.157465 0.639802 0.147114
O O10 0.086935 0.955531 0.125417
O O11 0.750000 0.750000 0.704905
O O12 0.000000 0.000000 0.205844
#
# Coordination Sequence:
#
# PCOD9355095 Si02
#       5
#     8   8   8   8   8
#     4  10  24  43  61  88 126 163 206 261 316 372
#     4  10  23  42  63  94 133 167 207 262 320 381
#     4  12  23  40  70  96 122 170 221 260 316 384
#     4  10  23  42  63  94 133 167 207 262 320 381
#     4  10  24  43  61  88 126 163 206 261 316 372
#
# _framework density 23.957951999999999
#
# number of rings (size 3 to 8) (size 9 to 14) (size 15 to 20)
#    0.000    1.600    0.000    3.000    0.000   11.200 
#    0.000    6.000    0.000    0.000    0.000    0.000 
#    0.000    0.000    0.000    0.000    0.000    0.000 
#
# Total GULP energy -111934.162239 kJ/mol
# GULP energy per Si atom -5596.708112 kJ/mol
# Density = 2.390342 g / cm^3
# Si number density = 23.957952 Si / 1000 Ang^3
#
#
#
# Elastic Constant Matrix: (Units=GPa)
#
#
# Indices 1 2 3 4 5 6 
#
# 1 155.1462 27.7645 92.2118 0.0000 0.0000 0.0000
# 2 27.7645 70.9104 3.3972 0.0000 0.0000 0.0000
# 3 92.2118 3.3972 99.1370 0.0000 0.0000 0.0000
# 4 0.0000 0.0000 0.0000 16.2819 0.0000 0.0000
# 5 0.0000 0.0000 0.0000 0.0000 -11.7210 0.0000
# 6 0.0000 0.0000 0.0000 0.0000 0.0000 17.7034
#
#
#
# Elastic Compliance Matrix: (Units=1/GPa)
#
#
# Indices 1 2 3 4 5 6 
#
# 1 0.016441 -0.005714 -0.015096 0.000000 0.000000 0.000000
# 2 -0.005714 0.016111 0.004763 0.000000 0.000000 0.000000
# 3 -0.015096 0.004763 0.023966 0.000000 0.000000 0.000000
# 4 0.000000 0.000000 0.000000 0.061418 0.000000 0.000000
# 5 0.000000 0.000000 0.000000 0.000000 -0.085317 0.000000
# 6 0.000000 0.000000 0.000000 0.000000 0.000000 0.056486
#
#
# Mechanical properties :
#
#
# Convention : Reuss Voigt Hill
#
# Bulk Modulus (GPa) = 40.94596 63.54897 52.24747
# Shear Modulus (GPa) = 38.65750 17.90755 28.28252
#
# Velocity S-wave (km/s) = 4.02127 2.73693 3.43958
# Velocity P-wave (km/s) = 6.22002 6.04736 6.13430
#
# Compressibility (1/GPa) = 0.02442243
#
# Stress axis : x y z
#
# Youngs Moduli (GPa) = 60.82456 62.06784 41.72628
#
# Poissons Ratio (x) = 0.35466 0.62992
# Poissons Ratio (y) = 0.34755 -0.19873
# Poissons Ratio (z) = 0.91823 -0.29561
#
# Static dielectric constant tensor:
#      x y z
#    x 1.940000 0.000000 0.000000 
#    y 0.000000 1.865000 0.000000 
#    z 0.000000 0.000000 1.885750 
# 
# From -- ./inp_files/8984.got.cif
#   From: 2010.05.17/outbox.cif.g08.bks.cpg/sg37_5_cif.got.tgz:8984.got - 2010.06.03 17:53:42.
