data_PCOD9355625
_publ_section_title
;
Structure prediction by ZEFSAII (Michael W. Deem and Ramdas Pophale) SiO2 
 PCOD9355625
Probable space group: C C C 2
;
_chemical_formula_sum "Si O2"
_cell_formula_units_Z 56
_cell_length_a 12.522080
_cell_length_b 18.619949
_cell_length_c 12.432727
_cell_angle_alpha 90.000000
_cell_angle_beta 90.000000
_cell_angle_gamma 90.000000
_cell_volume 2898.820731
_symmetry_space_group_name_H-M "C C C 2"
_symmetry_group_IT_number 37
_symmetry_cell_setting 'orthorhombic'
loop_
_space_group_symop_operation_xyz
x,y,z
-x,-y,z
-x,y,1/2+z
x,-y,1/2+z
1/2+x,1/2+y,z
1/2-x,1/2-y,z
1/2-x,1/2+y,1/2+z
1/2+x,1/2-y,1/2+z
loop_
_atom_site_type_symbol
_atom_site_label
_atom_site_fract_x
_atom_site_fract_y
_atom_site_fract_z
Si Si1 0.687044 0.674124 0.121130
Si Si2 0.223651 0.377982 0.551006
Si Si3 0.154045 0.192504 0.358691
Si Si4 0.750000 0.250000 0.225261
Si Si5 0.678265 0.970901 0.114709
Si Si6 0.481980 0.891937 0.466503
Si Si7 0.581576 0.737302 0.917639
Si Si8 0.000000 0.500000 0.783347
O O1 0.750000 0.750000 0.124231
O O2 0.628680 0.669422 0.236510
O O3 0.757186 0.602410 0.124844
O O4 0.622930 0.682739 0.009443
O O5 0.296834 0.361133 0.447315
O O6 0.238603 0.318531 0.644951
O O7 0.246649 0.459529 0.585725
O O8 0.097289 0.377966 0.519764
O O9 0.250000 0.250000 0.352744
O O10 0.043250 0.223928 0.399906
O O11 0.651095 0.263229 0.308006
O O12 0.607922 0.994193 0.216043
O O13 0.589611 0.950730 0.026328
O O14 0.415244 0.818666 0.461924
O O15 0.498641 0.926525 0.350452
#
# Coordination Sequence:
#
# PCOD9355625 Si02
#       8
#     8   8   8   4   8   8   8   4
#     4  11  25  44  66  99 136 178 229 274 344 414
#     4  12  23  45  65 107 136 176 230 280 358 407
#     4  11  25  41  73  99 133 184 223 289 336 413
#     4  12  26  42  70 102 136 188 228 290 340 414
#     4  12  24  41  68 103 137 180 221 288 345 408
#     4  12  22  39  67 103 144 168 223 288 352 408
#     4  12  25  45  70 100 137 183 235 284 342 415
#     4  12  22  36  64 112 140 176 214 292 370 396
#
# _framework density 19.318199
#
# number of rings (size 3 to 8) (size 9 to 14) (size 15 to 20)
#    0.000    0.286    7.143    1.714    6.000    0.000 
#    0.000    0.714    0.000    0.000    0.000    0.000 
#    0.000    0.000    0.000    0.000    0.000    0.000 
#
# Total GULP energy -156184.306471 kJ/mol
# GULP energy per Si atom -5578.010945 kJ/mol
# Density = 1.927423 g / cm^3
# Si number density = 19.318199 Si / 1000 Ang^3
#
#
#
# Elastic Constant Matrix: (Units=GPa)
#
#
# Indices 1 2 3 4 5 6 
#
# 1 71.0257 33.2561 30.5972 0.0000 0.0000 0.0000
# 2 33.2561 128.8436 43.0732 0.0000 0.0000 0.0000
# 3 30.5972 43.0732 107.3946 0.0000 0.0000 0.0000
# 4 0.0000 0.0000 0.0000 24.5909 0.0000 0.0000
# 5 0.0000 0.0000 0.0000 0.0000 13.4695 0.0000
# 6 0.0000 0.0000 0.0000 0.0000 0.0000 37.1153
#
#
#
# Elastic Compliance Matrix: (Units=1/GPa)
#
#
# Indices 1 2 3 4 5 6 
#
# 1 0.017135 -0.003223 -0.003589 0.000000 0.000000 0.000000
# 2 -0.003223 0.009569 -0.002920 0.000000 0.000000 0.000000
# 3 -0.003589 -0.002920 0.011505 0.000000 0.000000 0.000000
# 4 0.000000 0.000000 0.000000 0.040665 0.000000 0.000000
# 5 0.000000 0.000000 0.000000 0.000000 0.074242 0.000000
# 6 0.000000 0.000000 0.000000 0.000000 0.000000 0.026943
#
#
# Mechanical properties :
#
#
# Convention : Reuss Voigt Hill
#
# Bulk Modulus (GPa) = 53.34618 57.90187 55.62403
# Shear Modulus (GPa) = 24.29884 28.39097 26.34490
#
# Velocity S-wave (km/s) = 3.55043 3.83776 3.69688
# Velocity P-wave (km/s) = 6.66947 7.04809 6.86139
#
# Compressibility (1/GPa) = 0.01874548
#
# Stress axis : x y z
#
# Youngs Moduli (GPa) = 58.36155 104.50089 86.91806
#
# Poissons Ratio (x) = 0.33678 0.31196
# Poissons Ratio (y) = 0.18809 0.25378
# Poissons Ratio (z) = 0.20947 0.30512
#
# Static dielectric constant tensor:
#      x y z
#    x 1.680940 0.000000 0.000000 
#    y 0.000000 1.677460 0.000000 
#    z 0.000000 0.000000 1.757170 
# 
# From -- ./inp_files/7313.got.cif
#   From: 2010.05.17/outbox.cif.g08.bks.cpg/sg37_4_cif.got.tgz:7313.got - 2010.06.03 17:53:42.
