data_PCOD9355014
_publ_section_title
;
Structure prediction by ZEFSAII (Michael W. Deem and Ramdas Pophale) SiO2 
 PCOD9355014
Probable space group: C C C 2
;
_chemical_formula_sum "Si O2"
_cell_formula_units_Z 28
_cell_length_a 20.184501
_cell_length_b 5.094984
_cell_length_c 11.721933
_cell_angle_alpha 90.000000
_cell_angle_beta 90.000000
_cell_angle_gamma 90.000000
_cell_volume 1205.480186
_symmetry_space_group_name_H-M "C C C 2"
_symmetry_group_IT_number 37
_symmetry_cell_setting 'orthorhombic'
loop_
_space_group_symop_operation_xyz
x,y,z
-x,-y,z
-x,y,1/2+z
x,-y,1/2+z
1/2+x,1/2+y,z
1/2-x,1/2-y,z
1/2-x,1/2+y,1/2+z
1/2+x,1/2-y,1/2+z
loop_
_atom_site_type_symbol
_atom_site_label
_atom_site_fract_x
_atom_site_fract_y
_atom_site_fract_z
Si Si1 0.877126 0.486860 0.917780
Si Si2 0.178491 0.156345 0.105636
Si Si3 0.750000 0.750000 0.437108
Si Si4 0.925980 0.003042 0.294884
O O1 0.918169 0.224296 0.891317
O O2 0.911847 0.718412 0.850494
O O3 0.860634 0.606245 0.042379
O O4 0.802370 0.431109 0.872735
O O5 0.250000 0.250000 0.149020
O O6 0.297711 0.562518 0.013033
O O7 0.129794 0.046525 0.200302
O O8 0.000000 0.000000 0.246709
#
# Coordination Sequence:
#
# PCOD9355014 Si02
#       4
#     8   8   4   8
#     4  11  25  47  72 103 145 188 240 299 356 423
#     4  10  25  44  76 106 144 187 246 304 357 418
#     4  10  22  46  72 112 138 192 240 302 366 398
#     4  12  28  47  71 110 146 196 239 289 370 441
#
# _framework density 23.227260999999999
#
# number of rings (size 3 to 8) (size 9 to 14) (size 15 to 20)
#    0.000    1.143    2.857    0.857   10.000    1.143 
#    5.143    0.000    0.000    0.000    0.000    0.000 
#    0.000    0.000    0.000    0.000    0.000    0.000 
#
# Total GULP energy -78226.953416 kJ/mol
# GULP energy per Si atom -5587.639530 kJ/mol
# Density = 2.317439 g / cm^3
# Si number density = 23.227261 Si / 1000 Ang^3
#
#
#
# Elastic Constant Matrix: (Units=GPa)
#
#
# Indices 1 2 3 4 5 6 
#
# 1 160.0346 23.1101 23.4417 0.0000 0.0000 0.0000
# 2 23.1101 115.1450 -8.2647 0.0000 0.0000 0.0000
# 3 23.4417 -8.2647 20.6354 0.0000 0.0000 0.0000
# 4 0.0000 0.0000 0.0000 17.3880 0.0000 0.0000
# 5 0.0000 0.0000 0.0000 0.0000 23.7217 0.0000
# 6 0.0000 0.0000 0.0000 0.0000 0.0000 33.4804
#
#
#
# Elastic Compliance Matrix: (Units=1/GPa)
#
#
# Indices 1 2 3 4 5 6 
#
# 1 0.008067 -0.002344 -0.010103 0.000000 0.000000 0.000000
# 2 -0.002344 0.009623 0.006517 0.000000 0.000000 0.000000
# 3 -0.010103 0.006517 0.062547 0.000000 0.000000 0.000000
# 4 0.000000 0.000000 0.000000 0.057511 0.000000 0.000000
# 5 0.000000 0.000000 0.000000 0.000000 0.042156 0.000000
# 6 0.000000 0.000000 0.000000 0.000000 0.000000 0.029868
#
#
# Mechanical properties :
#
#
# Convention : Reuss Voigt Hill
#
# Bulk Modulus (GPa) = 14.62475 41.37659 28.00067
# Shear Modulus (GPa) = 20.45618 32.08654 26.27136
#
# Velocity S-wave (km/s) = 2.97087 3.72077 3.36677
# Velocity P-wave (km/s) = 4.25184 6.02589 5.21486
#
# Compressibility (1/GPa) = 0.06837726
#
# Stress axis : x y z
#
# Youngs Moduli (GPa) = 123.96094 103.91791 15.98786
#
# Poissons Ratio (x) = 0.24361 0.16153
# Poissons Ratio (y) = 0.29060 -0.10420
# Poissons Ratio (z) = 1.25238 -0.67725
#
# Static dielectric constant tensor:
#      x y z
#    x 1.832040 0.000000 0.000000 
#    y 0.000000 1.925990 0.000000 
#    z 0.000000 0.000000 1.931390 
# 
# From -- ./inp_files/15316.got.cif
#   From: 2010.05.17/outbox.cif.g08.bks.cpg/sg37_8_cif.got.tgz:15316.got - 2010.06.03 17:53:42.
