data_PCOD9355958
_publ_section_title
;
Structure prediction by ZEFSAII (Michael W. Deem and Ramdas Pophale) SiO2 
 PCOD9355958
Probable space group: A M M 2
;
_chemical_formula_sum "Si O2"
_cell_formula_units_Z 56
_cell_length_a 7.626703
_cell_length_b 30.424165
_cell_length_c 14.305302
_cell_angle_alpha 90.000000
_cell_angle_beta 90.000000
_cell_angle_gamma 90.000000
_cell_volume 3319.346063
_symmetry_space_group_name_H-M "A M M 2"
_symmetry_group_IT_number 38
_symmetry_cell_setting 'orthorhombic'
loop_
_space_group_symop_operation_xyz
x,y,z
-x,-y,z
-x,y,z
x,-y,z
x,1/2+y,1/2+z
-x,1/2-y,1/2+z
-x,1/2+y,1/2+z
x,1/2-y,1/2+z
loop_
_atom_site_type_symbol
_atom_site_label
_atom_site_fract_x
_atom_site_fract_y
_atom_site_fract_z
Si Si1 0.789267 0.817655 0.551720
Si Si2 0.788597 0.231738 0.944854
Si Si3 0.703226 0.500000 0.951222
Si Si4 0.708546 0.314174 0.634444
Si Si5 0.710503 0.905345 0.443908
Si Si6 0.715237 0.403496 0.729089
Si Si7 0.794675 0.724698 0.237368
Si Si8 0.703295 0.000000 0.223833
O O1 0.724818 0.779123 0.482452
O O2 0.749352 0.865064 0.511014
O O3 0.720233 0.806094 0.655151
O O4 0.000000 0.813295 0.555457
O O5 0.719056 0.221890 0.841421
O O6 0.000000 0.234394 0.938772
O O7 0.746845 0.197284 0.026699
O O8 0.500000 0.500000 0.982621
O O9 0.780873 0.452775 0.977452
O O10 0.703467 0.500000 0.837505
O O11 0.500000 0.313047 0.647813
O O12 0.771928 0.361827 0.668275
O O13 0.782556 0.274314 0.697149
O O14 0.500000 0.909760 0.437828
O O15 0.770101 0.896706 0.337263
O O16 0.500000 0.404796 0.727867
O O17 0.776993 0.452117 0.697365
O O18 0.000000 0.713551 0.245721
O O19 0.500000 0.000000 0.193474
#
# Coordination Sequence:
#
# PCOD9355958 Si02
#       8
#     8   8   4   8   8   8   8   4
#     4   9  17  27  40  60  80  99 131 169 200 231
#     4   9  18  32  45  56  77 112 145 167 193 237
#     4   7  12  22  37  57  78 103 134 160 183 229
#     4  10  18  26  40  65  89 104 129 170 209 240
#     4   9  15  25  41  59  81 108 134 158 191 236
#     4   8  14  23  37  59  84 108 132 159 192 235
#     4   9  18  32  45  56  77 111 145 169 193 236
#     4   7  10  20  36  53  78 109 134 154 185 233
#
# _framework density 16.870792000000002
#
# number of rings (size 3 to 8) (size 9 to 14) (size 15 to 20)
#    0.000    3.286    0.000    3.857    0.000    2.857 
#    0.000    1.071    0.000    0.000    0.000    5.000 
#    0.000    5.714    0.000    0.000    0.000    0.000 
#
# Total GULP energy -155888.740408 kJ/mol
# GULP energy per Si atom -5567.455015 kJ/mol
# Density = 1.683239 g / cm^3
# Si number density = 16.870792 Si / 1000 Ang^3
#
#
#
# Elastic Constant Matrix: (Units=GPa)
#
#
# Indices 1 2 3 4 5 6 
#
# 1 29.9604 -4.7540 2.3027 0.0000 0.0000 0.0000
# 2 -4.7540 167.6295 82.2036 0.0000 0.0000 0.0000
# 3 2.3027 82.2036 117.6646 0.0000 0.0000 0.0000
# 4 0.0000 0.0000 0.0000 24.5702 0.0000 0.0000
# 5 0.0000 0.0000 0.0000 0.0000 15.0020 0.0000
# 6 0.0000 0.0000 0.0000 0.0000 0.0000 35.6230
#
#
#
# Elastic Compliance Matrix: (Units=1/GPa)
#
#
# Indices 1 2 3 4 5 6 
#
# 1 0.033843 0.001954 -0.002027 0.000000 0.000000 0.000000
# 2 0.001954 0.009187 -0.006457 0.000000 0.000000 0.000000
# 3 -0.002027 -0.006457 0.013049 0.000000 0.000000 0.000000
# 4 0.000000 0.000000 0.000000 0.040700 0.000000 0.000000
# 5 0.000000 0.000000 0.000000 0.000000 0.066658 0.000000
# 6 0.000000 0.000000 0.000000 0.000000 0.000000 0.028072
#
#
# Mechanical properties :
#
#
# Convention : Reuss Voigt Hill
#
# Bulk Modulus (GPa) = 23.24527 52.75101 37.99814
# Shear Modulus (GPa) = 22.84053 30.73918 26.78985
#
# Velocity S-wave (km/s) = 3.68346 4.27316 3.98922
# Velocity P-wave (km/s) = 5.64791 7.46204 6.61744
#
# Compressibility (1/GPa) = 0.04301951
#
# Stress axis : x y z
#
# Youngs Moduli (GPa) = 29.54798 108.84664 76.63290
#
# Poissons Ratio (x) = -0.21269 0.15537
# Poissons Ratio (y) = -0.05774 0.49479
# Poissons Ratio (z) = 0.05991 0.70279
#
# Static dielectric constant tensor:
#      x y z
#    x 1.633060 0.000000 0.000000 
#    y 0.000000 1.596900 0.000000 
#    z 0.000000 0.000000 1.564450 
# 
# From -- ./inp_files/13018.got.cif
#   From: 2010.05.17/outbox.cif.g08.bks.cpg/sg38_7_cif.got.tgz:13018.got - 2010.06.03 18:07:57.
