data_PCOD9355705
_publ_section_title
;
Structure prediction by ZEFSAII (Michael W. Deem and Ramdas Pophale) SiO2 
 PCOD9355705
Probable space group: C C C 2
;
_chemical_formula_sum "Si O2"
_cell_formula_units_Z 40
_cell_length_a 8.730693
_cell_length_b 11.330465
_cell_length_c 17.412070
_cell_angle_alpha 90.000000
_cell_angle_beta 90.000000
_cell_angle_gamma 90.000000
_cell_volume 1722.450918
_symmetry_space_group_name_H-M "C C C 2"
_symmetry_group_IT_number 37
_symmetry_cell_setting 'orthorhombic'
loop_
_space_group_symop_operation_xyz
x,y,z
-x,-y,z
-x,y,1/2+z
x,-y,1/2+z
1/2+x,1/2+y,z
1/2-x,1/2-y,z
1/2-x,1/2+y,1/2+z
1/2+x,1/2-y,1/2+z
loop_
_atom_site_type_symbol
_atom_site_label
_atom_site_fract_x
_atom_site_fract_y
_atom_site_fract_z
Si Si1 0.000000 0.500000 0.348840
Si Si2 0.833930 0.635654 0.966157
Si Si3 0.325113 0.478588 0.586802
Si Si4 0.897017 0.802908 0.450166
Si Si5 0.286370 0.887703 0.241115
Si Si6 0.500000 0.500000 0.332318
O O1 0.862683 0.474128 0.409493
O O2 0.946259 0.401156 0.287734
O O3 0.750000 0.750000 0.930800
O O4 0.998540 0.694799 0.978791
O O5 0.742639 0.589942 0.039753
O O6 0.500000 0.500000 0.614473
O O7 0.345224 0.376253 0.523958
O O8 0.215190 0.440221 0.655426
O O9 0.750000 0.750000 0.408867
O O10 0.974222 0.890750 0.390139
O O11 0.250000 0.750000 0.237495
O O12 0.148738 0.962097 0.282488
#
# Coordination Sequence:
#
# PCOD9355705 Si02
#       6
#     4   8   8   8   8   4
#     4  12  26  46  72 112 138 186 240 298 364 432
#     4  12  24  47  76 104 145 187 249 309 358 432
#     4  12  25  48  72 105 143 196 247 297 361 442
#     4  12  24  42  73 107 137 188 246 302 364 426
#     4  12  28  48  71 104 155 192 235 301 367 432
#     4  12  24  46  74 104 148 190 238 296 358 446
#
# _framework density 23.222721
#
# number of rings (size 3 to 8) (size 9 to 14) (size 15 to 20)
#    0.000    0.000    4.000    7.200    0.000    4.000 
#    0.000    1.000    0.000    0.000    0.000    0.000 
#    0.000    0.000    0.000    0.000    0.000    0.000 
#
# Total GULP energy -111591.658238 kJ/mol
# GULP energy per Si atom -5579.582912 kJ/mol
# Density = 2.316987 g / cm^3
# Si number density = 23.222721 Si / 1000 Ang^3
#
#
#
# Elastic Constant Matrix: (Units=GPa)
#
#
# Indices 1 2 3 4 5 6 
#
# 1 82.0970 42.7729 21.8733 0.0000 0.0000 0.0000
# 2 42.7729 118.6080 32.9477 0.0000 0.0000 0.0000
# 3 21.8733 32.9477 117.6620 0.0000 0.0000 0.0000
# 4 0.0000 0.0000 0.0000 -19.0810 0.0000 0.0000
# 5 0.0000 0.0000 0.0000 0.0000 23.7611 0.0000
# 6 0.0000 0.0000 0.0000 0.0000 0.0000 58.9768
#
#
#
# Elastic Compliance Matrix: (Units=1/GPa)
#
#
# Indices 1 2 3 4 5 6 
#
# 1 0.015209 -0.005096 -0.001400 0.000000 0.000000 0.000000
# 2 -0.005096 0.010850 -0.002091 0.000000 0.000000 0.000000
# 3 -0.001400 -0.002091 0.009345 0.000000 0.000000 0.000000
# 4 0.000000 0.000000 0.000000 -0.052408 0.000000 0.000000
# 5 0.000000 0.000000 0.000000 0.000000 0.042086 0.000000
# 6 0.000000 0.000000 0.000000 0.000000 0.000000 0.016956
#
#
# Mechanical properties :
#
#
# Convention : Reuss Voigt Hill
#
# Bulk Modulus (GPa) = 54.85684 57.06165 55.95925
# Shear Modulus (GPa) = 76.58579 27.44959 52.01769
#
# Velocity S-wave (km/s) = 5.74895 3.44177 4.73794
# Velocity P-wave (km/s) = 8.23046 6.35761 7.35390
#
# Compressibility (1/GPa) = 0.01822927
#
# Stress axis : x y z
#
# Youngs Moduli (GPa) = 65.75197 92.16983 107.01224
#
# Poissons Ratio (x) = 0.46966 0.14986
# Poissons Ratio (y) = 0.33505 0.22374
# Poissons Ratio (z) = 0.09208 0.19271
#
# Static dielectric constant tensor:
#      x y z
#    x 2.017630 0.000000 0.000000 
#    y 0.000000 1.853600 0.000000 
#    z 0.000000 0.000000 1.851550 
# 
# From -- ./inp_files/14291.got.cif
#   From: 2010.05.17/outbox.cif.g08.bks.cpg/sg37_8_cif.got.tgz:14291.got - 2010.06.03 17:53:42.
