data_PCOD9355792
_publ_section_title
;
Structure prediction by ZEFSAII (Michael W. Deem and Ramdas Pophale) SiO2 
 PCOD9355792
Probable space group: A M M 2
;
_chemical_formula_sum "Si O2"
_cell_formula_units_Z 38
_cell_length_a 8.329502
_cell_length_b 9.722017
_cell_length_c 22.976056
_cell_angle_alpha 90.000000
_cell_angle_beta 90.000000
_cell_angle_gamma 90.000000
_cell_volume 1860.590906
_symmetry_space_group_name_H-M "A M M 2"
_symmetry_group_IT_number 38
_symmetry_cell_setting 'orthorhombic'
loop_
_space_group_symop_operation_xyz
x,y,z
-x,-y,z
-x,y,z
x,-y,z
x,1/2+y,1/2+z
-x,1/2-y,1/2+z
-x,1/2+y,1/2+z
x,1/2-y,1/2+z
loop_
_atom_site_type_symbol
_atom_site_label
_atom_site_fract_x
_atom_site_fract_y
_atom_site_fract_z
Si Si1 0.000000 0.300972 0.154770
Si Si2 0.318723 0.332522 0.358008
Si Si3 0.000000 0.163451 0.792546
Si Si4 0.666056 0.000000 0.187044
Si Si5 0.000000 0.000000 0.183968
Si Si6 0.323508 0.228240 0.605605
Si Si7 0.810877 0.834515 0.985783
O O1 0.000000 0.135270 0.144059
O O2 0.832564 0.350619 0.129019
O O3 0.000000 0.318391 0.223663
O O4 0.500000 0.285077 0.343239
O O5 0.322289 0.500000 0.353579
O O6 0.167997 0.283239 0.319139
O O7 0.271969 0.299334 0.424543
O O8 0.000000 0.000000 0.805857
O O9 0.667239 0.866214 0.145581
O O10 0.500000 0.000000 0.221388
O O11 0.835575 0.000000 0.219437
O O12 0.500000 0.163718 0.609617
O O13 0.282221 0.269896 0.539848
O O14 0.000000 0.795540 0.985690
O O15 0.804650 0.000000 0.991769
#
# Coordination Sequence:
#
# PCOD9355792 Si02
#       7
#     4   8   4   4   2   8   8
#     4  10  20  31  45  63  92 123 157 192 218 266
#     4   9  17  29  45  65  89 119 153 188 229 276
#     4  10  20  35  48  63  86 124 163 199 227 257
#     4   8  14  22  34  54  84 120 144 158 195 258
#     4   8  16  28  42  60  84 114 144 182 220 252
#     4  10  17  25  39  62  92 123 147 173 219 273
#     4  10  16  23  41  66  97 126 147 175 225 288
#
# _framework density 20.423618000000001
#
# number of rings (size 3 to 8) (size 9 to 14) (size 15 to 20)
#    0.000    2.526    3.158    0.632    0.000    1.684 
#    0.000    0.000    0.000    0.000    0.000    0.000 
#    6.316    0.000    1.263    0.000    0.000    0.000 
#
# Total GULP energy -105846.736947 kJ/mol
# GULP energy per Si atom -5570.880892 kJ/mol
# Density = 2.037713 g / cm^3
# Si number density = 20.423618 Si / 1000 Ang^3
#
#
#
# Elastic Constant Matrix: (Units=GPa)
#
#
# Indices 1 2 3 4 5 6 
#
# 1 276.7725 12.1792 74.9978 0.0000 0.0000 0.0000
# 2 12.1792 45.7463 -7.5286 0.0000 0.0000 0.0000
# 3 74.9978 -7.5286 92.1236 0.0000 0.0000 0.0000
# 4 0.0000 0.0000 0.0000 5.6449 0.0000 0.0000
# 5 0.0000 0.0000 0.0000 0.0000 0.2590 0.0000
# 6 0.0000 0.0000 0.0000 0.0000 0.0000 -48.8589
#
#
#
# Elastic Compliance Matrix: (Units=1/GPa)
#
#
# Indices 1 2 3 4 5 6 
#
# 1 0.004801 -0.001948 -0.004068 0.000000 0.000000 0.000000
# 2 -0.001948 0.022948 0.003461 0.000000 0.000000 0.000000
# 3 -0.004068 0.003461 0.014449 0.000000 0.000000 0.000000
# 4 0.000000 0.000000 0.000000 0.177150 0.000000 0.000000
# 5 0.000000 0.000000 0.000000 0.000000 3.860498 0.000000
# 6 0.000000 0.000000 0.000000 0.000000 0.000000 -0.020467
#
#
# Mechanical properties :
#
#
# Convention : Reuss Voigt Hill
#
# Bulk Modulus (GPa) = 26.96193 63.77102 45.36648
# Shear Modulus (GPa) = 1.22644 13.74194 7.48419
#
# Velocity S-wave (km/s) = 0.77576 2.59674 1.91636
# Velocity P-wave (km/s) = 3.74599 6.34686 5.21129
#
# Compressibility (1/GPa) = 0.03708933
#
# Stress axis : x y z
#
# Youngs Moduli (GPa) = 208.28977 43.57721 69.20755
#
# Poissons Ratio (x) = 0.08487 0.28151
# Poissons Ratio (y) = 0.40567 -0.23952
# Poissons Ratio (z) = 0.84725 -0.15082
#
# Static dielectric constant tensor:
#      x y z
#    x 1.818770 0.000000 0.000000 
#    y 0.000000 1.728630 0.000000 
#    z 0.000000 0.000000 1.673430 
# 
# From -- ./inp_files/16496.got.cif
#   From: 2010.05.17/outbox.cif.g08.bks.cpg/sg38_9_cif.got.tgz:16496.got - 2010.06.03 18:07:57.
