data_PCOD9355602
_publ_section_title
;
Structure prediction by ZEFSAII (Michael W. Deem and Ramdas Pophale) SiO2 
 PCOD9355602
Probable space group: C C C 2
;
_chemical_formula_sum "Si O2"
_cell_formula_units_Z 40
_cell_length_a 7.956999
_cell_length_b 8.079676
_cell_length_c 26.102935
_cell_angle_alpha 90.000000
_cell_angle_beta 90.000000
_cell_angle_gamma 90.000000
_cell_volume 1678.157009
_symmetry_space_group_name_H-M "C C C 2"
_symmetry_group_IT_number 37
_symmetry_cell_setting 'orthorhombic'
loop_
_space_group_symop_operation_xyz
x,y,z
-x,-y,z
-x,y,1/2+z
x,-y,1/2+z
1/2+x,1/2+y,z
1/2-x,1/2-y,z
1/2-x,1/2+y,1/2+z
1/2+x,1/2-y,1/2+z
loop_
_atom_site_type_symbol
_atom_site_label
_atom_site_fract_x
_atom_site_fract_y
_atom_site_fract_z
Si Si1 0.317661 0.568439 0.939090
Si Si2 0.698437 0.938503 0.641863
Si Si3 0.183426 0.567618 0.343880
Si Si4 0.687544 0.565343 0.246482
Si Si5 0.687039 0.066905 0.537374
O O1 0.500000 0.500000 0.953348
O O2 0.250000 0.750000 0.953052
O O3 0.300818 0.549158 0.878349
O O4 0.210898 0.454199 0.976730
O O5 0.750000 0.750000 0.655275
O O6 0.500000 0.000000 0.645009
O O7 0.785018 0.044579 0.686301
O O8 0.770542 0.964896 0.584349
O O9 0.250000 0.750000 0.358075
O O10 0.199210 0.548790 0.283174
O O11 0.000000 0.500000 0.359146
O O12 0.500000 0.500000 0.258656
O O13 0.750000 0.750000 0.260571
O O14 0.750000 0.250000 0.549388
O O15 0.500000 0.000000 0.543747
#
# Coordination Sequence:
#
# PCOD9355602 Si02
#       5
#     8   8   8   8   8
#     4  12  24  41  65  96 131 172 224 284 348 420
#     4  11  24  44  68  99 136 180 228 282 347 421
#     4  12  24  42  64  90 128 174 224 282 348 422
#     4  12  24  41  65  96 131 172 224 284 348 420
#     4  11  24  44  68  99 136 180 228 282 347 421
#
# _framework density 23.835671999999999
#
# number of rings (size 3 to 8) (size 9 to 14) (size 15 to 20)
#    0.000    0.400    0.000    9.600    0.000    4.000 
#    0.000    0.000    0.000    0.000    0.000    0.000 
#    0.000    0.000    0.000    0.000    0.000    0.000 
#
# Total GULP energy -111367.817805 kJ/mol
# GULP energy per Si atom -5568.390890 kJ/mol
# Density = 2.378142 g / cm^3
# Si number density = 23.835672 Si / 1000 Ang^3
#
#
#
# Elastic Constant Matrix: (Units=GPa)
#
#
# Indices 1 2 3 4 5 6 
#
# 1 121.9628 38.3421 -8.1757 0.0000 0.0000 0.0000
# 2 38.3421 154.6019 -10.5239 0.0000 0.0000 0.0000
# 3 -8.1757 -10.5239 78.3172 0.0000 0.0000 0.0000
# 4 0.0000 0.0000 0.0000 30.9666 0.0000 0.0000
# 5 0.0000 0.0000 0.0000 0.0000 23.6153 0.0000
# 6 0.0000 0.0000 0.0000 0.0000 0.0000 45.5684
#
#
#
# Elastic Compliance Matrix: (Units=1/GPa)
#
#
# Indices 1 2 3 4 5 6 
#
# 1 0.008924 -0.002170 0.000640 0.000000 0.000000 0.000000
# 2 -0.002170 0.007055 0.000722 0.000000 0.000000 0.000000
# 3 0.000640 0.000722 0.012932 0.000000 0.000000 0.000000
# 4 0.000000 0.000000 0.000000 0.032293 0.000000 0.000000
# 5 0.000000 0.000000 0.000000 0.000000 0.042345 0.000000
# 6 0.000000 0.000000 0.000000 0.000000 0.000000 0.021945
#
#
# Mechanical properties :
#
#
# Convention : Reuss Voigt Hill
#
# Bulk Modulus (GPa) = 36.63546 43.79631 40.21588
# Shear Modulus (GPa) = 36.70799 42.37935 39.54367
#
# Velocity S-wave (km/s) = 3.92860 4.22118 4.07752
# Velocity P-wave (km/s) = 5.99849 6.49400 6.25116
#
# Compressibility (1/GPa) = 0.02729596
#
# Stress axis : x y z
#
# Youngs Moduli (GPa) = 112.05458 141.73464 77.32535
#
# Poissons Ratio (x) = 0.30752 -0.04949
# Poissons Ratio (y) = 0.24312 -0.05580
# Poissons Ratio (z) = -0.07172 -0.10227
#
# Static dielectric constant tensor:
#      x y z
#    x 2.084570 0.000000 0.000000 
#    y 0.000000 2.001610 0.000000 
#    z 0.000000 0.000000 1.799680 
# 
# From -- ./inp_files/18229.got.cif
#   From: 2010.05.17/outbox.cif.g08.bks.cpg/sg37_10_cif.got.tgz:18229.got - 2010.06.03 17:53:42.
