data_PCOD9355506
_publ_section_title
;
Structure prediction by ZEFSAII (Michael W. Deem and Ramdas Pophale) SiO2 
 PCOD9355506
Probable space group: C C C 2
;
_chemical_formula_sum "Si O2"
_cell_formula_units_Z 48
_cell_length_a 10.355527
_cell_length_b 13.836244
_cell_length_c 13.797512
_cell_angle_alpha 90.000000
_cell_angle_beta 90.000000
_cell_angle_gamma 90.000000
_cell_volume 1976.929572
_symmetry_space_group_name_H-M "C C C 2"
_symmetry_group_IT_number 37
_symmetry_cell_setting 'orthorhombic'
loop_
_space_group_symop_operation_xyz
x,y,z
-x,-y,z
-x,y,1/2+z
x,-y,1/2+z
1/2+x,1/2+y,z
1/2-x,1/2-y,z
1/2-x,1/2+y,1/2+z
1/2+x,1/2-y,1/2+z
loop_
_atom_site_type_symbol
_atom_site_label
_atom_site_fract_x
_atom_site_fract_y
_atom_site_fract_z
Si Si1 0.539157 0.395495 0.301720
Si Si2 0.930137 0.687467 0.273420
Si Si3 0.176637 0.388209 0.465930
Si Si4 0.921852 0.690941 0.060984
Si Si5 0.958940 0.894102 0.524497
Si Si6 0.322703 0.101014 0.872830
O O1 0.500000 0.500000 0.260432
O O2 0.479175 0.297250 0.262055
O O3 0.485810 0.396916 0.410435
O O4 0.692924 0.386240 0.311836
O O5 0.840252 0.674591 0.367559
O O6 0.875152 0.659821 0.167836
O O7 0.055146 0.624363 0.305034
O O8 0.305890 0.374729 0.528522
O O9 0.175945 0.495255 0.420694
O O10 0.053798 0.365673 0.532831
O O11 0.833358 0.667519 0.968598
O O12 0.959593 0.803651 0.061106
O O13 0.000000 0.000000 0.559959
#
# Coordination Sequence:
#
# PCOD9355506 Si02
#       6
#     8   8   8   8   8   8
#     4  11  22  42  71  94 128 174 222 265 325 385
#     4  11  25  43  68 101 134 171 218 270 331 390
#     4  11  23  42  71  94 132 176 218 269 325 387
#     4  11  25  43  68 101 134 171 218 270 331 390
#     4  11  22  42  71  94 128 174 222 265 325 385
#     4  11  23  42  71  94 132 176 218 269 325 387
#
# _framework density 24.280078
#
# number of rings (size 3 to 8) (size 9 to 14) (size 15 to 20)
#    0.000    1.000    6.667    3.000    0.000    6.000 
#    0.000    3.333    0.000    1.000    0.000    0.000 
#    0.000    0.000    0.000    0.000    0.000    0.000 
#
# Total GULP energy -134235.855902 kJ/mol
# GULP energy per Si atom -5593.160663 kJ/mol
# Density = 2.422481 g / cm^3
# Si number density = 24.280078 Si / 1000 Ang^3
#
#
#
# Elastic Constant Matrix: (Units=GPa)
#
#
# Indices 1 2 3 4 5 6 
#
# 1 106.9175 33.2345 27.0574 0.0000 0.0000 0.0000
# 2 33.2345 140.9158 1.8221 0.0000 0.0000 0.0000
# 3 27.0574 1.8221 53.0983 0.0000 0.0000 0.0000
# 4 0.0000 0.0000 0.0000 0.9785 0.0000 0.0000
# 5 0.0000 0.0000 0.0000 0.0000 16.6320 0.0000
# 6 0.0000 0.0000 0.0000 0.0000 0.0000 36.9622
#
#
#
# Elastic Compliance Matrix: (Units=1/GPa)
#
#
# Indices 1 2 3 4 5 6 
#
# 1 0.011666 -0.002676 -0.005853 0.000000 0.000000 0.000000
# 2 -0.002676 0.007713 0.001099 0.000000 0.000000 0.000000
# 3 -0.005853 0.001099 0.021778 0.000000 0.000000 0.000000
# 4 0.000000 0.000000 0.000000 1.022012 0.000000 0.000000
# 5 0.000000 0.000000 0.000000 0.000000 0.060125 0.000000
# 6 0.000000 0.000000 0.000000 0.000000 0.000000 0.027055
#
#
# Mechanical properties :
#
#
# Convention : Reuss Voigt Hill
#
# Bulk Modulus (GPa) = 38.02646 47.23994 42.63320
# Shear Modulus (GPa) = 4.25904 26.83569 15.54737
#
# Velocity S-wave (km/s) = 1.32587 3.32815 2.53323
# Velocity P-wave (km/s) = 4.24729 5.85382 5.11404
#
# Compressibility (1/GPa) = 0.02629748
#
# Stress axis : x y z
#
# Youngs Moduli (GPa) = 85.72006 129.64653 45.91847
#
# Poissons Ratio (x) = 0.34689 0.26875
# Poissons Ratio (y) = 0.22936 -0.05045
# Poissons Ratio (z) = 0.50170 -0.14245
#
# Static dielectric constant tensor:
#      x y z
#    x 1.972410 0.000000 0.000000 
#    y 0.000000 1.962410 0.000000 
#    z 0.000000 0.000000 1.973110 
# 
# From -- ./inp_files/11505.got.cif
#   From: 2010.05.17/outbox.cif.g08.bks.cpg/sg37_6_cif.got.tgz:11505.got - 2010.06.03 17:53:42.
