data_PCOD9355215
_publ_section_title
;
Structure prediction by ZEFSAII (Michael W. Deem and Ramdas Pophale) SiO2 
 PCOD9355215
Probable space group: C C C 2
;
_chemical_formula_sum "Si O2"
_cell_formula_units_Z 40
_cell_length_a 13.887657
_cell_length_b 12.815283
_cell_length_c 9.006829
_cell_angle_alpha 90.000000
_cell_angle_beta 90.000000
_cell_angle_gamma 90.000000
_cell_volume 1602.983678
_symmetry_space_group_name_H-M "C C C 2"
_symmetry_group_IT_number 37
_symmetry_cell_setting 'orthorhombic'
loop_
_space_group_symop_operation_xyz
x,y,z
-x,-y,z
-x,y,1/2+z
x,-y,1/2+z
1/2+x,1/2+y,z
1/2-x,1/2-y,z
1/2-x,1/2+y,1/2+z
1/2+x,1/2-y,1/2+z
loop_
_atom_site_type_symbol
_atom_site_label
_atom_site_fract_x
_atom_site_fract_y
_atom_site_fract_z
Si Si1 0.050398 0.646596 0.404600
Si Si2 0.093083 0.950989 0.706857
Si Si3 0.000000 0.500000 0.151181
Si Si4 0.750000 0.250000 0.199012
Si Si5 0.159975 0.869319 0.418675
Si Si6 0.359671 0.738608 0.909294
O O1 0.066409 0.571895 0.545388
O O2 0.933730 0.667055 0.403928
O O3 0.059818 0.579211 0.254864
O O4 0.097543 0.761767 0.426160
O O5 0.168691 0.917636 0.580808
O O6 0.089512 0.850704 0.813570
O O7 0.113312 0.043322 0.818633
O O8 0.000000 0.000000 0.624163
O O9 0.746835 0.157145 0.319232
O O10 0.663739 0.277623 0.085559
O O11 0.250000 0.750000 0.849523
#
# Coordination Sequence:
#
# PCOD9355215 Si02
#       6
#     8   8   4   4   8   8
#     4  11  22  47  70 101 143 196 256 323 378 486
#     4  12  25  45  78 116 147 211 267 330 408 488
#     4  10  24  40  72 100 128 192 258 296 386 462
#     4  10  26  46  66 110 152 208 248 326 412 474
#     4  12  26  45  75 108 162 198 269 331 409 486
#     4  10  24  47  75 105 159 198 257 335 407 475
#
# _framework density 24.953465999999999
#
# number of rings (size 3 to 8) (size 9 to 14) (size 15 to 20)
#    0.600    0.400    2.000    4.200    4.200    0.000 
#   10.800    0.000    0.000    0.000    0.000    0.000 
#    0.000    0.000    0.000    0.000    0.000    0.000 
#
# Total GULP energy -111433.191877 kJ/mol
# GULP energy per Si atom -5571.659594 kJ/mol
# Density = 2.489667 g / cm^3
# Si number density = 24.953466 Si / 1000 Ang^3
#
#
#
# Elastic Constant Matrix: (Units=GPa)
#
#
# Indices 1 2 3 4 5 6 
#
# 1 64.0708 22.6423 15.3704 0.0000 0.0000 0.0000
# 2 22.6423 113.8901 69.2816 0.0000 0.0000 0.0000
# 3 15.3704 69.2816 185.7736 0.0000 0.0000 0.0000
# 4 0.0000 0.0000 0.0000 35.8584 0.0000 0.0000
# 5 0.0000 0.0000 0.0000 0.0000 13.6574 0.0000
# 6 0.0000 0.0000 0.0000 0.0000 0.0000 16.0802
#
#
#
# Elastic Compliance Matrix: (Units=1/GPa)
#
#
# Indices 1 2 3 4 5 6 
#
# 1 0.016792 -0.003225 -0.000187 0.000000 0.000000 0.000000
# 2 -0.003225 0.011976 -0.004200 0.000000 0.000000 0.000000
# 3 -0.000187 -0.004200 0.006964 0.000000 0.000000 0.000000
# 4 0.000000 0.000000 0.000000 0.027887 0.000000 0.000000
# 5 0.000000 0.000000 0.000000 0.000000 0.073220 0.000000
# 6 0.000000 0.000000 0.000000 0.000000 0.000000 0.062188
#
#
# Mechanical properties :
#
#
# Convention : Reuss Voigt Hill
#
# Bulk Modulus (GPa) = 48.75498 64.25810 56.50654
# Shear Modulus (GPa) = 22.61543 30.21521 26.41532
#
# Velocity S-wave (km/s) = 3.01375 3.48352 3.25712
# Velocity P-wave (km/s) = 5.62948 6.47973 6.06951
#
# Compressibility (1/GPa) = 0.02051073
#
# Stress axis : x y z
#
# Youngs Moduli (GPa) = 59.55155 83.49910 143.58542
#
# Poissons Ratio (x) = 0.26927 0.02680
# Poissons Ratio (y) = 0.19205 0.60299
# Poissons Ratio (z) = 0.01112 0.35066
#
# Static dielectric constant tensor:
#      x y z
#    x 2.439500 0.000000 0.000000 
#    y 0.000000 1.936760 0.000000 
#    z 0.000000 0.000000 2.007960 
# 
# From -- ./inp_files/3906.got.cif
#   From: 2010.05.17/outbox.cif.g08.bks.cpg/sg37_2_cif.got.tgz:3906.got - 2010.06.03 17:53:42.
