data_PCOD9355684
_publ_section_title
;
Structure prediction by ZEFSAII (Michael W. Deem and Ramdas Pophale) SiO2 
 PCOD9355684
Probable space group: C C C 2
;
_chemical_formula_sum "Si O2"
_cell_formula_units_Z 24
_cell_length_a 5.856786
_cell_length_b 13.374585
_cell_length_c 13.178061
_cell_angle_alpha 90.000000
_cell_angle_beta 90.000000
_cell_angle_gamma 90.000000
_cell_volume 1032.264957
_symmetry_space_group_name_H-M "C C C 2"
_symmetry_group_IT_number 37
_symmetry_cell_setting 'orthorhombic'
loop_
_space_group_symop_operation_xyz
x,y,z
-x,-y,z
-x,y,1/2+z
x,-y,1/2+z
1/2+x,1/2+y,z
1/2-x,1/2-y,z
1/2-x,1/2+y,1/2+z
1/2+x,1/2-y,1/2+z
loop_
_atom_site_type_symbol
_atom_site_label
_atom_site_fract_x
_atom_site_fract_y
_atom_site_fract_z
Si Si1 0.750000 0.750000 0.032781
Si Si2 0.000000 0.500000 0.223438
Si Si3 0.636169 0.849443 0.394236
Si Si4 0.349390 0.362459 0.600070
O O1 0.616554 0.666933 0.099754
O O2 0.583703 0.812585 0.958517
O O3 0.099875 0.420179 0.301504
O O4 0.204538 0.557373 0.163508
O O5 0.750000 0.750000 0.353250
O O6 0.798625 0.891195 0.482979
O O7 0.250000 0.250000 0.619664
#
# Coordination Sequence:
#
# PCOD9355684 Si02
#       4
#     4   4   8   8
#     4   8  18  46  72  86 156 200 222 304 378 418
#     4  12  22  40  80 106 138 184 254 298 364 436
#     4   9  21  44  67 100 143 183 236 302 361 432
#     4   9  21  44  67 101 145 189 237 303 366 435
#
# _framework density 23.249844
#
# number of rings (size 3 to 8) (size 9 to 14) (size 15 to 20)
#    0.000    3.333    0.000    1.000    2.333    0.000 
#   12.000   40.000    7.333    0.000    0.000    0.000 
#    0.000    0.000    0.000    0.000    0.000    0.000 
#
# Total GULP energy -66901.554942 kJ/mol
# GULP energy per Si atom -5575.129579 kJ/mol
# Density = 2.319693 g / cm^3
# Si number density = 23.249844 Si / 1000 Ang^3
#
#
#
# Elastic Constant Matrix: (Units=GPa)
#
#
# Indices 1 2 3 4 5 6 
#
# 1 124.4327 77.7752 60.4104 0.0000 0.0000 0.0000
# 2 77.7752 169.0294 113.7214 0.0000 0.0000 0.0000
# 3 60.4104 113.7214 145.1450 0.0000 0.0000 0.0000
# 4 0.0000 0.0000 0.0000 10.1412 0.0000 0.0000
# 5 0.0000 0.0000 0.0000 0.0000 2.4145 0.0000
# 6 0.0000 0.0000 0.0000 0.0000 0.0000 30.9692
#
#
#
# Elastic Compliance Matrix: (Units=1/GPa)
#
#
# Indices 1 2 3 4 5 6 
#
# 1 0.011403 -0.004343 -0.001343 0.000000 0.000000 0.000000
# 2 -0.004343 0.014166 -0.009291 0.000000 0.000000 0.000000
# 3 -0.001343 -0.009291 0.014728 0.000000 0.000000 0.000000
# 4 0.000000 0.000000 0.000000 0.098608 0.000000 0.000000
# 5 0.000000 0.000000 0.000000 0.000000 0.414161 0.000000
# 6 0.000000 0.000000 0.000000 0.000000 0.000000 0.032290
#
#
# Mechanical properties :
#
#
# Convention : Reuss Voigt Hill
#
# Bulk Modulus (GPa) = 96.69207 104.71348 100.70277
# Shear Modulus (GPa) = 8.08070 21.15166 14.61618
#
# Velocity S-wave (km/s) = 1.86632 3.01949 2.51002
# Velocity P-wave (km/s) = 6.80608 7.56918 7.19775
#
# Compressibility (1/GPa) = 0.01034211
#
# Stress axis : x y z
#
# Youngs Moduli (GPa) = 87.69402 70.59404 67.89709
#
# Poissons Ratio (x) = 0.30661 0.09119
# Poissons Ratio (y) = 0.38088 0.63083
# Poissons Ratio (z) = 0.11778 0.65589
#
# Static dielectric constant tensor:
#      x y z
#    x 2.143830 0.000000 0.000000 
#    y 0.000000 1.880680 0.000000 
#    z 0.000000 0.000000 1.826400 
# 
# From -- ./inp_files/9327.got.cif
#   From: 2010.05.17/outbox.cif.g08.bks.cpg/sg37_5_cif.got.tgz:9327.got - 2010.06.03 17:53:42.
