data_PCOD9355315
_publ_section_title
;
Structure prediction by ZEFSAII (Michael W. Deem and Ramdas Pophale) SiO2 
 PCOD9355315
Probable space group: C C C 2
;
_chemical_formula_sum "Si O2"
_cell_formula_units_Z 40
_cell_length_a 16.903494
_cell_length_b 8.756767
_cell_length_c 11.335828
_cell_angle_alpha 90.000000
_cell_angle_beta 90.000000
_cell_angle_gamma 90.000000
_cell_volume 1677.928789
_symmetry_space_group_name_H-M "C C C 2"
_symmetry_group_IT_number 37
_symmetry_cell_setting 'orthorhombic'
loop_
_space_group_symop_operation_xyz
x,y,z
-x,-y,z
-x,y,1/2+z
x,-y,1/2+z
1/2+x,1/2+y,z
1/2-x,1/2-y,z
1/2-x,1/2+y,1/2+z
1/2+x,1/2-y,1/2+z
loop_
_atom_site_type_symbol
_atom_site_label
_atom_site_fract_x
_atom_site_fract_y
_atom_site_fract_z
Si Si1 0.826504 0.974267 0.582670
Si Si2 0.459379 0.832551 0.486523
Si Si3 0.750000 0.250000 0.891869
Si Si4 0.500000 0.500000 0.008191
Si Si5 0.327260 0.901664 0.675538
Si Si6 0.163864 0.272159 0.781933
O O1 0.790770 0.873383 0.476798
O O2 0.843637 0.875312 0.700062
O O3 0.911969 0.036189 0.551756
O O4 0.759184 0.096262 0.613390
O O5 0.516528 0.683284 0.477131
O O6 0.402827 0.846963 0.602392
O O7 0.401368 0.803341 0.377259
O O8 0.500000 0.000000 0.475485
O O9 0.686121 0.173660 0.803677
O O10 0.337526 0.083248 0.695990
O O11 0.250000 0.250000 0.839232
#
# Coordination Sequence:
#
# PCOD9355315 Si02
#       6
#     8   8   4   4   8   8
#     4  11  25  51  72 118 153 201 269 326 386 486
#     4  12  29  51  77 118 159 208 262 324 400 474
#     4  12  24  44  80 106 150 210 266 326 396 470
#     4  12  30  46  76 116 164 190 262 326 382 472
#     4  11  24  47  80 105 151 214 264 317 398 476
#     4  10  24  46  80 109 155 204 264 326 381 477
#
# _framework density 23.838913000000002
#
# number of rings (size 3 to 8) (size 9 to 14) (size 15 to 20)
#    0.000    0.800    3.000    3.600   12.600    3.200 
#    0.000    0.000    0.000    0.000    0.000    0.000 
#    0.000    0.000    0.000    0.000    0.000    0.000 
#
# Total GULP energy -111567.804114 kJ/mol
# GULP energy per Si atom -5578.390206 kJ/mol
# Density = 2.378465 g / cm^3
# Si number density = 23.838913 Si / 1000 Ang^3
#
#
#
# Elastic Constant Matrix: (Units=GPa)
#
#
# Indices 1 2 3 4 5 6 
#
# 1 94.4455 61.3725 53.4167 0.0000 0.0000 0.0000
# 2 61.3725 176.9089 32.5915 0.0000 0.0000 0.0000
# 3 53.4167 32.5915 95.4865 0.0000 0.0000 0.0000
# 4 0.0000 0.0000 0.0000 84.6774 0.0000 0.0000
# 5 0.0000 0.0000 0.0000 0.0000 64.4747 0.0000
# 6 0.0000 0.0000 0.0000 0.0000 0.0000 23.7381
#
#
#
# Elastic Compliance Matrix: (Units=1/GPa)
#
#
# Indices 1 2 3 4 5 6 
#
# 1 0.018749 -0.004879 -0.008823 0.000000 0.000000 0.000000
# 2 -0.004879 0.007301 0.000237 0.000000 0.000000 0.000000
# 3 -0.008823 0.000237 0.015328 0.000000 0.000000 0.000000
# 4 0.000000 0.000000 0.000000 0.011810 0.000000 0.000000
# 5 0.000000 0.000000 0.000000 0.000000 0.015510 0.000000
# 6 0.000000 0.000000 0.000000 0.000000 0.000000 0.042126
#
#
# Mechanical properties :
#
#
# Convention : Reuss Voigt Hill
#
# Bulk Modulus (GPa) = 69.21281 73.51137 71.36209
# Shear Modulus (GPa) = 35.07079 49.20872 42.13976
#
# Velocity S-wave (km/s) = 3.83973 4.54830 4.20895
# Velocity P-wave (km/s) = 6.98245 7.64763 7.32260
#
# Compressibility (1/GPa) = 0.01444819
#
# Stress axis : x y z
#
# Youngs Moduli (GPa) = 53.33746 136.95908 65.24219
#
# Poissons Ratio (x) = 0.66818 0.57563
# Poissons Ratio (y) = 0.26022 -0.01547
# Poissons Ratio (z) = 0.47060 -0.03247
#
# Static dielectric constant tensor:
#      x y z
#    x 1.931860 0.000000 0.000000 
#    y 0.000000 2.095330 0.000000 
#    z 0.000000 0.000000 1.915680 
# 
# From -- ./inp_files/6170.got.cif
#   From: 2010.05.17/outbox.cif.g08.bks.cpg/sg37_4_cif.got.tgz:6170.got - 2010.06.03 17:53:42.
