data_PCOD9355867
_publ_section_title
;
Structure prediction by ZEFSAII (Michael W. Deem and Ramdas Pophale) SiO2 
 PCOD9355867
Probable space group: A M M 2
;
_chemical_formula_sum "Si O2"
_cell_formula_units_Z 64
_cell_length_a 8.193275
_cell_length_b 27.460301
_cell_length_c 19.070072
_cell_angle_alpha 90.000000
_cell_angle_beta 90.000000
_cell_angle_gamma 90.000000
_cell_volume 4290.571641
_symmetry_space_group_name_H-M "A M M 2"
_symmetry_group_IT_number 38
_symmetry_cell_setting 'orthorhombic'
loop_
_space_group_symop_operation_xyz
x,y,z
-x,-y,z
-x,y,z
x,-y,z
x,1/2+y,1/2+z
-x,1/2-y,1/2+z
-x,1/2+y,1/2+z
x,1/2-y,1/2+z
loop_
_atom_site_type_symbol
_atom_site_label
_atom_site_fract_x
_atom_site_fract_y
_atom_site_fract_z
Si Si1 0.306180 0.747119 0.178680
Si Si2 0.697533 0.147766 0.432093
Si Si3 0.300510 0.255964 0.018642
Si Si4 0.196818 0.945266 0.677998
Si Si5 0.193265 0.649863 0.256553
Si Si6 0.688771 0.197505 0.890422
Si Si7 0.697375 0.055052 0.518899
Si Si8 0.810635 0.208662 0.312756
O O1 0.500000 0.754796 0.178602
O O2 0.246230 0.748334 0.098682
O O3 0.271154 0.694085 0.212348
O O4 0.226704 0.786572 0.230734
O O5 0.500000 0.147937 0.428354
O O6 0.747477 0.192523 0.483412
O O7 0.752105 0.097030 0.465889
O O8 0.766892 0.160331 0.355481
O O9 0.500000 0.255485 0.018078
O O10 0.246156 0.212241 0.967109
O O11 0.254618 0.901983 0.728355
O O12 0.245372 0.934127 0.597919
O O13 0.000000 0.946412 0.681858
O O14 0.257165 0.000000 0.694421
O O15 0.225535 0.659751 0.338622
O O16 0.000000 0.652762 0.244533
O O17 0.500000 0.183705 0.896240
O O18 0.703322 0.248999 0.849053
O O19 0.500000 0.055502 0.519208
O O20 0.751454 0.000000 0.501356
O O21 0.000000 0.220847 0.324213
#
# Coordination Sequence:
#
# PCOD9355867 Si02
#       8
#     8   8   8   8   8   8   8   8
#     4  10  17  27  42  58  78 104 131 159 197 237
#     4   9  16  28  42  56  78 107 135 161 195 234
#     4   8  15  25  39  57  75 100 132 159 185 230
#     4   9  18  30  41  55  80 111 138 166 200 235
#     4  10  18  27  39  57  79 104 136 166 193 228
#     4   9  16  28  42  56  76 102 130 160 197 235
#     4   9  17  28  43  62  81 102 134 174 205 231
#     4  10  18  27  38  56  79 102 132 164 192 226
#
# _framework density 14.916427000000001
#
# number of rings (size 3 to 8) (size 9 to 14) (size 15 to 20)
#    0.000    2.750    0.000    5.250    0.000    2.500 
#    0.000    7.500    0.000    0.000    0.000    0.000 
#    0.000    1.000    0.000    4.750    0.000    2.750 
#
# Total GULP energy -178189.804880 kJ/mol
# GULP energy per Si atom -5568.431402 kJ/mol
# Density = 1.488248 g / cm^3
# Si number density = 14.916427 Si / 1000 Ang^3
#
#
#
# Elastic Constant Matrix: (Units=GPa)
#
#
# Indices 1 2 3 4 5 6 
#
# 1 14.7124 8.6915 8.1696 0.0000 0.0000 0.0000
# 2 8.6915 90.9125 59.4503 0.0000 0.0000 0.0000
# 3 8.1696 59.4503 114.1914 0.0000 0.0000 0.0000
# 4 0.0000 0.0000 0.0000 28.9698 0.0000 0.0000
# 5 0.0000 0.0000 0.0000 0.0000 -11.5692 0.0000
# 6 0.0000 0.0000 0.0000 0.0000 0.0000 12.5945
#
#
#
# Elastic Compliance Matrix: (Units=1/GPa)
#
#
# Indices 1 2 3 4 5 6 
#
# 1 0.072467 -0.005364 -0.002392 0.000000 0.000000 0.000000
# 2 -0.005364 0.017074 -0.008506 0.000000 0.000000 0.000000
# 3 -0.002392 -0.008506 0.013357 0.000000 0.000000 0.000000
# 4 0.000000 0.000000 0.000000 0.034519 0.000000 0.000000
# 5 0.000000 0.000000 0.000000 0.000000 -0.086436 0.000000
# 6 0.000000 0.000000 0.000000 0.000000 0.000000 0.079400
#
#
# Mechanical properties :
#
#
# Convention : Reuss Voigt Hill
#
# Bulk Modulus (GPa) = 14.20960 41.38213 27.79586
# Shear Modulus (GPa) = 26.82966 15.56601 21.19784
#
# Velocity S-wave (km/s) = 4.24567 3.23390 3.77385
# Velocity P-wave (km/s) = 5.79492 6.46120 6.13711
#
# Compressibility (1/GPa) = 0.07037498
#
# Stress axis : x y z
#
# Youngs Moduli (GPa) = 13.79944 58.56725 74.86991
#
# Poissons Ratio (x) = 0.31415 0.17909
# Poissons Ratio (y) = 0.07402 0.63681
# Poissons Ratio (z) = 0.03301 0.49815
#
# Static dielectric constant tensor:
#      x y z
#    x 1.519080 0.000000 0.000000 
#    y 0.000000 1.497920 0.000000 
#    z 0.000000 0.000000 1.513200 
# 
# From -- ./inp_files/20323.got.cif
#   From: 2010.05.17/outbox.cif.g08.bks.cpg/sg38_11_cif.got.tgz:20323.got - 2010.06.03 18:07:57.
