data_PCOD9355651
_publ_section_title
;
Structure prediction by ZEFSAII (Michael W. Deem and Ramdas Pophale) SiO2 
 PCOD9355651
Probable space group: C C C 2
;
_chemical_formula_sum "Si O2"
_cell_formula_units_Z 40
_cell_length_a 13.659752
_cell_length_b 8.763313
_cell_length_c 13.408992
_cell_angle_alpha 90.000000
_cell_angle_beta 90.000000
_cell_angle_gamma 90.000000
_cell_volume 1605.119127
_symmetry_space_group_name_H-M "C C C 2"
_symmetry_group_IT_number 37
_symmetry_cell_setting 'orthorhombic'
loop_
_space_group_symop_operation_xyz
x,y,z
-x,-y,z
-x,y,1/2+z
x,-y,1/2+z
1/2+x,1/2+y,z
1/2-x,1/2-y,z
1/2-x,1/2+y,1/2+z
1/2+x,1/2-y,1/2+z
loop_
_atom_site_type_symbol
_atom_site_label
_atom_site_fract_x
_atom_site_fract_y
_atom_site_fract_z
Si Si1 0.760558 0.542749 0.187600
Si Si2 0.914299 0.759781 0.135316
Si Si3 0.000000 0.000000 0.789766
Si Si4 0.250000 0.250000 0.579315
Si Si5 0.043075 0.736632 0.415483
Si Si6 0.657941 0.068655 0.896331
O O1 0.872924 0.590003 0.159899
O O2 0.685674 0.645541 0.126090
O O3 0.720004 0.378128 0.159486
O O4 0.764415 0.579378 0.305836
O O5 0.972383 0.758343 0.033349
O O6 0.966003 0.863951 0.217492
O O7 0.066001 0.100861 0.865467
O O8 0.305119 0.140638 0.499690
O O9 0.125930 0.607998 0.403406
O O10 0.941850 0.663117 0.375378
#
# Coordination Sequence:
#
# PCOD9355651 Si02
#       6
#     8   8   4   4   8   8
#     4  11  26  48  75 110 156 207 262 331 394 493
#     4  11  25  48  71 113 155 197 267 324 396 483
#     4  12  26  44  80 108 160 208 266 326 408 474
#     4  12  26  48  78 106 152 214 250 342 404 478
#     4  11  26  48  75 112 155 208 256 344 392 486
#     4  11  26  50  76 111 157 202 276 325 412 481
#
# _framework density 24.920271
#
# number of rings (size 3 to 8) (size 9 to 14) (size 15 to 20)
#    0.000    0.800    4.000    1.800    8.400    0.000 
#    0.000    0.000    0.000    0.000    0.000    0.000 
#    0.000    0.000    0.000    0.000    0.000    0.000 
#
# Total GULP energy -111415.582920 kJ/mol
# GULP energy per Si atom -5570.779146 kJ/mol
# Density = 2.486355 g / cm^3
# Si number density = 24.920271 Si / 1000 Ang^3
#
#
#
# Elastic Constant Matrix: (Units=GPa)
#
#
# Indices 1 2 3 4 5 6 
#
# 1 33.2028 13.6130 16.3586 0.0000 0.0000 0.0000
# 2 13.6130 132.3314 48.5741 0.0000 0.0000 0.0000
# 3 16.3586 48.5741 113.2934 0.0000 0.0000 0.0000
# 4 0.0000 0.0000 0.0000 40.8309 0.0000 0.0000
# 5 0.0000 0.0000 0.0000 0.0000 37.1579 0.0000
# 6 0.0000 0.0000 0.0000 0.0000 0.0000 24.0308
#
#
#
# Elastic Compliance Matrix: (Units=1/GPa)
#
#
# Indices 1 2 3 4 5 6 
#
# 1 0.032841 -0.001944 -0.003909 0.000000 0.000000 0.000000
# 2 -0.001944 0.009083 -0.003614 0.000000 0.000000 0.000000
# 3 -0.003909 -0.003614 0.010940 0.000000 0.000000 0.000000
# 4 0.000000 0.000000 0.000000 0.024491 0.000000 0.000000
# 5 0.000000 0.000000 0.000000 0.000000 0.026912 0.000000
# 6 0.000000 0.000000 0.000000 0.000000 0.000000 0.041613
#
#
# Mechanical properties :
#
#
# Convention : Reuss Voigt Hill
#
# Bulk Modulus (GPa) = 29.47049 48.43544 38.95297
# Shear Modulus (GPa) = 28.38917 33.75604 31.07261
#
# Velocity S-wave (km/s) = 3.37887 3.68443 3.53495
# Velocity P-wave (km/s) = 5.20326 6.13012 5.68561
#
# Compressibility (1/GPa) = 0.03393224
#
# Stress axis : x y z
#
# Youngs Moduli (GPa) = 30.45015 110.09339 91.40445
#
# Poissons Ratio (x) = 0.21398 0.35726
# Poissons Ratio (y) = 0.05918 0.33031
# Poissons Ratio (z) = 0.11902 0.39785
#
# Static dielectric constant tensor:
#      x y z
#    x 2.060010 0.000000 0.000000 
#    y 0.000000 2.060560 0.000000 
#    z 0.000000 0.000000 1.980220 
# 
# From -- ./inp_files/6153.got.cif
#   From: 2010.05.17/outbox.cif.g08.bks.cpg/sg37_4_cif.got.tgz:6153.got - 2010.06.03 17:53:42.
