data_PCOD9355039
_publ_section_title
;
Structure prediction by ZEFSAII (Michael W. Deem and Ramdas Pophale) SiO2 
 PCOD9355039
Probable space group: C C C 2
;
_chemical_formula_sum "Si O2"
_cell_formula_units_Z 48
_cell_length_a 13.735241
_cell_length_b 4.985887
_cell_length_c 28.781805
_cell_angle_alpha 90.000000
_cell_angle_beta 90.000000
_cell_angle_gamma 90.000000
_cell_volume 1971.045918
_symmetry_space_group_name_H-M "C C C 2"
_symmetry_group_IT_number 37
_symmetry_cell_setting 'orthorhombic'
loop_
_space_group_symop_operation_xyz
x,y,z
-x,-y,z
-x,y,1/2+z
x,-y,1/2+z
1/2+x,1/2+y,z
1/2-x,1/2-y,z
1/2-x,1/2+y,1/2+z
1/2+x,1/2-y,1/2+z
loop_
_atom_site_type_symbol
_atom_site_label
_atom_site_fract_x
_atom_site_fract_y
_atom_site_fract_z
Si Si1 0.821187 0.497532 0.292760
Si Si2 0.250000 0.750000 0.549083
Si Si3 0.395242 0.121149 0.492802
Si Si4 0.853790 0.889043 0.613430
Si Si5 0.822029 0.497332 0.892903
Si Si6 0.000000 0.000000 0.045954
Si Si7 0.939823 0.743871 0.708171
O O1 0.750000 0.750000 0.283620
O O2 0.874828 0.507236 0.342693
O O3 0.886063 0.413966 0.249252
O O4 0.750000 0.250000 0.299340
O O5 0.195478 0.524974 0.517898
O O6 0.165659 0.834636 0.585938
O O7 0.412928 0.432272 0.507480
O O8 0.500000 0.000000 0.506993
O O9 0.383578 0.062845 0.438529
O O10 0.750000 0.750000 0.605982
O O11 0.874548 0.875225 0.667754
O O12 0.949153 0.801466 0.584979
O O13 0.750000 0.750000 0.899958
O O14 0.750000 0.250000 0.888445
O O15 0.000000 0.500000 0.685217
O O16 0.000000 0.000000 0.726867
#
# Coordination Sequence:
#
# PCOD9355039 Si02
#       7
#     8   4   8   8   8   4   8
#     4  10  22  49  77 110 148 200 255 318 390 472
#     4  12  26  46  72 104 150 204 260 304 388 458
#     4  12  26  43  71 107 149 202 248 317 376 462
#     4  12  27  45  73 103 150 203 248 314 379 457
#     4  10  24  44  77 108 148 195 254 310 383 467
#     4  12  26  44  64 108 150 192 262 304 376 452
#     4  12  28  47  76 112 152 194 257 324 387 462
#
# _framework density 24.352553
#
# number of rings (size 3 to 8) (size 9 to 14) (size 15 to 20)
#    0.000    0.667    5.000    1.500    7.000    1.333 
#    1.500    0.000    1.833    0.000    0.000    0.000 
#    0.000    0.000    0.000    0.000    0.000    0.000 
#
# Total GULP energy -133614.158058 kJ/mol
# GULP energy per Si atom -5567.256586 kJ/mol
# Density = 2.429713 g / cm^3
# Si number density = 24.352553 Si / 1000 Ang^3
#
#
#
# Elastic Constant Matrix: (Units=GPa)
#
#
# Indices 1 2 3 4 5 6 
#
# 1 130.1265 40.6684 74.9461 0.0000 0.0000 0.0000
# 2 40.6684 124.1716 46.6926 0.0000 0.0000 0.0000
# 3 74.9461 46.6926 233.9530 0.0000 0.0000 0.0000
# 4 0.0000 0.0000 0.0000 202.7993 0.0000 0.0000
# 5 0.0000 0.0000 0.0000 0.0000 46.4125 0.0000
# 6 0.0000 0.0000 0.0000 0.0000 0.0000 50.6918
#
#
#
# Elastic Compliance Matrix: (Units=1/GPa)
#
#
# Indices 1 2 3 4 5 6 
#
# 1 0.009964 -0.002230 -0.002747 0.000000 0.000000 0.000000
# 2 -0.002230 0.009206 -0.001123 0.000000 0.000000 0.000000
# 3 -0.002747 -0.001123 0.005378 0.000000 0.000000 0.000000
# 4 0.000000 0.000000 0.000000 0.004931 0.000000 0.000000
# 5 0.000000 0.000000 0.000000 0.000000 0.021546 0.000000
# 6 0.000000 0.000000 0.000000 0.000000 0.000000 0.019727
#
#
# Mechanical properties :
#
#
# Convention : Reuss Voigt Hill
#
# Bulk Modulus (GPa) = 80.98309 90.31836 85.65073
# Shear Modulus (GPa) = 57.42600 81.71032 69.56816
#
# Velocity S-wave (km/s) = 4.86131 5.79879 5.35062
# Velocity P-wave (km/s) = 8.05210 9.05555 8.56853
#
# Compressibility (1/GPa) = 0.01234826
#
# Stress axis : x y z
#
# Youngs Moduli (GPa) = 100.36228 108.62340 185.92992
#
# Poissons Ratio (x) = 0.24228 0.51070
# Poissons Ratio (y) = 0.22386 0.20877
# Poissons Ratio (z) = 0.27567 0.12197
#
# Static dielectric constant tensor:
#      x y z
#    x 0.598400 0.000000 0.000000 
#    y 0.000000 -16.018450 0.000000 
#    z 0.000000 0.000000 2.038060 
# 
# From -- ./inp_files/19882.got.cif
#   From: 2010.05.17/outbox.cif.g08.bks.cpg/sg37_10_cif.got.tgz:19882.got - 2010.06.03 17:53:42.
