data_PCOD9355145
_publ_section_title
;
Structure prediction by ZEFSAII (Michael W. Deem and Ramdas Pophale) SiO2 
 PCOD9355145
Probable space group: C C C 2
;
_chemical_formula_sum "Si O2"
_cell_formula_units_Z 60
_cell_length_a 25.080208
_cell_length_b 11.974255
_cell_length_c 8.606309
_cell_angle_alpha 90.000000
_cell_angle_beta 90.000000
_cell_angle_gamma 90.000000
_cell_volume 2584.619231
_symmetry_space_group_name_H-M "C C C 2"
_symmetry_group_IT_number 37
_symmetry_cell_setting 'orthorhombic'
loop_
_space_group_symop_operation_xyz
x,y,z
-x,-y,z
-x,y,1/2+z
x,-y,1/2+z
1/2+x,1/2+y,z
1/2-x,1/2-y,z
1/2-x,1/2+y,1/2+z
1/2+x,1/2-y,1/2+z
loop_
_atom_site_type_symbol
_atom_site_label
_atom_site_fract_x
_atom_site_fract_y
_atom_site_fract_z
Si Si1 0.160534 0.413987 0.131110
Si Si2 0.622947 0.546837 0.105694
Si Si3 0.545466 0.908748 0.973237
Si Si4 0.649115 0.141220 0.992838
Si Si5 0.750000 0.750000 0.180336
Si Si6 0.048321 0.086906 0.826965
Si Si7 0.817688 0.124059 0.902196
Si Si8 0.962413 0.313256 0.156604
O O1 0.104947 0.410747 0.037129
O O2 0.177133 0.542158 0.091393
O O3 0.148417 0.396860 0.313144
O O4 0.201816 0.312246 0.089044
O O5 0.583878 0.458363 0.184394
O O6 0.640424 0.616880 0.257084
O O7 0.588027 0.602162 0.971916
O O8 0.670766 0.481133 0.014069
O O9 0.515565 0.808670 0.057255
O O10 0.500000 0.000000 0.013811
O O11 0.546050 0.906063 0.789028
O O12 0.589161 0.169503 0.048992
O O13 0.676361 0.262518 0.999055
O O14 0.766085 0.852228 0.296583
O O15 0.031668 0.204316 0.761196
O O16 0.000000 0.000000 0.858881
#
# Coordination Sequence:
#
# PCOD9355145 Si02
#       8
#     8   8   8   8   4   8   8   8
#     4  11  25  47  75 104 153 193 259 317 388 470
#     4  10  23  44  69  95 145 188 246 310 371 452
#     4  12  26  42  67 107 150 196 243 310 379 470
#     4  11  23  45  72 105 146 197 251 319 387 467
#     4  10  26  46  78 108 142 198 260 322 386 458
#     4  11  25  40  65 102 142 195 250 299 369 460
#     4  10  23  46  73 101 141 190 250 319 384 445
#     4  12  26  41  69 104 147 201 246 300 392 469
#
# _framework density 23.214252999999999
#
# number of rings (size 3 to 8) (size 9 to 14) (size 15 to 20)
#    0.000    1.067    2.667    2.400    7.467    4.267 
#    0.000    0.000    0.000    8.000    0.000    0.000 
#    0.000    0.000    0.000    0.000    0.000    0.000 
#
# Total GULP energy -167238.041984 kJ/mol
# GULP energy per Si atom -5574.601399 kJ/mol
# Density = 2.316142 g / cm^3
# Si number density = 23.214253 Si / 1000 Ang^3
#
#
#
# Elastic Constant Matrix: (Units=GPa)
#
#
# Indices 1 2 3 4 5 6 
#
# 1 96.8091 29.2063 16.8360 0.0000 0.0000 0.0000
# 2 29.2063 90.1986 21.7704 0.0000 0.0000 0.0000
# 3 16.8360 21.7704 90.2065 0.0000 0.0000 0.0000
# 4 0.0000 0.0000 0.0000 31.6775 0.0000 0.0000
# 5 0.0000 0.0000 0.0000 0.0000 12.9490 0.0000
# 6 0.0000 0.0000 0.0000 0.0000 0.0000 30.3646
#
#
#
# Elastic Compliance Matrix: (Units=1/GPa)
#
#
# Indices 1 2 3 4 5 6 
#
# 1 0.011598 -0.003433 -0.001336 0.000000 0.000000 0.000000
# 2 -0.003433 0.012788 -0.002446 0.000000 0.000000 0.000000
# 3 -0.001336 -0.002446 0.011925 0.000000 0.000000 0.000000
# 4 0.000000 0.000000 0.000000 0.031568 0.000000 0.000000
# 5 0.000000 0.000000 0.000000 0.000000 0.077226 0.000000
# 6 0.000000 0.000000 0.000000 0.000000 0.000000 0.032933
#
#
# Mechanical properties :
#
#
# Convention : Reuss Voigt Hill
#
# Bulk Modulus (GPa) = 45.69922 45.87107 45.78514
# Shear Modulus (GPa) = 25.02982 28.95832 26.99407
#
# Velocity S-wave (km/s) = 3.28717 3.53574 3.41372
# Velocity P-wave (km/s) = 5.84259 6.03915 5.94169
#
# Compressibility (1/GPa) = 0.02188221
#
# Stress axis : x y z
#
# Youngs Moduli (GPa) = 86.22459 78.19533 83.85552
#
# Poissons Ratio (x) = 0.26843 0.11204
# Poissons Ratio (y) = 0.29599 0.20508
# Poissons Ratio (z) = 0.11520 0.19124
#
# Static dielectric constant tensor:
#      x y z
#    x 2.165850 0.000000 0.000000 
#    y 0.000000 2.254990 0.000000 
#    z 0.000000 0.000000 1.817240 
# 
# From -- ./inp_files/4803.got.cif
#   From: 2010.05.17/outbox.cif.g08.bks.cpg/sg37_3_cif.got.tgz:4803.got - 2010.06.03 17:53:42.
