data_PCOD9355911
_publ_section_title
;
Structure prediction by ZEFSAII (Michael W. Deem and Ramdas Pophale) SiO2 
 PCOD9355911
Probable space group: A M M 2
;
_chemical_formula_sum "Si O2"
_cell_formula_units_Z 64
_cell_length_a 8.514780
_cell_length_b 24.045931
_cell_length_c 19.768333
_cell_angle_alpha 90.000000
_cell_angle_beta 90.000000
_cell_angle_gamma 90.000000
_cell_volume 4047.483399
_symmetry_space_group_name_H-M "A M M 2"
_symmetry_group_IT_number 38
_symmetry_cell_setting 'orthorhombic'
loop_
_space_group_symop_operation_xyz
x,y,z
-x,-y,z
-x,y,z
x,-y,z
x,1/2+y,1/2+z
-x,1/2-y,1/2+z
-x,1/2+y,1/2+z
x,1/2-y,1/2+z
loop_
_atom_site_type_symbol
_atom_site_label
_atom_site_fract_x
_atom_site_fract_y
_atom_site_fract_z
Si Si1 0.812165 0.063386 0.881980
Si Si2 0.690108 0.748792 0.518012
Si Si3 0.689707 0.118586 0.019176
Si Si4 0.688091 0.161947 0.794908
Si Si5 0.308236 0.936552 0.160828
Si Si6 0.814002 0.730830 0.873962
Si Si7 0.689773 0.836004 0.252382
Si Si8 0.690658 0.272876 0.166478
O O1 0.755151 0.105054 0.823788
O O2 0.000000 0.063490 0.882887
O O3 0.756401 0.000000 0.873125
O O4 0.752604 0.087663 0.953262
O O5 0.500000 0.750987 0.515041
O O6 0.735538 0.683454 0.518856
O O7 0.758180 0.775952 0.450701
O O8 0.743358 0.775260 0.589102
O O9 0.500000 0.116992 0.017294
O O10 0.740679 0.088638 0.088385
O O11 0.500000 0.158999 0.795211
O O12 0.737062 0.212685 0.844167
O O13 0.742437 0.180379 0.719910
O O14 0.500000 0.936501 0.160555
O O15 0.259871 0.894275 0.219998
O O16 0.255783 0.000000 0.168942
O O17 0.760496 0.681670 0.823983
O O18 0.000000 0.737163 0.871253
O O19 0.500000 0.835514 0.258069
O O20 0.732570 0.786611 0.199767
O O21 0.500000 0.274243 0.165236
#
# Coordination Sequence:
#
# PCOD9355911 Si02
#       8
#     8   8   8   8   8   8   8   8
#     4  11  23  35  46  65  98 135 165 196 232 271
#     4  10  17  29  49  72  96 126 156 190 236 287
#     4  10  18  29  48  71  96 129 166 198 228 273
#     4  10  19  33  52  71  90 120 159 200 240 281
#     4   9  16  27  47  74  98 123 162 206 240 272
#     4  11  21  31  45  68  97 126 157 196 237 283
#     4   9  16  30  48  67  92 125 159 195 235 279
#     4   8  15  28  48  70  92 117 152 194 238 281
#
# _framework density 15.812295000000001
#
# number of rings (size 3 to 8) (size 9 to 14) (size 15 to 20)
#    0.000    2.250    2.500    3.000    0.000    1.500 
#    0.000    3.750    0.000    1.125    0.000    0.875 
#    0.000    3.000    0.000    0.000    0.000    0.000 
#
# Total GULP energy -178468.065840 kJ/mol
# GULP energy per Si atom -5577.127058 kJ/mol
# Density = 1.577631 g / cm^3
# Si number density = 15.812295 Si / 1000 Ang^3
#
#
#
# Elastic Constant Matrix: (Units=GPa)
#
#
# Indices 1 2 3 4 5 6 
#
# 1 16.8039 17.0347 19.3870 0.0000 0.0000 0.0000
# 2 17.0347 99.4533 74.5703 0.0000 0.0000 0.0000
# 3 19.3870 74.5703 152.9465 0.0000 0.0000 0.0000
# 4 0.0000 0.0000 0.0000 19.8693 0.0000 0.0000
# 5 0.0000 0.0000 0.0000 0.0000 -18.9602 0.0000
# 6 0.0000 0.0000 0.0000 0.0000 0.0000 12.2470
#
#
#
# Elastic Compliance Matrix: (Units=1/GPa)
#
#
# Indices 1 2 3 4 5 6 
#
# 1 0.074431 -0.008945 -0.005074 0.000000 0.000000 0.000000
# 2 -0.008945 0.016924 -0.007118 0.000000 0.000000 0.000000
# 3 -0.005074 -0.007118 0.010652 0.000000 0.000000 0.000000
# 4 0.000000 0.000000 0.000000 0.050329 0.000000 0.000000
# 5 0.000000 0.000000 0.000000 0.000000 -0.052742 0.000000
# 6 0.000000 0.000000 0.000000 0.000000 0.000000 0.081653
#
#
# Mechanical properties :
#
#
# Convention : Reuss Voigt Hill
#
# Bulk Modulus (GPa) = 16.74060 54.57640 35.65850
# Shear Modulus (GPa) = 20.53983 13.17865 16.85924
#
# Velocity S-wave (km/s) = 3.60804 2.89007 3.26883
# Velocity P-wave (km/s) = 5.28842 6.76216 6.07018
#
# Compressibility (1/GPa) = 0.05973500
#
# Stress axis : x y z
#
# Youngs Moduli (GPa) = 13.43522 59.08843 93.88289
#
# Poissons Ratio (x) = 0.52852 0.47633
# Poissons Ratio (y) = 0.12017 0.66822
# Poissons Ratio (z) = 0.06817 0.42056
#
# Static dielectric constant tensor:
#      x y z
#    x 1.531660 0.000000 0.000000 
#    y 0.000000 1.516020 0.000000 
#    z 0.000000 0.000000 1.531980 
# 
# From -- ./inp_files/17263.got.cif
#   From: 2010.05.17/outbox.cif.g08.bks.cpg/sg38_9_cif.got.tgz:17263.got - 2010.06.03 18:07:57.
