data_PCOD9355382
_publ_section_title
;
Structure prediction by ZEFSAII (Michael W. Deem and Ramdas Pophale) SiO2 
 PCOD9355382
Probable space group: C C C 2
;
_chemical_formula_sum "Si O2"
_cell_formula_units_Z 24
_cell_length_a 5.491625
_cell_length_b 14.162057
_cell_length_c 13.734714
_cell_angle_alpha 90.000000
_cell_angle_beta 90.000000
_cell_angle_gamma 90.000000
_cell_volume 1068.185878
_symmetry_space_group_name_H-M "C C C 2"
_symmetry_group_IT_number 37
_symmetry_cell_setting 'orthorhombic'
loop_
_space_group_symop_operation_xyz
x,y,z
-x,-y,z
-x,y,1/2+z
x,-y,1/2+z
1/2+x,1/2+y,z
1/2-x,1/2-y,z
1/2-x,1/2+y,1/2+z
1/2+x,1/2-y,1/2+z
loop_
_atom_site_type_symbol
_atom_site_label
_atom_site_fract_x
_atom_site_fract_y
_atom_site_fract_z
Si Si1 0.750823 0.959540 0.967770
Si Si2 0.750000 0.250000 0.531888
Si Si3 0.501909 0.210945 0.720778
Si Si4 0.500000 0.000000 0.778929
O O1 0.723249 0.992588 0.855706
O O2 0.500000 0.000000 0.013143
O O3 0.749543 0.846957 0.974211
O O4 0.000000 0.000000 0.010902
O O5 0.529259 0.247662 0.609909
O O6 0.250000 0.250000 0.761576
O O7 0.750000 0.250000 0.770822
O O8 0.511762 0.098056 0.723028
#
# Coordination Sequence:
#
# PCOD9355382 Si02
#       4
#     8   4   8   4
#     4  10  26  40  67  93 130 168 213 264 315 380
#     4  10  26  42  70  92 132 166 218 258 324 370
#     4  10  26  40  67  92 129 168 213 264 315 380
#     4  10  26  40  66  94 134 166 218 258 324 368
#
# _framework density 22.467998000000001
#
# number of rings (size 3 to 8) (size 9 to 14) (size 15 to 20)
#    2.000    0.000    0.000    0.000   14.000    0.000 
#    0.000    0.000    0.000    0.000    0.000    0.000 
#    0.000    0.000    0.000    0.000    0.000    0.000 
#
# Total GULP energy -66854.294344 kJ/mol
# GULP energy per Si atom -5571.191195 kJ/mol
# Density = 2.241686 g / cm^3
# Si number density = 22.467998 Si / 1000 Ang^3
#
#
#
# Elastic Constant Matrix: (Units=GPa)
#
#
# Indices 1 2 3 4 5 6 
#
# 1 201.6184 81.7535 11.7784 0.0000 0.0000 0.0000
# 2 81.7535 204.9702 17.0632 0.0000 0.0000 0.0000
# 3 11.7784 17.0632 39.7512 0.0000 0.0000 0.0000
# 4 0.0000 0.0000 0.0000 4.2719 0.0000 0.0000
# 5 0.0000 0.0000 0.0000 0.0000 -3.3851 0.0000
# 6 0.0000 0.0000 0.0000 0.0000 0.0000 9.0300
#
#
#
# Elastic Compliance Matrix: (Units=1/GPa)
#
#
# Indices 1 2 3 4 5 6 
#
# 1 0.005939 -0.002305 -0.000771 0.000000 0.000000 0.000000
# 2 -0.002305 0.005954 -0.001873 0.000000 0.000000 0.000000
# 3 -0.000771 -0.001873 0.026189 0.000000 0.000000 0.000000
# 4 0.000000 0.000000 0.000000 0.234088 0.000000 0.000000
# 5 0.000000 0.000000 0.000000 0.000000 -0.295411 0.000000
# 6 0.000000 0.000000 0.000000 0.000000 0.000000 0.110742
#
#
# Mechanical properties :
#
#
# Convention : Reuss Voigt Hill
#
# Bulk Modulus (GPa) = 35.47889 74.16998 54.82443
# Shear Modulus (GPa) = 46.81997 24.36635 35.59316
#
# Velocity S-wave (km/s) = 4.56987 3.29673 3.98448
# Velocity P-wave (km/s) = 6.60834 6.89741 6.75442
#
# Compressibility (1/GPa) = 0.02818578
#
# Stress axis : x y z
#
# Youngs Moduli (GPa) = 168.36548 167.95539 38.18440
#
# Poissons Ratio (x) = 0.38711 0.02942
# Poissons Ratio (y) = 0.38806 0.07151
# Poissons Ratio (z) = 0.12973 0.31455
#
# Static dielectric constant tensor:
#      x y z
#    x 1.888340 0.000000 0.000000 
#    y 0.000000 1.923580 0.000000 
#    z 0.000000 0.000000 1.859040 
# 
# From -- ./inp_files/9371.got.cif
#   From: 2010.05.17/outbox.cif.g08.bks.cpg/sg37_5_cif.got.tgz:9371.got - 2010.06.03 17:53:42.
