data_PCOD9355445
_publ_section_title
;
Structure prediction by ZEFSAII (Michael W. Deem and Ramdas Pophale) SiO2 
 PCOD9355445
Probable space group: C C C 2
;
_chemical_formula_sum "Si O2"
_cell_formula_units_Z 56
_cell_length_a 10.945496
_cell_length_b 16.280297
_cell_length_c 14.638370
_cell_angle_alpha 90.000000
_cell_angle_beta 90.000000
_cell_angle_gamma 90.000000
_cell_volume 2608.497893
_symmetry_space_group_name_H-M "C C C 2"
_symmetry_group_IT_number 37
_symmetry_cell_setting 'orthorhombic'
loop_
_space_group_symop_operation_xyz
x,y,z
-x,-y,z
-x,y,1/2+z
x,-y,1/2+z
1/2+x,1/2+y,z
1/2-x,1/2-y,z
1/2-x,1/2+y,1/2+z
1/2+x,1/2-y,1/2+z
loop_
_atom_site_type_symbol
_atom_site_label
_atom_site_fract_x
_atom_site_fract_y
_atom_site_fract_z
Si Si1 0.493389 0.184905 0.386790
Si Si2 0.323341 0.535761 0.199336
Si Si3 0.692561 0.468169 0.506182
Si Si4 0.246284 0.905209 0.852132
Si Si5 0.554844 0.905251 0.062277
Si Si6 0.535489 0.369797 0.358386
Si Si7 0.432593 0.085985 0.732894
O O1 0.356670 0.160098 0.351486
O O2 0.495903 0.155713 0.490162
O O3 0.553007 0.272844 0.367891
O O4 0.581464 0.124283 0.331080
O O5 0.362845 0.508311 0.098391
O O6 0.270751 0.460504 0.261085
O O7 0.415988 0.586277 0.264935
O O8 0.198094 0.585545 0.185147
O O9 0.758435 0.533830 0.438973
O O10 0.802080 0.411621 0.543038
O O11 0.597946 0.419896 0.441350
O O12 0.110521 0.871672 0.864804
O O13 0.523294 0.871240 0.162117
O O14 0.500000 0.000000 0.058054
O O15 0.500000 0.000000 0.749577
#
# Coordination Sequence:
#
# PCOD9355445 Si02
#       7
#     8   8   8   8   8   8   8
#     4  12  22  42  66  95 142 167 208 301 333 377
#     4  11  21  41  69  95 127 174 228 279 316 403
#     4  11  21  41  69  95 127 174 228 279 316 403
#     4  11  22  41  65  89 128 186 226 255 330 414
#     4  11  20  38  69 101 121 169 231 267 330 406
#     4  11  28  40  59 102 135 174 224 271 351 391
#     4  11  20  38  69 101 121 169 231 267 330 406
#
# _framework density 21.468292999999999
#
# number of rings (size 3 to 8) (size 9 to 14) (size 15 to 20)
#    0.000    0.857    5.714    4.286    0.000    4.571 
#    5.143    0.000    0.000    0.000    0.000    0.000 
#    0.000    0.000    0.000    0.000    0.000    0.000 
#
# Total GULP energy -156144.250441 kJ/mol
# GULP energy per Si atom -5576.580373 kJ/mol
# Density = 2.141943 g / cm^3
# Si number density = 21.468293 Si / 1000 Ang^3
#
#
#
# Elastic Constant Matrix: (Units=GPa)
#
#
# Indices 1 2 3 4 5 6 
#
# 1 82.3674 13.8495 10.1128 0.0000 0.0000 0.0000
# 2 13.8495 74.0606 38.1973 0.0000 0.0000 0.0000
# 3 10.1128 38.1973 135.7672 0.0000 0.0000 0.0000
# 4 0.0000 0.0000 0.0000 8.5396 0.0000 0.0000
# 5 0.0000 0.0000 0.0000 0.0000 15.4050 0.0000
# 6 0.0000 0.0000 0.0000 0.0000 0.0000 18.9851
#
#
#
# Elastic Compliance Matrix: (Units=1/GPa)
#
#
# Indices 1 2 3 4 5 6 
#
# 1 0.012547 -0.002181 -0.000321 0.000000 0.000000 0.000000
# 2 -0.002181 0.016173 -0.004388 0.000000 0.000000 0.000000
# 3 -0.000321 -0.004388 0.008624 0.000000 0.000000 0.000000
# 4 0.000000 0.000000 0.000000 0.117102 0.000000 0.000000
# 5 0.000000 0.000000 0.000000 0.000000 0.064914 0.000000
# 6 0.000000 0.000000 0.000000 0.000000 0.000000 0.052673
#
#
# Mechanical properties :
#
#
# Convention : Reuss Voigt Hill
#
# Bulk Modulus (GPa) = 42.43592 46.27936 44.35764
# Shear Modulus (GPa) = 17.02611 23.92165 20.47388
#
# Velocity S-wave (km/s) = 2.81923 3.34170 3.09152
# Velocity P-wave (km/s) = 5.51426 6.04096 5.78361
#
# Compressibility (1/GPa) = 0.02356494
#
# Stress axis : x y z
#
# Youngs Moduli (GPa) = 79.70151 61.83022 115.95611
#
# Poissons Ratio (x) = 0.13483 0.03723
# Poissons Ratio (y) = 0.17381 0.50880
# Poissons Ratio (z) = 0.02559 0.27130
#
# Static dielectric constant tensor:
#      x y z
#    x 1.868350 0.000000 0.000000 
#    y 0.000000 1.872390 0.000000 
#    z 0.000000 0.000000 1.782500 
# 
# From -- ./inp_files/11621.got.cif
#   From: 2010.05.17/outbox.cif.g08.bks.cpg/sg37_6_cif.got.tgz:11621.got - 2010.06.03 17:53:42.
