data_PCOD9355631
_publ_section_title
;
Structure prediction by ZEFSAII (Michael W. Deem and Ramdas Pophale) SiO2 
 PCOD9355631
Probable space group: C C C 2
;
_chemical_formula_sum "Si O2"
_cell_formula_units_Z 36
_cell_length_a 5.182764
_cell_length_b 14.637342
_cell_length_c 19.361252
_cell_angle_alpha 90.000000
_cell_angle_beta 90.000000
_cell_angle_gamma 90.000000
_cell_volume 1468.781153
_symmetry_space_group_name_H-M "C C C 2"
_symmetry_group_IT_number 37
_symmetry_cell_setting 'orthorhombic'
loop_
_space_group_symop_operation_xyz
x,y,z
-x,-y,z
-x,y,1/2+z
x,-y,1/2+z
1/2+x,1/2+y,z
1/2-x,1/2-y,z
1/2-x,1/2+y,1/2+z
1/2+x,1/2-y,1/2+z
loop_
_atom_site_type_symbol
_atom_site_label
_atom_site_fract_x
_atom_site_fract_y
_atom_site_fract_z
Si Si1 0.715015 0.144245 0.172790
Si Si2 0.490406 0.189173 0.421796
Si Si3 0.862840 0.351591 0.560535
Si Si4 0.500000 0.500000 0.576601
Si Si5 0.264340 0.943119 0.312039
O O1 0.750000 0.250000 0.154728
O O2 0.435934 0.124154 0.139253
O O3 0.876075 0.075200 0.126445
O O4 0.788636 0.130216 0.251941
O O5 0.750000 0.250000 0.425031
O O6 0.423212 0.157550 0.499970
O O7 0.586286 0.105721 0.374867
O O8 0.250000 0.250000 0.395164
O O9 0.750000 0.250000 0.564474
O O10 0.692446 0.436231 0.533972
O O11 0.500000 0.000000 0.278582
O O12 0.000000 0.000000 0.326663
#
# Coordination Sequence:
#
# PCOD9355631 Si02
#       5
#     8   8   8   4   8
#     4  12  25  46  74 107 151 200 260 323 394 468
#     4  11  26  49  75 110 154 207 266 318 397 478
#     4  11  25  44  76 109 154 202 264 326 398 468
#     4  12  24  44  70 110 146 198 256 322 390 468
#     4  12  27  47  76 113 157 205 265 327 399 476
#
# _framework density 24.510116
#
# number of rings (size 3 to 8) (size 9 to 14) (size 15 to 20)
#    0.000    0.444    3.333    4.667    4.667    2.667 
#    0.000    0.000    0.000    0.000    0.000    0.000 
#    0.000    0.000    0.000    0.000    0.000    0.000 
#
# Total GULP energy -100383.740748 kJ/mol
# GULP energy per Si atom -5576.874486 kJ/mol
# Density = 2.445433 g / cm^3
# Si number density = 24.510116 Si / 1000 Ang^3
#
#
#
# Elastic Constant Matrix: (Units=GPa)
#
#
# Indices 1 2 3 4 5 6 
#
# 1 127.6652 55.5388 15.6920 0.0000 0.0000 0.0000
# 2 55.5388 154.5640 30.9658 0.0000 0.0000 0.0000
# 3 15.6920 30.9658 114.2179 0.0000 0.0000 0.0000
# 4 0.0000 0.0000 0.0000 26.6583 0.0000 0.0000
# 5 0.0000 0.0000 0.0000 0.0000 -7.5486 0.0000
# 6 0.0000 0.0000 0.0000 0.0000 0.0000 47.3772
#
#
#
# Elastic Compliance Matrix: (Units=1/GPa)
#
#
# Indices 1 2 3 4 5 6 
#
# 1 0.009301 -0.003263 -0.000393 0.000000 0.000000 0.000000
# 2 -0.003263 0.007986 -0.001717 0.000000 0.000000 0.000000
# 3 -0.000393 -0.001717 0.009275 0.000000 0.000000 0.000000
# 4 0.000000 0.000000 0.000000 0.037512 0.000000 0.000000
# 5 0.000000 0.000000 0.000000 0.000000 -0.132474 0.000000
# 6 0.000000 0.000000 0.000000 0.000000 0.000000 0.021107
#
#
# Mechanical properties :
#
#
# Convention : Reuss Voigt Hill
#
# Bulk Modulus (GPa) = 63.22940 66.76003 64.99471
# Shear Modulus (GPa) = -159.87276 32.91406 -63.47935
#
# Velocity S-wave (km/s) = -8.08510 3.66850 -5.09465
# Velocity P-wave (km/s) = 7.82976 6.72613 2.83412
#
# Compressibility (1/GPa) = 0.01581543
#
# Stress axis : x y z
#
# Youngs Moduli (GPa) = 107.51571 125.21341 107.82067
#
# Poissons Ratio (x) = 0.40861 0.04238
# Poissons Ratio (y) = 0.35086 0.18511
# Poissons Ratio (z) = 0.04226 0.21497
#
# Static dielectric constant tensor:
#      x y z
#    x 2.324200 0.000000 0.000000 
#    y 0.000000 1.969000 0.000000 
#    z 0.000000 0.000000 1.914880 
# 
# From -- ./inp_files/15572.got.cif
#   From: 2010.05.17/outbox.cif.g08.bks.cpg/sg37_8_cif.got.tgz:15572.got - 2010.06.03 17:53:42.
