data_PCOD9355894
_publ_section_title
;
Structure prediction by ZEFSAII (Michael W. Deem and Ramdas Pophale) SiO2 
 PCOD9355894
Probable space group: A M M 2
;
_chemical_formula_sum "Si O2"
_cell_formula_units_Z 64
_cell_length_a 7.716383
_cell_length_b 24.174834
_cell_length_c 19.868177
_cell_angle_alpha 90.000000
_cell_angle_beta 90.000000
_cell_angle_gamma 90.000000
_cell_volume 3706.254999
_symmetry_space_group_name_H-M "A M M 2"
_symmetry_group_IT_number 38
_symmetry_cell_setting 'orthorhombic'
loop_
_space_group_symop_operation_xyz
x,y,z
-x,-y,z
-x,y,z
x,-y,z
x,1/2+y,1/2+z
-x,1/2-y,1/2+z
-x,1/2+y,1/2+z
x,1/2-y,1/2+z
loop_
_atom_site_type_symbol
_atom_site_label
_atom_site_fract_x
_atom_site_fract_y
_atom_site_fract_z
Si Si1 0.793318 0.665768 0.098070
Si Si2 0.206387 0.269037 0.970249
Si Si3 0.291662 0.752951 0.822301
Si Si4 0.295296 0.725554 0.678385
Si Si5 0.707945 0.562489 0.183189
Si Si6 0.295627 0.161100 0.051343
Si Si7 0.288043 0.880346 0.821323
Si Si8 0.287545 0.936950 0.960819
O O1 0.721767 0.712186 0.149285
O O2 0.746394 0.605095 0.123338
O O3 0.000000 0.670597 0.100185
O O4 0.733859 0.684431 0.023562
O O5 0.251255 0.276390 0.892503
O O6 0.000000 0.265139 0.975481
O O7 0.279642 0.210777 0.997339
O O8 0.500000 0.755607 0.816673
O O9 0.223913 0.724953 0.753910
O O10 0.229581 0.816671 0.824739
O O11 0.500000 0.713518 0.682522
O O12 0.220204 0.685018 0.621103
O O13 0.500000 0.559413 0.188876
O O14 0.773683 0.500000 0.174134
O O15 0.771189 0.589876 0.253017
O O16 0.500000 0.151907 0.062212
O O17 0.225041 0.105499 0.018009
O O18 0.500000 0.879856 0.820476
O O19 0.235202 0.913305 0.888008
O O20 0.500000 0.936209 0.961417
O O21 0.232404 0.000000 0.970078
#
# Coordination Sequence:
#
# PCOD9355894 Si02
#       8
#     8   8   8   8   8   8   8   8
#     4  10  20  32  45  64  91 121 152 188 231 273
#     4  10  20  31  44  64  90 118 149 188 231 271
#     4  10  17  28  46  66  87 118 151 182 224 270
#     4   9  17  29  46  65  88 114 148 189 227 270
#     4  10  19  31  48  68  92 124 159 192 224 263
#     4   9  16  28  45  65  86 114 150 185 219 262
#     4   9  15  25  40  64  92 117 148 180 210 252
#     4   9  15  23  39  63  88 114 145 177 208 248
#
# _framework density 17.268104999999998
#
# number of rings (size 3 to 8) (size 9 to 14) (size 15 to 20)
#    0.000    2.500    2.500    1.125    0.000    3.750 
#    0.000    0.000    0.000    0.375    0.000    0.875 
#    0.000    3.000    0.000    0.000    0.000    0.000 
#
# Total GULP energy -178429.188606 kJ/mol
# GULP energy per Si atom -5575.912144 kJ/mol
# Density = 1.722880 g / cm^3
# Si number density = 17.268105 Si / 1000 Ang^3
#
#
#
# Elastic Constant Matrix: (Units=GPa)
#
#
# Indices 1 2 3 4 5 6 
#
# 1 26.5393 3.3864 4.5100 0.0000 0.0000 0.0000
# 2 3.3864 103.0346 77.5941 0.0000 0.0000 0.0000
# 3 4.5100 77.5941 153.1002 0.0000 0.0000 0.0000
# 4 0.0000 0.0000 0.0000 21.3372 0.0000 0.0000
# 5 0.0000 0.0000 0.0000 0.0000 -195.6314 0.0000
# 6 0.0000 0.0000 0.0000 0.0000 0.0000 -33.2202
#
#
#
# Elastic Compliance Matrix: (Units=1/GPa)
#
#
# Indices 1 2 3 4 5 6 
#
# 1 0.037897 -0.000655 -0.000785 0.000000 0.000000 0.000000
# 2 -0.000655 0.015708 -0.007942 0.000000 0.000000 0.000000
# 3 -0.000785 -0.007942 0.010580 0.000000 0.000000 0.000000
# 4 0.000000 0.000000 0.000000 0.046866 0.000000 0.000000
# 5 0.000000 0.000000 0.000000 0.000000 -0.005112 0.000000
# 6 0.000000 0.000000 0.000000 0.000000 0.000000 -0.030102
#
#
# Mechanical properties :
#
#
# Convention : Reuss Voigt Hill
#
# Bulk Modulus (GPa) = 22.01552 50.40612 36.21082
# Shear Modulus (GPa) = 45.56225 -28.35731 8.60247
#
# Velocity S-wave (km/s) = 5.14223 -4.05678 2.23440
# Velocity P-wave (km/s) = 6.93063 2.70378 5.26042
#
# Compressibility (1/GPa) = 0.04542251
#
# Stress axis : x y z
#
# Youngs Moduli (GPa) = 26.38742 63.66251 94.51967
#
# Poissons Ratio (x) = 0.04168 0.07415
# Poissons Ratio (y) = 0.01728 0.75065
# Poissons Ratio (z) = 0.02070 0.50559
#
# Static dielectric constant tensor:
#      x y z
#    x 1.632860 0.000000 0.000000 
#    y 0.000000 1.574050 0.000000 
#    z 0.000000 0.000000 1.621240 
# 
# From -- ./inp_files/17307.got.cif
#   From: 2010.05.17/outbox.cif.g08.bks.cpg/sg38_9_cif.got.tgz:17307.got - 2010.06.03 18:07:57.
