data_PCOD9355144
_publ_section_title
;
Structure prediction by ZEFSAII (Michael W. Deem and Ramdas Pophale) SiO2 
 PCOD9355144
Probable space group: C C C 2
;
_chemical_formula_sum "Si O2"
_cell_formula_units_Z 48
_cell_length_a 9.100423
_cell_length_b 15.738530
_cell_length_c 14.919418
_cell_angle_alpha 90.000000
_cell_angle_beta 90.000000
_cell_angle_gamma 90.000000
_cell_volume 2136.867665
_symmetry_space_group_name_H-M "C C C 2"
_symmetry_group_IT_number 37
_symmetry_cell_setting 'orthorhombic'
loop_
_space_group_symop_operation_xyz
x,y,z
-x,-y,z
-x,y,1/2+z
x,-y,1/2+z
1/2+x,1/2+y,z
1/2-x,1/2-y,z
1/2-x,1/2+y,1/2+z
1/2+x,1/2-y,1/2+z
loop_
_atom_site_type_symbol
_atom_site_label
_atom_site_fract_x
_atom_site_fract_y
_atom_site_fract_z
Si Si1 0.888676 0.692326 0.878760
Si Si2 0.120876 0.075481 0.433150
Si Si3 0.435105 0.091982 0.525984
Si Si4 0.879124 0.424519 0.212034
Si Si5 0.888676 0.192326 0.766424
Si Si6 0.564896 0.408018 0.119200
O O1 0.750000 0.750000 0.903118
O O2 0.850169 0.619135 0.806876
O O3 0.000000 0.750000 0.822592
O O4 0.969735 0.649654 0.961488
O O5 0.283708 0.064660 0.475559
O O6 0.149831 0.119135 0.338308
O O7 0.064453 0.131832 0.518441
O O8 0.000000 0.000000 0.418685
O O9 0.435547 0.131832 0.626743
O O10 0.500000 0.000000 0.543453
O O11 0.716292 0.435340 0.169625
O O12 0.000000 0.500000 0.226499
O O13 0.750000 0.250000 0.742065
O O14 0.969735 0.149654 0.683696
O O15 0.500000 0.500000 0.101731
#
# Coordination Sequence:
#
# PCOD9355144 Si02
#       6
#     8   8   8   8   8   8
#     4  12  25  42  65 100 136 176 216 271 342 400
#     4  10  23  44  69  94 131 177 225 274 330 393
#     4  10  23  44  69  96 128 177 228 274 323 398
#     4  10  23  44  69  94 131 177 225 274 330 393
#     4  12  25  42  65 100 136 176 216 271 342 400
#     4  10  23  44  69  96 128 177 228 274 323 398
#
# _framework density 22.462785
#
# number of rings (size 3 to 8) (size 9 to 14) (size 15 to 20)
#    0.000    1.333    3.333    1.000    4.667    4.000 
#    0.000    1.667    0.000    0.000    0.000    0.000 
#    0.000    0.000    0.000    0.000    0.000    0.000 
#
# Total GULP energy -133658.204617 kJ/mol
# GULP energy per Si atom -5569.091859 kJ/mol
# Density = 2.241166 g / cm^3
# Si number density = 22.462785 Si / 1000 Ang^3
#
#
#
# Elastic Constant Matrix: (Units=GPa)
#
#
# Indices 1 2 3 4 5 6 
#
# 1 102.0296 26.0678 8.5971 0.0000 0.0000 0.0000
# 2 26.0678 47.9248 13.8464 0.0000 0.0000 0.0000
# 3 8.5971 13.8464 96.2415 0.0000 0.0000 0.0000
# 4 0.0000 0.0000 0.0000 -0.3031 0.0000 0.0000
# 5 0.0000 0.0000 0.0000 0.0000 29.0637 0.0000
# 6 0.0000 0.0000 0.0000 0.0000 0.0000 41.0608
#
#
#
# Elastic Compliance Matrix: (Units=1/GPa)
#
#
# Indices 1 2 3 4 5 6 
#
# 1 0.011385 -0.006154 -0.000132 0.000000 0.000000 0.000000
# 2 -0.006154 0.025098 -0.003061 0.000000 0.000000 0.000000
# 3 -0.000132 -0.003061 0.010843 0.000000 0.000000 0.000000
# 4 0.000000 0.000000 0.000000 -3.299550 0.000000 0.000000
# 5 0.000000 0.000000 0.000000 0.000000 0.034407 0.000000
# 6 0.000000 0.000000 0.000000 0.000000 0.000000 0.024354
#
#
# Mechanical properties :
#
#
# Convention : Reuss Voigt Hill
#
# Bulk Modulus (GPa) = 34.92699 38.13538 36.53118
# Shear Modulus (GPa) = -1.57967 27.14326 12.78180
#
# Velocity S-wave (km/s) = -0.83950 3.47993 2.38800
# Velocity P-wave (km/s) = 3.82660 5.75852 4.88894
#
# Compressibility (1/GPa) = 0.02863116
#
# Stress axis : x y z
#
# Youngs Moduli (GPa) = 87.83814 39.84374 92.22811
#
# Poissons Ratio (x) = 0.24522 0.01213
# Poissons Ratio (y) = 0.54059 0.28232
# Poissons Ratio (z) = 0.01155 0.12197
#
# Static dielectric constant tensor:
#      x y z
#    x 1.813050 0.000000 0.000000 
#    y 0.000000 2.004560 0.000000 
#    z 0.000000 0.000000 1.886610 
# 
# From -- ./inp_files/10580.got.cif
#   From: 2010.05.17/outbox.cif.g08.bks.cpg/sg37_6_cif.got.tgz:10580.got - 2010.06.03 17:53:42.
