data_PCOD9355837
_publ_section_title
;
Structure prediction by ZEFSAII (Michael W. Deem and Ramdas Pophale) SiO2 
 PCOD9355837
Probable space group: A M M 2
;
_chemical_formula_sum "Si O2"
_cell_formula_units_Z 48
_cell_length_a 22.732359
_cell_length_b 19.850589
_cell_length_c 5.506453
_cell_angle_alpha 90.000000
_cell_angle_beta 90.000000
_cell_angle_gamma 90.000000
_cell_volume 2484.790856
_symmetry_space_group_name_H-M "A M M 2"
_symmetry_group_IT_number 38
_symmetry_cell_setting 'orthorhombic'
loop_
_space_group_symop_operation_xyz
x,y,z
-x,-y,z
-x,y,z
x,-y,z
x,1/2+y,1/2+z
-x,1/2-y,1/2+z
-x,1/2+y,1/2+z
x,1/2-y,1/2+z
loop_
_atom_site_type_symbol
_atom_site_label
_atom_site_fract_x
_atom_site_fract_y
_atom_site_fract_z
Si Si1 0.932094 0.418112 0.821510
Si Si2 0.265392 0.133232 0.859557
Si Si3 0.690792 0.146517 0.359984
Si Si4 0.866807 0.918285 0.821065
Si Si5 0.434803 0.207042 0.311975
Si Si6 0.654253 0.500000 0.873757
Si Si7 0.347636 0.500000 0.373651
O O1 0.932132 0.500000 0.822332
O O2 0.900838 0.398182 0.568711
O O3 0.000000 0.396010 0.825067
O O4 0.899111 0.397775 0.070248
O O5 0.286749 0.172090 0.619210
O O6 0.198532 0.111128 0.829178
O O7 0.306947 0.066464 0.873215
O O8 0.276126 0.168888 0.117354
O O9 0.621733 0.160075 0.329179
O O10 0.696032 0.065260 0.374213
O O11 0.863255 0.000000 0.820677
O O12 0.500000 0.175271 0.320186
O O13 0.431079 0.254149 0.553151
O O14 0.618469 0.500000 0.625566
O O15 0.618302 0.500000 0.121710
#
# Coordination Sequence:
#
# PCOD9355837 Si02
#       7
#     8   8   8   8   8   4   4
#     4   9  17  26  35  50  77 117 168 217 243 261
#     4  10  17  27  42  66  93 119 154 193 245 288
#     4  10  19  31  49  72  99 125 154 198 249 289
#     4  10  17  25  39  57  82 119 164 203 238 283
#     4  10  21  38  58  76  95 125 168 205 231 279
#     4   8  16  26  43  66  94 122 145 182 234 288
#     4   8  14  24  36  56  86 118 148 178 218 280
#
# _framework density 19.317522
#
# number of rings (size 3 to 8) (size 9 to 14) (size 15 to 20)
#    0.000    2.500    0.833    2.500    0.000    2.000 
#    0.000    0.417    0.000    0.000    0.000   10.500 
#    0.000    0.000    0.000    0.000    0.000  210.000 
#
# Total GULP energy -133620.378859 kJ/mol
# GULP energy per Si atom -5567.515786 kJ/mol
# Density = 1.927355 g / cm^3
# Si number density = 19.317522 Si / 1000 Ang^3
#
#
#
# Elastic Constant Matrix: (Units=GPa)
#
#
# Indices 1 2 3 4 5 6 
#
# 1 78.0589 -4.0302 -2.4549 0.0000 0.0000 0.0000
# 2 -4.0302 29.1952 -11.7800 0.0000 0.0000 0.0000
# 3 -2.4549 -11.7800 152.7306 0.0000 0.0000 0.0000
# 4 0.0000 0.0000 0.0000 -2.4577 0.0000 0.0000
# 5 0.0000 0.0000 0.0000 0.0000 33.4261 0.0000
# 6 0.0000 0.0000 0.0000 0.0000 0.0000 15.7436
#
#
#
# Elastic Compliance Matrix: (Units=1/GPa)
#
#
# Indices 1 2 3 4 5 6 
#
# 1 0.012922 0.001928 0.000356 0.000000 0.000000 0.000000
# 2 0.001928 0.035640 0.002780 0.000000 0.000000 0.000000
# 3 0.000356 0.002780 0.006768 0.000000 0.000000 0.000000
# 4 0.000000 0.000000 0.000000 -0.406878 0.000000 0.000000
# 5 0.000000 0.000000 0.000000 0.000000 0.029917 0.000000
# 6 0.000000 0.000000 0.000000 0.000000 0.000000 0.063518
#
#
# Mechanical properties :
#
#
# Convention : Reuss Voigt Hill
#
# Bulk Modulus (GPa) = 15.27728 24.82827 20.05278
# Shear Modulus (GPa) = -20.29036 27.89238 3.80101
#
# Velocity S-wave (km/s) = -3.24444 3.80398 1.40425
# Velocity P-wave (km/s) = 2.47175 5.67224 3.61004
#
# Compressibility (1/GPa) = 0.06545667
#
# Stress axis : x y z
#
# Youngs Moduli (GPa) = 77.39006 28.05838 147.76257
#
# Poissons Ratio (x) = -0.05408 -0.05266
# Poissons Ratio (y) = -0.14917 -0.41076
# Poissons Ratio (z) = -0.02758 -0.07800
#
# Static dielectric constant tensor:
#      x y z
#    x 1.619280 0.000000 0.000000 
#    y 0.000000 1.684840 0.000000 
#    z 0.000000 0.000000 1.816400 
# 
# From -- ./inp_files/1888.got.cif
#   From: 2010.05.17/outbox.cif.g08.bks.cpg/sg38_1_cif.got.tgz:1888.got - 2010.06.03 18:07:57.
