data_PCOD9355920
_publ_section_title
;
Structure prediction by ZEFSAII (Michael W. Deem and Ramdas Pophale) SiO2 
 PCOD9355920
Probable space group: A M M 2
;
_chemical_formula_sum "Si O2"
_cell_formula_units_Z 64
_cell_length_a 7.474383
_cell_length_b 21.546409
_cell_length_c 20.146599
_cell_angle_alpha 90.000000
_cell_angle_beta 90.000000
_cell_angle_gamma 90.000000
_cell_volume 3244.531462
_symmetry_space_group_name_H-M "A M M 2"
_symmetry_group_IT_number 38
_symmetry_cell_setting 'orthorhombic'
loop_
_space_group_symop_operation_xyz
x,y,z
-x,-y,z
-x,y,z
x,-y,z
x,1/2+y,1/2+z
-x,1/2-y,1/2+z
-x,1/2+y,1/2+z
x,1/2-y,1/2+z
loop_
_atom_site_type_symbol
_atom_site_label
_atom_site_fract_x
_atom_site_fract_y
_atom_site_fract_z
Si Si1 0.206942 0.682213 0.704960
Si Si2 0.218541 0.240330 0.337610
Si Si3 0.216322 0.614989 0.331903
Si Si4 0.215901 0.740788 0.985071
Si Si5 0.782199 0.385404 0.478782
Si Si6 0.708724 0.067785 0.688787
Si Si7 0.292623 0.305503 0.127295
Si Si8 0.781048 0.432093 0.619235
O O1 0.284929 0.699478 0.776538
O O2 0.209127 0.744730 0.661013
O O3 0.284329 0.625087 0.663611
O O4 0.000000 0.665884 0.716968
O O5 0.268920 0.312372 0.326508
O O6 0.273246 0.220242 0.411457
O O7 0.000000 0.240201 0.336725
O O8 0.275505 0.593932 0.405344
O O9 0.281747 0.578674 0.267890
O O10 0.000000 0.612261 0.330225
O O11 0.280442 0.702666 0.048234
O O12 0.000000 0.739496 0.987210
O O13 0.268863 0.813340 0.990051
O O14 0.723707 0.422947 0.542953
O O15 0.000000 0.386662 0.477349
O O16 0.500000 0.065832 0.669496
O O17 0.785079 0.129550 0.653954
O O18 0.786781 0.000000 0.672921
O O19 0.500000 0.303517 0.147469
O O20 0.728971 0.500000 0.643752
O O21 0.000000 0.429519 0.618152
#
# Coordination Sequence:
#
# PCOD9355920 Si02
#       8
#     8   8   8   8   8   8   8   8
#     4  10  17  30  52  72  94 126 159 194 236 279
#     4   8  15  27  48  75  97 119 153 194 238 283
#     4   9  16  28  48  72  94 120 160 199 230 275
#     4   9  16  30  50  71  95 124 155 194 242 286
#     4   8  14  25  43  70  99 125 154 190 228 270
#     4  10  22  37  48  63  95 133 162 196 246 295
#     4  11  21  32  49  73  95 121 162 204 240 282
#     4   9  16  25  42  70  98 124 155 186 221 272
#
# _framework density 19.725498000000002
#
# number of rings (size 3 to 8) (size 9 to 14) (size 15 to 20)
#    0.000    2.750    2.500    1.875    0.000    1.250 
#    0.000    4.375    0.000    1.125    0.000    1.750 
#    0.000    0.000    0.000    0.000    0.000    0.000 
#
# Total GULP energy -178497.161658 kJ/mol
# GULP energy per Si atom -5578.036302 kJ/mol
# Density = 1.968060 g / cm^3
# Si number density = 19.725498 Si / 1000 Ang^3
#
#
#
# Elastic Constant Matrix: (Units=GPa)
#
#
# Indices 1 2 3 4 5 6 
#
# 1 53.7915 -0.7752 -7.3107 0.0000 0.0000 0.0000
# 2 -0.7752 125.2980 65.6109 0.0000 0.0000 0.0000
# 3 -7.3107 65.6109 120.7631 0.0000 0.0000 0.0000
# 4 0.0000 0.0000 0.0000 21.2490 0.0000 0.0000
# 5 0.0000 0.0000 0.0000 0.0000 21.8814 0.0000
# 6 0.0000 0.0000 0.0000 0.0000 0.0000 7.0494
#
#
#
# Elastic Compliance Matrix: (Units=1/GPa)
#
#
# Indices 1 2 3 4 5 6 
#
# 1 0.018785 -0.000670 0.001501 0.000000 0.000000 0.000000
# 2 -0.000670 0.011178 -0.006114 0.000000 0.000000 0.000000
# 3 0.001501 -0.006114 0.011693 0.000000 0.000000 0.000000
# 4 0.000000 0.000000 0.000000 0.047061 0.000000 0.000000
# 5 0.000000 0.000000 0.000000 0.000000 0.045701 0.000000
# 6 0.000000 0.000000 0.000000 0.000000 0.000000 0.141856
#
#
# Mechanical properties :
#
#
# Convention : Reuss Voigt Hill
#
# Bulk Modulus (GPa) = 32.16350 46.10028 39.13189
# Shear Modulus (GPa) = 16.82356 26.19113 21.50734
#
# Velocity S-wave (km/s) = 2.92359 3.64783 3.30560
# Velocity P-wave (km/s) = 5.26663 6.41590 5.86946
#
# Compressibility (1/GPa) = 0.03109115
#
# Stress axis : x y z
#
# Youngs Moduli (GPa) = 53.23497 89.45995 85.52030
#
# Poissons Ratio (x) = 0.05992 -0.12837
# Poissons Ratio (y) = 0.03566 0.52284
# Poissons Ratio (z) = -0.07991 0.54693
#
# Static dielectric constant tensor:
#      x y z
#    x 1.755760 0.000000 0.000000 
#    y 0.000000 1.689560 0.000000 
#    z 0.000000 0.000000 1.697550 
# 
# From -- ./inp_files/20226.got.cif
#   From: 2010.05.17/outbox.cif.g08.bks.cpg/sg38_11_cif.got.tgz:20226.got - 2010.06.03 18:07:57.
