data_PCOD9355623
_publ_section_title
;
Structure prediction by ZEFSAII (Michael W. Deem and Ramdas Pophale) SiO2 
 PCOD9355623
Probable space group: C C C 2
;
_chemical_formula_sum "Si O2"
_cell_formula_units_Z 60
_cell_length_a 5.414964
_cell_length_b 25.520871
_cell_length_c 18.425812
_cell_angle_alpha 90.000000
_cell_angle_beta 90.000000
_cell_angle_gamma 90.000000
_cell_volume 2546.347677
_symmetry_space_group_name_H-M "C C C 2"
_symmetry_group_IT_number 37
_symmetry_cell_setting 'orthorhombic'
loop_
_space_group_symop_operation_xyz
x,y,z
-x,-y,z
-x,y,1/2+z
x,-y,1/2+z
1/2+x,1/2+y,z
1/2-x,1/2-y,z
1/2-x,1/2+y,1/2+z
1/2+x,1/2-y,1/2+z
loop_
_atom_site_type_symbol
_atom_site_label
_atom_site_fract_x
_atom_site_fract_y
_atom_site_fract_z
Si Si1 0.020913 0.878097 0.223050
Si Si2 0.500000 0.000000 0.752886
Si Si3 0.737016 0.812387 0.844279
Si Si4 0.429648 0.093788 0.505498
Si Si5 0.063565 0.840515 0.496481
Si Si6 0.223752 0.028233 0.626749
Si Si7 0.887499 0.595336 0.342671
Si Si8 0.013559 0.220341 0.130721
O O1 0.193201 0.839079 0.268893
O O2 0.151167 0.922218 0.175988
O O3 0.837594 0.898835 0.286120
O O4 0.932465 0.837568 0.162233
O O5 0.294445 0.988078 0.691731
O O6 0.448659 0.050843 0.801584
O O7 0.750000 0.750000 0.838748
O O8 0.486657 0.845602 0.857927
O O9 0.914653 0.827971 0.911063
O O10 0.689760 0.124549 0.510435
O O11 0.413962 0.050796 0.568412
O O12 0.374811 0.072746 0.424181
O O13 0.190380 0.130539 0.516322
O O14 0.049412 0.788354 0.544590
O O15 0.000000 0.000000 0.586100
O O16 0.250000 0.250000 0.161834
O O17 0.750000 0.250000 0.143420
#
# Coordination Sequence:
#
# PCOD9355623 Si02
#       8
#     8   4   8   8   8   8   8   8
#     4  12  25  45  71 103 151 191 246 313 374 454
#     4  12  26  46  78 110 146 202 246 322 386 450
#     4  11  25  45  73 106 144 201 251 306 374 457
#     4  11  26  49  76 108 148 202 250 314 375 461
#     4  11  24  49  74 103 151 197 249 310 378 448
#     4  12  27  48  77 110 146 198 256 311 389 457
#     4  11  26  48  73 108 153 194 253 315 388 452
#     4  12  28  45  71 109 147 198 250 307 378 445
#
# _framework density 23.56316
#
# number of rings (size 3 to 8) (size 9 to 14) (size 15 to 20)
#    0.000    0.533    5.333    1.600    7.467    1.600 
#    4.800    0.000    0.000    0.000    0.000    0.000 
#    0.000    0.000    0.000    0.000    0.000    0.000 
#
# Total GULP energy -167127.486160 kJ/mol
# GULP energy per Si atom -5570.916205 kJ/mol
# Density = 2.350953 g / cm^3
# Si number density = 23.563160 Si / 1000 Ang^3
#
#
#
# Elastic Constant Matrix: (Units=GPa)
#
#
# Indices 1 2 3 4 5 6 
#
# 1 71.1073 21.6846 7.1390 0.0000 0.0000 0.0000
# 2 21.6846 98.8739 38.1907 0.0000 0.0000 0.0000
# 3 7.1390 38.1907 117.3955 0.0000 0.0000 0.0000
# 4 0.0000 0.0000 0.0000 12.2879 0.0000 0.0000
# 5 0.0000 0.0000 0.0000 0.0000 27.0210 0.0000
# 6 0.0000 0.0000 0.0000 0.0000 0.0000 32.5907
#
#
#
# Elastic Compliance Matrix: (Units=1/GPa)
#
#
# Indices 1 2 3 4 5 6 
#
# 1 0.015075 -0.003376 0.000182 0.000000 0.000000 0.000000
# 2 -0.003376 0.012324 -0.003804 0.000000 0.000000 0.000000
# 3 0.000182 -0.003804 0.009745 0.000000 0.000000 0.000000
# 4 0.000000 0.000000 0.000000 0.081381 0.000000 0.000000
# 5 0.000000 0.000000 0.000000 0.000000 0.037008 0.000000
# 6 0.000000 0.000000 0.000000 0.000000 0.000000 0.030684
#
#
# Mechanical properties :
#
#
# Convention : Reuss Voigt Hill
#
# Bulk Modulus (GPa) = 43.20389 46.82281 45.01335
# Shear Modulus (GPa) = 24.04687 29.07076 26.55881
#
# Velocity S-wave (km/s) = 3.19804 3.51627 3.36092
# Velocity P-wave (km/s) = 5.65789 6.03323 5.84857
#
# Compressibility (1/GPa) = 0.02314606
#
# Stress axis : x y z
#
# Youngs Moduli (GPa) = 66.33666 81.14524 102.62101
#
# Poissons Ratio (x) = 0.27397 -0.01864
# Poissons Ratio (y) = 0.22397 0.39034
# Poissons Ratio (z) = -0.01205 0.30866
#
# Static dielectric constant tensor:
#      x y z
#    x 2.194370 0.000000 0.000000 
#    y 0.000000 2.173080 0.000000 
#    z 0.000000 0.000000 1.932870 
# 
# From -- ./inp_files/14023.got.cif
#   From: 2010.05.17/outbox.cif.g08.bks.cpg/sg37_8_cif.got.tgz:14023.got - 2010.06.03 17:53:42.
