data_PCOD9355493
_publ_section_title
;
Structure prediction by ZEFSAII (Michael W. Deem and Ramdas Pophale) SiO2 
 PCOD9355493
Probable space group: C C C 2
;
_chemical_formula_sum "Si O2"
_cell_formula_units_Z 64
_cell_length_a 27.276733
_cell_length_b 9.634122
_cell_length_c 9.945192
_cell_angle_alpha 90.000000
_cell_angle_beta 90.000000
_cell_angle_gamma 90.000000
_cell_volume 2613.470884
_symmetry_space_group_name_H-M "C C C 2"
_symmetry_group_IT_number 37
_symmetry_cell_setting 'orthorhombic'
loop_
_space_group_symop_operation_xyz
x,y,z
-x,-y,z
-x,y,1/2+z
x,-y,1/2+z
1/2+x,1/2+y,z
1/2-x,1/2-y,z
1/2-x,1/2+y,1/2+z
1/2+x,1/2-y,1/2+z
loop_
_atom_site_type_symbol
_atom_site_label
_atom_site_fract_x
_atom_site_fract_y
_atom_site_fract_z
Si Si1 0.181862 0.961056 0.826800
Si Si2 0.489742 0.289541 0.235575
Si Si3 0.383223 0.008140 0.977422
Si Si4 0.256768 0.581221 0.567668
Si Si5 0.520811 0.861105 0.968970
Si Si6 0.396908 0.345348 0.717154
Si Si7 0.399956 0.307794 0.418931
Si Si8 0.664554 0.943035 0.719816
O O1 0.201322 0.940254 0.678233
O O2 0.156340 0.819605 0.872250
O O3 0.134852 0.060765 0.816177
O O4 0.222528 0.018637 0.928543
O O5 0.484874 0.260493 0.077815
O O6 0.493999 0.153742 0.328033
O O7 0.545415 0.343445 0.257997
O O8 0.441018 0.349691 0.308296
O O9 0.404856 0.854772 0.958129
O O10 0.337272 0.024925 0.877447
O O11 0.374214 0.033884 0.134524
O O12 0.422726 0.119235 0.934730
O O13 0.250000 0.750000 0.554558
O O14 0.213231 0.488936 0.638733
O O15 0.500000 0.000000 0.036701
O O16 0.402104 0.389203 0.560119
O O17 0.359440 0.210368 0.706434
#
# Coordination Sequence:
#
# PCOD9355493 Si02
#       8
#     8   8   8   8   8   8   8   8
#     4  12  28  53  76 106 154 194 261 323 383 476
#     4  12  23  41  70 108 151 201 259 299 376 459
#     4  11  22  39  68 104 150 188 240 300 381 436
#     4  12  29  50  81 114 144 198 261 321 400 475
#     4  12  22  35  64 107 152 199 243 308 364 446
#     4  11  25  48  71 108 151 200 245 313 386 453
#     4  11  24  47  69 104 150 200 244 312 375 447
#     4  11  24  43  71 108 145 186 241 310 380 450
#
# _framework density 24.488506999999998
#
# number of rings (size 3 to 8) (size 9 to 14) (size 15 to 20)
#    0.000    0.500    5.000    3.375    3.500    2.500 
#    0.000    1.250    0.000    0.000    0.000    0.000 
#    0.000    0.000    0.000    0.000    0.000    0.000 
#
# Total GULP energy -178235.496971 kJ/mol
# GULP energy per Si atom -5569.859280 kJ/mol
# Density = 2.443277 g / cm^3
# Si number density = 24.488507 Si / 1000 Ang^3
#
#
#
# Elastic Constant Matrix: (Units=GPa)
#
#
# Indices 1 2 3 4 5 6 
#
# 1 113.0560 23.8854 3.6801 0.0000 0.0000 0.0000
# 2 23.8854 56.9540 5.1993 0.0000 0.0000 0.0000
# 3 3.6801 5.1993 103.9956 0.0000 0.0000 0.0000
# 4 0.0000 0.0000 0.0000 15.3829 0.0000 0.0000
# 5 0.0000 0.0000 0.0000 0.0000 28.4584 0.0000
# 6 0.0000 0.0000 0.0000 0.0000 0.0000 29.6352
#
#
#
# Elastic Compliance Matrix: (Units=1/GPa)
#
#
# Indices 1 2 3 4 5 6 
#
# 1 0.009707 -0.004058 -0.000141 0.000000 0.000000 0.000000
# 2 -0.004058 0.019335 -0.000823 0.000000 0.000000 0.000000
# 3 -0.000141 -0.000823 0.009662 0.000000 0.000000 0.000000
# 4 0.000000 0.000000 0.000000 0.065007 0.000000 0.000000
# 5 0.000000 0.000000 0.000000 0.000000 0.035139 0.000000
# 6 0.000000 0.000000 0.000000 0.000000 0.000000 0.033744
#
#
# Mechanical properties :
#
#
# Convention : Reuss Voigt Hill
#
# Bulk Modulus (GPa) = 34.89128 37.72614 36.30871
# Shear Modulus (GPa) = 26.01576 30.77802 28.39689
#
# Velocity S-wave (km/s) = 3.26293 3.54903 3.40899
# Velocity P-wave (km/s) = 5.33616 5.67744 5.50944
#
# Compressibility (1/GPa) = 0.02866046
#
# Stress axis : x y z
#
# Youngs Moduli (GPa) = 103.01713 51.71947 103.49913
#
# Poissons Ratio (x) = 0.20989 0.01455
# Poissons Ratio (y) = 0.41806 0.08519
# Poissons Ratio (z) = 0.01449 0.04257
#
# Static dielectric constant tensor:
#      x y z
#    x 2.045810 0.000000 0.000000 
#    y 0.000000 2.058090 0.000000 
#    z 0.000000 0.000000 1.943810 
# 
# From -- ./inp_files/5004.got.cif
#   From: 2010.05.17/outbox.cif.g08.bks.cpg/sg37_3_cif.got.tgz:5004.got - 2010.06.03 17:53:42.
