data_PCOD9355537
_publ_section_title
;
Structure prediction by ZEFSAII (Michael W. Deem and Ramdas Pophale) SiO2 
 PCOD9355537
Probable space group: C C C 2
;
_chemical_formula_sum "Si O2"
_cell_formula_units_Z 60
_cell_length_a 9.167582
_cell_length_b 23.545240
_cell_length_c 13.625404
_cell_angle_alpha 90.000000
_cell_angle_beta 90.000000
_cell_angle_gamma 90.000000
_cell_volume 2941.083218
_symmetry_space_group_name_H-M "C C C 2"
_symmetry_group_IT_number 37
_symmetry_cell_setting 'orthorhombic'
loop_
_space_group_symop_operation_xyz
x,y,z
-x,-y,z
-x,y,1/2+z
x,-y,1/2+z
1/2+x,1/2+y,z
1/2-x,1/2-y,z
1/2-x,1/2+y,1/2+z
1/2+x,1/2-y,1/2+z
loop_
_atom_site_type_symbol
_atom_site_label
_atom_site_fract_x
_atom_site_fract_y
_atom_site_fract_z
Si Si1 0.454980 0.150633 0.921470
Si Si2 0.750000 0.750000 0.964591
Si Si3 0.576370 0.448690 0.357420
Si Si4 0.269975 0.684358 0.870685
Si Si5 0.607971 0.948087 0.776262
Si Si6 0.542909 0.651877 0.006350
Si Si7 0.058432 0.559326 0.588471
Si Si8 0.349592 0.596056 0.699733
O O1 0.355316 0.206150 0.908774
O O2 0.622013 0.167532 0.924483
O O3 0.434661 0.108370 0.832313
O O4 0.422048 0.111885 0.016099
O O5 0.644789 0.706874 0.020780
O O6 0.500000 0.500000 0.416704
O O7 0.730870 0.463252 0.310393
O O8 0.600121 0.394387 0.426907
O O9 0.459821 0.436733 0.271637
O O10 0.250000 0.750000 0.842570
O O11 0.397740 0.673293 0.950487
O O12 0.291539 0.645785 0.773120
O O13 0.575549 0.933685 0.663651
O O14 0.500000 0.000000 0.799502
O O15 0.551929 0.620548 0.110680
O O16 0.210971 0.561613 0.652083
O O17 0.000000 0.500000 0.538915
#
# Coordination Sequence:
#
# PCOD9355537 Si02
#       8
#     8   4   8   8   8   8   8   8
#     4  12  24  43  71  96 136 179 226 287 343 408
#     4  12  22  44  70  96 134 174 230 276 336 404
#     4  11  24  43  66 100 139 181 227 287 347 416
#     4  11  25  44  68  99 135 182 230 287 344 415
#     4  11  23  42  66  99 134 174 228 280 347 415
#     4  11  25  44  69  97 136 180 233 280 346 409
#     4  11  23  41  66 101 133 177 228 278 345 415
#     4  11  24  45  66 100 136 184 225 282 357 408
#
# _framework density 20.400648
#
# number of rings (size 3 to 8) (size 9 to 14) (size 15 to 20)
#    0.000    0.800    5.333    2.000    4.667    0.533 
#    0.000    0.000    7.333    0.000    0.000    0.000 
#    0.000    0.000    0.000    0.000    0.000    0.000 
#
# Total GULP energy -167238.557391 kJ/mol
# GULP energy per Si atom -5574.618580 kJ/mol
# Density = 2.035422 g / cm^3
# Si number density = 20.400648 Si / 1000 Ang^3
#
#
#
# Elastic Constant Matrix: (Units=GPa)
#
#
# Indices 1 2 3 4 5 6 
#
# 1 119.1872 48.3674 19.2496 0.0000 0.0000 0.0000
# 2 48.3674 128.6460 30.7328 0.0000 0.0000 0.0000
# 3 19.2496 30.7328 70.1118 0.0000 0.0000 0.0000
# 4 0.0000 0.0000 0.0000 -0.0014 0.0000 0.0000
# 5 0.0000 0.0000 0.0000 0.0000 12.4704 0.0000
# 6 0.0000 0.0000 0.0000 0.0000 0.0000 -79.9416
#
#
#
# Elastic Compliance Matrix: (Units=1/GPa)
#
#
# Indices 1 2 3 4 5 6 
#
# 1 0.009994 -0.003465 -0.001225 0.000000 0.000000 0.000000
# 2 -0.003465 0.009884 -0.003381 0.000000 0.000000 0.000000
# 3 -0.001225 -0.003381 0.016081 0.000000 0.000000 0.000000
# 4 0.000000 0.000000 0.000000********** 0.000000 0.000000
# 5 0.000000 0.000000 0.000000 0.000000 0.080190 0.000000
# 6 0.000000 0.000000 0.000000 0.000000 0.000000 -0.012509
#
#
# Mechanical properties :
#
#
# Convention : Reuss Voigt Hill
#
# Bulk Modulus (GPa) = 50.46188 57.18273 53.82231
# Shear Modulus (GPa) = -0.00677 1.14517 0.56920
#
# Velocity S-wave (km/s) = -0.05767 0.75004 0.52879
# Velocity P-wave (km/s) = 4.97842 5.37036 5.17810
#
# Compressibility (1/GPa) = 0.01981694
#
# Stress axis : x y z
#
# Youngs Moduli (GPa) = 100.05911 101.17691 62.18371
#
# Poissons Ratio (x) = 0.35056 0.07619
# Poissons Ratio (y) = 0.34669 0.21025
# Poissons Ratio (z) = 0.12259 0.34209
#
# Static dielectric constant tensor:
#      x y z
#    x 1.754150 0.000000 0.000000 
#    y 0.000000 1.758470 0.000000 
#    z 0.000000 0.000000 1.710750 
# 
# From -- ./inp_files/10937.got.cif
#   From: 2010.05.17/outbox.cif.g08.bks.cpg/sg37_6_cif.got.tgz:10937.got - 2010.06.03 17:53:42.
