data_PCOD9355724
_publ_section_title
;
Structure prediction by ZEFSAII (Michael W. Deem and Ramdas Pophale) SiO2 
 PCOD9355724
Probable space group: C C C 2
;
_chemical_formula_sum "Si O2"
_cell_formula_units_Z 32
_cell_length_a 15.132170
_cell_length_b 4.754053
_cell_length_c 17.988310
_cell_angle_alpha 90.000000
_cell_angle_beta 90.000000
_cell_angle_gamma 90.000000
_cell_volume 1294.063519
_symmetry_space_group_name_H-M "C C C 2"
_symmetry_group_IT_number 37
_symmetry_cell_setting 'orthorhombic'
loop_
_space_group_symop_operation_xyz
x,y,z
-x,-y,z
-x,y,1/2+z
x,-y,1/2+z
1/2+x,1/2+y,z
1/2-x,1/2-y,z
1/2-x,1/2+y,1/2+z
1/2+x,1/2-y,1/2+z
loop_
_atom_site_type_symbol
_atom_site_label
_atom_site_fract_x
_atom_site_fract_y
_atom_site_fract_z
Si Si1 0.398139 0.501414 0.100060
Si Si2 0.560515 0.763183 0.877552
Si Si3 0.671439 0.969804 0.013904
Si Si4 0.684488 0.484339 0.253384
O O1 0.500000 0.500000 0.077962
O O2 0.387821 0.520000 0.188338
O O3 0.361889 0.191969 0.085948
O O4 0.340599 0.709854 0.045754
O O5 0.500000 0.500000 0.900499
O O6 0.603697 0.930566 0.945985
O O7 0.636799 0.626866 0.827122
O O8 0.500000 0.000000 0.837072
O O9 0.750000 0.750000 0.989400
O O10 0.750000 0.750000 0.265801
O O11 0.750000 0.250000 0.223909
#
# Coordination Sequence:
#
# PCOD9355724 Si02
#       4
#     8   8   8   8
#     4  12  25  44  70 102 139 184 237 295 358 428
#     4  12  26  46  69 100 140 187 239 298 366 440
#     4  12  25  44  69 100 138 184 236 295 357 429
#     4  12  26  46  72 106 145 189 239 300 367 439
#
# _framework density 24.728306
#
# number of rings (size 3 to 8) (size 9 to 14) (size 15 to 20)
#    0.000    0.000    0.000   12.000    0.000    4.000 
#    0.000    0.000    0.000    0.000    0.000    0.000 
#    0.000    0.000    0.000    0.000    0.000    0.000 
#
# Total GULP energy -89196.735948 kJ/mol
# GULP energy per Si atom -5574.795997 kJ/mol
# Density = 2.467202 g / cm^3
# Si number density = 24.728306 Si / 1000 Ang^3
#
#
#
# Elastic Constant Matrix: (Units=GPa)
#
#
# Indices 1 2 3 4 5 6 
#
# 1 108.9058 24.5866 7.5766 0.0000 0.0000 0.0000
# 2 24.5866 165.7521 14.4238 0.0000 0.0000 0.0000
# 3 7.5766 14.4238 107.9488 0.0000 0.0000 0.0000
# 4 0.0000 0.0000 0.0000 33.2461 0.0000 0.0000
# 5 0.0000 0.0000 0.0000 0.0000 94.4469 0.0000
# 6 0.0000 0.0000 0.0000 0.0000 0.0000 37.3065
#
#
#
# Elastic Compliance Matrix: (Units=1/GPa)
#
#
# Indices 1 2 3 4 5 6 
#
# 1 0.009525 -0.001371 -0.000485 0.000000 0.000000 0.000000
# 2 -0.001371 0.006301 -0.000746 0.000000 0.000000 0.000000
# 3 -0.000485 -0.000746 0.009397 0.000000 0.000000 0.000000
# 4 0.000000 0.000000 0.000000 0.030079 0.000000 0.000000
# 5 0.000000 0.000000 0.000000 0.000000 0.010588 0.000000
# 6 0.000000 0.000000 0.000000 0.000000 0.000000 0.026805
#
#
# Mechanical properties :
#
#
# Convention : Reuss Voigt Hill
#
# Bulk Modulus (GPa) = 49.94906 52.86454 51.40680
# Shear Modulus (GPa) = 47.81348 55.40121 51.60734
#
# Velocity S-wave (km/s) = 4.40199 4.73842 4.57330
# Velocity P-wave (km/s) = 6.78820 7.16668 6.98001
#
# Compressibility (1/GPa) = 0.02002040
#
# Stress axis : x y z
#
# Youngs Moduli (GPa) = 104.98172 158.69678 106.41279
#
# Poissons Ratio (x) = 0.21753 0.05165
# Poissons Ratio (y) = 0.14390 0.07936
# Poissons Ratio (z) = 0.05096 0.11835
#
# Static dielectric constant tensor:
#      x y z
#    x 2.003290 0.000000 0.000000 
#    y 0.000000 1.832370 0.000000 
#    z 0.000000 0.000000 1.887430 
# 
# From -- ./inp_files/15152.got.cif
#   From: 2010.05.17/outbox.cif.g08.bks.cpg/sg37_8_cif.got.tgz:15152.got - 2010.06.03 17:53:42.
