data_PCOD9355327
_publ_section_title
;
Structure prediction by ZEFSAII (Michael W. Deem and Ramdas Pophale) SiO2 
 PCOD9355327
Probable space group: C C C 2
;
_chemical_formula_sum "Si O2"
_cell_formula_units_Z 32
_cell_length_a 4.949804
_cell_length_b 28.717077
_cell_length_c 8.381229
_cell_angle_alpha 90.000000
_cell_angle_beta 90.000000
_cell_angle_gamma 90.000000
_cell_volume 1191.340599
_symmetry_space_group_name_H-M "C C C 2"
_symmetry_group_IT_number 37
_symmetry_cell_setting 'orthorhombic'
loop_
_space_group_symop_operation_xyz
x,y,z
-x,-y,z
-x,y,1/2+z
x,-y,1/2+z
1/2+x,1/2+y,z
1/2-x,1/2-y,z
1/2-x,1/2+y,1/2+z
1/2+x,1/2-y,1/2+z
loop_
_atom_site_type_symbol
_atom_site_label
_atom_site_fract_x
_atom_site_fract_y
_atom_site_fract_z
Si Si1 0.773292 0.370074 0.299280
Si Si2 0.000000 0.500000 0.024788
Si Si3 0.615671 0.191190 0.583118
Si Si4 0.269799 0.564344 0.783817
Si Si5 0.750000 0.250000 0.865873
O O1 0.722932 0.341485 0.461729
O O2 0.553424 0.409808 0.266484
O O3 0.854361 0.335604 0.155783
O O4 0.056356 0.395984 0.326600
O O5 0.158797 0.461864 0.128150
O O6 0.224098 0.525884 0.919076
O O7 0.779529 0.207779 0.739105
O O8 0.489031 0.233329 0.479764
#
# Coordination Sequence:
#
# PCOD9355327 Si02
#       5
#     8   4   8   8   4
#     4  11  26  47  77 112 150 198 252 312 377 449
#     4  10  26  48  76 108 148 196 248 312 376 448
#     4  10  25  46  76 111 152 198 252 313 378 450
#     4  11  26  48  74 108 148 194 250 308 376 448
#     4  10  24  48  70 108 152 198 252 310 378 452
#
# _framework density 26.860498
#
# number of rings (size 3 to 8) (size 9 to 14) (size 15 to 20)
#    0.000    1.500    0.000    1.500    0.000   26.000 
#    0.000    7.500    0.000    0.000    0.000    0.000 
#    0.000    0.000    0.000    0.000    0.000    0.000 
#
# Total GULP energy -89749.614833 kJ/mol
# GULP energy per Si atom -5609.350927 kJ/mol
# Density = 2.679936 g / cm^3
# Si number density = 26.860498 Si / 1000 Ang^3
#
#
#
# Elastic Constant Matrix: (Units=GPa)
#
#
# Indices 1 2 3 4 5 6 
#
# 1 111.2423 50.4502 56.0524 0.0000 0.0000 0.0000
# 2 50.4502 125.4813 68.5234 0.0000 0.0000 0.0000
# 3 56.0524 68.5234 171.4951 0.0000 0.0000 0.0000
# 4 0.0000 0.0000 0.0000 47.1984 0.0000 0.0000
# 5 0.0000 0.0000 0.0000 0.0000 51.7764 0.0000
# 6 0.0000 0.0000 0.0000 0.0000 0.0000 59.1789
#
#
#
# Elastic Compliance Matrix: (Units=1/GPa)
#
#
# Indices 1 2 3 4 5 6 
#
# 1 0.011779 -0.003368 -0.002504 0.000000 0.000000 0.000000
# 2 -0.003368 0.011157 -0.003357 0.000000 0.000000 0.000000
# 3 -0.002504 -0.003357 0.007991 0.000000 0.000000 0.000000
# 4 0.000000 0.000000 0.000000 0.021187 0.000000 0.000000
# 5 0.000000 0.000000 0.000000 0.000000 0.019314 0.000000
# 6 0.000000 0.000000 0.000000 0.000000 0.000000 0.016898
#
#
# Mechanical properties :
#
#
# Convention : Reuss Voigt Hill
#
# Bulk Modulus (GPa) = 80.20640 84.25231 82.22935
# Shear Modulus (GPa) = 45.06972 47.17693 46.12332
#
# Velocity S-wave (km/s) = 4.10068 4.19545 4.14834
# Velocity P-wave (km/s) = 7.23505 7.40971 7.32290
#
# Compressibility (1/GPa) = 0.01246783
#
# Stress axis : x y z
#
# Youngs Moduli (GPa) = 84.89952 89.63218 125.14418
#
# Poissons Ratio (x) = 0.30191 0.31335
# Poissons Ratio (y) = 0.28596 0.42010
# Poissons Ratio (z) = 0.21258 0.30089
#
# Static dielectric constant tensor:
#      x y z
#    x 0.308380 0.000000 0.000000 
#    y 0.000000 2.364290 0.000000 
#    z 0.000000 0.000000 2.078230 
# 
# From -- ./inp_files/1737.got.cif
#   From: 2010.05.17/outbox.cif.g08.bks.cpg/sg37_1_cif.got.tgz:1737.got - 2010.06.03 17:53:42.
