data_PCOD9355250
_publ_section_title
;
Structure prediction by ZEFSAII (Michael W. Deem and Ramdas Pophale) SiO2 
 PCOD9355250
Probable space group: C C C 2
;
_chemical_formula_sum "Si O2"
_cell_formula_units_Z 40
_cell_length_a 18.900661
_cell_length_b 6.426949
_cell_length_c 14.453835
_cell_angle_alpha 90.000000
_cell_angle_beta 90.000000
_cell_angle_gamma 90.000000
_cell_volume 1755.759145
_symmetry_space_group_name_H-M "C C C 2"
_symmetry_group_IT_number 37
_symmetry_cell_setting 'orthorhombic'
loop_
_space_group_symop_operation_xyz
x,y,z
-x,-y,z
-x,y,1/2+z
x,-y,1/2+z
1/2+x,1/2+y,z
1/2-x,1/2-y,z
1/2-x,1/2+y,1/2+z
1/2+x,1/2-y,1/2+z
loop_
_atom_site_type_symbol
_atom_site_label
_atom_site_fract_x
_atom_site_fract_y
_atom_site_fract_z
Si Si1 0.065281 0.340702 0.118300
Si Si2 0.065281 0.340702 0.907644
Si Si3 0.333541 0.791891 0.907135
Si Si4 0.087653 1.000000 0.262972
Si Si5 0.666459 0.208109 0.118809
O O1 0.136760 0.474802 0.137110
O O2 0.000000 0.500000 0.123277
O O3 0.052450 0.163200 0.192635
O O4 0.069331 0.260292 0.012972
O O5 0.136760 0.474802 0.888835
O O6 0.052450 0.163200 0.833309
O O7 0.000000 0.500000 0.902667
O O8 0.250000 0.750000 0.904573
O O9 0.367196 0.641700 0.832372
O O10 0.357634 0.747232 0.012972
O O11 0.132804 0.858300 0.193572
O O12 0.750000 0.250000 0.121371
#
# Coordination Sequence:
#
# PCOD9355250 Si02
#       5
#     8   8   8   8   8
#     4  10  24  46  69 100 142 183 231 292 355 419
#     4  10  24  46  69 100 142 183 231 292 355 419
#     4  10  24  43  64  97 141 181 225 285 351 415
#     4  12  24  39  74 100 131 180 234 284 339 418
#     4  10  24  43  64  97 141 181 225 285 351 415
#
# _framework density 22.782167000000001
#
# number of rings (size 3 to 8) (size 9 to 14) (size 15 to 20)
#    0.000    1.600    0.000    2.400    5.600    6.400 
#    0.000   12.000    0.000    3.600    0.000    0.000 
#    0.000    0.000    0.000    0.000    0.000    0.000 
#
# Total GULP energy -111892.088407 kJ/mol
# GULP energy per Si atom -5594.604420 kJ/mol
# Density = 2.273031 g / cm^3
# Si number density = 22.782167 Si / 1000 Ang^3
#
#
#
# Elastic Constant Matrix: (Units=GPa)
#
#
# Indices 1 2 3 4 5 6 
#
# 1 90.1246 48.4610 46.4466 0.0000 0.0000 0.0000
# 2 48.4610 131.9468 118.8973 0.0000 0.0000 0.0000
# 3 46.4466 118.8973 204.0582 0.0000 0.0000 0.0000
# 4 0.0000 0.0000 0.0000 74.8695 0.0000 0.0000
# 5 0.0000 0.0000 0.0000 0.0000 35.7260 0.0000
# 6 0.0000 0.0000 0.0000 0.0000 0.0000 32.9176
#
#
#
# Elastic Compliance Matrix: (Units=1/GPa)
#
#
# Indices 1 2 3 4 5 6 
#
# 1 0.013842 -0.004726 -0.000397 0.000000 0.000000 0.000000
# 2 -0.004726 0.017570 -0.009162 0.000000 0.000000 0.000000
# 3 -0.000397 -0.009162 0.010329 0.000000 0.000000 0.000000
# 4 0.000000 0.000000 0.000000 0.013357 0.000000 0.000000
# 5 0.000000 0.000000 0.000000 0.000000 0.027991 0.000000
# 6 0.000000 0.000000 0.000000 0.000000 0.000000 0.030379
#
#
# Mechanical properties :
#
#
# Convention : Reuss Voigt Hill
#
# Bulk Modulus (GPa) = 75.92160 94.85994 85.39077
# Shear Modulus (GPa) = 34.14658 42.85760 38.50209
#
# Velocity S-wave (km/s) = 3.87567 4.34197 4.11543
# Velocity P-wave (km/s) = 7.30925 8.17711 7.75533
#
# Compressibility (1/GPa) = 0.01317148
#
# Stress axis : x y z
#
# Youngs Moduli (GPa) = 72.24634 56.91392 96.81312
#
# Poissons Ratio (x) = 0.26898 0.03841
# Poissons Ratio (y) = 0.34145 0.88699
# Poissons Ratio (z) = 0.02867 0.52144
#
# Static dielectric constant tensor:
#      x y z
#    x 1.906250 0.000000 0.000000 
#    y 0.000000 1.811850 0.000000 
#    z 0.000000 0.000000 1.807950 
# 
# From -- ./inp_files/13059.got.cif
#   From: 2010.05.17/outbox.cif.g08.bks.cpg/sg37_7_cif.got.tgz:13059.got - 2010.06.03 17:53:42.
