data_PCOD9355525
_publ_section_title
;
Structure prediction by ZEFSAII (Michael W. Deem and Ramdas Pophale) SiO2 
 PCOD9355525
Probable space group: C C C 2
;
_chemical_formula_sum "Si O2"
_cell_formula_units_Z 56
_cell_length_a 10.837327
_cell_length_b 15.861892
_cell_length_c 14.034179
_cell_angle_alpha 90.000000
_cell_angle_beta 90.000000
_cell_angle_gamma 90.000000
_cell_volume 2412.482534
_symmetry_space_group_name_H-M "C C C 2"
_symmetry_group_IT_number 37
_symmetry_cell_setting 'orthorhombic'
loop_
_space_group_symop_operation_xyz
x,y,z
-x,-y,z
-x,y,1/2+z
x,-y,1/2+z
1/2+x,1/2+y,z
1/2-x,1/2-y,z
1/2-x,1/2+y,1/2+z
1/2+x,1/2-y,1/2+z
loop_
_atom_site_type_symbol
_atom_site_label
_atom_site_fract_x
_atom_site_fract_y
_atom_site_fract_z
Si Si1 0.433091 0.642033 0.578580
Si Si2 0.569707 0.911540 0.584050
Si Si3 0.861030 0.984062 0.318560
Si Si4 0.165352 0.976783 0.036265
Si Si5 0.393388 0.930131 0.297290
Si Si6 0.051314 0.286810 0.936440
Si Si7 0.121694 0.206618 0.276432
O O1 0.337862 0.564515 0.594887
O O2 0.557901 0.590038 0.558212
O O3 0.396537 0.705101 0.492671
O O4 0.447163 0.692199 0.676745
O O5 0.707673 0.929425 0.549662
O O6 0.563634 0.892245 0.696406
O O7 0.513724 0.839130 0.519832
O O8 0.500000 0.000000 0.570244
O O9 0.857683 0.009031 0.429316
O O10 0.845231 0.884665 0.317093
O O11 0.739929 0.028107 0.276625
O O12 0.000000 0.000000 0.279702
O O13 0.375092 0.857970 0.376761
O O14 0.500000 0.000000 0.324744
O O15 0.955931 0.253260 0.857106
O O16 0.250000 0.250000 0.253714
#
# Coordination Sequence:
#
# PCOD9355525 Si02
#       7
#     8   8   8   8   8   8   8
#     4  11  26  44  71 107 145 191 244 299 372 437
#     4  11  25  45  77 109 146 197 249 302 367 445
#     4  12  24  46  76 107 144 196 249 298 373 454
#     4  11  22  48  72 103 146 196 242 301 369 447
#     4  11  25  45  74 112 146 193 250 305 368 442
#     4  12  24  47  72 108 147 188 246 308 373 432
#     4  12  26  44  71 105 147 195 244 306 369 449
#
# _framework density 23.212603999999999
#
# number of rings (size 3 to 8) (size 9 to 14) (size 15 to 20)
#    0.000    0.571    2.857    5.571    4.000    4.571 
#    0.000    3.571    0.000    0.000    0.000    0.000 
#    0.000    0.000    0.000    0.000    0.000    0.000 
#
# Total GULP energy -156649.687373 kJ/mol
# GULP energy per Si atom -5594.631692 kJ/mol
# Density = 2.315977 g / cm^3
# Si number density = 23.212604 Si / 1000 Ang^3
#
#
#
# Elastic Constant Matrix: (Units=GPa)
#
#
# Indices 1 2 3 4 5 6 
#
# 1 65.6233 50.9777 19.1588 0.0000 0.0000 0.0000
# 2 50.9777 142.5582 42.4303 0.0000 0.0000 0.0000
# 3 19.1588 42.4303 126.8529 0.0000 0.0000 0.0000
# 4 0.0000 0.0000 0.0000 47.8321 0.0000 0.0000
# 5 0.0000 0.0000 0.0000 0.0000 23.6911 0.0000
# 6 0.0000 0.0000 0.0000 0.0000 0.0000 26.3722
#
#
#
# Elastic Compliance Matrix: (Units=1/GPa)
#
#
# Indices 1 2 3 4 5 6 
#
# 1 0.021162 -0.007347 -0.000738 0.000000 0.000000 0.000000
# 2 -0.007347 0.010341 -0.002349 0.000000 0.000000 0.000000
# 3 -0.000738 -0.002349 0.008780 0.000000 0.000000 0.000000
# 4 0.000000 0.000000 0.000000 0.020906 0.000000 0.000000
# 5 0.000000 0.000000 0.000000 0.000000 0.042210 0.000000
# 6 0.000000 0.000000 0.000000 0.000000 0.000000 0.037919
#
#
# Mechanical properties :
#
#
# Convention : Reuss Voigt Hill
#
# Bulk Modulus (GPa) = 51.51178 62.24090 56.87634
# Shear Modulus (GPa) = 29.64539 34.41025 32.02782
#
# Velocity S-wave (km/s) = 3.57757 3.85437 3.71854
# Velocity P-wave (km/s) = 6.26935 6.83226 6.55685
#
# Compressibility (1/GPa) = 0.01941304
#
# Stress axis : x y z
#
# Youngs Moduli (GPa) = 47.25500 96.69947 113.88890
#
# Poissons Ratio (x) = 0.71050 0.08410
# Poissons Ratio (y) = 0.34721 0.26756
# Poissons Ratio (z) = 0.03490 0.22718
#
# Static dielectric constant tensor:
#      x y z
#    x 1.921090 0.000000 0.000000 
#    y 0.000000 1.858610 0.000000 
#    z 0.000000 0.000000 1.906690 
# 
# From -- ./inp_files/11588.got.cif
#   From: 2010.05.17/outbox.cif.g08.bks.cpg/sg37_6_cif.got.tgz:11588.got - 2010.06.03 17:53:42.
