data_PCOD9355427
_publ_section_title
;
Structure prediction by ZEFSAII (Michael W. Deem and Ramdas Pophale) SiO2 
 PCOD9355427
Probable space group: C C C 2
;
_chemical_formula_sum "Si O2"
_cell_formula_units_Z 64
_cell_length_a 28.105177
_cell_length_b 11.239865
_cell_length_c 9.188373
_cell_angle_alpha 90.000000
_cell_angle_beta 90.000000
_cell_angle_gamma 90.000000
_cell_volume 2902.592286
_symmetry_space_group_name_H-M "C C C 2"
_symmetry_group_IT_number 37
_symmetry_cell_setting 'orthorhombic'
loop_
_space_group_symop_operation_xyz
x,y,z
-x,-y,z
-x,y,1/2+z
x,-y,1/2+z
1/2+x,1/2+y,z
1/2-x,1/2-y,z
1/2-x,1/2+y,1/2+z
1/2+x,1/2-y,1/2+z
loop_
_atom_site_type_symbol
_atom_site_label
_atom_site_fract_x
_atom_site_fract_y
_atom_site_fract_z
Si Si1 0.368767 0.318127 0.342520
Si Si2 0.944567 0.020336 0.710027
Si Si3 0.243226 0.567580 0.155474
Si Si4 0.643785 0.137279 0.077680
Si Si5 0.093550 0.147254 0.935641
Si Si6 0.692842 0.544135 0.904240
Si Si7 0.629335 0.892721 0.918618
Si Si8 0.202006 0.672052 0.648499
O O1 0.419273 0.369016 0.292493
O O2 0.372338 0.257400 0.499414
O O3 0.333278 0.430059 0.336263
O O4 0.341714 0.224887 0.239704
O O5 0.934792 0.060406 0.544302
O O6 0.919145 0.902367 0.775333
O O7 0.000000 0.000000 0.733351
O O8 0.201719 0.644111 0.083496
O O9 0.277347 0.613278 0.282214
O O10 0.216046 0.452853 0.222121
O O11 0.275168 0.508369 0.031089
O O12 0.629991 0.116393 0.244774
O O13 0.623894 0.024827 0.984777
O O14 0.091057 0.288894 0.959923
O O15 0.149108 0.119626 0.963630
O O16 0.680368 0.857625 0.990365
O O17 0.250000 0.750000 0.644000
#
# Coordination Sequence:
#
# PCOD9355427 Si02
#       8
#     8   8   8   8   8   8   8   8
#     4  11  23  41  67  95 140 190 241 304 372 429
#     4  11  25  47  76 108 139 174 232 306 392 453
#     4  11  21  34  54  87 137 190 243 285 330 408
#     4  11  25  40  62  97 140 197 255 287 352 431
#     4  11  24  43  71 105 138 183 232 304 372 450
#     4  11  22  37  57  94 136 183 239 297 353 410
#     4  11  24  42  64  96 138 190 242 292 353 429
#     4  11  19  37  59  89 134 194 235 295 343 412
#
# _framework density 22.049256
#
# number of rings (size 3 to 8) (size 9 to 14) (size 15 to 20)
#    0.000    1.000    2.500    6.375    5.250    0.000 
#    0.000    0.000    0.000    0.750    0.000    0.000 
#    0.000    0.000    0.000    0.000    0.000    0.000 
#
# Total GULP energy -178780.045384 kJ/mol
# GULP energy per Si atom -5586.876418 kJ/mol
# Density = 2.199907 g / cm^3
# Si number density = 22.049256 Si / 1000 Ang^3
#
#
#
# Elastic Constant Matrix: (Units=GPa)
#
#
# Indices 1 2 3 4 5 6 
#
# 1 93.6642 32.5811 32.4901 0.0000 0.0000 0.0000
# 2 32.5811 57.7651 16.1023 0.0000 0.0000 0.0000
# 3 32.4901 16.1023 115.1783 0.0000 0.0000 0.0000
# 4 0.0000 0.0000 0.0000 39.4464 0.0000 0.0000
# 5 0.0000 0.0000 0.0000 0.0000 23.8398 0.0000
# 6 0.0000 0.0000 0.0000 0.0000 0.0000 17.6855
#
#
#
# Elastic Compliance Matrix: (Units=1/GPa)
#
#
# Indices 1 2 3 4 5 6 
#
# 1 0.014217 -0.007181 -0.003007 0.000000 0.000000 0.000000
# 2 -0.007181 0.021640 -0.001000 0.000000 0.000000 0.000000
# 3 -0.003007 -0.001000 0.009670 0.000000 0.000000 0.000000
# 4 0.000000 0.000000 0.000000 0.025351 0.000000 0.000000
# 5 0.000000 0.000000 0.000000 0.000000 0.041947 0.000000
# 6 0.000000 0.000000 0.000000 0.000000 0.000000 0.056544
#
#
# Mechanical properties :
#
#
# Convention : Reuss Voigt Hill
#
# Bulk Modulus (GPa) = 43.19037 47.66164 45.42601
# Shear Modulus (GPa) = 25.06760 28.55662 26.81211
#
# Velocity S-wave (km/s) = 3.37544 3.60269 3.49092
# Velocity P-wave (km/s) = 5.90103 6.24250 6.07416
#
# Compressibility (1/GPa) = 0.02315331
#
# Stress axis : x y z
#
# Youngs Moduli (GPa) = 70.33741 46.20998 103.41186
#
# Poissons Ratio (x) = 0.33182 0.31091
# Poissons Ratio (y) = 0.50508 0.10339
# Poissons Ratio (z) = 0.21147 0.04620
#
# Static dielectric constant tensor:
#      x y z
#    x 1.790470 0.000000 0.000000 
#    y 0.000000 1.889830 0.000000 
#    z 0.000000 0.000000 1.900570 
# 
# From -- ./inp_files/5003.got.cif
#   From: 2010.05.17/outbox.cif.g08.bks.cpg/sg37_3_cif.got.tgz:5003.got - 2010.06.03 17:53:42.
