data_PCOD9355762
_publ_section_title
;
Structure prediction by ZEFSAII (Michael W. Deem and Ramdas Pophale) SiO2 
 PCOD9355762
Probable space group: C C C 2
;
_chemical_formula_sum "Si O2"
_cell_formula_units_Z 32
_cell_length_a 12.000000
_cell_length_b 12.000000
_cell_length_c 24.000000
_cell_angle_alpha 90.000000
_cell_angle_beta 90.000000
_cell_angle_gamma 90.000000
_cell_volume 3456.000000
_symmetry_space_group_name_H-M "C C C 2"
_symmetry_group_IT_number 37
_symmetry_cell_setting 'orthorhombic'
loop_
_space_group_symop_operation_xyz
x,y,z
-x,-y,z
-x,y,1/2+z
x,-y,1/2+z
1/2+x,1/2+y,z
1/2-x,1/2-y,z
1/2-x,1/2+y,1/2+z
1/2+x,1/2-y,1/2+z
loop_
_atom_site_type_symbol
_atom_site_label
_atom_site_fract_x
_atom_site_fract_y
_atom_site_fract_z
Si Si1 0.688158 0.998220 0.553970
Si Si2 0.251980 0.563684 0.928284
Si Si3 0.844642 0.155358 0.748925
Si Si4 0.594825 0.405175 0.620817
Si Si5 0.501780 0.811842 0.553970
Si Si6 0.747509 0.935769 0.813946
Si Si7 0.436316 0.251980 0.428284
Si Si8 0.935769 0.252491 0.313946
O O1 0.793701 0.041643 0.591004
O O2 0.595271 0.095271 0.555708
O O3 0.731914 0.982777 0.490490
O O4 0.617872 0.882128 0.568273
O O5 0.244671 0.474878 0.878578
O O6 0.368211 0.631789 0.925978
O O7 0.154362 0.654362 0.918303
O O8 0.750000 0.250000 0.749201
O O9 0.875989 0.124011 0.685176
O O10 0.954119 0.210171 0.779577
O O11 0.789829 0.045881 0.779577
O O12 0.500000 0.500000 0.619146
O O13 0.541643 0.293701 0.591004
O O14 0.517223 0.768086 0.490490
O O15 0.843316 0.843316 0.806455
O O16 0.629844 0.870156 0.800381
O O17 0.525122 0.244671 0.378578
#
# Coordination Sequence:
#
# PCOD9355762 Si02
#       8
#     8   8   8   8   8   8   8   8
#     4  10  22  41  65  95 131 171 218 270 325 391
#     4  10  20  36  61  94 131 169 210 264 326 383
#     4  12  26  46  68  92 126 170 216 271 322 385
#     4  12  26  44  68  94 128 172 218 269 328 385
#     4  10  22  41  65  95 131 171 218 270 325 391
#     4  11  24  41  64  95 129 168 213 266 327 391
#     4  10  20  36  61  94 131 169 210 264 326 383
#     4  11  24  41  64  95 129 168 213 266 327 391
#
# _framework density 9.2592590000000001
#
# number of rings (size 3 to 8) (size 9 to 14) (size 15 to 20)
#    0.000    1.250    1.250    4.500    1.750    5.500 
#    0.000    0.000    0.000    0.000    0.000    0.000 
#    0.000    0.000    0.000    0.000    0.000    0.000 
#
# Total GULP energy -178596.803530 kJ/mol
# GULP energy per Si atom -5581.150110 kJ/mol
# Density = 0.923818 g / cm^3
# Si number density = 9.259259 Si / 1000 Ang^3
#
#
#
# Elastic Constant Matrix: (Units=GPa)
#
#
# Indices 1 2 3 4 5 6 
#
# 1 143.2801 69.6756 61.8429 0.0000 0.0000 0.0000
# 2 69.6756 143.2801 61.8429 0.0000 0.0000 0.0000
# 3 61.8429 61.8429 127.5588 0.0000 0.0000 0.0000
# 4 0.0000 0.0000 0.0000 39.8027 0.0000 0.0000
# 5 0.0000 0.0000 0.0000 0.0000 39.8027 0.0000
# 6 0.0000 0.0000 0.0000 0.0000 0.0000 42.8293
#
#
#
# Elastic Compliance Matrix: (Units=1/GPa)
#
#
# Indices 1 2 3 4 5 6 
#
# 1 0.010061 -0.003525 -0.003169 0.000000 0.000000 0.000000
# 2 -0.003525 0.010061 -0.003169 0.000000 0.000000 0.000000
# 3 -0.003169 -0.003169 0.010912 0.000000 0.000000 0.000000
# 4 0.000000 0.000000 0.000000 0.025124 0.000000 0.000000
# 5 0.000000 0.000000 0.000000 0.000000 0.025124 0.000000
# 6 0.000000 0.000000 0.000000 0.000000 0.000000 0.023349
#
#
# Mechanical properties :
#
#
# Convention : Reuss Voigt Hill
#
# Bulk Modulus (GPa) = 88.42381 88.98243 88.70312
# Shear Modulus (GPa) = 39.02398 39.20412 39.11405
#
# Velocity S-wave (km/s) = 4.59551 4.60610 4.60081
# Velocity P-wave (km/s) = 8.71842 8.74317 8.73080
#
# Compressibility (1/GPa) = 0.01130917
#
# Stress axis : x y z
#
# Youngs Moduli (GPa) = 99.39135 99.39135 91.64007
#
# Poissons Ratio (x) = 0.35034 0.29040
# Poissons Ratio (y) = 0.35034 0.29040
# Poissons Ratio (z) = 0.31497 0.31497
#
# Static dielectric constant tensor:
#      x y z
#    x 1.651160 0.000000 0.000000 
#    y 0.000000 1.651160 0.000000 
#    z 0.000000 0.000000 1.626780 
# 
# From -- ./inp_files/18774.got.cif
#   From: 2010.05.17/outbox.ucp.g08.bks.cvg/sg37_10_cif.got.tgz:18774.got - 2010.06.11 10:38:43.
