data_PCOD9355260
_publ_section_title
;
Structure prediction by ZEFSAII (Michael W. Deem and Ramdas Pophale) SiO2 
 PCOD9355260
Probable space group: C C C 2
;
_chemical_formula_sum "Si O2"
_cell_formula_units_Z 48
_cell_length_a 21.975405
_cell_length_b 10.674401
_cell_length_c 8.985144
_cell_angle_alpha 90.000000
_cell_angle_beta 90.000000
_cell_angle_gamma 90.000000
_cell_volume 2107.683730
_symmetry_space_group_name_H-M "C C C 2"
_symmetry_group_IT_number 37
_symmetry_cell_setting 'orthorhombic'
loop_
_space_group_symop_operation_xyz
x,y,z
-x,-y,z
-x,y,1/2+z
x,-y,1/2+z
1/2+x,1/2+y,z
1/2-x,1/2-y,z
1/2-x,1/2+y,1/2+z
1/2+x,1/2-y,1/2+z
loop_
_atom_site_type_symbol
_atom_site_label
_atom_site_fract_x
_atom_site_fract_y
_atom_site_fract_z
Si Si1 0.586127 0.096758 0.021640
Si Si2 0.816600 0.369448 0.521640
Si Si3 0.000000 0.000000 0.771640
Si Si4 0.250000 0.750000 0.273492
Si Si5 0.000000 0.500000 0.771640
Si Si6 0.711901 0.441749 0.021640
Si Si7 0.581822 0.381183 0.021640
Si Si8 0.250000 0.250000 0.269788
O O1 0.608346 0.239512 0.021640
O O2 0.634150 0.981143 0.021640
O O3 0.543314 0.079846 0.164984
O O4 0.543314 0.079846 0.878296
O O5 0.809322 0.288629 0.371931
O O6 0.750984 0.434927 0.521640
O O7 0.809322 0.288629 0.671349
O O8 0.958800 0.913542 0.664830
O O9 0.041200 0.913542 0.878450
O O10 0.268405 0.636636 0.166283
O O11 0.640918 0.467839 0.021640
O O12 0.731595 0.363364 0.876998
#
# Coordination Sequence:
#
# PCOD9355260 Si02
#       8
#     8   8   4   4   4   8   8   4
#     4  11  24  45  70  96 139 171 228 279 336 401
#     4  11  25  43  69 103 137 176 221 277 345 404
#     4  10  26  50  66  96 132 182 234 276 342 398
#     4  10  24  44  64 104 138 176 214 270 356 400
#     4  10  26  42  66 104 128 178 222 272 332 404
#     4  11  24  40  70  99 130 173 226 273 336 407
#     4  11  25  45  71  94 132 178 226 285 331 403
#     4  10  24  44  64 104 138 176 214 270 356 400
#
# _framework density 22.773814999999999
#
# number of rings (size 3 to 8) (size 9 to 14) (size 15 to 20)
#    0.000    1.333    0.000    4.000   14.000    0.000 
#    0.000    0.000    0.000    0.000    0.000    0.000 
#    0.000    0.000    0.000    0.000    0.000    0.000 
#
# Total GULP energy -134255.273111 kJ/mol
# GULP energy per Si atom -5593.969713 kJ/mol
# Density = 2.272198 g / cm^3
# Si number density = 22.773815 Si / 1000 Ang^3
#
#
#
# Elastic Constant Matrix: (Units=GPa)
#
#
# Indices 1 2 3 4 5 6 
#
# 1 84.9711 2.2123 21.9933 0.0000 0.0000 0.0000
# 2 2.2123 75.8524 19.7578 0.0000 0.0000 0.0000
# 3 21.9933 19.7578 136.4907 0.0000 0.0000 0.0000
# 4 0.0000 0.0000 0.0000 30.4665 0.0000 0.0000
# 5 0.0000 0.0000 0.0000 0.0000 -26.3274 0.0000
# 6 0.0000 0.0000 0.0000 0.0000 0.0000 36.0255
#
#
#
# Elastic Compliance Matrix: (Units=1/GPa)
#
#
# Indices 1 2 3 4 5 6 
#
# 1 0.012283 0.000163 -0.002003 0.000000 0.000000 0.000000
# 2 0.000163 0.013702 -0.002010 0.000000 0.000000 0.000000
# 3 -0.002003 -0.002010 0.007940 0.000000 0.000000 0.000000
# 4 0.000000 0.000000 0.000000 0.032823 0.000000 0.000000
# 5 0.000000 0.000000 0.000000 0.000000 -0.037983 0.000000
# 6 0.000000 0.000000 0.000000 0.000000 0.000000 0.027758
#
#
# Mechanical properties :
#
#
# Convention : Reuss Voigt Hill
#
# Bulk Modulus (GPa) = 38.12886 42.80456 40.46671
# Shear Modulus (GPa) = 68.52706 24.92295 46.72501
#
# Velocity S-wave (km/s) = 5.49141 3.31171 4.53448
# Velocity P-wave (km/s) = 7.54892 5.78443 6.72480
#
# Compressibility (1/GPa) = 0.02622685
#
# Stress axis : x y z
#
# Youngs Moduli (GPa) = 81.41431 72.98072 125.94195
#
# Poissons Ratio (x) = -0.01193 0.25224
# Poissons Ratio (y) = -0.01331 0.25312
# Poissons Ratio (z) = 0.16306 0.14668
#
# Static dielectric constant tensor:
#      x y z
#    x 1.813700 0.000000 0.000000 
#    y 0.000000 1.865200 0.000000 
#    z 0.000000 0.000000 1.889520 
# 
# From -- ./inp_files/2955.got.cif
#   From: 2010.05.17/outbox.cif.g08.bks.cpg/sg37_2_cif.got.tgz:2955.got - 2010.06.03 17:53:42.
