data_PCOD9355226
_publ_section_title
;
Structure prediction by ZEFSAII (Michael W. Deem and Ramdas Pophale) SiO2 
 PCOD9355226
Probable space group: C C C 2
;
_chemical_formula_sum "Si O2"
_cell_formula_units_Z 60
_cell_length_a 23.330389
_cell_length_b 10.043021
_cell_length_c 11.785163
_cell_angle_alpha 90.000000
_cell_angle_beta 90.000000
_cell_angle_gamma 90.000000
_cell_volume 2761.353101
_symmetry_space_group_name_H-M "C C C 2"
_symmetry_group_IT_number 37
_symmetry_cell_setting 'orthorhombic'
loop_
_space_group_symop_operation_xyz
x,y,z
-x,-y,z
-x,y,1/2+z
x,-y,1/2+z
1/2+x,1/2+y,z
1/2-x,1/2-y,z
1/2-x,1/2+y,1/2+z
1/2+x,1/2-y,1/2+z
loop_
_atom_site_type_symbol
_atom_site_label
_atom_site_fract_x
_atom_site_fract_y
_atom_site_fract_z
Si Si1 0.255570 0.542612 0.143770
Si Si2 0.133721 0.037162 0.496525
Si Si3 0.130211 0.606690 0.181590
Si Si4 0.750000 0.250000 0.560069
Si Si5 0.050240 0.269584 0.495676
Si Si6 0.950642 0.396272 0.764736
Si Si7 0.176881 0.176722 0.846713
Si Si8 0.459545 0.618743 0.634569
O O1 0.305140 0.574384 0.052235
O O2 0.191338 0.592112 0.119134
O O3 0.275196 0.611579 0.262360
O O4 0.251301 0.382123 0.136050
O O5 0.139981 0.947176 0.386534
O O6 0.097675 0.953461 0.590230
O O7 0.098409 0.164466 0.460775
O O8 0.108880 0.467976 0.233729
O O9 0.141652 0.714323 0.279113
O O10 0.080138 0.660879 0.102390
O O11 0.800924 0.237298 0.466428
O O12 0.040409 0.374080 0.397680
O O13 0.994821 0.183545 0.529251
O O14 0.952064 0.248309 0.712217
O O15 0.000000 0.500000 0.726577
O O16 0.500000 0.500000 0.682391
#
# Coordination Sequence:
#
# PCOD9355226 Si02
#       8
#     8   8   8   4   8   8   8   8
#     4  11  24  44  71 101 146 186 240 291 359 442
#     4  10  25  43  76 103 141 186 245 295 348 439
#     4  12  26  44  69 103 146 187 228 301 363 440
#     4  10  24  42  66 104 134 198 238 290 354 428
#     4  11  26  45  70 106 134 188 241 296 362 421
#     4  12  29  44  72 106 142 188 236 306 367 432
#     4  11  23  45  70 101 144 196 230 294 372 419
#     4  10  25  51  73 103 141 186 240 301 359 434
#
# _framework density 21.728480000000001
#
# number of rings (size 3 to 8) (size 9 to 14) (size 15 to 20)
#    0.000    1.067    4.000    0.000   11.200    1.600 
#    0.000    0.000    0.000    0.000    0.000    0.000 
#    0.000    0.000    0.000    0.000    0.000    0.000 
#
# Total GULP energy -167512.617342 kJ/mol
# GULP energy per Si atom -5583.753911 kJ/mol
# Density = 2.167902 g / cm^3
# Si number density = 21.728480 Si / 1000 Ang^3
#
#
#
# Elastic Constant Matrix: (Units=GPa)
#
#
# Indices 1 2 3 4 5 6 
#
# 1 86.8529 38.2427 30.1722 0.0000 0.0000 0.0000
# 2 38.2427 142.3928 50.6912 0.0000 0.0000 0.0000
# 3 30.1722 50.6912 34.0047 0.0000 0.0000 0.0000
# 4 0.0000 0.0000 0.0000 42.5741 0.0000 0.0000
# 5 0.0000 0.0000 0.0000 0.0000 4.5285 0.0000
# 6 0.0000 0.0000 0.0000 0.0000 0.0000 -5.2047
#
#
#
# Elastic Compliance Matrix: (Units=1/GPa)
#
#
# Indices 1 2 3 4 5 6 
#
# 1 0.016834 0.001697 -0.017466 0.000000 0.000000 0.000000
# 2 0.001697 0.015135 -0.024067 0.000000 0.000000 0.000000
# 3 -0.017466 -0.024067 0.080783 0.000000 0.000000 0.000000
# 4 0.000000 0.000000 0.000000 0.023488 0.000000 0.000000
# 5 0.000000 0.000000 0.000000 0.000000 0.220825 0.000000
# 6 0.000000 0.000000 0.000000 0.000000 0.000000 -0.192134
#
#
# Mechanical properties :
#
#
# Convention : Reuss Voigt Hill
#
# Bulk Modulus (GPa) = 30.23128 55.71807 42.97467
# Shear Modulus (GPa) = 19.55937 17.98921 18.77429
#
# Velocity S-wave (km/s) = 3.00354 2.88046 2.94265
# Velocity P-wave (km/s) = 5.09625 6.06311 5.60058
#
# Compressibility (1/GPa) = 0.03307832
#
# Stress axis : x y z
#
# Youngs Moduli (GPa) = 59.40254 66.07184 12.37886
#
# Poissons Ratio (x) = -0.11210 0.21621
# Poissons Ratio (y) = -0.10079 0.29793
# Poissons Ratio (z) = 1.03754 1.59018
#
# Static dielectric constant tensor:
#      x y z
#    x 1.826670 0.000000 0.000000 
#    y 0.000000 1.814380 0.000000 
#    z 0.000000 0.000000 1.783960 
# 
# From -- ./inp_files/9088.got.cif
#   From: 2010.05.17/outbox.cif.g08.bks.cpg/sg37_5_cif.got.tgz:9088.got - 2010.06.03 17:53:42.
