data_PCOD9355285
_publ_section_title
;
Structure prediction by ZEFSAII (Michael W. Deem and Ramdas Pophale) SiO2 
 PCOD9355285
Probable space group: C C C 2
;
_chemical_formula_sum "Si O2"
_cell_formula_units_Z 60
_cell_length_a 17.957068
_cell_length_b 17.784332
_cell_length_c 8.880040
_cell_angle_alpha 90.000000
_cell_angle_beta 90.000000
_cell_angle_gamma 90.000000
_cell_volume 2835.880371
_symmetry_space_group_name_H-M "C C C 2"
_symmetry_group_IT_number 37
_symmetry_cell_setting 'orthorhombic'
loop_
_space_group_symop_operation_xyz
x,y,z
-x,-y,z
-x,y,1/2+z
x,-y,1/2+z
1/2+x,1/2+y,z
1/2-x,1/2-y,z
1/2-x,1/2+y,1/2+z
1/2+x,1/2-y,1/2+z
loop_
_atom_site_type_symbol
_atom_site_label
_atom_site_fract_x
_atom_site_fract_y
_atom_site_fract_z
Si Si1 0.058600 0.106778 0.523650
Si Si2 0.038395 0.766358 0.684846
Si Si3 0.805762 0.303706 0.614797
Si Si4 0.384325 0.922641 0.396325
Si Si5 0.219842 0.167762 0.427030
Si Si6 0.155436 0.578882 0.046848
Si Si7 0.523761 0.829988 0.445754
Si Si8 0.000000 0.000000 0.260564
O O1 0.133386 0.151896 0.471621
O O2 0.998413 0.161972 0.606406
O O3 0.061259 0.039415 0.650078
O O4 0.031092 0.064211 0.372994
O O5 0.126293 0.750179 0.670334
O O6 0.015035 0.747459 0.854042
O O7 0.003552 0.692297 0.609051
O O8 0.750000 0.250000 0.524540
O O9 0.840399 0.364943 0.504952
O O10 0.755726 0.334519 0.755565
O O11 0.357592 0.921549 0.224667
O O12 0.469902 0.896207 0.393742
O O13 0.371703 0.002376 0.472544
O O14 0.250000 0.250000 0.480721
O O15 0.260631 0.099878 0.511975
O O16 0.107183 0.642554 0.961096
#
# Coordination Sequence:
#
# PCOD9355285 Si02
#       8
#     8   8   8   8   8   8   8   4
#     4  11  25  47  74 106 144 195 257 311 377 455
#     4  11  22  42  72 102 136 186 241 306 361 436
#     4  10  24  45  70 103 142 185 239 302 379 436
#     4  11  26  41  66  97 140 190 233 292 362 448
#     4  11  25  44  74 104 143 190 245 307 382 444
#     4  12  24  43  63 100 144 184 236 292 370 441
#     4  11  22  39  68 100 136 181 236 294 357 437
#     4  10  26  48  72 108 144 198 256 314 378 436
#
# _framework density 21.157451999999999
#
# number of rings (size 3 to 8) (size 9 to 14) (size 15 to 20)
#    0.000    1.067    2.667    2.800    7.467    3.733 
#    7.200    0.000    0.000    0.000    0.000    0.000 
#    0.000    0.000    0.000    0.000    0.000    0.000 
#
# Total GULP energy -167111.298762 kJ/mol
# GULP energy per Si atom -5570.376625 kJ/mol
# Density = 2.110930 g / cm^3
# Si number density = 21.157452 Si / 1000 Ang^3
#
#
#
# Elastic Constant Matrix: (Units=GPa)
#
#
# Indices 1 2 3 4 5 6 
#
# 1 118.9350 51.4988 47.3160 0.0000 0.0000 0.0000
# 2 51.4988 95.4968 57.8718 0.0000 0.0000 0.0000
# 3 47.3160 57.8718 129.0503 0.0000 0.0000 0.0000
# 4 0.0000 0.0000 0.0000 46.0388 0.0000 0.0000
# 5 0.0000 0.0000 0.0000 0.0000 20.4567 0.0000
# 6 0.0000 0.0000 0.0000 0.0000 0.0000 18.7562
#
#
#
# Elastic Compliance Matrix: (Units=1/GPa)
#
#
# Indices 1 2 3 4 5 6 
#
# 1 0.011312 -0.004925 -0.001939 0.000000 0.000000 0.000000
# 2 -0.004925 0.016524 -0.005604 0.000000 0.000000 0.000000
# 3 -0.001939 -0.005604 0.010973 0.000000 0.000000 0.000000
# 4 0.000000 0.000000 0.000000 0.021721 0.000000 0.000000
# 5 0.000000 0.000000 0.000000 0.000000 0.048884 0.000000
# 6 0.000000 0.000000 0.000000 0.000000 0.000000 0.053316
#
#
# Mechanical properties :
#
#
# Convention : Reuss Voigt Hill
#
# Bulk Modulus (GPa) = 72.08669 72.98394 72.53532
# Shear Modulus (GPa) = 26.00250 29.50337 27.75293
#
# Velocity S-wave (km/s) = 3.50951 3.73831 3.62571
# Velocity P-wave (km/s) = 7.11110 7.29409 7.20318
#
# Compressibility (1/GPa) = 0.01387219
#
# Stress axis : x y z
#
# Youngs Moduli (GPa) = 88.40240 60.51886 91.13358
#
# Poissons Ratio (x) = 0.29807 0.17669
# Poissons Ratio (y) = 0.43541 0.51072
# Poissons Ratio (z) = 0.17139 0.33916
#
# Static dielectric constant tensor:
#      x y z
#    x 1.831580 0.000000 0.000000 
#    y 0.000000 1.796040 0.000000 
#    z 0.000000 0.000000 1.752470 
# 
# From -- ./inp_files/4086.got.cif
#   From: 2010.05.17/outbox.cif.g08.bks.cpg/sg37_3_cif.got.tgz:4086.got - 2010.06.03 17:53:42.
