data_PCOD9355511
_publ_section_title
;
Structure prediction by ZEFSAII (Michael W. Deem and Ramdas Pophale) SiO2 
 PCOD9355511
Probable space group: C C C 2
;
_chemical_formula_sum "Si O2"
_cell_formula_units_Z 52
_cell_length_a 8.650772
_cell_length_b 16.678096
_cell_length_c 16.030591
_cell_angle_alpha 90.000000
_cell_angle_beta 90.000000
_cell_angle_gamma 90.000000
_cell_volume 2312.868115
_symmetry_space_group_name_H-M "C C C 2"
_symmetry_group_IT_number 37
_symmetry_cell_setting 'orthorhombic'
loop_
_space_group_symop_operation_xyz
x,y,z
-x,-y,z
-x,y,1/2+z
x,-y,1/2+z
1/2+x,1/2+y,z
1/2-x,1/2-y,z
1/2-x,1/2+y,1/2+z
1/2+x,1/2-y,1/2+z
loop_
_atom_site_type_symbol
_atom_site_label
_atom_site_fract_x
_atom_site_fract_y
_atom_site_fract_z
Si Si1 0.556814 0.201375 0.066870
Si Si2 0.500000 0.000000 0.270956
Si Si3 0.250000 0.250000 0.254858
Si Si4 0.337095 0.655917 0.164948
Si Si5 0.279324 0.131636 0.844117
Si Si6 0.703943 0.098621 0.636975
Si Si7 0.500000 0.500000 0.626650
Si Si8 0.008266 0.774759 0.395355
O O1 0.558169 0.268489 0.140379
O O2 0.710440 0.151676 0.090730
O O3 0.414046 0.140460 0.072070
O O4 0.565184 0.256255 0.984970
O O5 0.383896 0.947306 0.329013
O O6 0.609390 0.953083 0.205370
O O7 0.248534 0.173213 0.195001
O O8 0.391100 0.264603 0.319159
O O9 0.248389 0.663390 0.250708
O O10 0.426541 0.573667 0.175027
O O11 0.109725 0.143526 0.886814
O O12 0.381112 0.198052 0.888353
O O13 0.843513 0.047455 0.594180
#
# Coordination Sequence:
#
# PCOD9355511 Si02
#       8
#     8   4   4   8   8   8   4   8
#     4  11  23  44  68  97 132 190 230 284 342 427
#     4  12  22  44  70 100 134 180 240 280 346 414
#     4  12  22  40  66 102 126 180 232 286 330 414
#     4  11  22  43  71  98 133 181 241 286 338 414
#     4  11  22  44  69  98 129 191 228 286 332 420
#     4  12  23  40  70 101 131 177 235 286 342 409
#     4  12  24  36  66 106 134 156 226 310 344 390
#     4  11  24  41  69  98 139 176 237 280 349 411
#
# _framework density 22.482907000000001
#
# number of rings (size 3 to 8) (size 9 to 14) (size 15 to 20)
#    0.000    0.615    4.615    5.538    0.000    3.692 
#    0.000    3.846    0.000    0.923    0.000    0.000 
#    0.000    0.000    0.000    0.000    0.000    0.000 
#
# Total GULP energy -144780.702277 kJ/mol
# GULP energy per Si atom -5568.488549 kJ/mol
# Density = 2.243174 g / cm^3
# Si number density = 22.482907 Si / 1000 Ang^3
#
#
#
# Elastic Constant Matrix: (Units=GPa)
#
#
# Indices 1 2 3 4 5 6 
#
# 1 123.8939 41.1659 15.9689 0.0000 0.0000 0.0000
# 2 41.1659 114.0567 5.7208 0.0000 0.0000 0.0000
# 3 15.9689 5.7208 59.7144 0.0000 0.0000 0.0000
# 4 0.0000 0.0000 0.0000 15.3791 0.0000 0.0000
# 5 0.0000 0.0000 0.0000 0.0000 118.3204 0.0000
# 6 0.0000 0.0000 0.0000 0.0000 0.0000 66.3595
#
#
#
# Elastic Compliance Matrix: (Units=1/GPa)
#
#
# Indices 1 2 3 4 5 6 
#
# 1 0.009453 -0.003301 -0.002212 0.000000 0.000000 0.000000
# 2 -0.003301 0.009963 -0.000072 0.000000 0.000000 0.000000
# 3 -0.002212 -0.000072 0.017345 0.000000 0.000000 0.000000
# 4 0.000000 0.000000 0.000000 0.065023 0.000000 0.000000
# 5 0.000000 0.000000 0.000000 0.000000 0.008452 0.000000
# 6 0.000000 0.000000 0.000000 0.000000 0.000000 0.015069
#
#
# Mechanical properties :
#
#
# Convention : Reuss Voigt Hill
#
# Bulk Modulus (GPa) = 39.07515 47.04178 43.05847
# Shear Modulus (GPa) = 34.48167 55.66575 45.07371
#
# Velocity S-wave (km/s) = 3.92048 4.98125 4.48236
# Velocity P-wave (km/s) = 6.15721 7.35205 6.78100
#
# Compressibility (1/GPa) = 0.02559171
#
# Stress axis : x y z
#
# Youngs Moduli (GPa) = 105.78303 100.37559 57.65443
#
# Poissons Ratio (x) = 0.33134 0.12752
# Poissons Ratio (y) = 0.34919 0.00413
# Poissons Ratio (z) = 0.23397 0.00720
#
# Static dielectric constant tensor:
#      x y z
#    x 1.917720 0.000000 0.000000 
#    y 0.000000 1.761500 0.000000 
#    z 0.000000 0.000000 1.784400 
# 
# From -- ./inp_files/14676.got.cif
#   From: 2010.05.17/outbox.cif.g08.bks.cpg/sg37_8_cif.got.tgz:14676.got - 2010.06.03 17:53:42.
