data_PCOD9355374
_publ_section_title
;
Structure prediction by ZEFSAII (Michael W. Deem and Ramdas Pophale) SiO2 
 PCOD9355374
Probable space group: C C C 2
;
_chemical_formula_sum "Si O2"
_cell_formula_units_Z 36
_cell_length_a 13.218119
_cell_length_b 8.788695
_cell_length_c 12.475790
_cell_angle_alpha 90.000000
_cell_angle_beta 90.000000
_cell_angle_gamma 90.000000
_cell_volume 1449.312728
_symmetry_space_group_name_H-M "C C C 2"
_symmetry_group_IT_number 37
_symmetry_cell_setting 'orthorhombic'
loop_
_space_group_symop_operation_xyz
x,y,z
-x,-y,z
-x,y,1/2+z
x,-y,1/2+z
1/2+x,1/2+y,z
1/2-x,1/2-y,z
1/2-x,1/2+y,1/2+z
1/2+x,1/2-y,1/2+z
loop_
_atom_site_type_symbol
_atom_site_label
_atom_site_fract_x
_atom_site_fract_y
_atom_site_fract_z
Si Si1 0.750000 0.750000 0.573180
Si Si2 0.000000 0.500000 0.190404
Si Si3 0.636629 0.272964 0.634527
Si Si4 0.311665 0.105706 0.784479
Si Si5 0.328304 0.498934 0.441368
Si Si6 0.500000 0.500000 0.272333
O O1 0.721495 0.882991 0.658516
O O2 0.665631 0.664571 0.502129
O O3 0.074262 0.385570 0.126332
O O4 0.069858 0.600151 0.269216
O O5 0.750000 0.250000 0.684449
O O6 0.662011 0.369121 0.528933
O O7 0.557820 0.377832 0.699664
O O8 0.274961 0.985415 0.871958
O O9 0.411253 0.458395 0.853708
O O10 0.250000 0.750000 0.327095
#
# Coordination Sequence:
#
# PCOD9355374 Si02
#       6
#     4   4   8   8   8   4
#     4  10  26  48  80 116 172 212 276 354 400 504
#     4  12  26  48  90 112 158 210 270 344 414 480
#     4  12  29  53  78 121 165 212 277 349 415 506
#     4  10  25  49  73 117 163 204 270 349 392 498
#     4  12  25  49  82 115 166 224 269 342 435 485
#     4  12  28  46  82 118 164 212 282 338 418 508
#
# _framework density 24.839358000000001
#
# number of rings (size 3 to 8) (size 9 to 14) (size 15 to 20)
#    0.667    0.000    0.000    6.667   10.889    0.000 
#    0.000    8.889    0.000    0.000    0.000    0.000 
#    0.000    0.000    0.000    0.000    0.000    0.000 
#
# Total GULP energy -100215.704610 kJ/mol
# GULP energy per Si atom -5567.539145 kJ/mol
# Density = 2.478282 g / cm^3
# Si number density = 24.839358 Si / 1000 Ang^3
#
#
#
# Elastic Constant Matrix: (Units=GPa)
#
#
# Indices 1 2 3 4 5 6 
#
# 1 131.6765 54.1540 54.3356 0.0000 0.0000 0.0000
# 2 54.1540 130.5162 72.8272 0.0000 0.0000 0.0000
# 3 54.3356 72.8272 125.0715 0.0000 0.0000 0.0000
# 4 0.0000 0.0000 0.0000 13.1574 0.0000 0.0000
# 5 0.0000 0.0000 0.0000 0.0000 117.4096 0.0000
# 6 0.0000 0.0000 0.0000 0.0000 0.0000 39.1824
#
#
#
# Elastic Compliance Matrix: (Units=1/GPa)
#
#
# Indices 1 2 3 4 5 6 
#
# 1 0.009773 -0.002497 -0.002792 0.000000 0.000000 0.000000
# 2 -0.002497 0.011988 -0.005895 0.000000 0.000000 0.000000
# 3 -0.002792 -0.005895 0.012641 0.000000 0.000000 0.000000
# 4 0.000000 0.000000 0.000000 0.076003 0.000000 0.000000
# 5 0.000000 0.000000 0.000000 0.000000 0.008517 0.000000
# 6 0.000000 0.000000 0.000000 0.000000 0.000000 0.025522
#
#
# Mechanical properties :
#
#
# Convention : Reuss Voigt Hill
#
# Bulk Modulus (GPa) = 83.10311 83.32198 83.21255
# Shear Modulus (GPa) = 29.26998 47.67972 38.47485
#
# Velocity S-wave (km/s) = 3.43646 4.38599 3.93994
# Velocity P-wave (km/s) = 7.01959 7.69846 7.36685
#
# Compressibility (1/GPa) = 0.01203324
#
# Stress axis : x y z
#
# Youngs Moduli (GPa) = 102.31769 83.41933 79.10807
#
# Poissons Ratio (x) = 0.20834 0.22085
# Poissons Ratio (y) = 0.25554 0.46636
# Poissons Ratio (z) = 0.28564 0.49177
#
# Static dielectric constant tensor:
#      x y z
#    x 1.615070 0.000000 0.000000 
#    y 0.000000 2.113610 0.000000 
#    z 0.000000 0.000000 1.969650 
# 
# From -- ./inp_files/11986.got.cif
#   From: 2010.05.17/outbox.cif.g08.bks.cpg/sg37_6_cif.got.tgz:11986.got - 2010.06.03 17:53:42.
