data_PCOD9355832
_publ_section_title
;
Structure prediction by ZEFSAII (Michael W. Deem and Ramdas Pophale) SiO2 
 PCOD9355832
Probable space group: A M M 2
;
_chemical_formula_sum "Si O2"
_cell_formula_units_Z 48
_cell_length_a 7.721845
_cell_length_b 34.090336
_cell_length_c 7.226597
_cell_angle_alpha 90.000000
_cell_angle_beta 90.000000
_cell_angle_gamma 90.000000
_cell_volume 1902.331494
_symmetry_space_group_name_H-M "A M M 2"
_symmetry_group_IT_number 38
_symmetry_cell_setting 'orthorhombic'
loop_
_space_group_symop_operation_xyz
x,y,z
-x,-y,z
-x,y,z
x,-y,z
x,1/2+y,1/2+z
-x,1/2-y,1/2+z
-x,1/2+y,1/2+z
x,1/2-y,1/2+z
loop_
_atom_site_type_symbol
_atom_site_label
_atom_site_fract_x
_atom_site_fract_y
_atom_site_fract_z
Si Si1 0.196951 0.703156 0.086200
Si Si2 0.693726 0.875997 0.684198
Si Si3 0.798605 0.711869 0.525890
Si Si4 0.790714 0.957050 0.104109
Si Si5 0.199015 0.371671 0.597844
Si Si6 0.206392 0.958222 0.660803
O O1 0.271217 0.660243 0.048804
O O2 0.196624 0.703874 0.308556
O O3 0.000000 0.703729 0.015917
O O4 0.282299 0.744827 0.039472
O O5 0.500000 0.871789 0.755924
O O6 0.807321 0.875815 0.871463
O O7 0.716990 0.917900 0.589682
O O8 0.725407 0.672508 0.621644
O O9 0.000000 0.715801 0.589278
O O10 0.724723 0.913659 0.161616
O O11 0.762497 0.958365 0.882079
O O12 0.000000 0.956373 0.133643
O O13 0.729121 0.000000 0.172964
O O14 0.000000 0.370005 0.664013
O O15 0.000000 0.956921 0.631032
O O16 0.271532 0.000000 0.589713
#
# Coordination Sequence:
#
# PCOD9355832 Si02
#       6
#     8   8   8   8   8   8
#     4   9  16  28  42  56  74  99 131 164 198 235
#     4  10  17  23  33  52  76 101 126 156 195 233
#     4   8  14  24  41  58  72  94 128 167 199 229
#     4   7   9  14  27  46  66  89 117 145 173 211
#     4   8  13  23  36  50  70  98 129 158 188 227
#     4   8  13  22  35  49  68  98 131 158 187 227
#
# _framework density 25.232195000000001
#
# number of rings (size 3 to 8) (size 9 to 14) (size 15 to 20)
#    0.000    3.667    0.000    4.500    0.000    0.333 
#    0.000    3.333    0.000    0.000    0.000    0.000 
#    0.000    1.333    0.000   14.000    0.000   36.500 
#
# Total GULP energy -133649.812016 kJ/mol
# GULP energy per Si atom -5568.742167 kJ/mol
# Density = 2.517477 g / cm^3
# Si number density = 25.232195 Si / 1000 Ang^3
#
#
#
# Elastic Constant Matrix: (Units=GPa)
#
#
# Indices 1 2 3 4 5 6 
#
# 1 49.1216 20.9843 -2.8397 0.0000 0.0000 0.0000
# 2 20.9843 285.0504 -36.7229 0.0000 0.0000 0.0000
# 3 -2.8397 -36.7229 60.9307 0.0000 0.0000 0.0000
# 4 0.0000 0.0000 0.0000 0.2488 0.0000 0.0000
# 5 0.0000 0.0000 0.0000 0.0000 -6.3765 0.0000
# 6 0.0000 0.0000 0.0000 0.0000 0.0000 -58.5757
#
#
#
# Elastic Compliance Matrix: (Units=1/GPa)
#
#
# Indices 1 2 3 4 5 6 
#
# 1 0.021019 -0.001541 0.000051 0.000000 0.000000 0.000000
# 2 -0.001541 0.003916 0.002289 0.000000 0.000000 0.000000
# 3 0.000051 0.002289 0.017794 0.000000 0.000000 0.000000
# 4 0.000000 0.000000 0.000000 4.019970 0.000000 0.000000
# 5 0.000000 0.000000 0.000000 0.000000 -0.156825 0.000000
# 6 0.000000 0.000000 0.000000 0.000000 0.000000 -0.017072
#
#
# Mechanical properties :
#
#
# Convention : Reuss Voigt Hill
#
# Bulk Modulus (GPa) = 22.55977 39.77179 31.16578
# Shear Modulus (GPa) = 1.28140 14.63805 7.95972
#
# Velocity S-wave (km/s) = 0.71340 2.41121 1.77804
# Velocity P-wave (km/s) = 3.10465 4.85267 4.07353
#
# Compressibility (1/GPa) = 0.04432670
#
# Stress axis : x y z
#
# Youngs Moduli (GPa) = 47.57650 255.33553 56.19936
#
# Poissons Ratio (x) = 0.39341 -0.00287
# Poissons Ratio (y) = 0.07330 -0.12862
# Poissons Ratio (z) = -0.00243 -0.58436
#
# Static dielectric constant tensor:
#      x y z
#    x 1.879730 0.000000 0.000000 
#    y 0.000000 2.177500 0.000000 
#    z 0.000000 0.000000 2.025770 
# 
# From -- ./inp_files/8386.got.cif
#   From: 2010.05.17/outbox.cif.g08.bks.cpg/sg38_5_cif.got.tgz:8386.got - 2010.06.03 18:07:57.
