data_PCOD9355164
_publ_section_title
;
Structure prediction by ZEFSAII (Michael W. Deem and Ramdas Pophale) SiO2 
 PCOD9355164
Probable space group: C C C 2
;
_chemical_formula_sum "Si O2"
_cell_formula_units_Z 32
_cell_length_a 7.633005
_cell_length_b 14.298594
_cell_length_c 12.967710
_cell_angle_alpha 90.000000
_cell_angle_beta 90.000000
_cell_angle_gamma 90.000000
_cell_volume 1415.311943
_symmetry_space_group_name_H-M "C C C 2"
_symmetry_group_IT_number 37
_symmetry_cell_setting 'orthorhombic'
loop_
_space_group_symop_operation_xyz
x,y,z
-x,-y,z
-x,y,1/2+z
x,-y,1/2+z
1/2+x,1/2+y,z
1/2-x,1/2-y,z
1/2-x,1/2+y,1/2+z
1/2+x,1/2-y,1/2+z
loop_
_atom_site_type_symbol
_atom_site_label
_atom_site_fract_x
_atom_site_fract_y
_atom_site_fract_z
Si Si1 0.638683 0.914095 0.380600
Si Si2 0.063082 0.700465 0.520505
Si Si3 0.616709 0.619353 0.575236
Si Si4 0.740484 0.949156 0.151972
O O1 0.522216 0.824888 0.411480
O O2 0.794442 0.911361 0.466146
O O3 0.718682 0.913501 0.267496
O O4 0.500000 0.000000 0.385960
O O5 0.250000 0.750000 0.509868
O O6 0.097178 0.604444 0.582890
O O7 0.927598 0.770613 0.575339
O O8 0.741967 0.561965 0.653341
O O9 0.421962 0.582099 0.599712
#
# Coordination Sequence:
#
# PCOD9355164 Si02
#       4
#     8   8   8   8
#     4  12  25  45  76 105 148 195 252 315 383 455
#     4  10  23  47  73 107 151 194 249 317 372 459
#     4  10  23  45  74 101 147 195 242 307 377 443
#     4  10  24  46  71 110 148 192 250 310 380 455
#
# _framework density 22.609855
#
# number of rings (size 3 to 8) (size 9 to 14) (size 15 to 20)
#    0.000    1.500    2.500    0.750    3.500   10.000 
#    4.500    0.000    0.000    0.000    0.000    0.000 
#    0.000    0.000    0.000    0.000    0.000    0.000 
#
# Total GULP energy -89120.442901 kJ/mol
# GULP energy per Si atom -5570.027681 kJ/mol
# Density = 2.255839 g / cm^3
# Si number density = 22.609855 Si / 1000 Ang^3
#
#
#
# Elastic Constant Matrix: (Units=GPa)
#
#
# Indices 1 2 3 4 5 6 
#
# 1 179.0511 42.7873 40.3490 0.0000 0.0000 0.0000
# 2 42.7873 122.4141 4.6925 0.0000 0.0000 0.0000
# 3 40.3490 4.6925 102.0471 0.0000 0.0000 0.0000
# 4 0.0000 0.0000 0.0000 -133.6668 0.0000 0.0000
# 5 0.0000 0.0000 0.0000 0.0000 3.7632 0.0000
# 6 0.0000 0.0000 0.0000 0.0000 0.0000 31.5332
#
#
#
# Elastic Compliance Matrix: (Units=1/GPa)
#
#
# Indices 1 2 3 4 5 6 
#
# 1 0.006694 -0.002242 -0.002544 0.000000 0.000000 0.000000
# 2 -0.002242 0.008934 0.000476 0.000000 0.000000 0.000000
# 3 -0.002544 0.000476 0.010783 0.000000 0.000000 0.000000
# 4 0.000000 0.000000 0.000000 -0.007481 0.000000 0.000000
# 5 0.000000 0.000000 0.000000 0.000000 0.265732 0.000000
# 6 0.000000 0.000000 0.000000 0.000000 0.000000 0.031713
#
#
# Mechanical properties :
#
#
# Convention : Reuss Voigt Hill
#
# Bulk Modulus (GPa) = 56.20691 64.35220 60.27956
# Shear Modulus (GPa) = 15.10914 1.37150 8.24032
#
# Velocity S-wave (km/s) = 2.58787 0.77969 1.91115
# Velocity P-wave (km/s) = 5.81746 5.41612 5.62037
#
# Compressibility (1/GPa) = 0.01779141
#
# Stress axis : x y z
#
# Youngs Moduli (GPa) = 149.38661 111.92585 92.73614
#
# Poissons Ratio (x) = 0.25097 0.23589
# Poissons Ratio (y) = 0.33496 -0.04412
# Poissons Ratio (z) = 0.37999 -0.05325
#
# Static dielectric constant tensor:
#      x y z
#    x 1.890260 0.000000 0.000000 
#    y 0.000000 2.068710 0.000000 
#    z 0.000000 0.000000 1.778160 
# 
# From -- ./inp_files/5961.got.cif
#   From: 2010.05.17/outbox.cif.g08.bks.cpg/sg37_3_cif.got.tgz:5961.got - 2010.06.03 17:53:42.
