data_PCOD9355388
_publ_section_title
;
Structure prediction by ZEFSAII (Michael W. Deem and Ramdas Pophale) SiO2 
 PCOD9355388
Probable space group: C C C 2
;
_chemical_formula_sum "Si O2"
_cell_formula_units_Z 36
_cell_length_a 12.162136
_cell_length_b 21.635541
_cell_length_c 5.252378
_cell_angle_alpha 90.000000
_cell_angle_beta 90.000000
_cell_angle_gamma 90.000000
_cell_volume 1382.081292
_symmetry_space_group_name_H-M "C C C 2"
_symmetry_group_IT_number 37
_symmetry_cell_setting 'orthorhombic'
loop_
_space_group_symop_operation_xyz
x,y,z
-x,-y,z
-x,y,1/2+z
x,-y,1/2+z
1/2+x,1/2+y,z
1/2-x,1/2-y,z
1/2-x,1/2+y,1/2+z
1/2+x,1/2-y,1/2+z
loop_
_atom_site_type_symbol
_atom_site_label
_atom_site_fract_x
_atom_site_fract_y
_atom_site_fract_z
Si Si1 0.124423 0.524329 0.300710
Si Si2 0.220977 0.369776 0.511643
Si Si3 0.250000 0.750000 0.367223
Si Si4 0.574101 0.800196 0.171507
Si Si5 0.452617 0.428726 0.399259
O O1 0.176357 0.517511 0.577409
O O2 0.133248 0.591080 0.178135
O O3 0.000000 0.500000 0.339292
O O4 0.166144 0.351637 0.242194
O O5 0.328675 0.412584 0.480515
O O6 0.245164 0.308651 0.677938
O O7 0.351434 0.745007 0.563131
O O8 0.511157 0.802101 0.439189
O O9 0.500000 0.500000 0.375259
O O10 0.473743 0.400759 0.123280
#
# Coordination Sequence:
#
# PCOD9355388 Si02
#       5
#     8   8   4   8   8
#     4  10  26  44  76 118 162 214 275 357 438 510
#     4  12  29  52  89 121 180 224 300 356 447 524
#     4  12  30  56  82 132 172 244 282 374 434 538
#     4  12  29  52  84 123 171 226 291 357 433 517
#     4  10  26  49  79 118 164 219 283 353 429 514
#
# _framework density 26.047673
#
# number of rings (size 3 to 8) (size 9 to 14) (size 15 to 20)
#    0.000    0.889    2.222    0.667   18.667    1.778 
#    0.000    0.000    0.000    0.000    0.000    0.000 
#    0.000    0.000    0.000    0.000    0.000    0.000 
#
# Total GULP energy -100447.390180 kJ/mol
# GULP energy per Si atom -5580.410566 kJ/mol
# Density = 2.598839 g / cm^3
# Si number density = 26.047673 Si / 1000 Ang^3
#
#
#
# Elastic Constant Matrix: (Units=GPa)
#
#
# Indices 1 2 3 4 5 6 
#
# 1 120.2767 55.6294 13.9861 0.0000 0.0000 0.0000
# 2 55.6294 120.4796 34.8175 0.0000 0.0000 0.0000
# 3 13.9861 34.8175 179.7248 0.0000 0.0000 0.0000
# 4 0.0000 0.0000 0.0000 36.1195 0.0000 0.0000
# 5 0.0000 0.0000 0.0000 0.0000 55.2098 0.0000
# 6 0.0000 0.0000 0.0000 0.0000 0.0000 45.3719
#
#
#
# Elastic Compliance Matrix: (Units=1/GPa)
#
#
# Indices 1 2 3 4 5 6 
#
# 1 0.010575 -0.004920 0.000130 0.000000 0.000000 0.000000
# 2 -0.004920 0.011082 -0.001764 0.000000 0.000000 0.000000
# 3 0.000130 -0.001764 0.005896 0.000000 0.000000 0.000000
# 4 0.000000 0.000000 0.000000 0.027686 0.000000 0.000000
# 5 0.000000 0.000000 0.000000 0.000000 0.018113 0.000000
# 6 0.000000 0.000000 0.000000 0.000000 0.000000 0.022040
#
#
# Mechanical properties :
#
#
# Convention : Reuss Voigt Hill
#
# Bulk Modulus (GPa) = 69.23212 69.92747 69.57980
# Shear Modulus (GPa) = 44.12533 48.41011 46.26772
#
# Velocity S-wave (km/s) = 4.12031 4.31573 4.21915
# Velocity P-wave (km/s) = 7.01945 7.19293 7.10672
#
# Compressibility (1/GPa) = 0.01444416
#
# Stress axis : x y z
#
# Youngs Moduli (GPa) = 94.56505 90.23791 169.61666
#
# Poissons Ratio (x) = 0.44400 -0.02210
# Poissons Ratio (y) = 0.46529 0.29919
# Poissons Ratio (z) = -0.01232 0.15917
#
# Static dielectric constant tensor:
#      x y z
#    x 1.751310 0.000000 0.000000 
#    y 0.000000 1.942950 0.000000 
#    z 0.000000 0.000000 2.080210 
# 
# From -- ./inp_files/296.got.cif
#   From: 2010.05.17/outbox.cif.g08.bks.cpg/sg37_1_cif.got.tgz:296.got - 2010.06.03 17:53:42.
