data_PCOD9355056
_publ_section_title
;
Structure prediction by ZEFSAII (Michael W. Deem and Ramdas Pophale) SiO2 
 PCOD9355056
Probable space group: C C C 2
;
_chemical_formula_sum "Si O2"
_cell_formula_units_Z 40
_cell_length_a 9.263723
_cell_length_b 17.903080
_cell_length_c 8.800467
_cell_angle_alpha 90.000000
_cell_angle_beta 90.000000
_cell_angle_gamma 90.000000
_cell_volume 1459.550182
_symmetry_space_group_name_H-M "C C C 2"
_symmetry_group_IT_number 37
_symmetry_cell_setting 'orthorhombic'
loop_
_space_group_symop_operation_xyz
x,y,z
-x,-y,z
-x,y,1/2+z
x,-y,1/2+z
1/2+x,1/2+y,z
1/2-x,1/2-y,z
1/2-x,1/2+y,1/2+z
1/2+x,1/2-y,1/2+z
loop_
_atom_site_type_symbol
_atom_site_label
_atom_site_fract_x
_atom_site_fract_y
_atom_site_fract_z
Si Si1 0.681248 0.169222 0.170230
Si Si2 0.197864 0.433053 0.400488
Si Si3 0.275450 0.082065 0.059093
Si Si4 0.103583 0.274169 0.140124
Si Si5 0.458834 0.619214 0.072661
O O1 0.750000 0.250000 0.137377
O O2 0.627909 0.122905 0.021820
O O3 0.526226 0.191138 0.238577
O O4 0.669440 0.378161 0.202909
O O5 0.161228 0.428359 0.226471
O O6 0.172851 0.517695 0.450264
O O7 0.365337 0.407036 0.428055
O O8 0.323691 0.166519 0.023105
O O9 0.103581 0.071585 0.081762
O O10 0.250000 0.250000 0.230190
O O11 0.028568 0.201983 0.065872
#
# Coordination Sequence:
#
# PCOD9355056 Si02
#       5
#     8   8   8   8   8
#     4   8  17  38  63  91 133 170 217 276 339 395
#     4  10  23  39  68  94 136 178 220 280 347 405
#     4  11  22  40  68  97 133 178 227 275 344 414
#     4   9  18  38  67  94 133 171 227 275 340 403
#     4   8  19  38  64  94 128 170 222 279 332 402
#
# _framework density 27.405704
#
# number of rings (size 3 to 8) (size 9 to 14) (size 15 to 20)
#    1.200    1.600    0.000    0.600    0.000    6.400 
#    0.000    4.000    8.800    0.000    0.000    0.000 
#    0.000    0.000    0.000    0.000    0.000    0.000 
#
# Total GULP energy -111353.744927 kJ/mol
# GULP energy per Si atom -5567.687246 kJ/mol
# Density = 2.734333 g / cm^3
# Si number density = 27.405704 Si / 1000 Ang^3
#
#
#
# Elastic Constant Matrix: (Units=GPa)
#
#
# Indices 1 2 3 4 5 6 
#
# 1 200.7266 22.2393 17.3046 0.0000 0.0000 0.0000
# 2 22.2393 92.6496 20.5992 0.0000 0.0000 0.0000
# 3 17.3046 20.5992 43.8688 0.0000 0.0000 0.0000
# 4 0.0000 0.0000 0.0000 16.0622 0.0000 0.0000
# 5 0.0000 0.0000 0.0000 0.0000 12.8476 0.0000
# 6 0.0000 0.0000 0.0000 0.0000 0.0000 34.9712
#
#
#
# Elastic Compliance Matrix: (Units=1/GPa)
#
#
# Indices 1 2 3 4 5 6 
#
# 1 0.005222 -0.000888 -0.001643 0.000000 0.000000 0.000000
# 2 -0.000888 0.012203 -0.005380 0.000000 0.000000 0.000000
# 3 -0.001643 -0.005380 0.025969 0.000000 0.000000 0.000000
# 4 0.000000 0.000000 0.000000 0.062258 0.000000 0.000000
# 5 0.000000 0.000000 0.000000 0.000000 0.077836 0.000000
# 6 0.000000 0.000000 0.000000 0.000000 0.000000 0.028595
#
#
# Mechanical properties :
#
#
# Convention : Reuss Voigt Hill
#
# Bulk Modulus (GPa) = 36.26763 50.83677 43.55220
# Shear Modulus (GPa) = 21.08865 31.24966 26.16916
#
# Velocity S-wave (km/s) = 2.77699 3.38044 3.09347
# Velocity P-wave (km/s) = 4.85228 5.81605 5.35589
#
# Compressibility (1/GPa) = 0.02757280
#
# Stress axis : x y z
#
# Youngs Moduli (GPa) = 191.50000 81.94965 38.50702
#
# Poissons Ratio (x) = 0.07279 0.06326
# Poissons Ratio (y) = 0.17009 0.20715
# Poissons Ratio (z) = 0.31459 0.44085
#
# Static dielectric constant tensor:
#      x y z
#    x 2.178280 0.000000 0.000000 
#    y 0.000000 2.208260 0.000000 
#    z 0.000000 0.000000 2.155520 
# 
# From -- ./inp_files/6268.got.cif
#   From: 2010.05.17/outbox.cif.g08.bks.cpg/sg37_4_cif.got.tgz:6268.got - 2010.06.03 17:53:42.
