data_PCOD9355335
_publ_section_title
;
Structure prediction by ZEFSAII (Michael W. Deem and Ramdas Pophale) SiO2 
 PCOD9355335
Probable space group: C C C 2
;
_chemical_formula_sum "Si O2"
_cell_formula_units_Z 48
_cell_length_a 13.209740
_cell_length_b 6.289524
_cell_length_c 24.121034
_cell_angle_alpha 90.000000
_cell_angle_beta 90.000000
_cell_angle_gamma 90.000000
_cell_volume 2004.047307
_symmetry_space_group_name_H-M "C C C 2"
_symmetry_group_IT_number 37
_symmetry_cell_setting 'orthorhombic'
loop_
_space_group_symop_operation_xyz
x,y,z
-x,-y,z
-x,y,1/2+z
x,-y,1/2+z
1/2+x,1/2+y,z
1/2-x,1/2-y,z
1/2-x,1/2+y,1/2+z
1/2+x,1/2-y,1/2+z
loop_
_atom_site_type_symbol
_atom_site_label
_atom_site_fract_x
_atom_site_fract_y
_atom_site_fract_z
Si Si1 0.500000 0.500000 0.321400
Si Si2 0.862931 0.196358 0.227777
Si Si3 0.861741 0.652557 0.386717
Si Si4 0.857264 0.133084 0.626088
Si Si5 0.250000 0.750000 0.410772
Si Si6 0.893627 0.101909 0.505624
Si Si7 0.500000 0.000000 0.483405
Si Si8 0.000000 0.500000 0.663878
O O1 0.421499 0.611306 0.280353
O O2 0.436145 0.311746 0.352539
O O3 0.750000 0.250000 0.243006
O O4 0.914129 0.405328 0.203165
O O5 0.865760 0.025941 0.177635
O O6 0.750000 0.750000 0.386100
O O7 0.828361 0.401099 0.377301
O O8 0.923070 0.627507 0.443769
O O9 0.750000 0.250000 0.629433
O O10 0.859311 0.019768 0.565627
O O11 0.948244 0.303815 0.631962
O O12 0.183544 0.892324 0.454328
O O13 0.924759 0.347510 0.515631
O O14 0.000000 0.000000 0.490596
#
# Coordination Sequence:
#
# PCOD9355335 Si02
#       8
#     4   8   8   8   4   8   4   4
#     4  12  30  50  78 112 142 210 262 326 396 450
#     4  12  27  50  76 105 150 196 255 318 373 458
#     4  11  27  49  78 108 152 195 257 318 389 449
#     4  12  24  45  76 115 150 198 250 307 381 460
#     4  10  24  48  74 114 152 200 248 320 376 474
#     4  11  22  42  74 110 153 196 246 297 382 455
#     4  10  25  45  76 110 148 200 247 311 368 456
#     4  12  23  45  76 100 154 186 241 323 372 442
#
# _framework density 23.951529000000001
#
# number of rings (size 3 to 8) (size 9 to 14) (size 15 to 20)
#    0.000    0.667    4.167    2.500    5.833    4.000 
#    0.000    0.833    0.000    0.000    0.000    0.000 
#    0.000    0.000    0.000    0.000    0.000    0.000 
#
# Total GULP energy -134074.401183 kJ/mol
# GULP energy per Si atom -5586.433383 kJ/mol
# Density = 2.389701 g / cm^3
# Si number density = 23.951529 Si / 1000 Ang^3
#
#
#
# Elastic Constant Matrix: (Units=GPa)
#
#
# Indices 1 2 3 4 5 6 
#
# 1 181.7727 44.7198 62.0045 0.0000 0.0000 0.0000
# 2 44.7198 80.9011 62.4644 0.0000 0.0000 0.0000
# 3 62.0045 62.4644 118.3516 0.0000 0.0000 0.0000
# 4 0.0000 0.0000 0.0000 37.7253 0.0000 0.0000
# 5 0.0000 0.0000 0.0000 0.0000 60.1042 0.0000
# 6 0.0000 0.0000 0.0000 0.0000 0.0000 68.6299
#
#
#
# Elastic Compliance Matrix: (Units=1/GPa)
#
#
# Indices 1 2 3 4 5 6 
#
# 1 0.006836 -0.001711 -0.002678 0.000000 0.000000 0.000000
# 2 -0.001711 0.021290 -0.010341 0.000000 0.000000 0.000000
# 3 -0.002678 -0.010341 0.015310 0.000000 0.000000 0.000000
# 4 0.000000 0.000000 0.000000 0.026507 0.000000 0.000000
# 5 0.000000 0.000000 0.000000 0.000000 0.016638 0.000000
# 6 0.000000 0.000000 0.000000 0.000000 0.000000 0.014571
#
#
# Mechanical properties :
#
#
# Convention : Reuss Voigt Hill
#
# Bulk Modulus (GPa) = 71.54516 79.93366 75.73941
# Shear Modulus (GPa) = 36.96280 47.41432 42.18856
#
# Velocity S-wave (km/s) = 3.93266 4.45409 4.20147
# Velocity P-wave (km/s) = 7.11033 7.73934 7.43149
#
# Compressibility (1/GPa) = 0.01397719
#
# Stress axis : x y z
#
# Youngs Moduli (GPa) = 146.28700 46.96953 65.31549
#
# Poissons Ratio (x) = 0.08035 0.17495
# Poissons Ratio (y) = 0.25024 0.67540
# Poissons Ratio (z) = 0.39183 0.48569
#
# Static dielectric constant tensor:
#      x y z
#    x 1.864490 0.000000 0.000000 
#    y 0.000000 2.023260 0.000000 
#    z 0.000000 0.000000 1.891180 
# 
# From -- ./inp_files/19946.got.cif
#   From: 2010.05.17/outbox.cif.g08.bks.cpg/sg37_10_cif.got.tgz:19946.got - 2010.06.03 17:53:42.
