data_PCOD9355162
_publ_section_title
;
Structure prediction by ZEFSAII (Michael W. Deem and Ramdas Pophale) SiO2 
 PCOD9355162
Probable space group: C C C 2
;
_chemical_formula_sum "Si O2"
_cell_formula_units_Z 60
_cell_length_a 19.385263
_cell_length_b 6.305749
_cell_length_c 23.161712
_cell_angle_alpha 90.000000
_cell_angle_beta 90.000000
_cell_angle_gamma 90.000000
_cell_volume 2831.255313
_symmetry_space_group_name_H-M "C C C 2"
_symmetry_group_IT_number 37
_symmetry_cell_setting 'orthorhombic'
loop_
_space_group_symop_operation_xyz
x,y,z
-x,-y,z
-x,y,1/2+z
x,-y,1/2+z
1/2+x,1/2+y,z
1/2-x,1/2-y,z
1/2-x,1/2+y,1/2+z
1/2+x,1/2-y,1/2+z
loop_
_atom_site_type_symbol
_atom_site_label
_atom_site_fract_x
_atom_site_fract_y
_atom_site_fract_z
Si Si1 0.000000 0.000000 0.404240
Si Si2 0.168892 0.751108 0.916760
Si Si3 0.394653 0.634592 0.809043
Si Si4 0.575454 0.098870 0.697690
Si Si5 0.931968 0.604717 0.972296
Si Si6 0.672735 0.717136 0.736935
Si Si7 0.319671 0.618084 0.505998
Si Si8 0.680386 0.387549 0.633364
O O1 0.034232 0.801254 0.437073
O O2 0.946255 0.895186 0.361182
O O3 0.250000 0.750000 0.931832
O O4 0.165649 0.757276 0.846729
O O5 0.117337 0.561826 0.937327
O O6 0.153676 0.960693 0.956087
O O7 0.427976 0.759748 0.756104
O O8 0.369879 0.410937 0.784596
O O9 0.613377 0.243392 0.649401
O O10 0.500000 0.000000 0.684068
O O11 0.630185 0.918678 0.715836
O O12 0.000000 0.500000 0.998555
O O13 0.878437 0.706686 0.015755
O O14 0.750000 0.750000 0.759459
O O15 0.680736 0.566874 0.681523
O O16 0.250000 0.750000 0.491004
O O17 0.314403 0.515112 0.569093
O O18 0.750000 0.250000 0.640165
#
# Coordination Sequence:
#
# PCOD9355162 Si02
#       8
#     4   8   8   8   8   8   8   8
#     4  12  24  44  66  96 138 194 218 278 342 418
#     4  12  26  41  65 103 140 180 235 284 344 418
#     4  11  26  38  66  98 139 176 224 272 340 413
#     4  11  25  44  67 102 136 176 224 282 344 407
#     4  12  24  43  67  96 138 180 229 280 342 414
#     4  11  24  42  70  98 135 178 228 280 345 404
#     4  11  24  45  69  99 137 179 233 289 349 412
#     4  10  23  45  71  98 132 175 232 287 339 413
#
# _framework density 21.192014
#
# number of rings (size 3 to 8) (size 9 to 14) (size 15 to 20)
#    0.000    0.800    5.333    0.800    5.600    4.267 
#    0.000    2.667    0.000    0.000    0.000    0.000 
#    0.000    0.000    0.000    0.000    0.000    0.000 
#
# Total GULP energy -167121.259727 kJ/mol
# GULP energy per Si atom -5570.708658 kJ/mol
# Density = 2.114378 g / cm^3
# Si number density = 21.192014 Si / 1000 Ang^3
#
#
#
# Elastic Constant Matrix: (Units=GPa)
#
#
# Indices 1 2 3 4 5 6 
#
# 1 112.3696 13.1210 -10.8498 0.0000 0.0000 0.0000
# 2 13.1210 50.4188 2.7949 0.0000 0.0000 0.0000
# 3 -10.8498 2.7949 69.0564 0.0000 0.0000 0.0000
# 4 0.0000 0.0000 0.0000 15.9149 0.0000 0.0000
# 5 0.0000 0.0000 0.0000 0.0000 0.6316 0.0000
# 6 0.0000 0.0000 0.0000 0.0000 0.0000 37.3348
#
#
#
# Elastic Compliance Matrix: (Units=1/GPa)
#
#
# Indices 1 2 3 4 5 6 
#
# 1 0.009345 -0.002519 0.001570 0.000000 0.000000 0.000000
# 2 -0.002519 0.020557 -0.001228 0.000000 0.000000 0.000000
# 3 0.001570 -0.001228 0.014777 0.000000 0.000000 0.000000
# 4 0.000000 0.000000 0.000000 0.062834 0.000000 0.000000
# 5 0.000000 0.000000 0.000000 0.000000 1.583294 0.000000
# 6 0.000000 0.000000 0.000000 0.000000 0.000000 0.026785
#
#
# Mechanical properties :
#
#
# Convention : Reuss Voigt Hill
#
# Bulk Modulus (GPa) = 24.79756 26.88634 25.84195
# Shear Modulus (GPa) = 2.88120 25.89484 14.38802
#
# Velocity S-wave (km/s) = 1.16727 3.49938 2.60847
# Velocity P-wave (km/s) = 3.68014 5.38907 4.61441
#
# Compressibility (1/GPa) = 0.04032655
#
# Stress axis : x y z
#
# Youngs Moduli (GPa) = 107.00978 48.64414 67.67136
#
# Poissons Ratio (x) = 0.12253 -0.10626
# Poissons Ratio (y) = 0.26955 0.08309
# Poissons Ratio (z) = -0.16802 0.05972
#
# Static dielectric constant tensor:
#      x y z
#    x 3.395690 0.000000 0.000000 
#    y 0.000000 0.828810 0.000000 
#    z 0.000000 0.000000 1.706540 
# 
# From -- ./inp_files/19061.got.cif
#   From: 2010.05.17/outbox.cif.g08.bks.cpg/sg37_10_cif.got.tgz:19061.got - 2010.06.03 17:53:42.
