data_PCOD9355616
_publ_section_title
;
Structure prediction by ZEFSAII (Michael W. Deem and Ramdas Pophale) SiO2 
 PCOD9355616
Probable space group: C C C 2
;
_chemical_formula_sum "Si O2"
_cell_formula_units_Z 32
_cell_length_a 8.033227
_cell_length_b 5.034294
_cell_length_c 31.408241
_cell_angle_alpha 90.000000
_cell_angle_beta 90.000000
_cell_angle_gamma 90.000000
_cell_volume 1270.200351
_symmetry_space_group_name_H-M "C C C 2"
_symmetry_group_IT_number 37
_symmetry_cell_setting 'orthorhombic'
loop_
_space_group_symop_operation_xyz
x,y,z
-x,-y,z
-x,y,1/2+z
x,-y,1/2+z
1/2+x,1/2+y,z
1/2-x,1/2-y,z
1/2-x,1/2+y,1/2+z
1/2+x,1/2-y,1/2+z
loop_
_atom_site_type_symbol
_atom_site_label
_atom_site_fract_x
_atom_site_fract_y
_atom_site_fract_z
Si Si1 0.000000 0.000000 0.270340
Si Si2 0.250000 0.750000 0.895408
Si Si3 0.250000 0.250000 0.706381
Si Si4 0.000000 0.500000 0.520177
Si Si5 0.500000 0.500000 0.459525
Si Si6 0.000000 0.500000 0.143085
Si Si7 0.000000 0.500000 0.832551
Si Si8 0.750000 0.250000 0.080759
O O1 0.853525 0.064049 0.237732
O O2 0.003334 0.249672 0.301490
O O3 0.354062 0.569172 0.927227
O O4 0.151147 0.552675 0.864446
O O5 0.149745 0.461622 0.676940
O O6 0.170382 0.462711 0.547929
O O7 0.022859 0.751620 0.490289
O O8 0.918107 0.269347 0.111491
#
# Coordination Sequence:
#
# PCOD9355616 Si02
#       8
#     4   4   4   4   4   4   4   4
#     4  12  27  48  77 112 150 200 252 314 379 452
#     4  12  29  52  79 114 156 204 256 318 383 456
#     4  11  24  46  77 110 152 196 252 314 381 454
#     4  11  25  46  77 113 154 202 256 317 381 454
#     4  12  29  50  79 114 154 202 256 316 383 454
#     4   9  21  46  75 113 152 200 252 313 381 454
#     4  12  28  50  76 110 152 200 254 312 380 454
#     4   9  21  46  76 112 154 202 254 314 380 454
#
# _framework density 25.192878
#
# number of rings (size 3 to 8) (size 9 to 14) (size 15 to 20)
#    0.000    1.000    0.000    4.500    0.000   16.000 
#    0.000   18.750    0.000    0.000    0.000    0.000 
#    0.000    0.000    0.000    0.000    0.000    0.000 
#
# Total GULP energy -89068.306208 kJ/mol
# GULP energy per Si atom -5566.769138 kJ/mol
# Density = 2.513554 g / cm^3
# Si number density = 25.192878 Si / 1000 Ang^3
#
#
#
# Elastic Constant Matrix: (Units=GPa)
#
#
# Indices 1 2 3 4 5 6 
#
# 1 148.7322 94.3509 105.0714 0.0000 0.0000 0.0000
# 2 94.3509 206.0784 119.6268 0.0000 0.0000 0.0000
# 3 105.0714 119.6268 228.6209 0.0000 0.0000 0.0000
# 4 0.0000 0.0000 0.0000 -50.3703 0.0000 0.0000
# 5 0.0000 0.0000 0.0000 0.0000 5.9687 0.0000
# 6 0.0000 0.0000 0.0000 0.0000 0.0000 51.9794
#
#
#
# Elastic Compliance Matrix: (Units=1/GPa)
#
#
# Indices 1 2 3 4 5 6 
#
# 1 0.011156 -0.003061 -0.003525 0.000000 0.000000 0.000000
# 2 -0.003061 0.007809 -0.002679 0.000000 0.000000 0.000000
# 3 -0.003525 -0.002679 0.007396 0.000000 0.000000 0.000000
# 4 0.000000 0.000000 0.000000 -0.019853 0.000000 0.000000
# 5 0.000000 0.000000 0.000000 0.000000 0.167540 0.000000
# 6 0.000000 0.000000 0.000000 0.000000 0.000000 0.019238
#
#
# Mechanical properties :
#
#
# Convention : Reuss Voigt Hill
#
# Bulk Modulus (GPa) = 127.71891 135.72552 131.72222
# Shear Modulus (GPa) = 23.31776 19.14106 21.22941
#
# Velocity S-wave (km/s) = 3.04562 2.75940 2.90604
# Velocity P-wave (km/s) = 7.94822 8.00899 7.97866
#
# Compressibility (1/GPa) = 0.00782969
#
# Stress axis : x y z
#
# Youngs Moduli (GPa) = 89.63897 128.05008 135.20316
#
# Poissons Ratio (x) = 0.39198 0.47663
# Poissons Ratio (y) = 0.27440 0.36227
# Poissons Ratio (z) = 0.31601 0.34310
#
# Static dielectric constant tensor:
#      x y z
#    x 2.091450 0.000000 0.000000 
#    y 0.000000 1.951580 0.000000 
#    z 0.000000 0.000000 1.973430 
# 
# From -- ./inp_files/20305.got.cif
#   From: 2010.05.17/outbox.cif.g08.bks.cpg/sg37_11_cif.got.tgz:20305.got - 2010.06.03 17:53:42.
