data_PCOD9355627
_publ_section_title
;
Structure prediction by ZEFSAII (Michael W. Deem and Ramdas Pophale) SiO2 
 PCOD9355627
Probable space group: C C C 2
;
_chemical_formula_sum "Si O2"
_cell_formula_units_Z 56
_cell_length_a 12.343515
_cell_length_b 10.744854
_cell_length_c 19.511126
_cell_angle_alpha 90.000000
_cell_angle_beta 90.000000
_cell_angle_gamma 90.000000
_cell_volume 2587.746330
_symmetry_space_group_name_H-M "C C C 2"
_symmetry_group_IT_number 37
_symmetry_cell_setting 'orthorhombic'
loop_
_space_group_symop_operation_xyz
x,y,z
-x,-y,z
-x,y,1/2+z
x,-y,1/2+z
1/2+x,1/2+y,z
1/2-x,1/2-y,z
1/2-x,1/2+y,1/2+z
1/2+x,1/2-y,1/2+z
loop_
_atom_site_type_symbol
_atom_site_label
_atom_site_fract_x
_atom_site_fract_y
_atom_site_fract_z
Si Si1 0.878912 0.770000 0.102910
Si Si2 0.395720 0.085046 0.226994
Si Si3 0.125989 0.788608 0.452150
Si Si4 0.793869 0.110874 0.235762
Si Si5 0.250000 0.250000 0.398546
Si Si6 0.875406 0.997460 0.366775
Si Si7 0.000000 0.000000 0.661204
Si Si8 0.549911 0.864565 0.382323
O O1 0.750000 0.750000 0.099121
O O2 0.908258 0.687277 0.168490
O O3 0.916884 0.741598 0.025619
O O4 0.925369 0.905860 0.118597
O O5 0.401028 0.137667 0.304872
O O6 0.500000 0.000000 0.222977
O O7 0.291256 0.997507 0.214656
O O8 0.250000 0.750000 0.445201
O O9 0.124506 0.937401 0.441074
O O10 0.047458 0.730184 0.395214
O O11 0.750000 0.250000 0.222019
O O12 0.807390 0.086127 0.316744
O O13 0.911210 0.081051 0.203285
O O14 0.321474 0.362007 0.365064
O O15 0.348583 0.170812 0.430812
O O16 0.000000 0.000000 0.343994
O O17 0.500000 0.000000 0.393863
#
# Coordination Sequence:
#
# PCOD9355627 Si02
#       8
#     8   8   8   8   4   8   4   8
#     4  11  26  48  73 101 148 203 243 303 372 454
#     4  11  25  44  72 105 148 188 249 310 364 441
#     4  11  26  47  72 104 151 199 246 303 379 448
#     4  12  26  43  73 112 146 184 246 312 373 438
#     4  12  24  42  68 108 142 190 224 300 376 424
#     4  12  25  41  72 106 149 187 240 301 377 434
#     4  12  26  44  78 106 144 194 250 300 374 438
#     4  11  25  42  70 110 144 184 244 312 362 434
#
# _framework density 21.640453000000001
#
# number of rings (size 3 to 8) (size 9 to 14) (size 15 to 20)
#    0.000    0.571    5.000    2.143   12.000    0.571 
#    0.000    0.000    6.286    0.000    0.000    0.000 
#    0.000    0.000    0.000    0.000    0.000    0.000 
#
# Total GULP energy -156139.916295 kJ/mol
# GULP energy per Si atom -5576.425582 kJ/mol
# Density = 2.159120 g / cm^3
# Si number density = 21.640453 Si / 1000 Ang^3
#
#
#
# Elastic Constant Matrix: (Units=GPa)
#
#
# Indices 1 2 3 4 5 6 
#
# 1 139.4360 59.6318 28.2251 0.0000 0.0000 0.0000
# 2 59.6318 139.7867 37.4327 0.0000 0.0000 0.0000
# 3 28.2251 37.4327 58.0048 0.0000 0.0000 0.0000
# 4 0.0000 0.0000 0.0000 14.1427 0.0000 0.0000
# 5 0.0000 0.0000 0.0000 0.0000 30.4636 0.0000
# 6 0.0000 0.0000 0.0000 0.0000 0.0000 50.9167
#
#
#
# Elastic Compliance Matrix: (Units=1/GPa)
#
#
# Indices 1 2 3 4 5 6 
#
# 1 0.009020 -0.003231 -0.002304 0.000000 0.000000 0.000000
# 2 -0.003231 0.009806 -0.004756 0.000000 0.000000 0.000000
# 3 -0.002304 -0.004756 0.021430 0.000000 0.000000 0.000000
# 4 0.000000 0.000000 0.000000 0.070708 0.000000 0.000000
# 5 0.000000 0.000000 0.000000 0.000000 0.032826 0.000000
# 6 0.000000 0.000000 0.000000 0.000000 0.000000 0.019640
#
#
# Mechanical properties :
#
#
# Convention : Reuss Voigt Hill
#
# Bulk Modulus (GPa) = 50.82785 65.31186 58.06986
# Shear Modulus (GPa) = 26.23727 33.23380 29.73553
#
# Velocity S-wave (km/s) = 3.48576 3.92309 3.71087
# Velocity P-wave (km/s) = 6.30389 7.12508 6.72703
#
# Compressibility (1/GPa) = 0.01967425
#
# Stress axis : x y z
#
# Youngs Moduli (GPa) = 110.86668 101.98354 46.66308
#
# Poissons Ratio (x) = 0.32949 0.10752
# Poissons Ratio (y) = 0.35819 0.22192
# Poissons Ratio (z) = 0.25545 0.48501
#
# Static dielectric constant tensor:
#      x y z
#    x 1.799040 0.000000 0.000000 
#    y 0.000000 1.827780 0.000000 
#    z 0.000000 0.000000 1.868740 
# 
# From -- ./inp_files/16909.got.cif
#   From: 2010.05.17/outbox.cif.g08.bks.cpg/sg37_9_cif.got.tgz:16909.got - 2010.06.03 17:53:42.
