data_PCOD9355750
_publ_section_title
;
Structure prediction by ZEFSAII (Michael W. Deem and Ramdas Pophale) SiO2 
 PCOD9355750
Probable space group: C C C 2
;
_chemical_formula_sum "Si O2"
_cell_formula_units_Z 32
_cell_length_a 14.063111
_cell_length_b 4.870795
_cell_length_c 17.649289
_cell_angle_alpha 90.000000
_cell_angle_beta 90.000000
_cell_angle_gamma 90.000000
_cell_volume 1208.950365
_symmetry_space_group_name_H-M "C C C 2"
_symmetry_group_IT_number 37
_symmetry_cell_setting 'orthorhombic'
loop_
_space_group_symop_operation_xyz
x,y,z
-x,-y,z
-x,y,1/2+z
x,-y,1/2+z
1/2+x,1/2+y,z
1/2-x,1/2-y,z
1/2-x,1/2+y,1/2+z
1/2+x,1/2-y,1/2+z
loop_
_atom_site_type_symbol
_atom_site_label
_atom_site_fract_x
_atom_site_fract_y
_atom_site_fract_z
Si Si1 0.500000 0.500000 0.426721
Si Si2 0.750000 0.250000 0.371795
Si Si3 0.096024 0.619244 0.554547
Si Si4 0.750000 0.750000 0.481694
Si Si5 0.250000 0.250000 0.176713
Si Si6 0.596032 0.119184 0.798911
O O1 0.557947 0.297683 0.483612
O O2 0.442037 0.297706 0.369833
O O3 0.838886 0.638620 0.528934
O O4 0.727681 0.500004 0.426742
O O5 0.166610 0.775466 0.610773
O O6 0.000000 0.500000 0.590502
O O7 0.661113 0.138667 0.324549
O O8 0.333391 0.275267 0.242654
O O9 0.500000 0.000000 0.762960
#
# Coordination Sequence:
#
# PCOD9355750 Si02
#       6
#     4   4   8   4   4   8
#     4  12  30  62  98 144 180 246 342 384 454 542
#     4  12  29  53  94 136 186 244 314 388 465 547
#     4  12  31  55  91 136 189 243 312 394 459 568
#     4  12  29  53  94 136 186 244 314 388 465 547
#     4  12  32  60  92 132 198 254 292 380 504 558
#     4  12  31  55  91 136 189 243 312 394 459 568
#
# _framework density 26.469241
#
# number of rings (size 3 to 8) (size 9 to 14) (size 15 to 20)
#    0.000    0.000    0.000    6.000   28.000    2.000 
#    0.000    0.000    0.000    0.000    0.000    0.000 
#    0.000    0.000    0.000    0.000    0.000    0.000 
#
# Total GULP energy -89176.004533 kJ/mol
# GULP energy per Si atom -5573.500283 kJ/mol
# Density = 2.640900 g / cm^3
# Si number density = 26.469241 Si / 1000 Ang^3
#
#
#
# Elastic Constant Matrix: (Units=GPa)
#
#
# Indices 1 2 3 4 5 6 
#
# 1 281.5052 64.1114 106.2224 0.0000 0.0000 0.0000
# 2 64.1114 162.6518 70.8427 0.0000 0.0000 0.0000
# 3 106.2224 70.8427 203.6840 0.0000 0.0000 0.0000
# 4 0.0000 0.0000 0.0000 -32.6766 0.0000 0.0000
# 5 0.0000 0.0000 0.0000 0.0000 82.7931 0.0000
# 6 0.0000 0.0000 0.0000 0.0000 0.0000 66.8791
#
#
#
# Elastic Compliance Matrix: (Units=1/GPa)
#
#
# Indices 1 2 3 4 5 6 
#
# 1 0.004530 -0.000892 -0.002052 0.000000 0.000000 0.000000
# 2 -0.000892 0.007421 -0.002116 0.000000 0.000000 0.000000
# 3 -0.002052 -0.002116 0.006716 0.000000 0.000000 0.000000
# 4 0.000000 0.000000 0.000000 -0.030603 0.000000 0.000000
# 5 0.000000 0.000000 0.000000 0.000000 0.012078 0.000000
# 6 0.000000 0.000000 0.000000 0.000000 0.000000 0.014952
#
#
# Mechanical properties :
#
#
# Convention : Reuss Voigt Hill
#
# Bulk Modulus (GPa) = 117.00226 125.57711 121.28969
# Shear Modulus (GPa) = 178.16799 50.51011 114.33905
#
# Velocity S-wave (km/s) = 8.21325 4.37310 6.57957
# Velocity P-wave (km/s) = 11.58630 8.54660 10.18054
#
# Compressibility (1/GPa) = 0.00854684
#
# Stress axis : x y z
#
# Youngs Moduli (GPa) = 220.76217 134.74824 148.90253
#
# Poissons Ratio (x) = 0.12015 0.30557
# Poissons Ratio (y) = 0.19684 0.31510
# Poissons Ratio (z) = 0.45304 0.28515
#
# Static dielectric constant tensor:
#      x y z
#    x 2.164660 0.000000 0.000000 
#    y 0.000000 2.109350 0.000000 
#    z 0.000000 0.000000 3.135030 
# 
# From -- ./inp_files/13637.got.cif
#   From: 2010.05.17/outbox.cif.g08.bks.cpg/sg37_7_cif.got.tgz:13637.got - 2010.06.03 17:53:42.
