data_PCOD9355061
_publ_section_title
;
Structure prediction by ZEFSAII (Michael W. Deem and Ramdas Pophale) SiO2 
 PCOD9355061
Probable space group: C C C 2
;
_chemical_formula_sum "Si O2"
_cell_formula_units_Z 52
_cell_length_a 8.474677
_cell_length_b 22.765002
_cell_length_c 12.057918
_cell_angle_alpha 90.000000
_cell_angle_beta 90.000000
_cell_angle_gamma 90.000000
_cell_volume 2326.286357
_symmetry_space_group_name_H-M "C C C 2"
_symmetry_group_IT_number 37
_symmetry_cell_setting 'orthorhombic'
loop_
_space_group_symop_operation_xyz
x,y,z
-x,-y,z
-x,y,1/2+z
x,-y,1/2+z
1/2+x,1/2+y,z
1/2-x,1/2-y,z
1/2-x,1/2+y,1/2+z
1/2+x,1/2-y,1/2+z
loop_
_atom_site_type_symbol
_atom_site_label
_atom_site_fract_x
_atom_site_fract_y
_atom_site_fract_z
Si Si1 0.000000 0.500000 0.319500
Si Si2 0.752073 0.583575 0.204925
Si Si3 0.306667 0.184246 0.622781
Si Si4 0.075123 0.879861 0.251346
Si Si5 0.805671 0.601109 0.943879
Si Si6 0.109993 0.325732 0.383509
Si Si7 0.076332 0.245770 0.201875
O O1 0.127773 0.467045 0.242840
O O2 0.105966 0.542965 0.396395
O O3 0.564397 0.574458 0.227840
O O4 0.802742 0.635085 0.291318
O O5 0.773970 0.596159 0.074679
O O6 0.250000 0.250000 0.658752
O O7 0.239259 0.127106 0.683227
O O8 0.286346 0.175844 0.493317
O O9 0.486660 0.198835 0.648754
O O10 0.144262 0.885219 0.375484
O O11 0.997412 0.818962 0.202825
O O12 0.937938 0.649602 0.914205
O O13 0.083751 0.262221 0.331412
O O14 0.250000 0.250000 0.152757
#
# Coordination Sequence:
#
# PCOD9355061 Si02
#       7
#     4   8   8   8   8   8   8
#     4  10  26  52  74 100 128 168 234 286 364 422
#     4  11  25  45  74 103 132 178 229 287 353 415
#     4  10  23  40  60  97 147 189 224 278 322 395
#     4  11  25  41  67 105 140 177 231 277 335 409
#     4  11  25  46  73  99 132 178 225 291 349 409
#     4  11  22  40  68  97 141 186 231 271 328 413
#     4  11  21  40  61  99 145 188 230 268 327 401
#
# _framework density 22.353224999999998
#
# number of rings (size 3 to 8) (size 9 to 14) (size 15 to 20)
#    0.000    1.231    3.077    1.846    4.308    1.846 
#    0.000    1.538    0.000    0.000    0.000    0.000 
#    0.000    0.000    0.000    0.000    0.000    0.000 
#
# Total GULP energy -144841.754362 kJ/mol
# GULP energy per Si atom -5570.836706 kJ/mol
# Density = 2.230235 g / cm^3
# Si number density = 22.353225 Si / 1000 Ang^3
#
#
#
# Elastic Constant Matrix: (Units=GPa)
#
#
# Indices 1 2 3 4 5 6 
#
# 1 116.7909 20.4114 24.7522 0.0000 0.0000 0.0000
# 2 20.4114 36.1167 1.5375 0.0000 0.0000 0.0000
# 3 24.7522 1.5375 120.6403 0.0000 0.0000 0.0000
# 4 0.0000 0.0000 0.0000 19.9766 0.0000 0.0000
# 5 0.0000 0.0000 0.0000 0.0000 20.2267 0.0000
# 6 0.0000 0.0000 0.0000 0.0000 0.0000 20.0867
#
#
#
# Elastic Compliance Matrix: (Units=1/GPa)
#
#
# Indices 1 2 3 4 5 6 
#
# 1 0.009948 -0.005538 -0.001970 0.000000 0.000000 0.000000
# 2 -0.005538 0.030786 0.000744 0.000000 0.000000 0.000000
# 3 -0.001970 0.000744 0.008684 0.000000 0.000000 0.000000
# 4 0.000000 0.000000 0.000000 0.050058 0.000000 0.000000
# 5 0.000000 0.000000 0.000000 0.000000 0.049440 0.000000
# 6 0.000000 0.000000 0.000000 0.000000 0.000000 0.049784
#
#
# Mechanical properties :
#
#
# Convention : Reuss Voigt Hill
#
# Bulk Modulus (GPa) = 27.86400 40.77223 34.31812
# Shear Modulus (GPa) = 22.30228 27.18114 24.74171
#
# Velocity S-wave (km/s) = 3.16210 3.49088 3.33055
# Velocity P-wave (km/s) = 5.08175 5.87604 5.49327
#
# Compressibility (1/GPa) = 0.03588860
#
# Stress axis : x y z
#
# Youngs Moduli (GPa) = 100.52470 32.48211 115.15558
#
# Poissons Ratio (x) = 0.17989 0.22691
# Poissons Ratio (y) = 0.55672 -0.08567
# Poissons Ratio (z) = 0.19808 -0.02416
#
# Static dielectric constant tensor:
#      x y z
#    x 2.205910 0.000000 0.000000 
#    y 0.000000 1.874330 0.000000 
#    z 0.000000 0.000000 1.855370 
# 
# From -- ./inp_files/6503.got.cif
#   From: 2010.05.17/outbox.cif.g08.bks.cpg/sg37_4_cif.got.tgz:6503.got - 2010.06.03 17:53:42.
