data_PCOD9355935
_publ_section_title
;
Structure prediction by ZEFSAII (Michael W. Deem and Ramdas Pophale) SiO2 
 PCOD9355935
Probable space group: A M M 2
;
_chemical_formula_sum "Si O2"
_cell_formula_units_Z 58
_cell_length_a 7.746702
_cell_length_b 26.711418
_cell_length_c 13.017459
_cell_angle_alpha 90.000000
_cell_angle_beta 90.000000
_cell_angle_gamma 90.000000
_cell_volume 2693.642849
_symmetry_space_group_name_H-M "A M M 2"
_symmetry_group_IT_number 38
_symmetry_cell_setting 'orthorhombic'
loop_
_space_group_symop_operation_xyz
x,y,z
-x,-y,z
-x,y,z
x,-y,z
x,1/2+y,1/2+z
-x,1/2-y,1/2+z
-x,1/2+y,1/2+z
x,1/2-y,1/2+z
loop_
_atom_site_type_symbol
_atom_site_label
_atom_site_fract_x
_atom_site_fract_y
_atom_site_fract_z
Si Si1 0.500000 0.500000 0.513110
Si Si2 0.704243 0.556469 0.807876
Si Si3 0.289166 0.888695 0.507601
Si Si4 0.189126 0.429054 0.577414
Si Si5 0.291291 0.788291 0.610529
Si Si6 0.199519 0.840514 0.822819
Si Si7 0.709082 0.556982 0.217939
Si Si8 0.695866 0.819188 0.042219
O O1 0.346859 0.456686 0.521349
O O2 0.500000 0.566251 0.788044
O O3 0.716238 0.500000 0.849227
O O4 0.769835 0.592475 0.897031
O O5 0.793503 0.558232 0.698094
O O6 0.500000 0.890303 0.505804
O O7 0.233779 0.832428 0.533811
O O8 0.238465 0.924263 0.603526
O O9 0.207492 0.369493 0.571688
O O10 0.000000 0.443343 0.538516
O O11 0.500000 0.787227 0.605269
O O12 0.240199 0.808080 0.722242
O O13 0.229206 0.733072 0.582530
O O14 0.234771 0.898669 0.794244
O O15 0.000000 0.835617 0.849636
O O16 0.305232 0.820513 0.918886
O O17 0.500000 0.556290 0.221325
O O18 0.767198 0.500000 0.239105
O O19 0.500000 0.823517 0.081879
#
# Coordination Sequence:
#
# PCOD9355935 Si02
#       8
#     2   8   8   8   8   8   8   8
#     4  12  22  48  64  90 124 174 206 260 314 370
#     4  10  17  31  53  85 126 168 205 254 315 369
#     4   8  15  29  56  88 117 155 207 252 306 373
#     4  12  24  41  65  93 127 166 212 258 311 377
#     4   9  20  40  65  89 117 160 207 254 308 371
#     4  11  23  39  60  88 124 161 199 253 315 370
#     4   9  17  34  57  85 116 159 210 257 302 364
#     4  11  23  43  66  91 121 161 210 257 310 373
#
# _framework density 21.532177999999998
#
# number of rings (size 3 to 8) (size 9 to 14) (size 15 to 20)
#    0.000    1.931    2.069    3.103    0.000    4.138 
#    1.241    5.517    0.000    3.310    0.000    0.000 
#    0.000    0.000    0.000    0.000    0.000    0.000 
#
# Total GULP energy -161760.027564 kJ/mol
# GULP energy per Si atom -5577.931985 kJ/mol
# Density = 2.148317 g / cm^3
# Si number density = 21.532178 Si / 1000 Ang^3
#
#
#
# Elastic Constant Matrix: (Units=GPa)
#
#
# Indices 1 2 3 4 5 6 
#
# 1 92.4819 32.6135 -1.4482 0.0000 0.0000 0.0000
# 2 32.6135 176.7843 36.2390 0.0000 0.0000 0.0000
# 3 -1.4482 36.2390 46.7320 0.0000 0.0000 0.0000
# 4 0.0000 0.0000 0.0000 13.5307 0.0000 0.0000
# 5 0.0000 0.0000 0.0000 0.0000 59.4752 0.0000
# 6 0.0000 0.0000 0.0000 0.0000 0.0000 -128.4531
#
#
#
# Elastic Compliance Matrix: (Units=1/GPa)
#
#
# Indices 1 2 3 4 5 6 
#
# 1 0.011795 -0.002676 0.002441 0.000000 0.000000 0.000000
# 2 -0.002676 0.007333 -0.005769 0.000000 0.000000 0.000000
# 3 0.002441 -0.005769 0.025948 0.000000 0.000000 0.000000
# 4 0.000000 0.000000 0.000000 0.073906 0.000000 0.000000
# 5 0.000000 0.000000 0.000000 0.000000 0.016814 0.000000
# 6 0.000000 0.000000 0.000000 0.000000 0.000000 -0.007785
#
#
# Mechanical properties :
#
#
# Convention : Reuss Voigt Hill
#
# Bulk Modulus (GPa) = 30.24203 50.08963 40.16583
# Shear Modulus (GPa) = 33.10317 5.48349 19.29333
#
# Velocity S-wave (km/s) = 3.92520 1.59755 2.99661
# Velocity P-wave (km/s) = 5.88374 5.16876 5.53780
#
# Compressibility (1/GPa) = 0.03306657
#
# Stress axis : x y z
#
# Youngs Moduli (GPa) = 84.78204 136.36941 38.53820
#
# Poissons Ratio (x) = 0.36497 -0.09407
# Poissons Ratio (y) = 0.22690 0.22234
# Poissons Ratio (z) = -0.20695 0.78678
#
# Static dielectric constant tensor:
#      x y z
#    x 1.798010 0.000000 0.000000 
#    y 0.000000 1.774440 0.000000 
#    z 0.000000 0.000000 1.780100 
# 
# From -- ./inp_files/8372.got.cif
#   From: 2010.05.17/outbox.cif.g08.bks.cpg/sg38_5_cif.got.tgz:8372.got - 2010.06.03 18:07:57.
