data_PCOD9355227
_publ_section_title
;
Structure prediction by ZEFSAII (Michael W. Deem and Ramdas Pophale) SiO2 
 PCOD9355227
Probable space group: C C C 2
;
_chemical_formula_sum "Si O2"
_cell_formula_units_Z 52
_cell_length_a 10.453251
_cell_length_b 10.229412
_cell_length_c 26.521173
_cell_angle_alpha 90.000000
_cell_angle_beta 90.000000
_cell_angle_gamma 90.000000
_cell_volume 2835.925239
_symmetry_space_group_name_H-M "C C C 2"
_symmetry_group_IT_number 37
_symmetry_cell_setting 'orthorhombic'
loop_
_space_group_symop_operation_xyz
x,y,z
-x,-y,z
-x,y,1/2+z
x,-y,1/2+z
1/2+x,1/2+y,z
1/2-x,1/2-y,z
1/2-x,1/2+y,1/2+z
1/2+x,1/2-y,1/2+z
loop_
_atom_site_type_symbol
_atom_site_label
_atom_site_fract_x
_atom_site_fract_y
_atom_site_fract_z
Si Si1 0.878419 0.585178 0.642690
Si Si2 0.044899 0.204002 0.557925
Si Si3 0.387019 0.108031 0.869072
Si Si4 0.250000 0.250000 0.728860
Si Si5 0.887168 0.110721 0.319208
Si Si6 0.701457 0.547396 0.069206
Si Si7 0.907599 0.622864 0.986729
O O1 0.831351 0.660811 0.691294
O O2 0.775809 0.485630 0.619826
O O3 0.000000 0.500000 0.654776
O O4 0.908578 0.685594 0.596656
O O5 0.995625 0.258212 0.504829
O O6 0.148016 0.091664 0.550147
O O7 0.918621 0.137730 0.580852
O O8 0.248858 0.068605 0.845237
O O9 0.423863 0.251049 0.846512
O O10 0.367316 0.126609 0.928987
O O11 0.500000 0.000000 0.861277
O O12 0.159120 0.160193 0.763978
O O13 0.000000 0.000000 0.320103
O O14 0.792719 0.606410 0.026398
O O15 0.000000 0.500000 0.993867
#
# Coordination Sequence:
#
# PCOD9355227 Si02
#       7
#     8   8   8   4   8   8   8
#     4  12  22  39  60  86 125 167 204 254 314 374
#     4  11  22  34  54  83 122 166 208 248 294 364
#     4   9  22  42  66  95 133 170 207 271 331 394
#     4  10  24  42  66  88 126 166 212 274 338 384
#     4  10  24  46  70  98 124 164 224 288 337 389
#     4  11  22  34  54  83 122 166 208 248 294 364
#     4  11  21  37  59  88 128 170 206 245 309 375
#
# _framework density 18.336168000000001
#
# number of rings (size 3 to 8) (size 9 to 14) (size 15 to 20)
#    0.000    1.538    4.615    0.462    4.308    5.538 
#    0.000    3.077    0.000    0.000    0.000    0.000 
#    0.000    0.000    0.000    0.000    0.000    0.000 
#
# Total GULP energy -145006.643391 kJ/mol
# GULP energy per Si atom -5577.178592 kJ/mol
# Density = 1.829443 g / cm^3
# Si number density = 18.336168 Si / 1000 Ang^3
#
#
#
# Elastic Constant Matrix: (Units=GPa)
#
#
# Indices 1 2 3 4 5 6 
#
# 1 113.8914 61.5043 46.2681 0.0000 0.0000 0.0000
# 2 61.5043 93.1499 30.5952 0.0000 0.0000 0.0000
# 3 46.2681 30.5952 98.5589 0.0000 0.0000 0.0000
# 4 0.0000 0.0000 0.0000 33.7609 0.0000 0.0000
# 5 0.0000 0.0000 0.0000 0.0000 -54.5656 0.0000
# 6 0.0000 0.0000 0.0000 0.0000 0.0000 43.6084
#
#
#
# Elastic Compliance Matrix: (Units=1/GPa)
#
#
# Indices 1 2 3 4 5 6 
#
# 1 0.015243 -0.008590 -0.004489 0.000000 0.000000 0.000000
# 2 -0.008590 0.016795 -0.001181 0.000000 0.000000 0.000000
# 3 -0.004489 -0.001181 0.012620 0.000000 0.000000 0.000000
# 4 0.000000 0.000000 0.000000 0.029620 0.000000 0.000000
# 5 0.000000 0.000000 0.000000 0.000000 -0.018327 0.000000
# 6 0.000000 0.000000 0.000000 0.000000 0.000000 0.022931
#
#
# Mechanical properties :
#
#
# Convention : Reuss Voigt Hill
#
# Bulk Modulus (GPa) = 61.96652 64.70394 63.33523
# Shear Modulus (GPa) = 44.33316 15.70959 30.02137
#
# Velocity S-wave (km/s) = 4.92245 2.93021 4.05072
# Velocity P-wave (km/s) = 8.13482 6.84196 7.51624
#
# Compressibility (1/GPa) = 0.01613775
#
# Stress axis : x y z
#
# Youngs Moduli (GPa) = 65.60492 59.54155 79.23770
#
# Poissons Ratio (x) = 0.51146 0.35571
# Poissons Ratio (y) = 0.56354 0.09359
# Poissons Ratio (z) = 0.29451 0.07032
#
# Static dielectric constant tensor:
#      x y z
#    x 1.664250 0.000000 0.000000 
#    y 0.000000 1.617950 0.000000 
#    z 0.000000 0.000000 1.616670 
# 
# From -- ./inp_files/19652.got.cif
#   From: 2010.05.17/outbox.cif.g08.bks.cpg/sg37_10_cif.got.tgz:19652.got - 2010.06.03 17:53:42.
