data_PCOD9355415
_publ_section_title
;
Structure prediction by ZEFSAII (Michael W. Deem and Ramdas Pophale) SiO2 
 PCOD9355415
Probable space group: C C C 2
;
_chemical_formula_sum "Si O2"
_cell_formula_units_Z 60
_cell_length_a 26.941154
_cell_length_b 10.983978
_cell_length_c 8.882937
_cell_angle_alpha 90.000000
_cell_angle_beta 90.000000
_cell_angle_gamma 90.000000
_cell_volume 2628.647980
_symmetry_space_group_name_H-M "C C C 2"
_symmetry_group_IT_number 37
_symmetry_cell_setting 'orthorhombic'
loop_
_space_group_symop_operation_xyz
x,y,z
-x,-y,z
-x,y,1/2+z
x,-y,1/2+z
1/2+x,1/2+y,z
1/2-x,1/2-y,z
1/2-x,1/2+y,1/2+z
1/2+x,1/2-y,1/2+z
loop_
_atom_site_type_symbol
_atom_site_label
_atom_site_fract_x
_atom_site_fract_y
_atom_site_fract_z
Si Si1 0.442458 0.646762 0.103970
Si Si2 0.810317 0.328982 0.839069
Si Si3 0.200102 0.316199 0.012590
Si Si4 0.450042 0.925129 0.130080
Si Si5 0.615875 0.951265 0.896786
Si Si6 0.826158 0.870427 0.594783
Si Si7 0.770257 0.015243 0.374670
Si Si8 0.000000 0.000000 0.854677
O O1 0.453677 0.788282 0.069993
O O2 0.383826 0.634911 0.134593
O O3 0.473184 0.597455 0.246523
O O4 0.460253 0.566562 0.962197
O O5 0.816801 0.268418 0.674116
O O6 0.851715 0.435163 0.837783
O O7 0.756393 0.391846 0.818644
O O8 0.814565 0.249812 0.991594
O O9 0.250000 0.250000 0.959893
O O10 0.152059 0.334947 0.910411
O O11 0.225980 0.448200 0.993131
O O12 0.431839 0.917839 0.300735
O O13 0.500000 0.000000 0.114991
O O14 0.405585 0.999285 0.052260
O O15 0.816617 0.980509 0.477408
O O16 0.790085 0.901672 0.736576
#
# Coordination Sequence:
#
# PCOD9355415 Si02
#       8
#     8   8   8   8   8   8   8   4
#     4  11  26  49  80 107 150 198 251 327 389 475
#     4  11  23  46  71 101 150 199 242 310 370 451
#     4  11  24  43  68 104 151 203 245 304 385 451
#     4  12  27  47  77 114 149 201 260 326 406 461
#     4  11  25  47  70 110 151 195 255 315 384 469
#     4  12  24  44  75 105 147 197 255 309 381 449
#     4  11  25  42  69 107 144 194 255 305 359 466
#     4  10  26  54  74 112 148 194 256 320 396 466
#
# _framework density 22.825423000000001
#
# number of rings (size 3 to 8) (size 9 to 14) (size 15 to 20)
#    0.000    0.800    4.000    2.400    5.600    1.067 
#    2.400    0.000    0.000    0.000    0.000    0.000 
#    0.000    0.000    0.000    0.000    0.000    0.000 
#
# Total GULP energy -167238.719868 kJ/mol
# GULP energy per Si atom -5574.623996 kJ/mol
# Density = 2.277347 g / cm^3
# Si number density = 22.825423 Si / 1000 Ang^3
#
#
#
# Elastic Constant Matrix: (Units=GPa)
#
#
# Indices 1 2 3 4 5 6 
#
# 1 122.2084 29.4812 36.7731 0.0000 0.0000 0.0000
# 2 29.4812 34.7469 21.7655 0.0000 0.0000 0.0000
# 3 36.7731 21.7655 104.5410 0.0000 0.0000 0.0000
# 4 0.0000 0.0000 0.0000 189.7330 0.0000 0.0000
# 5 0.0000 0.0000 0.0000 0.0000 36.4223 0.0000
# 6 0.0000 0.0000 0.0000 0.0000 0.0000 38.9319
#
#
#
# Elastic Compliance Matrix: (Units=1/GPa)
#
#
# Indices 1 2 3 4 5 6 
#
# 1 0.010694 -0.007725 -0.002153 0.000000 0.000000 0.000000
# 2 -0.007725 0.038675 -0.005335 0.000000 0.000000 0.000000
# 3 -0.002153 -0.005335 0.011434 0.000000 0.000000 0.000000
# 4 0.000000 0.000000 0.000000 0.005271 0.000000 0.000000
# 5 0.000000 0.000000 0.000000 0.000000 0.027456 0.000000
# 6 0.000000 0.000000 0.000000 0.000000 0.000000 0.025686
#
#
# Mechanical properties :
#
#
# Convention : Reuss Voigt Hill
#
# Bulk Modulus (GPa) = 32.91939 48.61509 40.76724
# Shear Modulus (GPa) = 31.29541 64.58255 47.93898
#
# Velocity S-wave (km/s) = 3.70682 5.32499 4.58781
# Velocity P-wave (km/s) = 5.72488 7.69105 6.77962
#
# Compressibility (1/GPa) = 0.03037723
#
# Stress axis : x y z
#
# Youngs Moduli (GPa) = 93.50860 25.85617 87.45926
#
# Poissons Ratio (x) = 0.19973 0.18834
# Poissons Ratio (y) = 0.72232 0.46660
# Poissons Ratio (z) = 0.20137 0.13794
#
# Static dielectric constant tensor:
#      x y z
#    x 1.809580 0.000000 0.000000 
#    y 0.000000 -5.219500 0.000000 
#    z 0.000000 0.000000 1.947410 
# 
# From -- ./inp_files/4815.got.cif
#   From: 2010.05.17/outbox.cif.g08.bks.cpg/sg37_3_cif.got.tgz:4815.got - 2010.06.03 17:53:42.
