data_PCOD9355793
_publ_section_title
;
Structure prediction by ZEFSAII (Michael W. Deem and Ramdas Pophale) SiO2 
 PCOD9355793
Probable space group: A M M 2
;
_chemical_formula_sum "Si O2"
_cell_formula_units_Z 56
_cell_length_a 11.140169
_cell_length_b 30.462797
_cell_length_c 6.877119
_cell_angle_alpha 90.000000
_cell_angle_beta 90.000000
_cell_angle_gamma 90.000000
_cell_volume 2333.823965
_symmetry_space_group_name_H-M "A M M 2"
_symmetry_group_IT_number 38
_symmetry_cell_setting 'orthorhombic'
loop_
_space_group_symop_operation_xyz
x,y,z
-x,-y,z
-x,y,z
x,-y,z
x,1/2+y,1/2+z
-x,1/2-y,1/2+z
-x,1/2+y,1/2+z
x,1/2-y,1/2+z
loop_
_atom_site_type_symbol
_atom_site_label
_atom_site_fract_x
_atom_site_fract_y
_atom_site_fract_z
Si Si1 0.135771 0.394902 0.904590
Si Si2 0.869415 0.794388 0.810017
Si Si3 0.805294 0.695670 0.730548
Si Si4 0.873303 0.951463 0.016149
Si Si5 0.633300 0.173481 0.918977
Si Si6 0.365850 0.551573 0.940162
Si Si7 0.372418 0.930998 0.977383
O O1 0.156956 0.257688 0.815660
O O2 0.129539 0.416015 0.687352
O O3 0.250327 0.419422 0.997902
O O4 0.000000 0.399729 0.986152
O O5 0.831860 0.844125 0.372551
O O6 0.738541 0.815025 0.764514
O O7 0.000000 0.802037 0.715132
O O8 0.879227 0.689047 0.531715
O O9 0.673850 0.694215 0.628143
O O10 0.752018 0.948564 0.895859
O O11 0.000000 0.946709 0.908750
O O12 0.873380 0.000000 0.108674
O O13 0.500000 0.187652 0.862155
O O14 0.631741 0.121343 0.954312
O O15 0.500000 0.567397 0.000407
O O16 0.353286 0.500000 0.987111
O O17 0.368901 0.555922 0.704446
O O18 0.500000 0.947540 0.902557
#
# Coordination Sequence:
#
# PCOD9355793 Si02
#       7
#     8   8   8   8   8   8   8
#     4  10  16  24  38  55  77 108 143 174 210 255
#     4  10  19  32  48  66  86 112 149 188 227 268
#     4  10  20  31  49  64  89 116 151 187 226 266
#     4   9  15  21  31  50  77 108 139 170 206 251
#     4   9  19  31  45  63  85 113 148 185 224 265
#     4   9  15  22  33  51  77 109 140 169 205 252
#     4   9  14  23  36  51  73 104 140 172 206 251
#
# _framework density 23.994955999999998
#
# number of rings (size 3 to 8) (size 9 to 14) (size 15 to 20)
#    0.857    1.714    2.857    3.000    0.000    2.857 
#    0.000    0.000    0.000    0.000    0.000    0.000 
#    0.000    0.000    0.000   20.571    0.000  207.429 
#
# Total GULP energy -155931.399647 kJ/mol
# GULP energy per Si atom -5568.978559 kJ/mol
# Density = 2.394034 g / cm^3
# Si number density = 23.994956 Si / 1000 Ang^3
#
#
#
# Elastic Constant Matrix: (Units=GPa)
#
#
# Indices 1 2 3 4 5 6 
#
# 1 281.2801 48.8886 16.0465 0.0000 0.0000 0.0000
# 2 48.8886 75.7717 18.9127 0.0000 0.0000 0.0000
# 3 16.0465 18.9127 72.4223 0.0000 0.0000 0.0000
# 4 0.0000 0.0000 0.0000 4.1613 0.0000 0.0000
# 5 0.0000 0.0000 0.0000 0.0000 -21.3226 0.0000
# 6 0.0000 0.0000 0.0000 0.0000 0.0000 42.9184
#
#
#
# Elastic Compliance Matrix: (Units=1/GPa)
#
#
# Indices 1 2 3 4 5 6 
#
# 1 0.004008 -0.002529 -0.000228 0.000000 0.000000 0.000000
# 2 -0.002529 0.015714 -0.003543 0.000000 0.000000 0.000000
# 3 -0.000228 -0.003543 0.014784 0.000000 0.000000 0.000000
# 4 0.000000 0.000000 0.000000 0.240309 0.000000 0.000000
# 5 0.000000 0.000000 0.000000 0.000000 -0.046899 0.000000
# 6 0.000000 0.000000 0.000000 0.000000 0.000000 0.023300
#
#
# Mechanical properties :
#
#
# Convention : Reuss Voigt Hill
#
# Bulk Modulus (GPa) = 45.65069 66.35221 56.00145
# Shear Modulus (GPa) = 18.44223 28.19316 23.31769
#
# Velocity S-wave (km/s) = 2.77535 3.43149 3.12071
# Velocity P-wave (km/s) = 5.41632 6.58884 6.03114
#
# Compressibility (1/GPa) = 0.02190548
#
# Stress axis : x y z
#
# Youngs Moduli (GPa) = 249.51841 63.63877 67.64249
#
# Poissons Ratio (x) = 0.16094 0.01539
# Poissons Ratio (y) = 0.63104 0.23967
# Poissons Ratio (z) = 0.05678 0.22548
#
# Static dielectric constant tensor:
#      x y z
#    x 2.049140 0.000000 0.000000 
#    y 0.000000 2.115670 0.000000 
#    z 0.000000 0.000000 1.885440 
# 
# From -- ./inp_files/9608.got.cif
#   From: 2010.05.17/outbox.cif.g08.bks.cpg/sg38_5_cif.got.tgz:9608.got - 2010.06.03 18:07:57.
