data_PCOD9355677
_publ_section_title
;
Structure prediction by ZEFSAII (Michael W. Deem and Ramdas Pophale) SiO2 
 PCOD9355677
Probable space group: C C C 2
;
_chemical_formula_sum "Si O2"
_cell_formula_units_Z 56
_cell_length_a 12.267078
_cell_length_b 16.889606
_cell_length_c 13.362803
_cell_angle_alpha 90.000000
_cell_angle_beta 90.000000
_cell_angle_gamma 90.000000
_cell_volume 2768.587228
_symmetry_space_group_name_H-M "C C C 2"
_symmetry_group_IT_number 37
_symmetry_cell_setting 'orthorhombic'
loop_
_space_group_symop_operation_xyz
x,y,z
-x,-y,z
-x,y,1/2+z
x,-y,1/2+z
1/2+x,1/2+y,z
1/2-x,1/2-y,z
1/2-x,1/2+y,1/2+z
1/2+x,1/2-y,1/2+z
loop_
_atom_site_type_symbol
_atom_site_label
_atom_site_fract_x
_atom_site_fract_y
_atom_site_fract_z
Si Si1 0.750000 0.250000 0.618830
Si Si2 0.307836 0.554061 0.093404
Si Si3 0.494094 0.757863 0.689139
Si Si4 0.284614 0.395729 0.968434
Si Si5 0.630389 0.714753 0.501004
Si Si6 0.000000 0.000000 0.237187
Si Si7 0.309261 0.160934 0.759210
Si Si8 0.497412 0.642299 0.851219
O O1 0.636046 0.241632 0.678729
O O2 0.739857 0.327075 0.548467
O O3 0.358095 0.621738 0.023448
O O4 0.402605 0.523090 0.164936
O O5 0.228374 0.603328 0.168578
O O6 0.269403 0.480132 0.024283
O O7 0.548860 0.754180 0.579454
O O8 0.561609 0.825191 0.746225
O O9 0.535356 0.678482 0.745370
O O10 0.217843 0.378233 0.866247
O O11 0.407895 0.380450 0.928253
O O12 0.750000 0.750000 0.504842
O O13 0.575098 0.712775 0.393660
O O14 0.944996 0.937693 0.313034
O O15 0.250000 0.250000 0.753683
#
# Coordination Sequence:
#
# PCOD9355677 Si02
#       8
#     4   8   8   8   8   4   8   8
#     4  12  26  44  68 104 136 182 240 304 344 420
#     4  12  23  39  67 107 137 177 229 295 350 413
#     4  12  23  45  70  95 136 185 239 286 353 431
#     4  12  23  43  71 104 140 180 241 285 354 426
#     4  12  23  42  67  99 137 180 230 289 355 427
#     4  12  20  38  60 100 156 170 216 304 372 414
#     4  12  21  46  73 100 137 193 227 280 362 435
#     4  12  23  39  63 101 139 180 223 293 365 415
#
# _framework density 20.226922999999999
#
# number of rings (size 3 to 8) (size 9 to 14) (size 15 to 20)
#    0.000    0.000    9.286    2.571    1.000    0.000 
#    0.000    0.714    0.000    1.714    0.000    0.000 
#    0.000    0.000    0.000    0.000    0.000    0.000 
#
# Total GULP energy -156072.479347 kJ/mol
# GULP energy per Si atom -5574.017120 kJ/mol
# Density = 2.018089 g / cm^3
# Si number density = 20.226923 Si / 1000 Ang^3
#
#
#
# Elastic Constant Matrix: (Units=GPa)
#
#
# Indices 1 2 3 4 5 6 
#
# 1 123.9829 43.5625 47.2478 0.0000 0.0000 0.0000
# 2 43.5625 91.5741 47.8561 0.0000 0.0000 0.0000
# 3 47.2478 47.8561 109.5438 0.0000 0.0000 0.0000
# 4 0.0000 0.0000 0.0000 41.2298 0.0000 0.0000
# 5 0.0000 0.0000 0.0000 0.0000 28.8725 0.0000
# 6 0.0000 0.0000 0.0000 0.0000 0.0000 19.4728
#
#
#
# Elastic Compliance Matrix: (Units=1/GPa)
#
#
# Indices 1 2 3 4 5 6 
#
# 1 0.010398 -0.003373 -0.003011 0.000000 0.000000 0.000000
# 2 -0.003373 0.015245 -0.005205 0.000000 0.000000 0.000000
# 3 -0.003011 -0.005205 0.012702 0.000000 0.000000 0.000000
# 4 0.000000 0.000000 0.000000 0.024254 0.000000 0.000000
# 5 0.000000 0.000000 0.000000 0.000000 0.034635 0.000000
# 6 0.000000 0.000000 0.000000 0.000000 0.000000 0.051354
#
#
# Mechanical properties :
#
#
# Convention : Reuss Voigt Hill
#
# Bulk Modulus (GPa) = 65.93786 66.93707 66.43746
# Shear Modulus (GPa) = 28.27702 30.34397 29.31049
#
# Velocity S-wave (km/s) = 3.74303 3.87741 3.81081
# Velocity P-wave (km/s) = 7.16590 7.29457 7.23052
#
# Compressibility (1/GPa) = 0.01516579
#
# Stress axis : x y z
#
# Youngs Moduli (GPa) = 96.16953 65.59612 78.72983
#
# Poissons Ratio (x) = 0.22124 0.23709
# Poissons Ratio (y) = 0.32436 0.40981
# Poissons Ratio (z) = 0.28961 0.34144
#
# Static dielectric constant tensor:
#      x y z
#    x 1.776410 0.000000 0.000000 
#    y 0.000000 1.798620 0.000000 
#    z 0.000000 0.000000 1.784600 
# 
# From -- ./inp_files/11641.got.cif
#   From: 2010.05.17/outbox.cif.g08.bks.cpg/sg37_6_cif.got.tgz:11641.got - 2010.06.03 17:53:42.
