data_PCOD9355759
_publ_section_title
;
Structure prediction by ZEFSAII (Michael W. Deem and Ramdas Pophale) SiO2 
 PCOD9355759
Probable space group: C C C 2
;
_chemical_formula_sum "Si O2"
_cell_formula_units_Z 20
_cell_length_a 18.000000
_cell_length_b 9.000000
_cell_length_c 12.000000
_cell_angle_alpha 90.000000
_cell_angle_beta 90.000000
_cell_angle_gamma 90.000000
_cell_volume 1944.000000
_symmetry_space_group_name_H-M "C C C 2"
_symmetry_group_IT_number 37
_symmetry_cell_setting 'orthorhombic'
loop_
_space_group_symop_operation_xyz
x,y,z
-x,-y,z
-x,y,1/2+z
x,-y,1/2+z
1/2+x,1/2+y,z
1/2-x,1/2-y,z
1/2-x,1/2+y,1/2+z
1/2+x,1/2-y,1/2+z
loop_
_atom_site_type_symbol
_atom_site_label
_atom_site_fract_x
_atom_site_fract_y
_atom_site_fract_z
Si Si1 0.582543 0.930099 0.752000
Si Si2 0.380973 0.286621 0.546018
Si Si3 0.531602 0.829087 0.982786
Si Si4 0.668084 0.227865 0.813583
Si Si5 0.580321 0.416948 0.650949
O O1 0.609643 0.826404 0.650550
O O2 0.574157 0.836397 0.866060
O O3 0.500000 0.000000 0.732650
O O4 0.635054 0.069335 0.777167
O O5 0.458645 0.271395 0.479248
O O6 0.327916 0.235020 0.447747
O O7 0.372391 0.453666 0.590505
O O8 0.500000 0.000000 0.999213
O O9 0.574854 0.736374 0.078008
O O10 0.750000 0.250000 0.766138
O O11 0.617010 0.359753 0.764246
O O12 0.500000 0.500000 0.666710
#
# Coordination Sequence:
#
# PCOD9355759 Si02
#       5
#     8   8   8   8   8
#     4  11  22  41  73  99 132 179 239 278 334 408
#     4  11  23  40  68  98 134 174 228 286 343 393
#     4  10  19  38  69 102 126 175 230 286 323 399
#     4  12  27  44  66 101 144 176 223 282 350 415
#     4  10  24  41  70  98 138 174 233 286 339 395
#
# _framework density 10.288066000000001
#
# number of rings (size 3 to 8) (size 9 to 14) (size 15 to 20)
#    0.000    1.200    4.000    4.200    2.800    2.400 
#    0.000    0.000    0.000    0.000    0.000    0.000 
#    0.000    0.000    0.000    0.000    0.000    0.000 
#
# Total GULP energy -111496.309730 kJ/mol
# GULP energy per Si atom -5574.815486 kJ/mol
# Density = 1.026465 g / cm^3
# Si number density = 10.288066 Si / 1000 Ang^3
#
#
#
# Elastic Constant Matrix: (Units=GPa)
#
#
# Indices 1 2 3 4 5 6 
#
# 1 71.3923 29.6842 51.9089 0.0000 0.0000 0.0000
# 2 29.6842 141.4386 81.2879 0.0000 0.0000 0.0000
# 3 51.9089 81.2879 147.2387 0.0000 0.0000 0.0000
# 4 0.0000 0.0000 0.0000 30.1155 0.0000 0.0000
# 5 0.0000 0.0000 0.0000 0.0000 -138.5659 0.0000
# 6 0.0000 0.0000 0.0000 0.0000 0.0000 11.7940
#
#
#
# Elastic Compliance Matrix: (Units=1/GPa)
#
#
# Indices 1 2 3 4 5 6 
#
# 1 0.018839 -0.000200 -0.006531 0.000000 0.000000 0.000000
# 2 -0.000200 0.010358 -0.005648 0.000000 0.000000 0.000000
# 3 -0.006531 -0.005648 0.012212 0.000000 0.000000 0.000000
# 4 0.000000 0.000000 0.000000 0.033205 0.000000 0.000000
# 5 0.000000 0.000000 0.000000 0.000000 -0.007217 0.000000
# 6 0.000000 0.000000 0.000000 0.000000 0.000000 0.084789
#
#
# Mechanical properties :
#
#
# Convention : Reuss Voigt Hill
#
# Bulk Modulus (GPa) = 60.05653 76.20353 68.13003
# Shear Modulus (GPa) = 27.39775 -6.18537 10.60619
#
# Velocity S-wave (km/s) = 3.65297 -1.73569 2.27284
# Velocity P-wave (km/s) = 6.85880 5.75313 6.33015
#
# Compressibility (1/GPa) = 0.01665098
#
# Stress axis : x y z
#
# Youngs Moduli (GPa) = 53.08092 96.54116 81.88373
#
# Poissons Ratio (x) = 0.01933 0.53480
# Poissons Ratio (y) = 0.01063 0.46248
# Poissons Ratio (z) = 0.34668 0.54527
#
# Static dielectric constant tensor:
#      x y z
#    x 1.945240 0.000000 0.000000 
#    y 0.000000 1.725440 0.000000 
#    z 0.000000 0.000000 1.816350 
# 
# From -- ./inp_files/6111.got.cif
#   From: 2010.05.17/outbox.ucp.g08.bks.cvg/sg37_4_cif.got.tgz:6111.got - 2010.06.11 10:38:43.
