data_PCOD9355474
_publ_section_title
;
Structure prediction by ZEFSAII (Michael W. Deem and Ramdas Pophale) SiO2 
 PCOD9355474
Probable space group: C C C 2
;
_chemical_formula_sum "Si O2"
_cell_formula_units_Z 60
_cell_length_a 17.570945
_cell_length_b 19.464314
_cell_length_c 8.029939
_cell_angle_alpha 90.000000
_cell_angle_beta 90.000000
_cell_angle_gamma 90.000000
_cell_volume 2746.290455
_symmetry_space_group_name_H-M "C C C 2"
_symmetry_group_IT_number 37
_symmetry_cell_setting 'orthorhombic'
loop_
_space_group_symop_operation_xyz
x,y,z
-x,-y,z
-x,y,1/2+z
x,-y,1/2+z
1/2+x,1/2+y,z
1/2-x,1/2-y,z
1/2-x,1/2+y,1/2+z
1/2+x,1/2-y,1/2+z
loop_
_atom_site_type_symbol
_atom_site_label
_atom_site_fract_x
_atom_site_fract_y
_atom_site_fract_z
Si Si1 0.089071 0.575525 0.357040
Si Si2 0.850444 0.332787 0.057172
Si Si3 0.572501 0.366422 0.649746
Si Si4 0.500000 0.500000 0.313036
Si Si5 0.930321 0.191474 0.995160
Si Si6 0.700845 0.399307 0.111136
Si Si7 0.833888 0.960345 0.953349
Si Si8 0.910791 0.577309 0.256602
O O1 0.126834 0.626554 0.225179
O O2 0.116010 0.498979 0.308121
O O3 0.098088 0.587566 0.556519
O O4 0.999788 0.579028 0.308103
O O5 0.759226 0.339637 0.062747
O O6 0.897046 0.262270 0.061757
O O7 0.872515 0.369741 0.883586
O O8 0.523151 0.431281 0.715569
O O9 0.586657 0.315520 0.800979
O O10 0.519454 0.325063 0.521217
O O11 0.650163 0.401741 0.589479
O O12 0.579044 0.482008 0.405371
O O13 0.882634 0.131068 0.081912
O O14 0.706071 0.424295 0.299887
O O15 0.707308 0.470362 0.008936
#
# Coordination Sequence:
#
# PCOD9355474 Si02
#       8
#     8   8   8   4   8   8   8   8
#     4  11  21  42  70  97 127 167 239 316 357 402
#     4  12  29  43  70  98 146 196 232 285 371 448
#     4  12  22  40  75 108 137 183 242 304 358 414
#     4  12  18  36  70 112 134 168 242 312 354 376
#     4  12  25  45  65 100 150 186 229 292 368 438
#     4  12  25  45  65 100 150 186 229 292 368 438
#     4  12  22  40  75 108 137 183 242 304 358 414
#     4  11  21  42  70  97 127 167 239 316 357 402
#
# _framework density 21.847653000000001
#
# number of rings (size 3 to 8) (size 9 to 14) (size 15 to 20)
#    0.000    0.267    8.000    1.600    3.733    0.000 
#    4.800    0.000    0.000    0.000    0.000    0.000 
#    0.000    0.000    0.000    0.000    0.000    0.000 
#
# Total GULP energy -167568.751185 kJ/mol
# GULP energy per Si atom -5585.625039 kJ/mol
# Density = 2.179793 g / cm^3
# Si number density = 21.847653 Si / 1000 Ang^3
#
#
#
# Elastic Constant Matrix: (Units=GPa)
#
#
# Indices 1 2 3 4 5 6 
#
# 1 34.7148 4.7320 0.5235 0.0000 0.0000 0.0000
# 2 4.7320 61.1689 27.3120 0.0000 0.0000 0.0000
# 3 0.5235 27.3120 133.5511 0.0000 0.0000 0.0000
# 4 0.0000 0.0000 0.0000 -33.2744 0.0000 0.0000
# 5 0.0000 0.0000 0.0000 0.0000 11.8651 0.0000
# 6 0.0000 0.0000 0.0000 0.0000 0.0000 26.9355
#
#
#
# Elastic Compliance Matrix: (Units=1/GPa)
#
#
# Indices 1 2 3 4 5 6 
#
# 1 0.029131 -0.002424 0.000382 0.000000 0.000000 0.000000
# 2 -0.002424 0.018193 -0.003711 0.000000 0.000000 0.000000
# 3 0.000382 -0.003711 0.008245 0.000000 0.000000 0.000000
# 4 0.000000 0.000000 0.000000 -0.030053 0.000000 0.000000
# 5 0.000000 0.000000 0.000000 0.000000 0.084281 0.000000
# 6 0.000000 0.000000 0.000000 0.000000 0.000000 0.037126
#
#
# Mechanical properties :
#
#
# Convention : Reuss Voigt Hill
#
# Bulk Modulus (GPa) = 22.69538 32.73000 27.71269
# Shear Modulus (GPa) = 28.88235 14.22972 21.55604
#
# Velocity S-wave (km/s) = 3.63986 2.55486 3.14451
# Velocity P-wave (km/s) = 5.29862 4.86997 5.08881
#
# Compressibility (1/GPa) = 0.04406184
#
# Stress axis : x y z
#
# Youngs Moduli (GPa) = 34.32796 54.96723 121.28275
#
# Poissons Ratio (x) = 0.13323 -0.04627
# Poissons Ratio (y) = 0.08321 0.45008
# Poissons Ratio (z) = -0.01310 0.20398
#
# Static dielectric constant tensor:
#      x y z
#    x 1.849790 0.000000 0.000000 
#    y 0.000000 1.821270 0.000000 
#    z 0.000000 0.000000 1.853100 
# 
# From -- ./inp_files/4094.got.cif
#   From: 2010.05.17/outbox.cif.g08.bks.cpg/sg37_3_cif.got.tgz:4094.got - 2010.06.03 17:53:42.
