data_PCOD9355841
_publ_section_title
;
Structure prediction by ZEFSAII (Michael W. Deem and Ramdas Pophale) SiO2 
 PCOD9355841
Probable space group: A M M 2
;
_chemical_formula_sum "Si O2"
_cell_formula_units_Z 64
_cell_length_a 14.381491
_cell_length_b 7.359102
_cell_length_c 29.531128
_cell_angle_alpha 90.000000
_cell_angle_beta 90.000000
_cell_angle_gamma 90.000000
_cell_volume 3125.422773
_symmetry_space_group_name_H-M "A M M 2"
_symmetry_group_IT_number 38
_symmetry_cell_setting 'orthorhombic'
loop_
_space_group_symop_operation_xyz
x,y,z
-x,-y,z
-x,y,z
x,-y,z
x,1/2+y,1/2+z
-x,1/2-y,1/2+z
-x,1/2+y,1/2+z
x,1/2-y,1/2+z
loop_
_atom_site_type_symbol
_atom_site_label
_atom_site_fract_x
_atom_site_fract_y
_atom_site_fract_z
Si Si1 0.604158 0.221174 0.326630
Si Si2 0.394259 0.278669 0.981586
Si Si3 0.391723 0.281480 0.081080
Si Si4 0.109907 0.720364 0.575091
Si Si5 0.894465 0.283174 0.474173
Si Si6 0.604846 0.221667 0.221299
Si Si7 0.261121 0.717187 0.903529
Si Si8 0.245299 0.298248 0.652721
O O1 0.500000 0.275481 0.343445
O O2 0.611092 0.273134 0.274062
O O3 0.692153 0.282877 0.356713
O O4 0.603683 0.000000 0.327451
O O5 0.500000 0.222347 0.975567
O O6 0.393589 0.500000 0.981121
O O7 0.330779 0.212770 0.941889
O O8 0.361843 0.223678 0.031087
O O9 0.500000 0.240365 0.085734
O O10 0.381255 0.500000 0.084984
O O11 0.330563 0.188803 0.118021
O O12 0.119949 0.500000 0.576090
O O13 0.140638 0.782729 0.524191
O O14 0.166702 0.786026 0.619467
O O15 0.000000 0.761499 0.578724
O O16 0.897375 0.500000 0.478875
O O17 0.837208 0.248869 0.428216
O O18 0.000000 0.216563 0.469393
O O19 0.500000 0.277441 0.204955
O O20 0.697350 0.286347 0.194787
O O21 0.606026 0.000000 0.218484
O O22 0.267595 0.500000 0.900712
O O23 0.212084 0.500000 0.666731
#
# Coordination Sequence:
#
# PCOD9355841 Si02
#       8
#     8   8   8   8   8   8   8   8
#     4   8  14  25  41  62  89 118 142 165 202 252
#     4   8  14  24  37  56  83 111 136 162 199 251
#     4   9  17  27  37  53  83 116 136 158 202 256
#     4   8  15  28  44  62  84 110 141 175 210 251
#     4   9  18  32  46  59  82 116 144 167 208 264
#     4   8  14  24  38  60  89 114 137 169 207 246
#     4  10  17  25  44  68  83 102 140 184 211 233
#     4  10  17  25  43  65  81 104 142 182 209 235
#
# _framework density 20.477229000000001
#
# number of rings (size 3 to 8) (size 9 to 14) (size 15 to 20)
#    0.000    3.250    0.000    3.750    0.000    2.500 
#    0.000    0.000    0.000    4.875    0.000    5.250 
#    0.000    0.000    0.000    0.000    0.000    0.000 
#
# Total GULP energy -178163.554018 kJ/mol
# GULP energy per Si atom -5567.611063 kJ/mol
# Density = 2.043062 g / cm^3
# Si number density = 20.477229 Si / 1000 Ang^3
#
#
#
# Elastic Constant Matrix: (Units=GPa)
#
#
# Indices 1 2 3 4 5 6 
#
# 1 104.9515 2.0961 65.1408 0.0000 0.0000 0.0000
# 2 2.0961 70.5473 1.3768 0.0000 0.0000 0.0000
# 3 65.1408 1.3768 102.2559 0.0000 0.0000 0.0000
# 4 0.0000 0.0000 0.0000 4.2924 0.0000 0.0000
# 5 0.0000 0.0000 0.0000 0.0000 42.0445 0.0000
# 6 0.0000 0.0000 0.0000 0.0000 0.0000 4.4162
#
#
#
# Elastic Compliance Matrix: (Units=1/GPa)
#
#
# Indices 1 2 3 4 5 6 
#
# 1 0.015765 -0.000272 -0.010039 0.000000 0.000000 0.000000
# 2 -0.000272 0.014183 -0.000017 0.000000 0.000000 0.000000
# 3 -0.010039 -0.000017 0.016175 0.000000 0.000000 0.000000
# 4 0.000000 0.000000 0.000000 0.232969 0.000000 0.000000
# 5 0.000000 0.000000 0.000000 0.000000 0.023784 0.000000
# 6 0.000000 0.000000 0.000000 0.000000 0.000000 0.226438
#
#
# Mechanical properties :
#
#
# Convention : Reuss Voigt Hill
#
# Bulk Modulus (GPa) = 39.26947 46.10912 42.68930
# Shear Modulus (GPa) = 8.95318 24.09334 16.52326
#
# Velocity S-wave (km/s) = 2.09326 3.43387 2.84370
# Velocity P-wave (km/s) = 5.00611 6.18774 5.62802
#
# Compressibility (1/GPa) = 0.02546507
#
# Stress axis : x y z
#
# Youngs Moduli (GPa) = 63.43322 70.50530 61.82445
#
# Poissons Ratio (x) = 0.01921 0.62065
# Poissons Ratio (y) = 0.01728 0.00108
# Poissons Ratio (z) = 0.63680 0.00123
#
# Static dielectric constant tensor:
#      x y z
#    x 1.752900 0.000000 0.000000 
#    y 0.000000 1.833710 0.000000 
#    z 0.000000 0.000000 1.758420 
# 
# From -- ./inp_files/23871.got.cif
#   From: 2010.05.17/outbox.cif.g08.bks.cpg/sg38_12_cif.got.tgz:23871.got - 2010.06.03 18:07:57.
