data_PCOD9355709
_publ_section_title
;
Structure prediction by ZEFSAII (Michael W. Deem and Ramdas Pophale) SiO2 
 PCOD9355709
Probable space group: C C C 2
;
_chemical_formula_sum "Si O2"
_cell_formula_units_Z 32
_cell_length_a 7.465187
_cell_length_b 17.978469
_cell_length_c 9.639069
_cell_angle_alpha 90.000000
_cell_angle_beta 90.000000
_cell_angle_gamma 90.000000
_cell_volume 1293.684831
_symmetry_space_group_name_H-M "C C C 2"
_symmetry_group_IT_number 37
_symmetry_cell_setting 'orthorhombic'
loop_
_space_group_symop_operation_xyz
x,y,z
-x,-y,z
-x,y,1/2+z
x,-y,1/2+z
1/2+x,1/2+y,z
1/2-x,1/2-y,z
1/2-x,1/2+y,1/2+z
1/2+x,1/2-y,1/2+z
loop_
_atom_site_type_symbol
_atom_site_label
_atom_site_fract_x
_atom_site_fract_y
_atom_site_fract_z
Si Si1 0.187299 0.487950 0.461320
Si Si2 0.656350 0.632087 0.609104
Si Si3 0.565556 0.720205 0.333975
Si Si4 0.063357 0.622188 0.316911
O O1 0.339735 0.452394 0.553414
O O2 0.210550 0.567337 0.388318
O O3 0.000000 0.500000 0.545211
O O4 0.116250 0.426538 0.347067
O O5 0.616155 0.680820 0.475975
O O6 0.534303 0.664331 0.730755
O O7 0.861541 0.637580 0.663751
O O8 0.750000 0.750000 0.266507
O O9 0.456154 0.794774 0.371743
#
# Coordination Sequence:
#
# PCOD9355709 Si02
#       4
#     8   8   8   8
#     4   8  21  41  74 106 142 187 246 310 382 442
#     4  12  25  48  75 112 146 202 256 312 384 452
#     4  12  24  44  73 111 154 196 255 314 373 457
#     4   9  22  41  75 102 147 189 246 311 376 445
#
# _framework density 24.735545999999999
#
# number of rings (size 3 to 8) (size 9 to 14) (size 15 to 20)
#    1.500    0.000    2.500    2.250    3.500    2.000 
#    0.000    6.250    0.000    0.000    0.000    0.000 
#    0.000    0.000    0.000    0.000    0.000    0.000 
#
# Total GULP energy -89136.155619 kJ/mol
# GULP energy per Si atom -5571.009726 kJ/mol
# Density = 2.467925 g / cm^3
# Si number density = 24.735546 Si / 1000 Ang^3
#
#
#
# Elastic Constant Matrix: (Units=GPa)
#
#
# Indices 1 2 3 4 5 6 
#
# 1 80.2894 86.9437 65.4133 0.0000 0.0000 0.0000
# 2 86.9437 195.9184 92.3678 0.0000 0.0000 0.0000
# 3 65.4133 92.3678 127.2586 0.0000 0.0000 0.0000
# 4 0.0000 0.0000 0.0000 -10.8402 0.0000 0.0000
# 5 0.0000 0.0000 0.0000 0.0000 9.9546 0.0000
# 6 0.0000 0.0000 0.0000 0.0000 0.0000 45.2915
#
#
#
# Elastic Compliance Matrix: (Units=1/GPa)
#
#
# Indices 1 2 3 4 5 6 
#
# 1 0.028918 -0.008855 -0.008437 0.000000 0.000000 0.000000
# 2 -0.008855 0.010471 -0.003048 0.000000 0.000000 0.000000
# 3 -0.008437 -0.003048 0.014407 0.000000 0.000000 0.000000
# 4 0.000000 0.000000 0.000000 -0.092249 0.000000 0.000000
# 5 0.000000 0.000000 0.000000 0.000000 0.100456 0.000000
# 6 0.000000 0.000000 0.000000 0.000000 0.000000 0.022079
#
#
# Mechanical properties :
#
#
# Convention : Reuss Voigt Hill
#
# Bulk Modulus (GPa) = 76.24811 99.21291 87.73051
# Shear Modulus (GPa) = 38.71875 19.46394 29.09134
#
# Velocity S-wave (km/s) = 3.96069 2.80818 3.43314
# Velocity P-wave (km/s) = 7.19780 7.12117 7.15959
#
# Compressibility (1/GPa) = 0.01311508
#
# Stress axis : x y z
#
# Youngs Moduli (GPa) = 34.58056 95.50000 69.40902
#
# Poissons Ratio (x) = 0.84569 0.58559
# Poissons Ratio (y) = 0.30623 0.21159
# Poissons Ratio (z) = 0.29175 0.29112
#
# Static dielectric constant tensor:
#      x y z
#    x 2.113570 0.000000 0.000000 
#    y 0.000000 2.064870 0.000000 
#    z 0.000000 0.000000 2.002770 
# 
# From -- ./inp_files/2077.got.cif
#   From: 2010.05.17/outbox.cif.g08.bks.cpg/sg37_2_cif.got.tgz:2077.got - 2010.06.03 17:53:42.
