data_PCOD9355090
_publ_section_title
;
Structure prediction by ZEFSAII (Michael W. Deem and Ramdas Pophale) SiO2 
 PCOD9355090
Probable space group: C C C 2
;
_chemical_formula_sum "Si O2"
_cell_formula_units_Z 56
_cell_length_a 8.318086
_cell_length_b 20.922977
_cell_length_c 14.451986
_cell_angle_alpha 90.000000
_cell_angle_beta 90.000000
_cell_angle_gamma 90.000000
_cell_volume 2515.210955
_symmetry_space_group_name_H-M "C C C 2"
_symmetry_group_IT_number 37
_symmetry_cell_setting 'orthorhombic'
loop_
_space_group_symop_operation_xyz
x,y,z
-x,-y,z
-x,y,1/2+z
x,-y,1/2+z
1/2+x,1/2+y,z
1/2-x,1/2-y,z
1/2-x,1/2+y,1/2+z
1/2+x,1/2-y,1/2+z
loop_
_atom_site_type_symbol
_atom_site_label
_atom_site_fract_x
_atom_site_fract_y
_atom_site_fract_z
Si Si1 0.925176 0.230289 0.795720
Si Si2 0.875715 0.449589 0.070057
Si Si3 0.065492 0.604198 0.417751
Si Si4 0.874351 0.955372 0.020020
Si Si5 0.436999 0.750208 0.479004
Si Si6 0.626892 0.150132 0.219510
Si Si7 0.979404 0.838829 0.637283
O O1 0.750000 0.250000 0.831911
O O2 0.029578 0.210589 0.884796
O O3 0.026042 0.286615 0.744446
O O4 0.892243 0.178887 0.715983
O O5 0.710889 0.488124 0.079769
O O6 0.915160 0.385591 0.125072
O O7 0.000000 0.500000 0.108043
O O8 0.918959 0.435455 0.962775
O O9 0.229325 0.578184 0.464727
O O10 0.030843 0.677313 0.448503
O O11 0.092479 0.605518 0.308250
O O12 0.960006 0.900049 0.079931
O O13 0.000000 0.000000 0.963651
O O14 0.250000 0.750000 0.505376
O O15 0.534114 0.717494 0.561193
O O16 0.816485 0.159138 0.198207
#
# Coordination Sequence:
#
# PCOD9355090 Si02
#       7
#     8   8   8   8   8   8   8
#     4  11  26  41  65 105 138 179 240 287 366 445
#     4  10  23  41  68  95 138 184 241 283 349 427
#     4  10  23  44  71  99 140 187 231 299 362 432
#     4  11  23  45  66 100 137 185 242 291 355 429
#     4  11  22  44  72 102 140 180 229 300 372 444
#     4  11  24  46  70 104 142 184 238 301 366 437
#     4  12  24  41  74  99 141 183 228 302 371 424
#
# _framework density 22.264533
#
# number of rings (size 3 to 8) (size 9 to 14) (size 15 to 20)
#    0.000    1.143    2.857    3.429    4.000    5.143 
#    2.571    0.000    0.000    0.000    0.000    0.000 
#    0.000    0.000    0.000    0.000    0.000    0.000 
#
# Total GULP energy -156028.833556 kJ/mol
# GULP energy per Si atom -5572.458341 kJ/mol
# Density = 2.221386 g / cm^3
# Si number density = 22.264533 Si / 1000 Ang^3
#
#
#
# Elastic Constant Matrix: (Units=GPa)
#
#
# Indices 1 2 3 4 5 6 
#
# 1 58.1256 16.9454 9.4197 0.0000 0.0000 0.0000
# 2 16.9454 52.5421 30.5158 0.0000 0.0000 0.0000
# 3 9.4197 30.5158 124.9465 0.0000 0.0000 0.0000
# 4 0.0000 0.0000 0.0000 25.1741 0.0000 0.0000
# 5 0.0000 0.0000 0.0000 0.0000 -15.8797 0.0000
# 6 0.0000 0.0000 0.0000 0.0000 0.0000 24.5778
#
#
#
# Elastic Compliance Matrix: (Units=1/GPa)
#
#
# Indices 1 2 3 4 5 6 
#
# 1 0.018990 -0.006168 0.000075 0.000000 0.000000 0.000000
# 2 -0.006168 0.024182 -0.005441 0.000000 0.000000 0.000000
# 3 0.000075 -0.005441 0.009327 0.000000 0.000000 0.000000
# 4 0.000000 0.000000 0.000000 0.039723 0.000000 0.000000
# 5 0.000000 0.000000 0.000000 0.000000 -0.062973 0.000000
# 6 0.000000 0.000000 0.000000 0.000000 0.000000 0.040687
#
#
# Mechanical properties :
#
#
# Convention : Reuss Voigt Hill
#
# Bulk Modulus (GPa) = 33.97873 38.81954 36.39914
# Shear Modulus (GPa) = 48.63166 18.68999 33.66082
#
# Velocity S-wave (km/s) = 4.67868 2.90047 3.89248
# Velocity P-wave (km/s) = 6.66943 5.35634 6.04862
#
# Compressibility (1/GPa) = 0.02943018
#
# Stress axis : x y z
#
# Youngs Moduli (GPa) = 52.65885 41.35377 107.21991
#
# Poissons Ratio (x) = 0.25507 -0.00801
# Poissons Ratio (y) = 0.32480 0.58337
# Poissons Ratio (z) = -0.00394 0.22500
#
# Static dielectric constant tensor:
#      x y z
#    x 1.975290 0.000000 0.000000 
#    y 0.000000 0.759690 0.000000 
#    z 0.000000 0.000000 1.829870 
# 
# From -- ./inp_files/10825.got.cif
#   From: 2010.05.17/outbox.cif.g08.bks.cpg/sg37_6_cif.got.tgz:10825.got - 2010.06.03 17:53:42.
