data_PCOD9355035
_publ_section_title
;
Structure prediction by ZEFSAII (Michael W. Deem and Ramdas Pophale) SiO2 
 PCOD9355035
Probable space group: C C C 2
;
_chemical_formula_sum "Si O2"
_cell_formula_units_Z 36
_cell_length_a 9.161774
_cell_length_b 10.489423
_cell_length_c 14.509853
_cell_angle_alpha 90.000000
_cell_angle_beta 90.000000
_cell_angle_gamma 90.000000
_cell_volume 1394.421873
_symmetry_space_group_name_H-M "C C C 2"
_symmetry_group_IT_number 37
_symmetry_cell_setting 'orthorhombic'
loop_
_space_group_symop_operation_xyz
x,y,z
-x,-y,z
-x,y,1/2+z
x,-y,1/2+z
1/2+x,1/2+y,z
1/2-x,1/2-y,z
1/2-x,1/2+y,1/2+z
1/2+x,1/2-y,1/2+z
loop_
_atom_site_type_symbol
_atom_site_label
_atom_site_fract_x
_atom_site_fract_y
_atom_site_fract_z
Si Si1 0.250000 0.750000 0.563140
Si Si2 0.500000 0.500000 0.820444
Si Si3 0.513559 0.873710 0.196318
Si Si4 0.801877 0.013145 0.977909
Si Si5 0.280861 0.375119 0.674683
Si Si6 0.000000 0.500000 0.879547
O O1 0.377700 0.795377 0.631310
O O2 0.182757 0.862544 0.500756
O O3 0.397913 0.570270 0.895492
O O4 0.379835 0.435871 0.755101
O O5 0.364504 0.775433 0.181505
O O6 0.623305 0.015799 0.180211
O O7 0.513579 0.880339 0.308820
O O8 0.636400 0.014386 0.945004
O O9 0.827549 0.086067 0.072210
#
# Coordination Sequence:
#
# PCOD9355035 Si02
#       6
#     4   4   8   8   8   4
#     4  12  26  46  84 114 158 214 264 340 416 476
#     4  12  28  50  76 116 164 210 274 324 408 492
#     4  10  22  48  75 108 154 212 258 325 402 477
#     4  12  26  50  77 119 154 205 276 330 401 494
#     4  12  28  51  75 111 165 211 263 337 404 477
#     4  10  22  52  74 110 156 200 276 328 390 490
#
# _framework density 25.817150999999999
#
# number of rings (size 3 to 8) (size 9 to 14) (size 15 to 20)
#    0.667    0.000    4.444    2.000    7.778    0.000 
#    6.000    0.000    0.000    0.000    0.000    0.000 
#    0.000    0.000    0.000    0.000    0.000    0.000 
#
# Total GULP energy -100388.388348 kJ/mol
# GULP energy per Si atom -5577.132686 kJ/mol
# Density = 2.575839 g / cm^3
# Si number density = 25.817151 Si / 1000 Ang^3
#
#
#
# Elastic Constant Matrix: (Units=GPa)
#
#
# Indices 1 2 3 4 5 6 
#
# 1 225.8744 50.2763 78.2359 0.0000 0.0000 0.0000
# 2 50.2763 135.7160 70.5711 0.0000 0.0000 0.0000
# 3 78.2359 70.5711 219.3450 0.0000 0.0000 0.0000
# 4 0.0000 0.0000 0.0000 14.0923 0.0000 0.0000
# 5 0.0000 0.0000 0.0000 0.0000 63.9325 0.0000
# 6 0.0000 0.0000 0.0000 0.0000 0.0000 22.2047
#
#
#
# Elastic Compliance Matrix: (Units=1/GPa)
#
#
# Indices 1 2 3 4 5 6 
#
# 1 0.005198 -0.001155 -0.001482 0.000000 0.000000 0.000000
# 2 -0.001155 0.009105 -0.002518 0.000000 0.000000 0.000000
# 3 -0.001482 -0.002518 0.005898 0.000000 0.000000 0.000000
# 4 0.000000 0.000000 0.000000 0.070961 0.000000 0.000000
# 5 0.000000 0.000000 0.000000 0.000000 0.015642 0.000000
# 6 0.000000 0.000000 0.000000 0.000000 0.000000 0.045036
#
#
# Mechanical properties :
#
#
# Convention : Reuss Voigt Hill
#
# Bulk Modulus (GPa) = 101.09895 108.78910 104.94402
# Shear Modulus (GPa) = 30.22148 45.50269 37.86208
#
# Velocity S-wave (km/s) = 3.42511 4.20277 3.83371
# Velocity P-wave (km/s) = 7.40854 8.11054 7.76747
#
# Compressibility (1/GPa) = 0.00989130
#
# Stress axis : x y z
#
# Youngs Moduli (GPa) = 192.39224 109.82709 169.55505
#
# Poissons Ratio (x) = 0.12681 0.25135
# Poissons Ratio (y) = 0.22215 0.42688
# Poissons Ratio (z) = 0.28521 0.27650
#
# Static dielectric constant tensor:
#      x y z
#    x 2.329200 0.000000 0.000000 
#    y 0.000000 2.410260 0.000000 
#    z 0.000000 0.000000 1.840040 
# 
# From -- ./inp_files/10325.got.cif
#   From: 2010.05.17/outbox.cif.g08.bks.cpg/sg37_6_cif.got.tgz:10325.got - 2010.06.03 17:53:42.
