data_PCOD9355354
_publ_section_title
;
Structure prediction by ZEFSAII (Michael W. Deem and Ramdas Pophale) SiO2 
 PCOD9355354
Probable space group: C C C 2
;
_chemical_formula_sum "Si O2"
_cell_formula_units_Z 40
_cell_length_a 11.916775
_cell_length_b 18.484082
_cell_length_c 8.174508
_cell_angle_alpha 90.000000
_cell_angle_beta 90.000000
_cell_angle_gamma 90.000000
_cell_volume 1800.604160
_symmetry_space_group_name_H-M "C C C 2"
_symmetry_group_IT_number 37
_symmetry_cell_setting 'orthorhombic'
loop_
_space_group_symop_operation_xyz
x,y,z
-x,-y,z
-x,y,1/2+z
x,-y,1/2+z
1/2+x,1/2+y,z
1/2-x,1/2-y,z
1/2-x,1/2+y,1/2+z
1/2+x,1/2-y,1/2+z
loop_
_atom_site_type_symbol
_atom_site_label
_atom_site_fract_x
_atom_site_fract_y
_atom_site_fract_z
Si Si1 0.356535 0.455767 0.952540
Si Si2 0.938462 0.900182 0.599107
Si Si3 0.123670 0.248290 0.426349
Si Si4 0.597832 0.061182 0.488837
Si Si5 0.973319 0.664108 0.708377
O O1 0.386877 0.421045 0.775711
O O2 0.426116 0.408448 0.086205
O O3 0.399731 0.537268 0.973966
O O4 0.225231 0.463439 0.990178
O O5 0.899861 0.824739 0.524778
O O6 0.250000 0.250000 0.362800
O O7 0.032241 0.266123 0.288097
O O8 0.103907 0.312456 0.558168
O O9 0.568582 0.109403 0.645799
O O10 0.592173 0.117882 0.340394
O O11 0.500000 0.000000 0.475140
#
# Coordination Sequence:
#
# PCOD9355354 Si02
#       5
#     8   8   8   8   8
#     4  11  25  42  71  97 141 172 240 281 348 409
#     4  11  24  43  66 103 133 186 223 286 345 403
#     4  11  24  43  69  94 144 180 225 281 337 422
#     4  11  25  43  70 100 136 176 229 296 345 409
#     4  10  25  43  64 105 126 180 233 264 357 406
#
# _framework density 22.214765
#
# number of rings (size 3 to 8) (size 9 to 14) (size 15 to 20)
#    0.000    1.200    0.000    5.400   11.200    3.200 
#    0.000    4.000    0.000    0.000    0.000    0.000 
#    0.000    0.000    0.000    0.000    0.000    0.000 
#
# Total GULP energy -111758.036613 kJ/mol
# GULP energy per Si atom -5587.901831 kJ/mol
# Density = 2.216420 g / cm^3
# Si number density = 22.214765 Si / 1000 Ang^3
#
#
#
# Elastic Constant Matrix: (Units=GPa)
#
#
# Indices 1 2 3 4 5 6 
#
# 1 126.7696 14.4001 -12.7576 0.0000 0.0000 0.0000
# 2 14.4001 68.1170 -9.4047 0.0000 0.0000 0.0000
# 3 -12.7576 -9.4047 40.3885 0.0000 0.0000 0.0000
# 4 0.0000 0.0000 0.0000 31.6639 0.0000 0.0000
# 5 0.0000 0.0000 0.0000 0.0000 7.2683 0.0000
# 6 0.0000 0.0000 0.0000 0.0000 0.0000 23.5234
#
#
#
# Elastic Compliance Matrix: (Units=1/GPa)
#
#
# Indices 1 2 3 4 5 6 
#
# 1 0.008281 -0.001436 0.002281 0.000000 0.000000 0.000000
# 2 -0.001436 0.015417 0.003136 0.000000 0.000000 0.000000
# 3 0.002281 0.003136 0.026211 0.000000 0.000000 0.000000
# 4 0.000000 0.000000 0.000000 0.031582 0.000000 0.000000
# 5 0.000000 0.000000 0.000000 0.000000 0.137583 0.000000
# 6 0.000000 0.000000 0.000000 0.000000 0.000000 0.042511
#
#
# Mechanical properties :
#
#
# Convention : Reuss Voigt Hill
#
# Bulk Modulus (GPa) = 17.27913 24.41675 20.84794
# Shear Modulus (GPa) = 18.32100 28.69361 23.50730
#
# Velocity S-wave (km/s) = 2.87491 3.59785 3.25650
# Velocity P-wave (km/s) = 4.33766 5.31737 4.85230
#
# Compressibility (1/GPa) = 0.05787328
#
# Stress axis : x y z
#
# Youngs Moduli (GPa) = 120.75836 64.86280 38.15263
#
# Poissons Ratio (x) = 0.09312 -0.08704
# Poissons Ratio (y) = 0.17336 -0.11967
# Poissons Ratio (z) = -0.27550 -0.20344
#
# Static dielectric constant tensor:
#      x y z
#    x 1.873140 0.000000 0.000000 
#    y 0.000000 1.806160 0.000000 
#    z 0.000000 0.000000 1.839470 
# 
# From -- ./inp_files/2714.got.cif
#   From: 2010.05.17/outbox.cif.g08.bks.cpg/sg37_2_cif.got.tgz:2714.got - 2010.06.03 17:53:42.
