data_PCOD9355184
_publ_section_title
;
Structure prediction by ZEFSAII (Michael W. Deem and Ramdas Pophale) SiO2 
 PCOD9355184
Probable space group: C C C 2
;
_chemical_formula_sum "Si O2"
_cell_formula_units_Z 56
_cell_length_a 16.241354
_cell_length_b 11.240364
_cell_length_c 12.163627
_cell_angle_alpha 90.000000
_cell_angle_beta 90.000000
_cell_angle_gamma 90.000000
_cell_volume 2220.576307
_symmetry_space_group_name_H-M "C C C 2"
_symmetry_group_IT_number 37
_symmetry_cell_setting 'orthorhombic'
loop_
_space_group_symop_operation_xyz
x,y,z
-x,-y,z
-x,y,1/2+z
x,-y,1/2+z
1/2+x,1/2+y,z
1/2-x,1/2-y,z
1/2-x,1/2+y,1/2+z
1/2+x,1/2-y,1/2+z
loop_
_atom_site_type_symbol
_atom_site_label
_atom_site_fract_x
_atom_site_fract_y
_atom_site_fract_z
Si Si1 0.432778 0.100174 0.782590
Si Si2 0.450583 0.331384 0.647148
Si Si3 0.211670 0.491670 0.634110
Si Si4 0.192315 0.152539 0.484927
Si Si5 0.408554 0.510300 0.846865
Si Si6 0.628390 0.346259 0.667430
Si Si7 0.668947 0.824594 0.978902
O O1 0.464049 0.200201 0.697730
O O2 0.354450 0.033582 0.727199
O O3 0.399827 0.174711 0.886644
O O4 0.500000 0.000000 0.807983
O O5 0.394708 0.314221 0.540113
O O6 0.410249 0.415237 0.745015
O O7 0.540253 0.384500 0.616939
O O8 0.253684 0.372503 0.593589
O O9 0.287950 0.577430 0.664379
O O10 0.175757 0.540528 0.519150
O O11 0.250000 0.250000 0.423203
O O12 0.167466 0.022774 0.429640
O O13 0.500000 0.500000 0.892746
O O14 0.396961 0.643279 0.794236
O O15 0.647510 0.232639 0.596654
O O16 0.750000 0.750000 0.941662
#
# Coordination Sequence:
#
# PCOD9355184 Si02
#       7
#     8   8   8   8   8   8   8
#     4  12  28  49  75 108 155 203 257 313 391 470
#     4  11  25  46  75 108 152 198 257 324 391 462
#     4  11  25  45  72 105 150 195 250 314 385 457
#     4  12  26  45  72 114 148 203 254 325 384 467
#     4  10  25  43  74 113 151 197 253 327 391 457
#     4  10  23  47  74 107 145 193 253 319 378 450
#     4  10  26  46  76 105 145 207 254 316 384 468
#
# _framework density 25.218678000000001
#
# number of rings (size 3 to 8) (size 9 to 14) (size 15 to 20)
#    0.000    1.143    2.857    0.857   10.000    4.571 
#    5.143    0.000    0.000    0.000    0.000    0.000 
#    0.000    0.000    0.000    0.000    0.000    0.000 
#
# Total GULP energy -155957.660108 kJ/mol
# GULP energy per Si atom -5569.916432 kJ/mol
# Density = 2.516128 g / cm^3
# Si number density = 25.218678 Si / 1000 Ang^3
#
#
#
# Elastic Constant Matrix: (Units=GPa)
#
#
# Indices 1 2 3 4 5 6 
#
# 1 125.1981 44.1567 25.9195 0.0000 0.0000 0.0000
# 2 44.1567 82.5367 23.9978 0.0000 0.0000 0.0000
# 3 25.9195 23.9978 61.1465 0.0000 0.0000 0.0000
# 4 0.0000 0.0000 0.0000 38.7340 0.0000 0.0000
# 5 0.0000 0.0000 0.0000 0.0000 29.3945 0.0000
# 6 0.0000 0.0000 0.0000 0.0000 0.0000 48.7805
#
#
#
# Elastic Compliance Matrix: (Units=1/GPa)
#
#
# Indices 1 2 3 4 5 6 
#
# 1 0.010161 -0.004723 -0.002454 0.000000 0.000000 0.000000
# 2 -0.004723 0.015871 -0.004227 0.000000 0.000000 0.000000
# 3 -0.002454 -0.004227 0.019053 0.000000 0.000000 0.000000
# 4 0.000000 0.000000 0.000000 0.025817 0.000000 0.000000
# 5 0.000000 0.000000 0.000000 0.000000 0.034020 0.000000
# 6 0.000000 0.000000 0.000000 0.000000 0.000000 0.020500
#
#
# Mechanical properties :
#
#
# Convention : Reuss Voigt Hill
#
# Bulk Modulus (GPa) = 44.88566 50.78105 47.83336
# Shear Modulus (GPa) = 32.12214 35.03561 33.57887
#
# Velocity S-wave (km/s) = 3.57283 3.73134 3.65294
# Velocity P-wave (km/s) = 5.90401 6.22446 6.06635
#
# Compressibility (1/GPa) = 0.02227883
#
# Stress axis : x y z
#
# Youngs Moduli (GPa) = 98.41573 63.00621 52.48446
#
# Poissons Ratio (x) = 0.29756 0.12878
# Poissons Ratio (y) = 0.46478 0.22186
# Poissons Ratio (z) = 0.24148 0.26633
#
# Static dielectric constant tensor:
#      x y z
#    x 2.162550 0.000000 0.000000 
#    y 0.000000 2.204220 0.000000 
#    z 0.000000 0.000000 2.107700 
# 
# From -- ./inp_files/7842.got.cif
#   From: 2010.05.17/outbox.cif.g08.bks.cpg/sg37_4_cif.got.tgz:7842.got - 2010.06.03 17:53:42.
