data_PCOD9355235
_publ_section_title
;
Structure prediction by ZEFSAII (Michael W. Deem and Ramdas Pophale) SiO2 
 PCOD9355235
Probable space group: C C C 2
;
_chemical_formula_sum "Si O2"
_cell_formula_units_Z 44
_cell_length_a 15.316679
_cell_length_b 7.256003
_cell_length_c 19.318903
_cell_angle_alpha 90.000000
_cell_angle_beta 90.000000
_cell_angle_gamma 90.000000
_cell_volume 2147.061706
_symmetry_space_group_name_H-M "C C C 2"
_symmetry_group_IT_number 37
_symmetry_cell_setting 'orthorhombic'
loop_
_space_group_symop_operation_xyz
x,y,z
-x,-y,z
-x,y,1/2+z
x,-y,1/2+z
1/2+x,1/2+y,z
1/2-x,1/2-y,z
1/2-x,1/2+y,1/2+z
1/2+x,1/2-y,1/2+z
loop_
_atom_site_type_symbol
_atom_site_label
_atom_site_fract_x
_atom_site_fract_y
_atom_site_fract_z
Si Si1 0.000000 0.000000 0.786080
Si Si2 0.580668 0.134086 0.338187
Si Si3 0.250000 0.750000 0.254164
Si Si4 0.969118 0.806881 0.543302
Si Si5 0.250000 0.750000 0.576495
Si Si6 0.380259 0.965888 0.496248
Si Si7 0.872660 0.008552 0.667996
O O1 0.957501 0.839718 0.830563
O O2 0.930056 0.082877 0.731696
O O3 0.672839 0.146435 0.296960
O O4 0.603359 0.082444 0.416727
O O5 0.500000 0.000000 0.315165
O O6 0.201494 0.891716 0.204811
O O7 0.896468 0.682221 0.507009
O O8 0.929494 0.874764 0.617088
O O9 0.050048 0.663676 0.538360
O O10 0.000000 0.000000 0.510131
O O11 0.288112 0.907125 0.526820
O O12 0.325180 0.663307 0.623656
#
# Coordination Sequence:
#
# PCOD9355235 Si02
#       7
#     4   8   4   8   4   8   8
#     4  10  24  42  68  94 128 182 224 278 334 414
#     4  11  24  45  67  96 134 183 231 280 341 417
#     4  10  25  44  64  94 141 178 234 282 340 416
#     4  11  21  43  66  96 130 171 218 282 336 410
#     4  12  23  38  68 100 137 166 222 290 348 414
#     4  11  24  40  68 100 130 176 226 273 355 405
#     4  11  22  42  63  99 132 173 224 278 349 402
#
# _framework density 20.493122
#
# number of rings (size 3 to 8) (size 9 to 14) (size 15 to 20)
#    0.000    1.091    4.545    1.636    3.818    0.000 
#   13.091    0.000    8.000    0.000    0.000    0.000 
#    0.000    0.000    0.000    0.000    0.000    0.000 
#
# Total GULP energy -122604.363014 kJ/mol
# GULP energy per Si atom -5572.925592 kJ/mol
# Density = 2.044648 g / cm^3
# Si number density = 20.493122 Si / 1000 Ang^3
#
#
#
# Elastic Constant Matrix: (Units=GPa)
#
#
# Indices 1 2 3 4 5 6 
#
# 1 65.0693 32.9162 26.5162 0.0000 0.0000 0.0000
# 2 32.9162 114.6252 55.5318 0.0000 0.0000 0.0000
# 3 26.5162 55.5318 94.4253 0.0000 0.0000 0.0000
# 4 0.0000 0.0000 0.0000 31.4004 0.0000 0.0000
# 5 0.0000 0.0000 0.0000 0.0000 2.7715 0.0000
# 6 0.0000 0.0000 0.0000 0.0000 0.0000 38.2367
#
#
#
# Elastic Compliance Matrix: (Units=1/GPa)
#
#
# Indices 1 2 3 4 5 6 
#
# 1 0.018531 -0.003916 -0.002901 0.000000 0.000000 0.000000
# 2 -0.003916 0.013028 -0.006562 0.000000 0.000000 0.000000
# 3 -0.002901 -0.006562 0.015264 0.000000 0.000000 0.000000
# 4 0.000000 0.000000 0.000000 0.031847 0.000000 0.000000
# 5 0.000000 0.000000 0.000000 0.000000 0.360818 0.000000
# 6 0.000000 0.000000 0.000000 0.000000 0.000000 0.026153
#
#
# Mechanical properties :
#
#
# Convention : Reuss Voigt Hill
#
# Bulk Modulus (GPa) = 49.83721 56.00537 52.92129
# Shear Modulus (GPa) = 10.01829 25.09209 17.55519
#
# Velocity S-wave (km/s) = 2.21342 3.50296 2.93001
# Velocity P-wave (km/s) = 5.55914 6.61432 6.10955
#
# Compressibility (1/GPa) = 0.02006533
#
# Stress axis : x y z
#
# Youngs Moduli (GPa) = 53.96252 76.75971 65.51345
#
# Poissons Ratio (x) = 0.30061 0.19004
# Poissons Ratio (y) = 0.21133 0.42989
# Poissons Ratio (z) = 0.15653 0.50369
#
# Static dielectric constant tensor:
#      x y z
#    x 1.912440 0.000000 0.000000 
#    y 0.000000 1.700660 0.000000 
#    z 0.000000 0.000000 1.712520 
# 
# From -- ./inp_files/15201.got.cif
#   From: 2010.05.17/outbox.cif.g08.bks.cpg/sg37_8_cif.got.tgz:15201.got - 2010.06.03 17:53:42.
