data_PCOD9355510
_publ_section_title
;
Structure prediction by ZEFSAII (Michael W. Deem and Ramdas Pophale) SiO2 
 PCOD9355510
Probable space group: C C C 2
;
_chemical_formula_sum "Si O2"
_cell_formula_units_Z 56
_cell_length_a 12.257182
_cell_length_b 14.417665
_cell_length_c 14.698985
_cell_angle_alpha 90.000000
_cell_angle_beta 90.000000
_cell_angle_gamma 90.000000
_cell_volume 2597.603805
_symmetry_space_group_name_H-M "C C C 2"
_symmetry_group_IT_number 37
_symmetry_cell_setting 'orthorhombic'
loop_
_space_group_symop_operation_xyz
x,y,z
-x,-y,z
-x,y,1/2+z
x,-y,1/2+z
1/2+x,1/2+y,z
1/2-x,1/2-y,z
1/2-x,1/2+y,1/2+z
1/2+x,1/2-y,1/2+z
loop_
_atom_site_type_symbol
_atom_site_label
_atom_site_fract_x
_atom_site_fract_y
_atom_site_fract_z
Si Si1 0.164261 0.414823 0.075820
Si Si2 0.799586 0.592578 0.686296
Si Si3 0.912886 0.915997 0.570596
Si Si4 0.666440 0.665724 0.213224
Si Si5 0.272883 0.640565 0.907310
Si Si6 0.519603 0.767367 0.631492
Si Si7 0.625713 0.015605 0.376996
O O1 0.144947 0.513044 0.124041
O O2 0.279624 0.383202 0.124093
O O3 0.069439 0.343527 0.103379
O O4 0.155725 0.427120 0.967824
O O5 0.673214 0.593003 0.654400
O O6 0.868876 0.684757 0.663125
O O7 0.816961 0.561972 0.789993
O O8 0.836129 0.918879 0.482803
O O9 0.963301 0.813042 0.557592
O O10 0.000000 0.000000 0.579467
O O11 0.750000 0.750000 0.226363
O O12 0.672233 0.617586 0.310204
O O13 0.545893 0.705565 0.204408
O O14 0.250000 0.750000 0.926165
O O15 0.158683 0.590077 0.897947
O O16 0.500000 0.000000 0.355395
#
# Coordination Sequence:
#
# PCOD9355510 Si02
#       7
#     8   8   8   8   8   8   8
#     4  11  22  43  71 105 143 185 233 305 365 434
#     4  12  24  45  71 106 145 184 242 304 359 439
#     4  12  28  49  71 100 146 200 245 301 370 437
#     4   9  21  42  69 102 142 188 232 292 357 438
#     4  11  24  45  73 105 147 190 247 292 365 448
#     4  11  24  43  73 102 142 194 242 296 367 424
#     4  12  26  41  74 113 145 182 241 303 368 431
#
# _framework density 21.558330999999999
#
# number of rings (size 3 to 8) (size 9 to 14) (size 15 to 20)
#    0.000    0.857    2.857    4.286    6.000    0.000 
#    2.571    4.286    0.000    0.000    0.000    0.000 
#    0.000    0.000    0.000    0.000    0.000    0.000 
#
# Total GULP energy -156038.020645 kJ/mol
# GULP energy per Si atom -5572.786452 kJ/mol
# Density = 2.150926 g / cm^3
# Si number density = 21.558331 Si / 1000 Ang^3
#
#
#
# Elastic Constant Matrix: (Units=GPa)
#
#
# Indices 1 2 3 4 5 6 
#
# 1 125.1050 48.8079 27.0096 0.0000 0.0000 0.0000
# 2 48.8079 101.3618 7.1086 0.0000 0.0000 0.0000
# 3 27.0096 7.1086 140.2625 0.0000 0.0000 0.0000
# 4 0.0000 0.0000 0.0000 21.2750 0.0000 0.0000
# 5 0.0000 0.0000 0.0000 0.0000 -49.3683 0.0000
# 6 0.0000 0.0000 0.0000 0.0000 0.0000 120.1488
#
#
#
# Elastic Compliance Matrix: (Units=1/GPa)
#
#
# Indices 1 2 3 4 5 6 
#
# 1 0.010244 -0.004811 -0.001729 0.000000 0.000000 0.000000
# 2 -0.004811 0.012161 0.000310 0.000000 0.000000 0.000000
# 3 -0.001729 0.000310 0.007447 0.000000 0.000000 0.000000
# 4 0.000000 0.000000 0.000000 0.047004 0.000000 0.000000
# 5 0.000000 0.000000 0.000000 0.000000 -0.020256 0.000000
# 6 0.000000 0.000000 0.000000 0.000000 0.000000 0.008323
#
#
# Mechanical properties :
#
#
# Convention : Reuss Voigt Hill
#
# Bulk Modulus (GPa) = 57.50022 59.17572 58.33797
# Shear Modulus (GPa) = 60.11190 37.33130 48.72160
#
# Velocity S-wave (km/s) = 5.28620 4.16581 4.75909
# Velocity P-wave (km/s) = 7.99927 7.11670 7.57086
#
# Compressibility (1/GPa) = 0.01739124
#
# Stress axis : x y z
#
# Youngs Moduli (GPa) = 97.62246 82.23265 134.28845
#
# Poissons Ratio (x) = 0.39564 0.23215
# Poissons Ratio (y) = 0.46969 -0.04165
# Poissons Ratio (z) = 0.16876 -0.02551
#
# Static dielectric constant tensor:
#      x y z
#    x 1.922450 0.000000 0.000000 
#    y 0.000000 1.836920 0.000000 
#    z 0.000000 0.000000 1.851380 
# 
# From -- ./inp_files/11617.got.cif
#   From: 2010.05.17/outbox.cif.g08.bks.cpg/sg37_6_cif.got.tgz:11617.got - 2010.06.03 17:53:42.
