data_PCOD9355176
_publ_section_title
;
Structure prediction by ZEFSAII (Michael W. Deem and Ramdas Pophale) SiO2 
 PCOD9355176
Probable space group: C C C 2
;
_chemical_formula_sum "Si O2"
_cell_formula_units_Z 48
_cell_length_a 17.010308
_cell_length_b 7.927099
_cell_length_c 16.748577
_cell_angle_alpha 90.000000
_cell_angle_beta 90.000000
_cell_angle_gamma 90.000000
_cell_volume 2258.418245
_symmetry_space_group_name_H-M "C C C 2"
_symmetry_group_IT_number 37
_symmetry_cell_setting 'orthorhombic'
loop_
_space_group_symop_operation_xyz
x,y,z
-x,-y,z
-x,y,1/2+z
x,-y,1/2+z
1/2+x,1/2+y,z
1/2-x,1/2-y,z
1/2-x,1/2+y,1/2+z
1/2+x,1/2-y,1/2+z
loop_
_atom_site_type_symbol
_atom_site_label
_atom_site_fract_x
_atom_site_fract_y
_atom_site_fract_z
Si Si1 0.500000 0.500000 0.517530
Si Si2 0.261587 0.048715 0.755843
Si Si3 0.935509 0.617660 0.236514
Si Si4 0.750000 0.750000 0.023199
Si Si5 0.280299 0.916206 0.925411
Si Si6 0.631865 0.406935 0.635506
Si Si7 0.537043 0.168644 0.917129
O O1 0.575449 0.508861 0.576168
O O2 0.493927 0.334729 0.461234
O O3 0.250000 0.250000 0.769311
O O4 0.352175 0.986452 0.740731
O O5 0.242509 0.946435 0.837652
O O6 0.200565 0.998891 0.685913
O O7 0.919103 0.794327 0.194769
O O8 0.975797 0.667612 0.321504
O O9 0.000000 0.500000 0.194311
O O10 0.675528 0.725031 0.078658
O O11 0.762413 0.585130 0.971427
O O12 0.250000 0.750000 0.968513
O O13 0.370966 0.870934 0.919164
O O14 0.500000 0.000000 0.953251
#
# Coordination Sequence:
#
# PCOD9355176 Si02
#       7
#     4   8   8   4   8   8   8
#     4  12  28  44  68 110 140 192 232 294 370 424
#     4  11  23  45  71 103 142 190 247 292 354 433
#     4  10  23  46  73 102 136 188 234 301 355 424
#     4  12  24  44  68 104 144 184 232 302 360 420
#     4  11  23  43  74 102 137 190 242 292 352 431
#     4  12  26  44  66 104 150 180 234 301 360 427
#     4  10  23  47  71  98 138 181 242 293 348 425
#
# _framework density 21.253813000000001
#
# number of rings (size 3 to 8) (size 9 to 14) (size 15 to 20)
#    0.000    1.000    2.500    4.000    2.333    4.667 
#    9.000    0.000    0.000    0.000    0.000    0.000 
#    0.000    0.000    0.000    0.000    0.000    0.000 
#
# Total GULP energy -133902.565332 kJ/mol
# GULP energy per Si atom -5579.273556 kJ/mol
# Density = 2.120544 g / cm^3
# Si number density = 21.253813 Si / 1000 Ang^3
#
#
#
# Elastic Constant Matrix: (Units=GPa)
#
#
# Indices 1 2 3 4 5 6 
#
# 1 47.6017 -5.4963 6.2434 0.0000 0.0000 0.0000
# 2 -5.4963 112.0099 10.4225 0.0000 0.0000 0.0000
# 3 6.2434 10.4225 53.0286 0.0000 0.0000 0.0000
# 4 0.0000 0.0000 0.0000 -28.6063 0.0000 0.0000
# 5 0.0000 0.0000 0.0000 0.0000 -23.2426 0.0000
# 6 0.0000 0.0000 0.0000 0.0000 0.0000 32.9989
#
#
#
# Elastic Compliance Matrix: (Units=1/GPa)
#
#
# Indices 1 2 3 4 5 6 
#
# 1 0.021526 0.001316 -0.002793 0.000000 0.000000 0.000000
# 2 0.001316 0.009175 -0.001958 0.000000 0.000000 0.000000
# 3 -0.002793 -0.001958 0.019571 0.000000 0.000000 0.000000
# 4 0.000000 0.000000 0.000000 -0.034957 0.000000 0.000000
# 5 0.000000 0.000000 0.000000 0.000000 -0.043024 0.000000
# 6 0.000000 0.000000 0.000000 0.000000 0.000000 0.030304
#
#
# Mechanical properties :
#
#
# Convention : Reuss Voigt Hill
#
# Bulk Modulus (GPa) = 23.04047 26.10879 24.57463
# Shear Modulus (GPa) = 208.92744 9.66137 109.29440
#
# Velocity S-wave (km/s) = 9.92545 2.13438 7.17879
# Velocity P-wave (km/s) = 11.92547 4.28778 8.96108
#
# Compressibility (1/GPa) = 0.04340189
#
# Stress axis : x y z
#
# Youngs Moduli (GPa) = 46.45551 108.99683 51.09482
#
# Poissons Ratio (x) = -0.14346 0.14271
# Poissons Ratio (y) = -0.06114 0.10005
# Poissons Ratio (z) = 0.12975 0.21343
#
# Static dielectric constant tensor:
#      x y z
#    x 1.800960 0.000000 0.000000 
#    y 0.000000 1.790030 0.000000 
#    z 0.000000 0.000000 1.856770 
# 
# From -- ./inp_files/12574.got.cif
#   From: 2010.05.17/outbox.cif.g08.bks.cpg/sg37_7_cif.got.tgz:12574.got - 2010.06.03 17:53:42.
