data_PCOD9355018
_publ_section_title
;
Structure prediction by ZEFSAII (Michael W. Deem and Ramdas Pophale) SiO2 
 PCOD9355018
Probable space group: C C C 2
;
_chemical_formula_sum "Si O2"
_cell_formula_units_Z 40
_cell_length_a 12.655134
_cell_length_b 10.253820
_cell_length_c 14.162462
_cell_angle_alpha 90.000000
_cell_angle_beta 90.000000
_cell_angle_gamma 90.000000
_cell_volume 1837.770158
_symmetry_space_group_name_H-M "C C C 2"
_symmetry_group_IT_number 37
_symmetry_cell_setting 'orthorhombic'
loop_
_space_group_symop_operation_xyz
x,y,z
-x,-y,z
-x,y,1/2+z
x,-y,1/2+z
1/2+x,1/2+y,z
1/2-x,1/2-y,z
1/2-x,1/2+y,1/2+z
1/2+x,1/2-y,1/2+z
loop_
_atom_site_type_symbol
_atom_site_label
_atom_site_fract_x
_atom_site_fract_y
_atom_site_fract_z
Si Si1 0.283955 0.967771 0.311510
Si Si2 0.541480 0.736363 0.485640
Si Si3 0.500000 0.000000 0.381008
Si Si4 0.250000 0.750000 0.864587
Si Si5 0.828008 0.133633 0.131658
Si Si6 0.185802 0.875824 0.505584
O O1 0.278179 0.123928 0.303873
O O2 0.409162 0.941941 0.313070
O O3 0.207827 0.898057 0.237490
O O4 0.249914 0.924906 0.415322
O O5 0.532260 0.885194 0.452813
O O6 0.647440 0.701414 0.425453
O O7 0.563439 0.697544 0.594942
O O8 0.430537 0.664849 0.468403
O O9 0.750000 0.250000 0.101270
O O10 0.818969 0.995658 0.078077
O O11 0.250000 0.750000 0.543286
#
# Coordination Sequence:
#
# PCOD9355018 Si02
#       6
#     8   8   4   4   8   8
#     4  11  24  47  72 107 146 197 251 312 375 453
#     4  11  22  46  75 103 141 196 241 309 375 453
#     4  10  22  46  80 102 144 210 246 310 392 452
#     4  10  22  46  74  98 144 190 240 302 384 444
#     4  12  26  46  68 108 146 190 250 314 369 443
#     4  12  25  47  73 103 146 195 248 304 378 455
#
# _framework density 21.765508000000001
#
# number of rings (size 3 to 8) (size 9 to 14) (size 15 to 20)
#    0.000    0.800    5.000    2.400    1.400    0.000 
#   10.800    0.000    0.000    0.000    0.000    0.000 
#    0.000    0.000    0.000    0.000    0.000    0.000 
#
# Total GULP energy -111417.794119 kJ/mol
# GULP energy per Si atom -5570.889706 kJ/mol
# Density = 2.171597 g / cm^3
# Si number density = 21.765508 Si / 1000 Ang^3
#
#
#
# Elastic Constant Matrix: (Units=GPa)
#
#
# Indices 1 2 3 4 5 6 
#
# 1 80.3238 -10.7132 -15.8265 0.0000 0.0000 0.0000
# 2 -10.7132 107.3627 -0.9489 0.0000 0.0000 0.0000
# 3 -15.8265 -0.9489 40.0815 0.0000 0.0000 0.0000
# 4 0.0000 0.0000 0.0000 15.1417 0.0000 0.0000
# 5 0.0000 0.0000 0.0000 0.0000 15.8354 0.0000
# 6 0.0000 0.0000 0.0000 0.0000 0.0000 41.6798
#
#
#
# Elastic Compliance Matrix: (Units=1/GPa)
#
#
# Indices 1 2 3 4 5 6 
#
# 1 0.013712 0.001416 0.005448 0.000000 0.000000 0.000000
# 2 0.001416 0.009462 0.000783 0.000000 0.000000 0.000000
# 3 0.005448 0.000783 0.027119 0.000000 0.000000 0.000000
# 4 0.000000 0.000000 0.000000 0.066043 0.000000 0.000000
# 5 0.000000 0.000000 0.000000 0.000000 0.063149 0.000000
# 6 0.000000 0.000000 0.000000 0.000000 0.000000 0.023992
#
#
# Mechanical properties :
#
#
# Convention : Reuss Voigt Hill
#
# Bulk Modulus (GPa) = 15.24664 19.19897 17.22280
# Shear Modulus (GPa) = 23.80433 31.54848 27.67641
#
# Velocity S-wave (km/s) = 3.31066 3.81132 3.56978
# Velocity P-wave (km/s) = 4.65125 5.31114 4.99211
#
# Compressibility (1/GPa) = 0.06558821
#
# Stress axis : x y z
#
# Youngs Moduli (GPa) = 72.92929 105.68049 36.87474
#
# Poissons Ratio (x) = -0.14969 -0.20089
# Poissons Ratio (y) = -0.10330 -0.02888
# Poissons Ratio (z) = -0.39730 -0.08278
#
# Static dielectric constant tensor:
#      x y z
#    x 1.962540 0.000000 0.000000 
#    y 0.000000 1.814480 0.000000 
#    z 0.000000 0.000000 1.802940 
# 
# From -- ./inp_files/11348.got.cif
#   From: 2010.05.17/outbox.cif.g08.bks.cpg/sg37_6_cif.got.tgz:11348.got - 2010.06.03 17:53:42.
