data_PCOD9355102
_publ_section_title
;
Structure prediction by ZEFSAII (Michael W. Deem and Ramdas Pophale) SiO2 
 PCOD9355102
Probable space group: C C C 2
;
_chemical_formula_sum "Si O2"
_cell_formula_units_Z 60
_cell_length_a 12.433085
_cell_length_b 20.795796
_cell_length_c 11.105563
_cell_angle_alpha 90.000000
_cell_angle_beta 90.000000
_cell_angle_gamma 90.000000
_cell_volume 2871.408829
_symmetry_space_group_name_H-M "C C C 2"
_symmetry_group_IT_number 37
_symmetry_cell_setting 'orthorhombic'
loop_
_space_group_symop_operation_xyz
x,y,z
-x,-y,z
-x,y,1/2+z
x,-y,1/2+z
1/2+x,1/2+y,z
1/2-x,1/2-y,z
1/2-x,1/2+y,1/2+z
1/2+x,1/2-y,1/2+z
loop_
_atom_site_type_symbol
_atom_site_label
_atom_site_fract_x
_atom_site_fract_y
_atom_site_fract_z
Si Si1 0.284484 0.628466 0.552900
Si Si2 0.886927 0.404788 0.179458
Si Si3 0.011043 0.802065 0.428509
Si Si4 0.660095 0.197535 0.369480
Si Si5 0.000000 0.500000 0.829308
Si Si6 0.783390 0.512018 0.484827
Si Si7 0.345562 0.211099 0.523195
Si Si8 0.301729 0.632276 0.839193
O O1 0.390509 0.661103 0.492153
O O2 0.183246 0.669218 0.501824
O O3 0.273792 0.555646 0.505604
O O4 0.283886 0.629293 0.696842
O O5 0.831019 0.363111 0.282905
O O6 0.987878 0.438832 0.241351
O O7 0.814116 0.458332 0.115248
O O8 0.901991 0.351491 0.077784
O O9 0.053677 0.739933 0.354194
O O10 0.935474 0.765281 0.521440
O O11 0.925447 0.845959 0.359155
O O12 0.750000 0.250000 0.348387
O O13 0.104914 0.502270 0.912310
O O14 0.718246 0.564941 0.408275
O O15 0.250000 0.250000 0.589375
O O16 0.281362 0.182296 0.405705
#
# Coordination Sequence:
#
# PCOD9355102 Si02
#       8
#     8   8   8   8   4   8   8   8
#     4  11  24  46  70  96 136 180 228 279 336 401
#     4  11  23  39  67  94 134 169 215 281 330 397
#     4  10  24  42  63 105 132 175 225 271 341 403
#     4  10  23  42  67  97 133 174 221 275 332 401
#     4  12  24  42  64 104 132 170 224 276 342 400
#     4  11  25  45  67 100 131 178 229 277 340 399
#     4   9  21  42  67  98 135 173 221 272 339 402
#     4  10  24  45  70  98 137 179 222 282 336 405
#
# _framework density 20.895665999999999
#
# number of rings (size 3 to 8) (size 9 to 14) (size 15 to 20)
#    0.000    1.600    1.333    1.600    5.600    7.467 
#    4.800    1.333    0.000    0.000    0.000    0.000 
#    0.000    0.000    0.000    0.000    0.000    0.000 
#
# Total GULP energy -167212.038338 kJ/mol
# GULP energy per Si atom -5573.734611 kJ/mol
# Density = 2.084811 g / cm^3
# Si number density = 20.895666 Si / 1000 Ang^3
#
#
#
# Elastic Constant Matrix: (Units=GPa)
#
#
# Indices 1 2 3 4 5 6 
#
# 1 86.9464 53.7345 36.9273 0.0000 0.0000 0.0000
# 2 53.7345 151.4210 58.3678 0.0000 0.0000 0.0000
# 3 36.9273 58.3678 129.0692 0.0000 0.0000 0.0000
# 4 0.0000 0.0000 0.0000 23.1385 0.0000 0.0000
# 5 0.0000 0.0000 0.0000 0.0000 9.5039 0.0000
# 6 0.0000 0.0000 0.0000 0.0000 0.0000 45.1286
#
#
#
# Elastic Compliance Matrix: (Units=1/GPa)
#
#
# Indices 1 2 3 4 5 6 
#
# 1 0.015288 -0.004529 -0.002326 0.000000 0.000000 0.000000
# 2 -0.004529 0.009340 -0.002928 0.000000 0.000000 0.000000
# 3 -0.002326 -0.002928 0.009737 0.000000 0.000000 0.000000
# 4 0.000000 0.000000 0.000000 0.043218 0.000000 0.000000
# 5 0.000000 0.000000 0.000000 0.000000 0.105219 0.000000
# 6 0.000000 0.000000 0.000000 0.000000 0.000000 0.022159
#
#
# Mechanical properties :
#
#
# Convention : Reuss Voigt Hill
#
# Bulk Modulus (GPa) = 67.56808 73.94398 70.75603
# Shear Modulus (GPa) = 21.79028 30.11469 25.95248
#
# Velocity S-wave (km/s) = 3.23277 3.80042 3.52803
# Velocity P-wave (km/s) = 6.80739 7.39741 7.10852
#
# Compressibility (1/GPa) = 0.01479989
#
# Stress axis : x y z
#
# Youngs Moduli (GPa) = 65.41082 107.06852 102.69707
#
# Poissons Ratio (x) = 0.48487 0.23888
# Poissons Ratio (y) = 0.29622 0.30070
# Poissons Ratio (z) = 0.15215 0.31350
#
# Static dielectric constant tensor:
#      x y z
#    x 1.933110 0.000000 0.000000 
#    y 0.000000 1.781670 0.000000 
#    z 0.000000 0.000000 1.816140 
# 
# From -- ./inp_files/7345.got.cif
#   From: 2010.05.17/outbox.cif.g08.bks.cpg/sg37_4_cif.got.tgz:7345.got - 2010.06.03 17:53:42.
