data_PCOD9355586
_publ_section_title
;
Structure prediction by ZEFSAII (Michael W. Deem and Ramdas Pophale) SiO2 
 PCOD9355586
Probable space group: C C C 2
;
_chemical_formula_sum "Si O2"
_cell_formula_units_Z 36
_cell_length_a 22.781674
_cell_length_b 6.834022
_cell_length_c 10.107249
_cell_angle_alpha 90.000000
_cell_angle_beta 90.000000
_cell_angle_gamma 90.000000
_cell_volume 1573.602259
_symmetry_space_group_name_H-M "C C C 2"
_symmetry_group_IT_number 37
_symmetry_cell_setting 'orthorhombic'
loop_
_space_group_symop_operation_xyz
x,y,z
-x,-y,z
-x,y,1/2+z
x,-y,1/2+z
1/2+x,1/2+y,z
1/2-x,1/2-y,z
1/2-x,1/2+y,1/2+z
1/2+x,1/2-y,1/2+z
loop_
_atom_site_type_symbol
_atom_site_label
_atom_site_fract_x
_atom_site_fract_y
_atom_site_fract_z
Si Si1 0.934175 0.074893 0.715800
Si Si2 0.750000 0.250000 0.686527
Si Si3 0.868410 0.645024 0.030912
Si Si4 0.124296 0.812963 0.997888
Si Si5 0.200919 0.085010 0.875037
O O1 0.920434 0.260727 0.618874
O O2 0.904126 0.904220 0.628374
O O3 0.907223 0.129640 0.858674
O O4 0.000000 0.000000 0.733684
O O5 0.807625 0.328296 0.611413
O O6 0.723007 0.434837 0.764573
O O7 0.875154 0.418694 0.002520
O O8 0.856401 0.773975 0.898666
O O9 0.187214 0.922092 0.988048
O O10 0.250000 0.250000 0.879985
#
# Coordination Sequence:
#
# PCOD9355586 Si02
#       5
#     8   4   8   8   8
#     4  11  26  51  79 107 150 204 260 333 384 462
#     4  12  24  42  72 106 150 206 244 320 390 472
#     4  11  26  44  72 113 150 199 256 324 386 468
#     4  11  26  49  75 115 153 200 266 317 393 464
#     4  11  24  41  67 104 152 194 241 311 383 462
#
# _framework density 22.877443
#
# number of rings (size 3 to 8) (size 9 to 14) (size 15 to 20)
#    0.000    0.889    3.333    2.000    3.111    2.667 
#    0.000    2.222    0.000    0.000    0.000    0.000 
#    0.000    0.000    0.000    0.000    0.000    0.000 
#
# Total GULP energy -100253.671755 kJ/mol
# GULP energy per Si atom -5569.648431 kJ/mol
# Density = 2.282537 g / cm^3
# Si number density = 22.877443 Si / 1000 Ang^3
#
#
#
# Elastic Constant Matrix: (Units=GPa)
#
#
# Indices 1 2 3 4 5 6 
#
# 1 99.1644 74.8596 73.8925 0.0000 0.0000 0.0000
# 2 74.8596 280.9291 100.6919 0.0000 0.0000 0.0000
# 3 73.8925 100.6919 154.9975 0.0000 0.0000 0.0000
# 4 0.0000 0.0000 0.0000 -8.4100 0.0000 0.0000
# 5 0.0000 0.0000 0.0000 0.0000 28.7862 0.0000
# 6 0.0000 0.0000 0.0000 0.0000 0.0000 22.9382
#
#
#
# Elastic Compliance Matrix: (Units=1/GPa)
#
#
# Indices 1 2 3 4 5 6 
#
# 1 0.016504 -0.002057 -0.006532 0.000000 0.000000 0.000000
# 2 -0.002057 0.004896 -0.002200 0.000000 0.000000 0.000000
# 3 -0.006532 -0.002200 0.010995 0.000000 0.000000 0.000000
# 4 0.000000 0.000000 0.000000 -0.118906 0.000000 0.000000
# 5 0.000000 0.000000 0.000000 0.000000 0.034739 0.000000
# 6 0.000000 0.000000 0.000000 0.000000 0.000000 0.043595
#
#
# Mechanical properties :
#
#
# Convention : Reuss Voigt Hill
#
# Bulk Modulus (GPa) = 92.44166 114.88655 103.66411
# Shear Modulus (GPa) = 293.98522 27.70601 160.84561
#
# Velocity S-wave (km/s) = 11.34828 3.48381 8.39405
# Velocity P-wave (km/s) = 14.56730 8.15536 11.80500
#
# Compressibility (1/GPa) = 0.01081763
#
# Stress axis : x y z
#
# Youngs Moduli (GPa) = 60.59062 204.23525 90.94894
#
# Poissons Ratio (x) = 0.42004 0.59408
# Poissons Ratio (y) = 0.12461 0.20012
# Poissons Ratio (z) = 0.39578 0.44939
#
# Static dielectric constant tensor:
#      x y z
#    x 1.941050 0.000000 0.000000 
#    y 0.000000 1.854370 0.000000 
#    z 0.000000 0.000000 2.016620 
# 
# From -- ./inp_files/8749.got.cif
#   From: 2010.05.17/outbox.cif.g08.bks.cpg/sg37_5_cif.got.tgz:8749.got - 2010.06.03 17:53:42.
