data_PCOD9355880
_publ_section_title
;
Structure prediction by ZEFSAII (Michael W. Deem and Ramdas Pophale) SiO2 
 PCOD9355880
Probable space group: A M M 2
;
_chemical_formula_sum "Si O2"
_cell_formula_units_Z 48
_cell_length_a 10.699524
_cell_length_b 30.418386
_cell_length_c 8.373738
_cell_angle_alpha 90.000000
_cell_angle_beta 90.000000
_cell_angle_gamma 90.000000
_cell_volume 2725.335619
_symmetry_space_group_name_H-M "A M M 2"
_symmetry_group_IT_number 38
_symmetry_cell_setting 'orthorhombic'
loop_
_space_group_symop_operation_xyz
x,y,z
-x,-y,z
-x,y,z
x,-y,z
x,1/2+y,1/2+z
-x,1/2-y,1/2+z
-x,1/2+y,1/2+z
x,1/2-y,1/2+z
loop_
_atom_site_type_symbol
_atom_site_label
_atom_site_fract_x
_atom_site_fract_y
_atom_site_fract_z
Si Si1 0.772376 0.687455 0.362570
Si Si2 0.141485 0.261111 0.052199
Si Si3 0.641880 0.551919 0.420913
Si Si4 0.860989 0.106951 0.061629
Si Si5 0.361812 0.376944 0.152249
Si Si6 0.858503 0.353962 0.914481
O O1 0.837306 0.714898 0.220709
O O2 0.762687 0.722818 0.504728
O O3 0.848483 0.646327 0.433129
O O4 0.655943 0.663346 0.278443
O O5 0.000000 0.242998 0.047106
O O6 0.151724 0.301155 0.926082
O O7 0.500000 0.559486 0.483205
O O8 0.658810 0.500000 0.400509
O O9 0.750045 0.572902 0.528684
O O10 0.648736 0.578506 0.254398
O O11 0.846738 0.128401 0.235938
O O12 0.000000 0.087442 0.049626
O O13 0.500000 0.374399 0.079560
O O14 0.249476 0.372843 0.027393
O O15 0.000000 0.364581 0.972136
#
# Coordination Sequence:
#
# PCOD9355880 Si02
#       6
#     8   8   8   8   8   8
#     4  10  19  30  47  73 102 134 170 210 249 291
#     4  10  17  27  45  70 100 134 172 206 240 287
#     4   9  19  36  56  76  98 128 168 209 249 303
#     4  10  19  32  51  77 108 135 163 205 256 302
#     4   9  19  36  55  74  99 132 170 211 257 303
#     4   9  19  33  51  77 106 136 170 208 248 295
#
# _framework density 17.61251
#
# number of rings (size 3 to 8) (size 9 to 14) (size 15 to 20)
#    0.000    2.500    0.000    2.500    0.000    7.000 
#    0.000    4.167    0.000    7.000    0.000    0.000 
#    0.000    0.000    0.000    0.000    0.000    0.000 
#
# Total GULP energy -133675.819703 kJ/mol
# GULP energy per Si atom -5569.825821 kJ/mol
# Density = 1.757242 g / cm^3
# Si number density = 17.612510 Si / 1000 Ang^3
#
#
#
# Elastic Constant Matrix: (Units=GPa)
#
#
# Indices 1 2 3 4 5 6 
#
# 1 127.1949 53.4040 47.8976 0.0000 0.0000 0.0000
# 2 53.4040 93.0584 31.1714 0.0000 0.0000 0.0000
# 3 47.8976 31.1714 58.9546 0.0000 0.0000 0.0000
# 4 0.0000 0.0000 0.0000 16.3636 0.0000 0.0000
# 5 0.0000 0.0000 0.0000 0.0000 23.1898 0.0000
# 6 0.0000 0.0000 0.0000 0.0000 0.0000 15.4783
#
#
#
# Elastic Compliance Matrix: (Units=1/GPa)
#
#
# Indices 1 2 3 4 5 6 
#
# 1 0.012823 -0.004702 -0.007932 0.000000 0.000000 0.000000
# 2 -0.004702 0.014783 -0.003996 0.000000 0.000000 0.000000
# 3 -0.007932 -0.003996 0.025519 0.000000 0.000000 0.000000
# 4 0.000000 0.000000 0.000000 0.061111 0.000000 0.000000
# 5 0.000000 0.000000 0.000000 0.000000 0.043122 0.000000
# 6 0.000000 0.000000 0.000000 0.000000 0.000000 0.064606
#
#
# Mechanical properties :
#
#
# Convention : Reuss Voigt Hill
#
# Bulk Modulus (GPa) = 50.33923 60.46154 55.40038
# Shear Modulus (GPa) = 19.09511 20.78869 19.94190
#
# Velocity S-wave (km/s) = 3.29626 3.43933 3.36855
# Velocity P-wave (km/s) = 6.56739 7.08345 6.83030
#
# Compressibility (1/GPa) = 0.01986522
#
# Stress axis : x y z
#
# Youngs Moduli (GPa) = 77.98483 67.64615 39.18578
#
# Poissons Ratio (x) = 0.31806 0.31082
# Poissons Ratio (y) = 0.36667 0.15659
# Poissons Ratio (z) = 0.61857 0.27033
#
# Static dielectric constant tensor:
#      x y z
#    x 1.605520 0.000000 0.000000 
#    y 0.000000 1.588990 0.000000 
#    z 0.000000 0.000000 1.629620 
# 
# From -- ./inp_files/3781.got.cif
#   From: 2010.05.17/outbox.cif.g08.bks.cpg/sg38_2_cif.got.tgz:3781.got - 2010.06.03 18:07:57.
