data_PCOD9355574
_publ_section_title
;
Structure prediction by ZEFSAII (Michael W. Deem and Ramdas Pophale) SiO2 
 PCOD9355574
Probable space group: C C C 2
;
_chemical_formula_sum "Si O2"
_cell_formula_units_Z 36
_cell_length_a 11.434946
_cell_length_b 10.865328
_cell_length_c 12.371430
_cell_angle_alpha 90.000000
_cell_angle_beta 90.000000
_cell_angle_gamma 90.000000
_cell_volume 1537.081379
_symmetry_space_group_name_H-M "C C C 2"
_symmetry_group_IT_number 37
_symmetry_cell_setting 'orthorhombic'
loop_
_space_group_symop_operation_xyz
x,y,z
-x,-y,z
-x,y,1/2+z
x,-y,1/2+z
1/2+x,1/2+y,z
1/2-x,1/2-y,z
1/2-x,1/2+y,1/2+z
1/2+x,1/2-y,1/2+z
loop_
_atom_site_type_symbol
_atom_site_label
_atom_site_fract_x
_atom_site_fract_y
_atom_site_fract_z
Si Si1 0.822902 0.864802 0.329330
Si Si2 0.879081 0.725284 0.106059
Si Si3 0.580630 0.391291 0.054289
Si Si4 0.278066 0.882901 0.236972
Si Si5 0.500000 0.000000 0.169611
O O1 0.750000 0.750000 0.378250
O O2 0.875006 0.795522 0.223323
O O3 0.894159 0.915183 0.429741
O O4 0.756811 0.987428 0.290951
O O5 0.750000 0.750000 0.060055
O O6 0.902136 0.580101 0.110038
O O7 0.993758 0.776330 0.050334
O O8 0.500000 0.500000 0.101414
O O9 0.695612 0.377756 0.128551
O O10 0.250000 0.750000 0.290033
O O11 0.418520 0.898486 0.227226
#
# Coordination Sequence:
#
# PCOD9355574 Si02
#       5
#     8   8   8   8   4
#     4  11  25  48  72 105 147 187 247 306 366 437
#     4  11  23  47  75 104 151 194 240 309 366 439
#     4  12  25  42  77 107 143 193 249 302 373 447
#     4  12  25  46  77 108 147 198 246 305 379 442
#     4  12  22  44  76 106 150 196 240 300 376 436
#
# _framework density 23.421012999999999
#
# number of rings (size 3 to 8) (size 9 to 14) (size 15 to 20)
#    0.000    0.444    8.889    0.667    3.111    0.000 
#    0.000   11.111    0.000    0.000    0.000    0.000 
#    0.000    0.000    0.000    0.000    0.000    0.000 
#
# Total GULP energy -100257.111786 kJ/mol
# GULP energy per Si atom -5569.839544 kJ/mol
# Density = 2.336771 g / cm^3
# Si number density = 23.421013 Si / 1000 Ang^3
#
#
#
# Elastic Constant Matrix: (Units=GPa)
#
#
# Indices 1 2 3 4 5 6 
#
# 1 138.2053 40.9060 26.0357 0.0000 0.0000 0.0000
# 2 40.9060 161.2780 -13.6177 0.0000 0.0000 0.0000
# 3 26.0357 -13.6177 41.3389 0.0000 0.0000 0.0000
# 4 0.0000 0.0000 0.0000 -2.4037 0.0000 0.0000
# 5 0.0000 0.0000 0.0000 0.0000 9.6749 0.0000
# 6 0.0000 0.0000 0.0000 0.0000 0.0000 68.0321
#
#
#
# Elastic Compliance Matrix: (Units=1/GPa)
#
#
# Indices 1 2 3 4 5 6 
#
# 1 0.009417 -0.002972 -0.006910 0.000000 0.000000 0.000000
# 2 -0.002972 0.007316 0.004282 0.000000 0.000000 0.000000
# 3 -0.006910 0.004282 0.029953 0.000000 0.000000 0.000000
# 4 0.000000 0.000000 0.000000 -0.416029 0.000000 0.000000
# 5 0.000000 0.000000 0.000000 0.000000 0.103360 0.000000
# 6 0.000000 0.000000 0.000000 0.000000 0.000000 0.014699
#
#
# Mechanical properties :
#
#
# Convention : Reuss Voigt Hill
#
# Bulk Modulus (GPa) = 28.18081 49.71891 38.94986
# Shear Modulus (GPa) = -21.90519 34.22723 6.16102
#
# Velocity S-wave (km/s) = -3.06155 3.82696 1.62366
# Velocity P-wave (km/s) = 0.66262 6.38764 4.49237
#
# Compressibility (1/GPa) = 0.03548513
#
# Stress axis : x y z
#
# Youngs Moduli (GPa) = 106.19141 136.69055 33.38603
#
# Poissons Ratio (x) = 0.40623 0.23069
# Poissons Ratio (y) = 0.31559 -0.14295
# Poissons Ratio (z) = 0.73377 -0.58527
#
# Static dielectric constant tensor:
#      x y z
#    x 2.102410 0.000000 0.000000 
#    y 0.000000 2.028460 0.000000 
#    z 0.000000 0.000000 1.903930 
# 
# From -- ./inp_files/6880.got.cif
#   From: 2010.05.17/outbox.cif.g08.bks.cpg/sg37_4_cif.got.tgz:6880.got - 2010.06.03 17:53:42.
