data_PCOD9355371
_publ_section_title
;
Structure prediction by ZEFSAII (Michael W. Deem and Ramdas Pophale) SiO2 
 PCOD9355371
Probable space group: C C C 2
;
_chemical_formula_sum "Si O2"
_cell_formula_units_Z 32
_cell_length_a 5.096802
_cell_length_b 8.272504
_cell_length_c 30.667675
_cell_angle_alpha 90.000000
_cell_angle_beta 90.000000
_cell_angle_gamma 90.000000
_cell_volume 1293.050839
_symmetry_space_group_name_H-M "C C C 2"
_symmetry_group_IT_number 37
_symmetry_cell_setting 'orthorhombic'
loop_
_space_group_symop_operation_xyz
x,y,z
-x,-y,z
-x,y,1/2+z
x,-y,1/2+z
1/2+x,1/2+y,z
1/2-x,1/2-y,z
1/2-x,1/2+y,1/2+z
1/2+x,1/2-y,1/2+z
loop_
_atom_site_type_symbol
_atom_site_label
_atom_site_fract_x
_atom_site_fract_y
_atom_site_fract_z
Si Si1 0.000000 0.500000 0.626480
Si Si2 0.750000 0.750000 0.437534
Si Si3 0.750000 0.250000 0.062675
Si Si4 0.000000 0.500000 0.314803
Si Si5 0.500000 0.500000 0.498728
Si Si6 0.250000 0.750000 0.749074
Si Si7 0.500000 0.500000 0.188960
Si Si8 0.250000 0.750000 0.375596
O O1 0.932065 0.644140 0.593819
O O2 0.751302 0.491570 0.658002
O O3 0.714428 0.581892 0.465394
O O4 0.498887 0.749656 0.406957
O O5 0.543383 0.353142 0.033377
O O6 0.128095 0.376257 0.281908
O O7 0.207079 0.594635 0.344964
O O8 0.462435 0.657085 0.719315
#
# Coordination Sequence:
#
# PCOD9355371 Si02
#       8
#     4   4   4   4   4   4   4   4
#     4  12  27  50  77 112 150 200 252 314 379 454
#     4  11  25  48  76 112 151 202 253 314 378 454
#     4  11  26  48  78 112 152 196 252 314 382 454
#     4  12  27  48  77 112 154 200 254 314 381 452
#     4  10  25  48  77 110 152 198 252 312 381 452
#     4  12  27  50  77 113 154 202 254 315 381 454
#     4  12  27  50  77 110 152 200 254 312 379 454
#     4  12  26  48  77 111 153 200 255 313 379 452
#
# _framework density 24.747672999999999
#
# number of rings (size 3 to 8) (size 9 to 14) (size 15 to 20)
#    0.000    0.500    0.000    6.750    0.000   11.000 
#    0.000    0.000    0.000    0.000    0.000    0.000 
#    0.000    0.000    0.000    0.000    0.000    0.000 
#
# Total GULP energy -89418.430536 kJ/mol
# GULP energy per Si atom -5588.651908 kJ/mol
# Density = 2.469135 g / cm^3
# Si number density = 24.747673 Si / 1000 Ang^3
#
#
#
# Elastic Constant Matrix: (Units=GPa)
#
#
# Indices 1 2 3 4 5 6 
#
# 1 203.2930 97.1651 116.4158 0.0000 0.0000 0.0000
# 2 97.1651 189.0107 114.5334 0.0000 0.0000 0.0000
# 3 116.4158 114.5334 207.9913 0.0000 0.0000 0.0000
# 4 0.0000 0.0000 0.0000 89.0707 0.0000 0.0000
# 5 0.0000 0.0000 0.0000 0.0000-4933.3180 0.0000
# 6 0.0000 0.0000 0.0000 0.0000 0.0000 60.7356
#
#
#
# Elastic Compliance Matrix: (Units=1/GPa)
#
#
# Indices 1 2 3 4 5 6 
#
# 1 0.007725 -0.002028 -0.003207 0.000000 0.000000 0.000000
# 2 -0.002028 0.008472 -0.003531 0.000000 0.000000 0.000000
# 3 -0.003207 -0.003531 0.008547 0.000000 0.000000 0.000000
# 4 0.000000 0.000000 0.000000 0.011227 0.000000 0.000000
# 5 0.000000 0.000000 0.000000 0.000000 -0.000203 0.000000
# 6 0.000000 0.000000 0.000000 0.000000 0.000000 0.016465
#
#
# Mechanical properties :
#
#
# Convention : Reuss Voigt Hill
#
# Bulk Modulus (GPa) = 138.62626 139.61374 139.12000
# Shear Modulus (GPa) = 69.28235 -938.55696 -434.63731
#
# Velocity S-wave (km/s) = 5.29682 -19.49548 -13.26683
# Velocity P-wave (km/s) = 9.67191 21.21857 13.35444
#
# Compressibility (1/GPa) = 0.00721364
#
# Stress axis : x y z
#
# Youngs Moduli (GPa) = 129.45554 118.02928 116.99915
#
# Poissons Ratio (x) = 0.23933 0.37522
# Poissons Ratio (y) = 0.26250 0.41307
# Poissons Ratio (z) = 0.41517 0.41671
#
# Static dielectric constant tensor:
#      x y z
#    x 2.568290 0.000000 0.000000 
#    y 0.000000 1.936000 0.000000 
#    z 0.000000 0.000000 1.952910 
# 
# From -- ./inp_files/20078.got.cif
#   From: 2010.05.17/outbox.cif.g08.bks.cpg/sg37_11_cif.got.tgz:20078.got - 2010.06.03 17:53:42.
