data_PCOD9355175
_publ_section_title
;
Structure prediction by ZEFSAII (Michael W. Deem and Ramdas Pophale) SiO2 
 PCOD9355175
Probable space group: C C C 2
;
_chemical_formula_sum "Si O2"
_cell_formula_units_Z 36
_cell_length_a 14.884875
_cell_length_b 8.069529
_cell_length_c 13.818424
_cell_angle_alpha 90.000000
_cell_angle_beta 90.000000
_cell_angle_gamma 90.000000
_cell_volume 1659.785220
_symmetry_space_group_name_H-M "C C C 2"
_symmetry_group_IT_number 37
_symmetry_cell_setting 'orthorhombic'
loop_
_space_group_symop_operation_xyz
x,y,z
-x,-y,z
-x,y,1/2+z
x,-y,1/2+z
1/2+x,1/2+y,z
1/2-x,1/2-y,z
1/2-x,1/2+y,1/2+z
1/2+x,1/2-y,1/2+z
loop_
_atom_site_type_symbol
_atom_site_label
_atom_site_fract_x
_atom_site_fract_y
_atom_site_fract_z
Si Si1 0.871074 0.103086 0.887920
Si Si2 0.063702 0.734595 0.375535
Si Si3 0.857242 0.455759 0.188543
Si Si4 0.750000 0.750000 0.553835
Si Si5 0.750000 0.750000 0.236794
Si Si6 0.500000 0.000000 0.538874
O O1 0.795685 0.114612 0.805858
O O2 0.960144 0.206248 0.856743
O O3 0.890749 0.909406 0.900748
O O4 0.828633 0.188985 0.982276
O O5 0.112541 0.633061 0.288659
O O6 0.057447 0.615602 0.468061
O O7 0.771181 0.393071 0.130012
O O8 0.834212 0.651361 0.192033
O O9 0.935454 0.408609 0.113572
#
# Coordination Sequence:
#
# PCOD9355175 Si02
#       6
#     8   8   8   4   4   4
#     4  10  23  46  71  96 146 182 235 289 352 411
#     4  11  24  47  70  99 139 198 229 290 347 422
#     4  12  26  43  72 101 144 183 239 289 355 421
#     4  11  24  46  65 116 138 180 237 300 343 426
#     4  11  24  44  67 106 138 186 229 296 355 410
#     4  12  24  44  68 102 138 190 240 284 340 442
#
# _framework density 21.689554999999999
#
# number of rings (size 3 to 8) (size 9 to 14) (size 15 to 20)
#    0.000    0.889    2.222    4.667    6.222    0.000 
#    8.000    0.000    0.000    0.000    0.000    0.000 
#    0.000    0.000    0.000    0.000    0.000    0.000 
#
# Total GULP energy -100276.039424 kJ/mol
# GULP energy per Si atom -5570.891079 kJ/mol
# Density = 2.164019 g / cm^3
# Si number density = 21.689555 Si / 1000 Ang^3
#
#
#
# Elastic Constant Matrix: (Units=GPa)
#
#
# Indices 1 2 3 4 5 6 
#
# 1 57.6708 22.4822 31.3067 0.0000 0.0000 0.0000
# 2 22.4822 101.2920 48.5473 0.0000 0.0000 0.0000
# 3 31.3067 48.5473 117.4441 0.0000 0.0000 0.0000
# 4 0.0000 0.0000 0.0000 27.0717 0.0000 0.0000
# 5 0.0000 0.0000 0.0000 0.0000 -28.1938 0.0000
# 6 0.0000 0.0000 0.0000 0.0000 0.0000 41.1219
#
#
#
# Elastic Compliance Matrix: (Units=1/GPa)
#
#
# Indices 1 2 3 4 5 6 
#
# 1 0.020745 -0.002437 -0.004523 0.000000 0.000000 0.000000
# 2 -0.002437 0.012598 -0.004558 0.000000 0.000000 0.000000
# 3 -0.004523 -0.004558 0.011604 0.000000 0.000000 0.000000
# 4 0.000000 0.000000 0.000000 0.036939 0.000000 0.000000
# 5 0.000000 0.000000 0.000000 0.000000 -0.035469 0.000000
# 6 0.000000 0.000000 0.000000 0.000000 0.000000 0.024318
#
#
# Mechanical properties :
#
#
# Convention : Reuss Voigt Hill
#
# Bulk Modulus (GPa) = 45.63635 53.45324 49.54480
# Shear Modulus (GPa) = 49.46877 19.60469 34.53673
#
# Velocity S-wave (km/s) = 4.78092 3.00972 3.99472
# Velocity P-wave (km/s) = 7.18071 6.06433 6.64600
#
# Compressibility (1/GPa) = 0.02191236
#
# Stress axis : x y z
#
# Youngs Moduli (GPa) = 48.20473 79.37873 86.17464
#
# Poissons Ratio (x) = 0.19343 0.38973
# Poissons Ratio (y) = 0.11747 0.39278
# Poissons Ratio (z) = 0.21801 0.36180
#
# Static dielectric constant tensor:
#      x y z
#    x 2.142610 0.000000 0.000000 
#    y 0.000000 1.968770 0.000000 
#    z 0.000000 0.000000 1.748670 
# 
# From -- ./inp_files/10306.got.cif
#   From: 2010.05.17/outbox.cif.g08.bks.cpg/sg37_6_cif.got.tgz:10306.got - 2010.06.03 17:53:42.
