data_PCOD9355253
_publ_section_title
;
Structure prediction by ZEFSAII (Michael W. Deem and Ramdas Pophale) SiO2 
 PCOD9355253
Probable space group: C C C 2
;
_chemical_formula_sum "Si O2"
_cell_formula_units_Z 60
_cell_length_a 5.271549
_cell_length_b 27.070519
_cell_length_c 18.316313
_cell_angle_alpha 90.000000
_cell_angle_beta 90.000000
_cell_angle_gamma 90.000000
_cell_volume 2613.803206
_symmetry_space_group_name_H-M "C C C 2"
_symmetry_group_IT_number 37
_symmetry_cell_setting 'orthorhombic'
loop_
_space_group_symop_operation_xyz
x,y,z
-x,-y,z
-x,y,1/2+z
x,-y,1/2+z
1/2+x,1/2+y,z
1/2-x,1/2-y,z
1/2-x,1/2+y,1/2+z
1/2+x,1/2-y,1/2+z
loop_
_atom_site_type_symbol
_atom_site_label
_atom_site_fract_x
_atom_site_fract_y
_atom_site_fract_z
Si Si1 0.184180 0.191749 0.211300
Si Si2 0.497056 0.717936 0.065496
Si Si3 0.000000 0.500000 0.920272
Si Si4 0.696133 0.086244 0.025333
Si Si5 0.441261 0.902568 0.191099
Si Si6 0.557615 0.375230 0.316853
Si Si7 0.281837 0.530383 0.789270
Si Si8 0.704064 0.367494 0.475546
O O1 0.250000 0.250000 0.218363
O O2 0.390410 0.148686 0.190451
O O3 0.985590 0.189870 0.143533
O O4 0.076265 0.174072 0.288710
O O5 0.250000 0.750000 0.055175
O O6 0.750000 0.750000 0.071965
O O7 0.558875 0.681381 0.000546
O O8 0.786803 0.506552 0.857019
O O9 0.917330 0.456731 0.974068
O O10 0.658257 0.081555 0.111960
O O11 0.487685 0.129251 0.007182
O O12 0.993840 0.093125 0.005603
O O13 0.217381 0.892158 0.247435
O O14 0.593908 0.947770 0.228591
O O15 0.356123 0.418613 0.329315
O O16 0.719468 0.369770 0.388896
O O17 0.500000 0.500000 0.749648
#
# Coordination Sequence:
#
# PCOD9355253 Si02
#       8
#     8   8   4   8   8   8   8   8
#     4  10  24  43  70 105 140 192 246 301 367 442
#     4  11  24  44  71 105 144 195 244 300 368 436
#     4  12  26  46  72 104 146 194 250 300 378 446
#     4  12  27  46  76 108 142 195 245 306 366 449
#     4  11  25  47  72 107 144 193 246 310 369 443
#     4  11  25  43  72 102 146 192 241 306 370 443
#     4  11  23  45  69 101 141 190 241 297 376 442
#     4  12  25  48  71 105 152 189 244 305 373 440
#
# _framework density 22.955057
#
# number of rings (size 3 to 8) (size 9 to 14) (size 15 to 20)
#    0.000    0.800    2.667    4.000    9.333    2.133 
#    2.400    0.000    0.000    0.000    0.000    0.000 
#    0.000    0.000    0.000    0.000    0.000    0.000 
#
# Total GULP energy -167367.091088 kJ/mol
# GULP energy per Si atom -5578.903036 kJ/mol
# Density = 2.290281 g / cm^3
# Si number density = 22.955057 Si / 1000 Ang^3
#
#
#
# Elastic Constant Matrix: (Units=GPa)
#
#
# Indices 1 2 3 4 5 6 
#
# 1 55.0723 4.5247 0.2729 0.0000 0.0000 0.0000
# 2 4.5247 92.1967 16.1503 0.0000 0.0000 0.0000
# 3 0.2729 16.1503 150.8170 0.0000 0.0000 0.0000
# 4 0.0000 0.0000 0.0000 40.8034 0.0000 0.0000
# 5 0.0000 0.0000 0.0000 0.0000 19.7078 0.0000
# 6 0.0000 0.0000 0.0000 0.0000 0.0000 32.2503
#
#
#
# Elastic Compliance Matrix: (Units=1/GPa)
#
#
# Indices 1 2 3 4 5 6 
#
# 1 0.018232 -0.000906 0.000064 0.000000 0.000000 0.000000
# 2 -0.000906 0.011099 -0.001187 0.000000 0.000000 0.000000
# 3 0.000064 -0.001187 0.006758 0.000000 0.000000 0.000000
# 4 0.000000 0.000000 0.000000 0.024508 0.000000 0.000000
# 5 0.000000 0.000000 0.000000 0.000000 0.050741 0.000000
# 6 0.000000 0.000000 0.000000 0.000000 0.000000 0.031007
#
#
# Mechanical properties :
#
#
# Convention : Reuss Voigt Hill
#
# Bulk Modulus (GPa) = 31.22009 37.77578 34.49793
# Shear Modulus (GPa) = 31.83104 37.02817 34.42960
#
# Velocity S-wave (km/s) = 3.72784 4.02066 3.87702
# Velocity P-wave (km/s) = 5.67090 6.16818 5.92476
#
# Compressibility (1/GPa) = 0.03203066
#
# Stress axis : x y z
#
# Youngs Moduli (GPa) = 54.84843 90.10026 147.98300
#
# Poissons Ratio (x) = 0.08163 -0.00947
# Poissons Ratio (y) = 0.04969 0.17564
# Poissons Ratio (z) = -0.00351 0.10694
#
# Static dielectric constant tensor:
#      x y z
#    x 2.068530 0.000000 0.000000 
#    y 0.000000 1.939660 0.000000 
#    z 0.000000 0.000000 1.806500 
# 
# From -- ./inp_files/14019.got.cif
#   From: 2010.05.17/outbox.cif.g08.bks.cpg/sg37_8_cif.got.tgz:14019.got - 2010.06.03 17:53:42.
