data_PCOD9355168
_publ_section_title
;
Structure prediction by ZEFSAII (Michael W. Deem and Ramdas Pophale) SiO2 
 PCOD9355168
Probable space group: C C C 2
;
_chemical_formula_sum "Si O2"
_cell_formula_units_Z 60
_cell_length_a 9.028817
_cell_length_b 27.193298
_cell_length_c 10.567908
_cell_angle_alpha 90.000000
_cell_angle_beta 90.000000
_cell_angle_gamma 90.000000
_cell_volume 2594.667765
_symmetry_space_group_name_H-M "C C C 2"
_symmetry_group_IT_number 37
_symmetry_cell_setting 'orthorhombic'
loop_
_space_group_symop_operation_xyz
x,y,z
-x,-y,z
-x,y,1/2+z
x,-y,1/2+z
1/2+x,1/2+y,z
1/2-x,1/2-y,z
1/2-x,1/2+y,1/2+z
1/2+x,1/2-y,1/2+z
loop_
_atom_site_type_symbol
_atom_site_label
_atom_site_fract_x
_atom_site_fract_y
_atom_site_fract_z
Si Si1 0.750000 0.250000 0.878070
Si Si2 0.977702 0.292410 0.680772
Si Si3 0.860650 0.926542 0.185951
Si Si4 0.918809 0.949954 0.454715
Si Si5 0.757088 0.841549 0.030848
Si Si6 0.666054 0.979183 0.628800
Si Si7 0.085943 0.193955 0.584889
Si Si8 0.290331 0.874311 0.248620
O O1 0.870224 0.275897 0.791486
O O2 0.820258 0.206854 0.961765
O O3 0.875620 0.304088 0.558980
O O4 0.081196 0.245556 0.658728
O O5 0.070929 0.340165 0.713192
O O6 0.918284 0.917539 0.328048
O O7 0.755054 0.883167 0.139019
O O8 0.768616 0.977302 0.184285
O O9 0.986537 0.932224 0.076762
O O10 0.752665 0.961960 0.501516
O O11 0.000000 0.000000 0.414776
O O12 0.917381 0.817281 0.047587
O O13 0.742713 0.866797 0.895737
O O14 0.675263 0.930624 0.715403
O O15 0.500000 0.000000 0.611020
O O16 0.159112 0.150697 0.666129
#
# Coordination Sequence:
#
# PCOD9355168 Si02
#       8
#     4   8   8   8   8   8   8   8
#     4  12  24  46  80 108 154 196 252 310 394 460
#     4  12  25  50  74 110 153 198 249 317 389 464
#     4  11  26  47  76 109 150 197 255 315 372 457
#     4  10  23  45  76 102 145 196 254 309 376 440
#     4  12  28  46  78 112 150 202 260 318 386 464
#     4  11  26  50  73 110 152 200 249 312 383 452
#     4  12  25  48  78 112 148 197 251 318 384 462
#     4  12  28  49  76 113 153 201 259 318 391 462
#
# _framework density 23.124348999999999
#
# number of rings (size 3 to 8) (size 9 to 14) (size 15 to 20)
#    0.000    0.533    2.667    4.400    7.467    2.667 
#    4.800    0.000    0.000    0.000    0.000    0.000 
#    0.000    0.000    0.000    0.000    0.000    0.000 
#
# Total GULP energy -168047.571780 kJ/mol
# GULP energy per Si atom -5601.585726 kJ/mol
# Density = 2.307172 g / cm^3
# Si number density = 23.124349 Si / 1000 Ang^3
#
#
#
# Elastic Constant Matrix: (Units=GPa)
#
#
# Indices 1 2 3 4 5 6 
#
# 1 138.1177 53.8542 60.4797 0.0000 0.0000 0.0000
# 2 53.8542 130.3186 38.4992 0.0000 0.0000 0.0000
# 3 60.4797 38.4992 126.4519 0.0000 0.0000 0.0000
# 4 0.0000 0.0000 0.0000 19.2946 0.0000 0.0000
# 5 0.0000 0.0000 0.0000 0.0000 -92.8673 0.0000
# 6 0.0000 0.0000 0.0000 0.0000 0.0000 48.2019
#
#
#
# Elastic Compliance Matrix: (Units=1/GPa)
#
#
# Indices 1 2 3 4 5 6 
#
# 1 0.010142 -0.003031 -0.003928 0.000000 0.000000 0.000000
# 2 -0.003031 0.009338 -0.001393 0.000000 0.000000 0.000000
# 3 -0.003928 -0.001393 0.010211 0.000000 0.000000 0.000000
# 4 0.000000 0.000000 0.000000 0.051828 0.000000 0.000000
# 5 0.000000 0.000000 0.000000 0.000000 -0.010768 0.000000
# 6 0.000000 0.000000 0.000000 0.000000 0.000000 0.020746
#
#
# Mechanical properties :
#
#
# Convention : Reuss Voigt Hill
#
# Bulk Modulus (GPa) = 77.00344 77.83939 77.42141
# Shear Modulus (GPa) = 44.43282 11.06285 27.74783
#
# Velocity S-wave (km/s) = 4.38822 2.18962 3.46777
# Velocity P-wave (km/s) = 7.68422 6.33458 7.04181
#
# Compressibility (1/GPa) = 0.01298643
#
# Stress axis : x y z
#
# Youngs Moduli (GPa) = 98.60044 107.09408 97.93315
#
# Poissons Ratio (x) = 0.32457 0.38468
# Poissons Ratio (y) = 0.29883 0.13646
# Poissons Ratio (z) = 0.38730 0.14922
#
# Static dielectric constant tensor:
#      x y z
#    x 2.048050 0.000000 0.000000 
#    y 0.000000 1.872240 0.000000 
#    z 0.000000 0.000000 1.873620 
# 
# From -- ./inp_files/6538.got.cif
#   From: 2010.05.17/outbox.cif.g08.bks.cpg/sg37_4_cif.got.tgz:6538.got - 2010.06.03 17:53:42.
