data_PCOD9355730
_publ_section_title
;
Structure prediction by ZEFSAII (Michael W. Deem and Ramdas Pophale) SiO2 
 PCOD9355730
Probable space group: C C C 2
;
_chemical_formula_sum "Si O2"
_cell_formula_units_Z 32
_cell_length_a 31.844378
_cell_length_b 4.765952
_cell_length_c 8.251001
_cell_angle_alpha 90.000000
_cell_angle_beta 90.000000
_cell_angle_gamma 90.000000
_cell_volume 1252.244331
_symmetry_space_group_name_H-M "C C C 2"
_symmetry_group_IT_number 37
_symmetry_cell_setting 'orthorhombic'
loop_
_space_group_symop_operation_xyz
x,y,z
-x,-y,z
-x,y,1/2+z
x,-y,1/2+z
1/2+x,1/2+y,z
1/2-x,1/2-y,z
1/2-x,1/2+y,1/2+z
1/2+x,1/2-y,1/2+z
loop_
_atom_site_type_symbol
_atom_site_label
_atom_site_fract_x
_atom_site_fract_y
_atom_site_fract_z
Si Si1 0.329565 0.628318 0.819310
Si Si2 0.546876 0.096619 0.689230
Si Si3 0.922510 0.922890 0.876122
Si Si4 0.296043 0.849944 0.496289
O O1 0.377197 0.568132 0.868967
O O2 0.326459 0.755942 0.641086
O O3 0.306275 0.332654 0.836683
O O4 0.305429 0.835684 0.942267
O O5 0.545938 0.323608 0.835023
O O6 0.567320 0.265827 0.542054
O O7 0.500000 0.000000 0.651498
O O8 0.573129 0.824336 0.742923
O O9 0.250000 0.750000 0.549461
#
# Coordination Sequence:
#
# PCOD9355730 Si02
#       4
#     8   8   8   8
#     4  12  27  47  74 109 148 194 247 309 376 447
#     4  12  27  50  77 110 151 200 253 313 382 458
#     4  12  27  50  77 111 150 197 255 316 379 454
#     4  12  25  47  74 108 148 195 247 306 374 453
#
# _framework density 25.554119
#
# number of rings (size 3 to 8) (size 9 to 14) (size 15 to 20)
#    0.000    0.000    0.000    9.750    0.000    6.000 
#    0.000    1.250    0.000    0.000    0.000    0.000 
#    0.000    0.000    0.000    0.000    0.000    0.000 
#
# Total GULP energy -89806.217051 kJ/mol
# GULP energy per Si atom -5612.888566 kJ/mol
# Density = 2.549596 g / cm^3
# Si number density = 25.554119 Si / 1000 Ang^3
#
#
#
# Elastic Constant Matrix: (Units=GPa)
#
#
# Indices 1 2 3 4 5 6 
#
# 1 144.1172 51.5818 25.5360 0.0000 0.0000 0.0000
# 2 51.5818 160.3268 33.2135 0.0000 0.0000 0.0000
# 3 25.5360 33.2135 95.9227 0.0000 0.0000 0.0000
# 4 0.0000 0.0000 0.0000 34.7967 0.0000 0.0000
# 5 0.0000 0.0000 0.0000 0.0000 34.6379 0.0000
# 6 0.0000 0.0000 0.0000 0.0000 0.0000 50.5326
#
#
#
# Elastic Compliance Matrix: (Units=1/GPa)
#
#
# Indices 1 2 3 4 5 6 
#
# 1 0.007997 -0.002297 -0.001334 0.000000 0.000000 0.000000
# 2 -0.002297 0.007379 -0.001944 0.000000 0.000000 0.000000
# 3 -0.001334 -0.001944 0.011453 0.000000 0.000000 0.000000
# 4 0.000000 0.000000 0.000000 0.028738 0.000000 0.000000
# 5 0.000000 0.000000 0.000000 0.000000 0.028870 0.000000
# 6 0.000000 0.000000 0.000000 0.000000 0.000000 0.019789
#
#
# Mechanical properties :
#
#
# Convention : Reuss Voigt Hill
#
# Bulk Modulus (GPa) = 63.77062 69.00328 66.38695
# Shear Modulus (GPa) = 41.45889 43.32915 42.39402
#
# Velocity S-wave (km/s) = 4.03227 4.12221 4.07749
# Velocity P-wave (km/s) = 6.83288 7.05112 6.94286
#
# Compressibility (1/GPa) = 0.01568120
#
# Stress axis : x y z
#
# Youngs Moduli (GPa) = 125.04514 135.52395 87.31275
#
# Poissons Ratio (x) = 0.31124 0.11645
# Poissons Ratio (y) = 0.28718 0.16970
# Poissons Ratio (z) = 0.16678 0.26340
#
# Static dielectric constant tensor:
#      x y z
#    x 2.024550 0.000000 0.000000 
#    y 0.000000 1.942420 0.000000 
#    z 0.000000 0.000000 2.054550 
# 
# From -- ./inp_files/4891.got.cif
#   From: 2010.05.17/outbox.cif.g08.bks.cpg/sg37_3_cif.got.tgz:4891.got - 2010.06.03 17:53:42.
