data_PCOD9355167
_publ_section_title
;
Structure prediction by ZEFSAII (Michael W. Deem and Ramdas Pophale) SiO2 
 PCOD9355167
Probable space group: C C C 2
;
_chemical_formula_sum "Si O2"
_cell_formula_units_Z 40
_cell_length_a 18.048580
_cell_length_b 8.979163
_cell_length_c 10.108712
_cell_angle_alpha 90.000000
_cell_angle_beta 90.000000
_cell_angle_gamma 90.000000
_cell_volume 1638.229408
_symmetry_space_group_name_H-M "C C C 2"
_symmetry_group_IT_number 37
_symmetry_cell_setting 'orthorhombic'
loop_
_space_group_symop_operation_xyz
x,y,z
-x,-y,z
-x,y,1/2+z
x,-y,1/2+z
1/2+x,1/2+y,z
1/2-x,1/2-y,z
1/2-x,1/2+y,1/2+z
1/2+x,1/2-y,1/2+z
loop_
_atom_site_type_symbol
_atom_site_label
_atom_site_fract_x
_atom_site_fract_y
_atom_site_fract_z
Si Si1 0.217617 0.928196 0.338430
Si Si2 0.423524 0.534300 0.194581
Si Si3 0.688236 0.005753 0.084755
Si Si4 0.890163 0.768130 0.008486
Si Si5 0.537960 0.853852 0.577970
O O1 0.146679 0.011399 0.279542
O O2 0.252342 0.999308 0.468169
O O3 0.171097 0.784796 0.393503
O O4 0.274082 0.927353 0.215048
O O5 0.500000 0.500000 0.266986
O O6 0.412596 0.427636 0.067815
O O7 0.436492 0.706535 0.156817
O O8 0.654478 0.840121 0.109083
O O9 0.616863 0.090514 0.027289
O O10 0.970309 0.693857 0.981621
O O11 0.500000 0.000000 0.648690
#
# Coordination Sequence:
#
# PCOD9355167 Si02
#       5
#     8   8   8   8   8
#     4  12  25  47  77 112 158 205 260 333 404 472
#     4  10  23  45  75 106 151 200 258 317 394 473
#     4  11  26  47  78 113 157 204 266 332 403 476
#     4  10  23  50  74 106 161 207 261 328 393 483
#     4   9  22  48  73 113 151 209 262 321 400 486
#
# _framework density 24.416605000000001
#
# number of rings (size 3 to 8) (size 9 to 14) (size 15 to 20)
#    0.000    1.600    2.000    0.600    5.600    2.400 
#   18.000    0.000    0.000    0.000    0.000    0.000 
#    0.000    0.000    0.000    0.000    0.000    0.000 
#
# Total GULP energy -111346.644393 kJ/mol
# GULP energy per Si atom -5567.332220 kJ/mol
# Density = 2.436103 g / cm^3
# Si number density = 24.416605 Si / 1000 Ang^3
#
#
#
# Elastic Constant Matrix: (Units=GPa)
#
#
# Indices 1 2 3 4 5 6 
#
# 1 227.4731 54.2897 78.0537 0.0000 0.0000 0.0000
# 2 54.2897 124.9419 46.9793 0.0000 0.0000 0.0000
# 3 78.0537 46.9793 114.6444 0.0000 0.0000 0.0000
# 4 0.0000 0.0000 0.0000 25.5632 0.0000 0.0000
# 5 0.0000 0.0000 0.0000 0.0000 15.9126 0.0000
# 6 0.0000 0.0000 0.0000 0.0000 0.0000 32.9843
#
#
#
# Elastic Compliance Matrix: (Units=1/GPa)
#
#
# Indices 1 2 3 4 5 6 
#
# 1 0.005895 -0.001244 -0.003504 0.000000 0.000000 0.000000
# 2 -0.001244 0.009724 -0.003138 0.000000 0.000000 0.000000
# 3 -0.003504 -0.003138 0.012394 0.000000 0.000000 0.000000
# 4 0.000000 0.000000 0.000000 0.039119 0.000000 0.000000
# 5 0.000000 0.000000 0.000000 0.000000 0.062843 0.000000
# 6 0.000000 0.000000 0.000000 0.000000 0.000000 0.030317
#
#
# Mechanical properties :
#
#
# Convention : Reuss Voigt Hill
#
# Bulk Modulus (GPa) = 81.68667 91.74497 86.71582
# Shear Modulus (GPa) = 27.75539 34.07447 30.91493
#
# Velocity S-wave (km/s) = 3.37522 3.73975 3.56215
# Velocity P-wave (km/s) = 6.97979 7.50360 7.24643
#
# Compressibility (1/GPa) = 0.01224190
#
# Stress axis : x y z
#
# Youngs Moduli (GPa) = 169.62451 102.83690 80.68411
#
# Poissons Ratio (x) = 0.12794 0.28271
# Poissons Ratio (y) = 0.21104 0.25317
# Poissons Ratio (z) = 0.59435 0.32267
#
# Static dielectric constant tensor:
#      x y z
#    x 2.007000 0.000000 0.000000 
#    y 0.000000 2.195850 0.000000 
#    z 0.000000 0.000000 1.929430 
# 
# From -- ./inp_files/8152.got.cif
#   From: 2010.05.17/outbox.cif.g08.bks.cpg/sg37_5_cif.got.tgz:8152.got - 2010.06.03 17:53:42.
