data_PCOD9355681
_publ_section_title
;
Structure prediction by ZEFSAII (Michael W. Deem and Ramdas Pophale) SiO2 
 PCOD9355681
Probable space group: C C C 2
;
_chemical_formula_sum "Si O2"
_cell_formula_units_Z 36
_cell_length_a 12.331530
_cell_length_b 8.178628
_cell_length_c 17.124601
_cell_angle_alpha 90.000000
_cell_angle_beta 90.000000
_cell_angle_gamma 90.000000
_cell_volume 1727.101575
_symmetry_space_group_name_H-M "C C C 2"
_symmetry_group_IT_number 37
_symmetry_cell_setting 'orthorhombic'
loop_
_space_group_symop_operation_xyz
x,y,z
-x,-y,z
-x,y,1/2+z
x,-y,1/2+z
1/2+x,1/2+y,z
1/2-x,1/2-y,z
1/2-x,1/2+y,1/2+z
1/2+x,1/2-y,1/2+z
loop_
_atom_site_type_symbol
_atom_site_label
_atom_site_fract_x
_atom_site_fract_y
_atom_site_fract_z
Si Si1 0.442252 0.151439 0.385550
Si Si2 0.116513 0.571561 0.649873
Si Si3 0.779409 0.435928 0.006940
Si Si4 0.250000 0.250000 0.278624
Si Si5 0.426963 0.347841 0.017540
O O1 0.373724 0.039238 0.445420
O O2 0.357159 0.260331 0.334516
O O3 0.513922 0.267961 0.442033
O O4 0.500000 0.000000 0.340236
O O5 0.175974 0.444538 0.593840
O O6 0.200723 0.617089 0.718086
O O7 0.093295 0.722714 0.589165
O O8 0.000000 0.500000 0.672516
O O9 0.750000 0.250000 0.992582
O O10 0.686351 0.567965 0.995375
O O11 0.500000 0.500000 0.045504
#
# Coordination Sequence:
#
# PCOD9355681 Si02
#       5
#     8   8   8   4   8
#     4  12  24  43  68 100 144 187 237 293 351 422
#     4  12  23  43  71 104 141 186 234 294 352 426
#     4  12  21  41  74 102 135 187 243 285 338 432
#     4  12  26  44  68 106 150 176 230 310 370 386
#     4  12  21  39  72 105 135 184 247 283 340 435
#
# _framework density 20.844172
#
# number of rings (size 3 to 8) (size 9 to 14) (size 15 to 20)
#    0.000    0.000   10.000    0.667    0.000    0.000 
#    0.000    3.333    9.778    0.000    0.000    0.000 
#    0.000    0.000    0.000    0.000    0.000    0.000 
#
# Total GULP energy -100228.896982 kJ/mol
# GULP energy per Si atom -5568.272055 kJ/mol
# Density = 2.079673 g / cm^3
# Si number density = 20.844172 Si / 1000 Ang^3
#
#
#
# Elastic Constant Matrix: (Units=GPa)
#
#
# Indices 1 2 3 4 5 6 
#
# 1 121.5527 37.8597 41.0188 0.0000 0.0000 0.0000
# 2 37.8597 88.0814 23.5048 0.0000 0.0000 0.0000
# 3 41.0188 23.5048 116.2770 0.0000 0.0000 0.0000
# 4 0.0000 0.0000 0.0000 4.9034 0.0000 0.0000
# 5 0.0000 0.0000 0.0000 0.0000 48.0597 0.0000
# 6 0.0000 0.0000 0.0000 0.0000 0.0000 58.6011
#
#
#
# Elastic Compliance Matrix: (Units=1/GPa)
#
#
# Indices 1 2 3 4 5 6 
#
# 1 0.010353 -0.003674 -0.002910 0.000000 0.000000 0.000000
# 2 -0.003674 0.013304 -0.001393 0.000000 0.000000 0.000000
# 3 -0.002910 -0.001393 0.009908 0.000000 0.000000 0.000000
# 4 0.000000 0.000000 0.000000 0.203939 0.000000 0.000000
# 5 0.000000 0.000000 0.000000 0.000000 0.020807 0.000000
# 6 0.000000 0.000000 0.000000 0.000000 0.000000 0.017065
#
#
# Mechanical properties :
#
#
# Convention : Reuss Voigt Hill
#
# Bulk Modulus (GPa) = 56.77938 58.96419 57.87179
# Shear Modulus (GPa) = 16.82370 37.21471 27.01920
#
# Velocity S-wave (km/s) = 2.84406 4.22996 3.60425
# Velocity P-wave (km/s) = 6.17122 7.22539 6.71901
#
# Compressibility (1/GPa) = 0.01761203
#
# Stress axis : x y z
#
# Youngs Moduli (GPa) = 96.59107 75.16565 100.92610
#
# Poissons Ratio (x) = 0.27612 0.29365
# Poissons Ratio (y) = 0.35483 0.14063
# Poissons Ratio (z) = 0.28104 0.10474
#
# Static dielectric constant tensor:
#      x y z
#    x 1.912170 0.000000 0.000000 
#    y 0.000000 1.737750 0.000000 
#    z 0.000000 0.000000 1.765180 
# 
# From -- ./inp_files/14872.got.cif
#   From: 2010.05.17/outbox.cif.g08.bks.cpg/sg37_8_cif.got.tgz:14872.got - 2010.06.03 17:53:42.
