data_PCOD9355356
_publ_section_title
;
Structure prediction by ZEFSAII (Michael W. Deem and Ramdas Pophale) SiO2 
 PCOD9355356
Probable space group: C C C 2
;
_chemical_formula_sum "Si O2"
_cell_formula_units_Z 40
_cell_length_a 26.797875
_cell_length_b 5.368708
_cell_length_c 11.119803
_cell_angle_alpha 90.000000
_cell_angle_beta 90.000000
_cell_angle_gamma 90.000000
_cell_volume 1599.805678
_symmetry_space_group_name_H-M "C C C 2"
_symmetry_group_IT_number 37
_symmetry_cell_setting 'orthorhombic'
loop_
_space_group_symop_operation_xyz
x,y,z
-x,-y,z
-x,y,1/2+z
x,-y,1/2+z
1/2+x,1/2+y,z
1/2-x,1/2-y,z
1/2-x,1/2+y,1/2+z
1/2+x,1/2-y,1/2+z
loop_
_atom_site_type_symbol
_atom_site_label
_atom_site_fract_x
_atom_site_fract_y
_atom_site_fract_z
Si Si1 0.529701 0.261559 0.983620
Si Si2 0.947259 0.637084 0.236363
Si Si3 0.655075 0.104569 0.260437
Si Si4 0.693216 0.168901 0.514521
Si Si5 0.882212 0.982065 0.602505
O O1 0.500000 0.500000 0.031267
O O2 0.541839 0.321481 0.845829
O O3 0.500000 0.000000 0.977749
O O4 0.582059 0.261908 0.054272
O O5 0.902928 0.463578 0.285371
O O6 0.000000 0.500000 0.210088
O O7 0.919455 0.795057 0.135689
O O8 0.684570 0.047124 0.382835
O O9 0.649692 0.390157 0.216443
O O10 0.676983 0.974350 0.138147
O O11 0.750000 0.250000 0.526420
O O12 0.656874 0.409179 0.509326
#
# Coordination Sequence:
#
# PCOD9355356 Si02
#       5
#     8   8   8   8   8
#     4  11  27  43  71 109 161 216 267 325 401 488
#     4  10  25  43  69 108 157 208 255 322 398 483
#     4  11  26  50  77 113 156 200 271 331 409 500
#     4  11  28  51  80 113 152 209 273 348 424 484
#     4  11  26  44  75 113 152 209 265 341 393 508
#
# _framework density 25.003036000000002
#
# number of rings (size 3 to 8) (size 9 to 14) (size 15 to 20)
#    0.000    1.200    0.000    2.400   22.400    1.600 
#    0.000    0.000    0.000    0.000    0.000    0.000 
#    0.000    0.000    0.000    0.000    0.000    0.000 
#
# Total GULP energy -111651.864020 kJ/mol
# GULP energy per Si atom -5582.593201 kJ/mol
# Density = 2.494613 g / cm^3
# Si number density = 25.003036 Si / 1000 Ang^3
#
#
#
# Elastic Constant Matrix: (Units=GPa)
#
#
# Indices 1 2 3 4 5 6 
#
# 1 183.4105 48.5621 74.2264 0.0000 0.0000 0.0000
# 2 48.5621 86.7360 16.4522 0.0000 0.0000 0.0000
# 3 74.2264 16.4522 140.1111 0.0000 0.0000 0.0000
# 4 0.0000 0.0000 0.0000 28.7601 0.0000 0.0000
# 5 0.0000 0.0000 0.0000 0.0000 28.5061 0.0000
# 6 0.0000 0.0000 0.0000 0.0000 0.0000 31.4668
#
#
#
# Elastic Compliance Matrix: (Units=1/GPa)
#
#
# Indices 1 2 3 4 5 6 
#
# 1 0.007977 -0.003748 -0.003786 0.000000 0.000000 0.000000
# 2 -0.003748 0.013553 0.000394 0.000000 0.000000 0.000000
# 3 -0.003786 0.000394 0.009096 0.000000 0.000000 0.000000
# 4 0.000000 0.000000 0.000000 0.034770 0.000000 0.000000
# 5 0.000000 0.000000 0.000000 0.000000 0.035080 0.000000
# 6 0.000000 0.000000 0.000000 0.000000 0.000000 0.031780
#
#
# Mechanical properties :
#
#
# Convention : Reuss Voigt Hill
#
# Bulk Modulus (GPa) = 61.17328 76.52654 68.84991
# Shear Modulus (GPa) = 32.89817 35.81440 34.35628
#
# Velocity S-wave (km/s) = 3.63129 3.78881 3.71089
# Velocity P-wave (km/s) = 6.48854 7.05787 6.77918
#
# Compressibility (1/GPa) = 0.01634701
#
# Stress axis : x y z
#
# Youngs Moduli (GPa) = 125.36551 73.78495 109.93293
#
# Poissons Ratio (x) = 0.27654 0.41617
# Poissons Ratio (y) = 0.46986 -0.04333
# Poissons Ratio (z) = 0.47460 -0.02908
#
# Static dielectric constant tensor:
#      x y z
#    x 1.984770 0.000000 0.000000 
#    y 0.000000 2.122210 0.000000 
#    z 0.000000 0.000000 2.104920 
# 
# From -- ./inp_files/8986.got.cif
#   From: 2010.05.17/outbox.cif.g08.bks.cpg/sg37_5_cif.got.tgz:8986.got - 2010.06.03 17:53:42.
