data_PCOD9355817
_publ_section_title
;
Structure prediction by ZEFSAII (Michael W. Deem and Ramdas Pophale) SiO2 
 PCOD9355817
Probable space group: A M M 2
;
_chemical_formula_sum "Si O2"
_cell_formula_units_Z 34
_cell_length_a 9.998640
_cell_length_b 19.154120
_cell_length_c 7.407390
_cell_angle_alpha 90.000000
_cell_angle_beta 90.000000
_cell_angle_gamma 90.000000
_cell_volume 1418.627410
_symmetry_space_group_name_H-M "A M M 2"
_symmetry_group_IT_number 38
_symmetry_cell_setting 'orthorhombic'
loop_
_space_group_symop_operation_xyz
x,y,z
-x,-y,z
-x,y,z
x,-y,z
x,1/2+y,1/2+z
-x,1/2-y,1/2+z
-x,1/2+y,1/2+z
x,1/2-y,1/2+z
loop_
_atom_site_type_symbol
_atom_site_label
_atom_site_fract_x
_atom_site_fract_y
_atom_site_fract_z
Si Si1 0.729228 0.577489 0.344610
Si Si2 0.500000 0.341391 0.879634
Si Si3 0.000000 0.000000 0.309335
Si Si4 0.500000 0.321760 0.309181
Si Si5 0.000000 0.137197 0.941056
Si Si6 0.215565 0.113065 0.426137
Si Si7 0.000000 0.214171 0.553452
O O1 0.676133 0.500000 0.381430
O O2 0.629134 0.640111 0.390124
O O3 0.869533 0.589926 0.442328
O O4 0.758906 0.583452 0.129251
O O5 0.500000 0.340278 0.097803
O O6 0.641228 0.376549 0.831729
O O7 0.500000 0.260817 0.823112
O O8 0.116043 0.060604 0.330553
O O9 0.000000 0.176452 0.746873
O O10 0.000000 0.202930 0.072371
O O11 0.134779 0.185726 0.457038
#
# Coordination Sequence:
#
# PCOD9355817 Si02
#       7
#     8   4   2   4   4   8   4
#     4  10  18  30  50  78 101 134 172 221 258 307
#     4  10  20  35  50  83 106 139 175 211 265 314
#     4  10  16  30  48  78 104 140 158 224 270 292
#     4  10  21  34  53  78 108 135 173 217 263 309
#     4  10  19  30  51  75 102 134 173 215 261 306
#     4   9  18  29  51  73 111 130 170 215 267 305
#     4   9  18  31  46  77  98 140 175 209 264 303
#
# _framework density 23.966829000000001
#
# number of rings (size 3 to 8) (size 9 to 14) (size 15 to 20)
#    0.000    2.353    1.176    2.824    0.000    0.471 
#    0.000    0.000    0.000    0.000   30.588    0.000 
#    0.000    0.000    0.000    0.000    0.000    0.000 
#
# Total GULP energy -94866.013149 kJ/mol
# GULP energy per Si atom -5580.353715 kJ/mol
# Density = 2.391228 g / cm^3
# Si number density = 23.966829 Si / 1000 Ang^3
#
#
#
# Elastic Constant Matrix: (Units=GPa)
#
#
# Indices 1 2 3 4 5 6 
#
# 1 197.3799 61.2416 18.8349 0.0000 0.0000 0.0000
# 2 61.2416 134.1680 -1.0055 0.0000 0.0000 0.0000
# 3 18.8349 -1.0055 72.6955 0.0000 0.0000 0.0000
# 4 0.0000 0.0000 0.0000 8.4272 0.0000 0.0000
# 5 0.0000 0.0000 0.0000 0.0000 -13.3559 0.0000
# 6 0.0000 0.0000 0.0000 0.0000 0.0000 2.4680
#
#
#
# Elastic Compliance Matrix: (Units=1/GPa)
#
#
# Indices 1 2 3 4 5 6 
#
# 1 0.006086 -0.002790 -0.001615 0.000000 0.000000 0.000000
# 2 -0.002790 0.008733 0.000844 0.000000 0.000000 0.000000
# 3 -0.001615 0.000844 0.014186 0.000000 0.000000 0.000000
# 4 0.000000 0.000000 0.000000 0.118663 0.000000 0.000000
# 5 0.000000 0.000000 0.000000 0.000000 -0.074873 0.000000
# 6 0.000000 0.000000 0.000000 0.000000 0.000000 0.405193
#
#
# Mechanical properties :
#
#
# Convention : Reuss Voigt Hill
#
# Bulk Modulus (GPa) = 45.70011 62.48725 54.09368
# Shear Modulus (GPa) = 10.15421 21.18602 15.67012
#
# Velocity S-wave (km/s) = 2.06058 2.97639 2.55977
# Velocity P-wave (km/s) = 4.97702 6.15962 5.59963
#
# Compressibility (1/GPa) = 0.02188179
#
# Stress axis : x y z
#
# Youngs Moduli (GPa) = 164.30462 114.50464 70.49087
#
# Poissons Ratio (x) = 0.31949 0.11388
# Poissons Ratio (y) = 0.45844 -0.05947
# Poissons Ratio (z) = 0.26543 -0.09661
#
# Static dielectric constant tensor:
#      x y z
#    x 1.896180 0.000000 0.000000 
#    y 0.000000 1.836160 0.000000 
#    z 0.000000 0.000000 1.998760 
# 
# From -- ./inp_files/3200.got.cif
#   From: 2010.05.17/outbox.cif.g08.bks.cpg/sg38_2_cif.got.tgz:3200.got - 2010.06.03 18:07:57.
