data_PCOD9355332
_publ_section_title
;
Structure prediction by ZEFSAII (Michael W. Deem and Ramdas Pophale) SiO2 
 PCOD9355332
Probable space group: C C C 2
;
_chemical_formula_sum "Si O2"
_cell_formula_units_Z 56
_cell_length_a 12.511564
_cell_length_b 15.057624
_cell_length_c 12.654952
_cell_angle_alpha 90.000000
_cell_angle_beta 90.000000
_cell_angle_gamma 90.000000
_cell_volume 2384.122423
_symmetry_space_group_name_H-M "C C C 2"
_symmetry_group_IT_number 37
_symmetry_cell_setting 'orthorhombic'
loop_
_space_group_symop_operation_xyz
x,y,z
-x,-y,z
-x,y,1/2+z
x,-y,1/2+z
1/2+x,1/2+y,z
1/2-x,1/2-y,z
1/2-x,1/2+y,1/2+z
1/2+x,1/2-y,1/2+z
loop_
_atom_site_type_symbol
_atom_site_label
_atom_site_fract_x
_atom_site_fract_y
_atom_site_fract_z
Si Si1 0.576234 0.867360 0.253520
Si Si2 0.288407 0.454242 0.560022
Si Si3 0.848736 0.437541 0.268712
Si Si4 0.832308 0.878142 0.915318
Si Si5 0.466243 0.396980 0.700611
Si Si6 0.147235 0.690580 0.968195
Si Si7 0.073166 0.747711 0.577749
O O1 0.447754 0.873798 0.240493
O O2 0.615971 0.803959 0.345928
O O3 0.622631 0.835207 0.141558
O O4 0.606371 0.965331 0.292226
O O5 0.230296 0.463689 0.673015
O O6 0.335539 0.536551 0.494170
O O7 0.387162 0.394210 0.598900
O O8 0.196575 0.405873 0.493508
O O9 0.782390 0.389020 0.359607
O O10 0.912984 0.878735 0.814649
O O11 0.859862 0.793571 0.985918
O O12 0.500000 0.500000 0.705137
O O13 0.552340 0.323583 0.667136
O O14 0.250000 0.750000 0.994104
O O15 0.039445 0.713538 0.030288
#
# Coordination Sequence:
#
# PCOD9355332 Si02
#       7
#     8   8   8   8   8   8   8
#     4  11  25  46  73 107 143 192 253 308 377 452
#     4  11  22  45  72  99 140 196 246 305 377 449
#     4  10  24  48  74 103 144 199 252 305 375 466
#     4  11  25  44  76 108 143 199 254 310 376 452
#     4  11  24  41  72 104 149 193 252 302 383 461
#     4  12  25  44  73 103 152 196 242 307 388 445
#     4  12  25  45  70 115 150 195 242 321 377 447
#
# _framework density 23.488727000000001
#
# number of rings (size 3 to 8) (size 9 to 14) (size 15 to 20)
#    0.000    0.857    5.714    0.857    2.000    3.429 
#    0.000    5.000    0.000    0.000    0.000    0.000 
#    0.000    0.000    0.000    0.000    0.000    0.000 
#
# Total GULP energy -156296.356574 kJ/mol
# GULP energy per Si atom -5582.012735 kJ/mol
# Density = 2.343527 g / cm^3
# Si number density = 23.488727 Si / 1000 Ang^3
#
#
#
# Elastic Constant Matrix: (Units=GPa)
#
#
# Indices 1 2 3 4 5 6 
#
# 1 62.4066 41.9602 44.1462 0.0000 0.0000 0.0000
# 2 41.9602 74.5511 47.5335 0.0000 0.0000 0.0000
# 3 44.1462 47.5335 144.9693 0.0000 0.0000 0.0000
# 4 0.0000 0.0000 0.0000********** 0.0000 0.0000
# 5 0.0000 0.0000 0.0000 0.0000 19.1779 0.0000
# 6 0.0000 0.0000 0.0000 0.0000 0.0000 26.8871
#
#
#
# Elastic Compliance Matrix: (Units=1/GPa)
#
#
# Indices 1 2 3 4 5 6 
#
# 1 0.027661 -0.012894 -0.004196 0.000000 0.000000 0.000000
# 2 -0.012894 0.022969 -0.003605 0.000000 0.000000 0.000000
# 3 -0.004196 -0.003605 0.009358 0.000000 0.000000 0.000000
# 4 0.000000 0.000000 0.000000 -0.000002 0.000000 0.000000
# 5 0.000000 0.000000 0.000000 0.000000 0.052143 0.000000
# 6 0.000000 0.000000 0.000000 0.000000 0.000000 0.037193
#
#
# Mechanical properties :
#
#
# Convention : Reuss Voigt Hill
#
# Bulk Modulus (GPa) = 53.76485 61.02297 57.39391
# Shear Modulus (GPa) = 25.39226 -110191.61975 -55083.11374
#
# Velocity S-wave (km/s) = 3.29148 -216.82804 -153.30291
# Velocity P-wave (km/s) = 6.11429 250.31945 176.94977
#
# Compressibility (1/GPa) = 0.01859951
#
# Stress axis : x y z
#
# Youngs Moduli (GPa) = 36.15166 43.53677 106.86367
#
# Poissons Ratio (x) = 0.56135 0.44838
# Poissons Ratio (y) = 0.46612 0.38523
# Poissons Ratio (z) = 0.15168 0.15695
#
# Static dielectric constant tensor:
#      x y z
#    x 1.954720 0.000000 0.000000 
#    y 0.000000 36.009450 0.000000 
#    z 0.000000 0.000000 1.872260 
# 
# From -- ./inp_files/7835.got.cif
#   From: 2010.05.17/outbox.cif.g08.bks.cpg/sg37_4_cif.got.tgz:7835.got - 2010.06.03 17:53:42.
