data_PCOD9355434
_publ_section_title
;
Structure prediction by ZEFSAII (Michael W. Deem and Ramdas Pophale) SiO2 
 PCOD9355434
Probable space group: C C C 2
;
_chemical_formula_sum "Si O2"
_cell_formula_units_Z 60
_cell_length_a 23.945857
_cell_length_b 11.428882
_cell_length_c 9.739209
_cell_angle_alpha 90.000000
_cell_angle_beta 90.000000
_cell_angle_gamma 90.000000
_cell_volume 2665.371927
_symmetry_space_group_name_H-M "C C C 2"
_symmetry_group_IT_number 37
_symmetry_cell_setting 'orthorhombic'
loop_
_space_group_symop_operation_xyz
x,y,z
-x,-y,z
-x,y,1/2+z
x,-y,1/2+z
1/2+x,1/2+y,z
1/2-x,1/2-y,z
1/2-x,1/2+y,1/2+z
1/2+x,1/2-y,1/2+z
loop_
_atom_site_type_symbol
_atom_site_label
_atom_site_fract_x
_atom_site_fract_y
_atom_site_fract_z
Si Si1 0.029638 0.607165 0.944440
Si Si2 0.865953 0.510869 0.597777
Si Si3 0.250000 0.750000 0.715511
Si Si4 0.870044 0.753792 0.088950
Si Si5 0.714170 0.367377 0.158537
Si Si6 0.757841 0.525925 0.404623
Si Si7 0.482075 0.250114 0.189796
Si Si8 0.889516 0.259417 0.264710
O O1 0.036650 0.710010 0.839673
O O2 0.000000 0.500000 0.867722
O O3 0.086436 0.556008 0.997604
O O4 0.992081 0.651965 0.070987
O O5 0.876058 0.379371 0.646814
O O6 0.810315 0.505233 0.505333
O O7 0.871048 0.609688 0.715341
O O8 0.193768 0.785432 0.630878
O O9 0.234172 0.641146 0.812101
O O10 0.926666 0.820057 0.139555
O O11 0.877764 0.746923 0.925943
O O12 0.750000 0.250000 0.128539
O O13 0.741174 0.428148 0.293561
O O14 0.652505 0.327873 0.192301
O O15 0.712485 0.445591 0.021670
O O16 0.547683 0.277263 0.220694
#
# Coordination Sequence:
#
# PCOD9355434 Si02
#       8
#     8   8   4   8   8   8   8   8
#     4  11  20  32  55  88 135 181 223 277 357 452
#     4  11  23  39  65  97 146 187 232 290 377 454
#     4  12  28  44  70 112 144 192 256 306 364 462
#     4  12  26  39  66 108 142 192 252 299 376 452
#     4  12  26  48  75 105 153 192 251 306 372 447
#     4  12  26  48  72 108 145 201 240 309 380 435
#     4  11  22  39  59  93 139 183 238 296 364 444
#     4  11  25  43  65 103 144 196 236 306 375 437
#
# _framework density 22.510929999999998
#
# number of rings (size 3 to 8) (size 9 to 14) (size 15 to 20)
#    0.000    0.533    4.667    2.800   10.267    1.067 
#    0.000    0.000    0.000    0.800    0.000    0.000 
#    0.000    0.000    0.000    0.000    0.000    0.000 
#
# Total GULP energy -167441.843422 kJ/mol
# GULP energy per Si atom -5581.394781 kJ/mol
# Density = 2.245969 g / cm^3
# Si number density = 22.510930 Si / 1000 Ang^3
#
#
#
# Elastic Constant Matrix: (Units=GPa)
#
#
# Indices 1 2 3 4 5 6 
#
# 1 149.1291 -2.9173 40.8941 0.0000 0.0000 0.0000
# 2 -2.9173 24.7972 9.8028 0.0000 0.0000 0.0000
# 3 40.8941 9.8028 122.4326 0.0000 0.0000 0.0000
# 4 0.0000 0.0000 0.0000 12.7580 0.0000 0.0000
# 5 0.0000 0.0000 0.0000 0.0000 30.0674 0.0000
# 6 0.0000 0.0000 0.0000 0.0000 0.0000 25.2509
#
#
#
# Elastic Compliance Matrix: (Units=1/GPa)
#
#
# Indices 1 2 3 4 5 6 
#
# 1 0.007470 0.001926 -0.002649 0.000000 0.000000 0.000000
# 2 0.001926 0.042142 -0.004018 0.000000 0.000000 0.000000
# 3 -0.002649 -0.004018 0.009374 0.000000 0.000000 0.000000
# 4 0.000000 0.000000 0.000000 0.078382 0.000000 0.000000
# 5 0.000000 0.000000 0.000000 0.000000 0.033259 0.000000
# 6 0.000000 0.000000 0.000000 0.000000 0.000000 0.039603
#
#
# Mechanical properties :
#
#
# Convention : Reuss Voigt Hill
#
# Bulk Modulus (GPa) = 20.20008 43.54645 31.87327
# Shear Modulus (GPa) = 21.16739 30.18721 25.67730
#
# Velocity S-wave (km/s) = 3.06978 3.66594 3.38103
# Velocity P-wave (km/s) = 4.64303 6.10782 5.42509
#
# Compressibility (1/GPa) = 0.04950474
#
# Stress axis : x y z
#
# Youngs Moduli (GPa) = 133.87344 23.72929 106.67460
#
# Poissons Ratio (x) = -0.04570 0.28260
# Poissons Ratio (y) = -0.25785 0.42857
# Poissons Ratio (z) = 0.35466 0.09533
#
# Static dielectric constant tensor:
#      x y z
#    x 1.951790 0.000000 0.000000 
#    y 0.000000 1.852170 0.000000 
#    z 0.000000 0.000000 1.816280 
# 
# From -- ./inp_files/4812.got.cif
#   From: 2010.05.17/outbox.cif.g08.bks.cpg/sg37_3_cif.got.tgz:4812.got - 2010.06.03 17:53:42.
