data_PCOD9355576
_publ_section_title
;
Structure prediction by ZEFSAII (Michael W. Deem and Ramdas Pophale) SiO2 
 PCOD9355576
Probable space group: C C C 2
;
_chemical_formula_sum "Si O2"
_cell_formula_units_Z 64
_cell_length_a 21.560354
_cell_length_b 14.878916
_cell_length_c 8.765151
_cell_angle_alpha 90.000000
_cell_angle_beta 90.000000
_cell_angle_gamma 90.000000
_cell_volume 2811.813951
_symmetry_space_group_name_H-M "C C C 2"
_symmetry_group_IT_number 37
_symmetry_cell_setting 'orthorhombic'
loop_
_space_group_symop_operation_xyz
x,y,z
-x,-y,z
-x,y,1/2+z
x,-y,1/2+z
1/2+x,1/2+y,z
1/2-x,1/2-y,z
1/2-x,1/2+y,1/2+z
1/2+x,1/2-y,1/2+z
loop_
_atom_site_type_symbol
_atom_site_label
_atom_site_fract_x
_atom_site_fract_y
_atom_site_fract_z
Si Si1 0.874127 0.852564 0.185700
Si Si2 0.803091 0.540027 0.181417
Si Si3 0.733977 0.342744 0.480434
Si Si4 0.139552 0.601564 0.994730
Si Si5 0.032414 0.729559 0.530264
Si Si6 0.170296 0.950709 0.219960
Si Si7 0.982464 0.397946 0.800990
Si Si8 0.608046 0.292454 0.028380
O O1 0.889712 0.810644 0.347896
O O2 0.919732 0.810257 0.059298
O O3 0.871925 0.959971 0.212902
O O4 0.805803 0.823398 0.132286
O O5 0.816400 0.578247 0.349363
O O6 0.738026 0.486140 0.168964
O O7 0.796015 0.611536 0.044636
O O8 0.853560 0.468383 0.130690
O O9 0.750000 0.250000 0.398794
O O10 0.689325 0.406797 0.381756
O O11 0.070491 0.596732 0.929015
O O12 0.147562 0.702195 0.054718
O O13 0.031929 0.672760 0.373198
O O14 0.964315 0.772512 0.559639
O O15 0.044702 0.653141 0.655941
O O16 0.138131 0.874954 0.118178
O O17 0.000000 0.500000 0.766763
#
# Coordination Sequence:
#
# PCOD9355576 Si02
#       8
#     8   8   8   8   8   8   8   8
#     4  11  23  48  70  95 143 182 233 291 353 422
#     4  11  24  46  65 105 140 186 241 282 355 429
#     4  11  25  41  67 103 139 187 230 290 347 418
#     4  11  25  43  71  98 143 187 233 290 357 430
#     4  11  24  47  67 106 134 182 242 282 362 422
#     4  11  26  46  69 103 140 184 241 295 349 416
#     4  11  26  43  70 102 143 183 230 295 352 424
#     4  11  26  45  70 105 135 189 236 293 361 413
#
# _framework density 22.761108
#
# number of rings (size 3 to 8) (size 9 to 14) (size 15 to 20)
#    0.000    1.000    3.750    2.625   10.500    0.500 
#    0.000    1.250    0.000    0.000    0.000    0.000 
#    0.000    0.000    0.000    0.000    0.000    0.000 
#
# Total GULP energy -178805.354570 kJ/mol
# GULP energy per Si atom -5587.667330 kJ/mol
# Density = 2.270930 g / cm^3
# Si number density = 22.761108 Si / 1000 Ang^3
#
#
#
# Elastic Constant Matrix: (Units=GPa)
#
#
# Indices 1 2 3 4 5 6 
#
# 1 54.0534 36.1640 1.8186 0.0000 0.0000 0.0000
# 2 36.1640 160.4504 20.7403 0.0000 0.0000 0.0000
# 3 1.8186 20.7403 40.0519 0.0000 0.0000 0.0000
# 4 0.0000 0.0000 0.0000 39.8773 0.0000 0.0000
# 5 0.0000 0.0000 0.0000 0.0000 36.1016 0.0000
# 6 0.0000 0.0000 0.0000 0.0000 0.0000 39.2141
#
#
#
# Elastic Compliance Matrix: (Units=1/GPa)
#
#
# Indices 1 2 3 4 5 6 
#
# 1 0.021889 -0.005150 0.001673 0.000000 0.000000 0.000000
# 2 -0.005150 0.007891 -0.003852 0.000000 0.000000 0.000000
# 3 0.001673 -0.003852 0.026887 0.000000 0.000000 0.000000
# 4 0.000000 0.000000 0.000000 0.025077 0.000000 0.000000
# 5 0.000000 0.000000 0.000000 0.000000 0.027700 0.000000
# 6 0.000000 0.000000 0.000000 0.000000 0.000000 0.025501
#
#
# Mechanical properties :
#
#
# Convention : Reuss Voigt Hill
#
# Bulk Modulus (GPa) = 23.80487 41.33350 32.56918
# Shear Modulus (GPa) = 30.56111 36.09411 33.32761
#
# Velocity S-wave (km/s) = 3.66825 3.98651 3.83068
# Velocity P-wave (km/s) = 5.33129 6.27605 5.82286
#
# Compressibility (1/GPa) = 0.04200821
#
# Stress axis : x y z
#
# Youngs Moduli (GPa) = 45.68406 126.72367 37.19323
#
# Poissons Ratio (x) = 0.65262 -0.06222
# Poissons Ratio (y) = 0.23527 0.14329
# Poissons Ratio (z) = -0.07642 0.48820
#
# Static dielectric constant tensor:
#      x y z
#    x 1.867460 0.000000 0.000000 
#    y 0.000000 1.919640 0.000000 
#    z 0.000000 0.000000 1.882130 
# 
# From -- ./inp_files/4650.got.cif
#   From: 2010.05.17/outbox.cif.g08.bks.cpg/sg37_3_cif.got.tgz:4650.got - 2010.06.03 17:53:42.
