data_PCOD9355082
_publ_section_title
;
Structure prediction by ZEFSAII (Michael W. Deem and Ramdas Pophale) SiO2 
 PCOD9355082
Probable space group: C C C 2
;
_chemical_formula_sum "Si O2"
_cell_formula_units_Z 60
_cell_length_a 18.960153
_cell_length_b 16.858297
_cell_length_c 8.799700
_cell_angle_alpha 90.000000
_cell_angle_beta 90.000000
_cell_angle_gamma 90.000000
_cell_volume 2812.699945
_symmetry_space_group_name_H-M "C C C 2"
_symmetry_group_IT_number 37
_symmetry_cell_setting 'orthorhombic'
loop_
_space_group_symop_operation_xyz
x,y,z
-x,-y,z
-x,y,1/2+z
x,-y,1/2+z
1/2+x,1/2+y,z
1/2-x,1/2-y,z
1/2-x,1/2+y,1/2+z
1/2+x,1/2-y,1/2+z
loop_
_atom_site_type_symbol
_atom_site_label
_atom_site_fract_x
_atom_site_fract_y
_atom_site_fract_z
Si Si1 0.709401 0.424551 0.564170
Si Si2 0.411400 0.179758 0.679761
Si Si3 0.073002 0.098326 0.257052
Si Si4 0.722819 0.097430 0.065425
Si Si5 0.691035 0.690541 0.801402
Si Si6 0.048211 0.722106 0.834358
Si Si7 0.000000 0.000000 0.502070
Si Si8 0.302652 0.175849 0.243701
O O1 0.653343 0.405907 0.698177
O O2 0.736119 0.514332 0.562027
O O3 0.679260 0.384110 0.411527
O O4 0.779641 0.375963 0.602427
O O5 0.351069 0.111352 0.659265
O O6 0.374423 0.254974 0.760447
O O7 0.482390 0.170339 0.776698
O O8 0.434596 0.204089 0.509640
O O9 0.043419 0.183190 0.309035
O O10 0.059544 0.036982 0.393857
O O11 0.029364 0.067470 0.112290
O O12 0.776228 0.158357 0.145074
O O13 0.706166 0.123986 0.895489
O O14 0.750000 0.750000 0.868942
O O15 0.117139 0.701787 0.735825
O O16 0.250000 0.250000 0.256448
#
# Coordination Sequence:
#
# PCOD9355082 Si02
#       8
#     8   8   8   8   8   8   4   8
#     4  12  25  38  66  98 131 171 226 277 344 397
#     4  10  24  43  69  97 133 176 231 280 340 408
#     4  11  25  40  62  92 131 179 213 269 327 421
#     4  10  23  43  64  95 133 177 218 282 343 399
#     4  10  23  41  64  94 130 172 223 278 330 410
#     4  11  23  41  70  95 130 178 227 281 334 400
#     4  10  26  44  54  92 138 170 212 258 344 406
#     4  11  22  42  65  95 128 171 230 275 330 404
#
# _framework density 21.331816
#
# number of rings (size 3 to 8) (size 9 to 14) (size 15 to 20)
#    0.000    1.333    1.333    4.000    7.467    2.133 
#    0.000    0.667    0.000    3.200    0.000    0.000 
#    0.000    0.000    0.000    0.000    0.000    0.000 
#
# Total GULP energy -167599.015919 kJ/mol
# GULP energy per Si atom -5586.633864 kJ/mol
# Density = 2.128326 g / cm^3
# Si number density = 21.331816 Si / 1000 Ang^3
#
#
#
# Elastic Constant Matrix: (Units=GPa)
#
#
# Indices 1 2 3 4 5 6 
#
# 1 93.6862 1.7661 4.6993 0.0000 0.0000 0.0000
# 2 1.7661 66.0299 11.3826 0.0000 0.0000 0.0000
# 3 4.6993 11.3826 53.8468 0.0000 0.0000 0.0000
# 4 0.0000 0.0000 0.0000 10.5855 0.0000 0.0000
# 5 0.0000 0.0000 0.0000 0.0000 22.1860 0.0000
# 6 0.0000 0.0000 0.0000 0.0000 0.0000 28.1453
#
#
#
# Elastic Compliance Matrix: (Units=1/GPa)
#
#
# Indices 1 2 3 4 5 6 
#
# 1 0.010722 -0.000130 -0.000908 0.000000 0.000000 0.000000
# 2 -0.000130 0.015719 -0.003311 0.000000 0.000000 0.000000
# 3 -0.000908 -0.003311 0.019350 0.000000 0.000000 0.000000
# 4 0.000000 0.000000 0.000000 0.094469 0.000000 0.000000
# 5 0.000000 0.000000 0.000000 0.000000 0.045073 0.000000
# 6 0.000000 0.000000 0.000000 0.000000 0.000000 0.035530
#
#
# Mechanical properties :
#
#
# Convention : Reuss Voigt Hill
#
# Bulk Modulus (GPa) = 26.96022 27.69541 27.32782
# Shear Modulus (GPa) = 20.66736 25.23103 22.94919
#
# Velocity S-wave (km/s) = 3.11601 3.44290 3.28353
# Velocity P-wave (km/s) = 5.06083 5.36806 5.21671
#
# Compressibility (1/GPa) = 0.03709169
#
# Stress axis : x y z
#
# Youngs Moduli (GPa) = 93.26667 63.61731 51.67833
#
# Poissons Ratio (x) = 0.00828 0.04693
# Poissons Ratio (y) = 0.01215 0.17113
# Poissons Ratio (z) = 0.08470 0.21067
#
# Static dielectric constant tensor:
#      x y z
#    x 1.820380 0.000000 0.000000 
#    y 0.000000 1.785430 0.000000 
#    z 0.000000 0.000000 1.783850 
# 
# From -- ./inp_files/4079.got.cif
#   From: 2010.05.17/outbox.cif.g08.bks.cpg/sg37_3_cif.got.tgz:4079.got - 2010.06.03 17:53:42.
