data_PCOD9355743
_publ_section_title
;
Structure prediction by ZEFSAII (Michael W. Deem and Ramdas Pophale) SiO2 
 PCOD9355743
Probable space group: C C C 2
;
_chemical_formula_sum "Si O2"
_cell_formula_units_Z 24
_cell_length_a 17.473837
_cell_length_b 7.756024
_cell_length_c 7.381647
_cell_angle_alpha 90.000000
_cell_angle_beta 90.000000
_cell_angle_gamma 90.000000
_cell_volume 1000.416157
_symmetry_space_group_name_H-M "C C C 2"
_symmetry_group_IT_number 37
_symmetry_cell_setting 'orthorhombic'
loop_
_space_group_symop_operation_xyz
x,y,z
-x,-y,z
-x,y,1/2+z
x,-y,1/2+z
1/2+x,1/2+y,z
1/2-x,1/2-y,z
1/2-x,1/2+y,1/2+z
1/2+x,1/2-y,1/2+z
loop_
_atom_site_type_symbol
_atom_site_label
_atom_site_fract_x
_atom_site_fract_y
_atom_site_fract_z
Si Si1 0.398186 0.158915 0.775950
Si Si2 0.046721 0.173568 0.134534
Si Si3 0.336671 0.216210 0.398720
O O1 0.482652 0.183871 0.687331
O O2 0.344483 0.226118 0.615033
O O3 0.368122 0.970691 0.833587
O O4 0.406285 0.265341 0.960623
O O5 0.105564 0.154756 0.299210
O O6 0.000000 0.000000 0.104448
O O7 0.250000 0.250000 0.342891
#
# Coordination Sequence:
#
# PCOD9355743 Si02
#       3
#     8   8   8
#     4  12  26  51  84 113 159 211 270 326 398 476
#     4  12  27  50  86 121 156 208 278 327 393 492
#     4  12  29  51  81 119 162 215 266 337 405 471
#
# _framework density 23.990017000000002
#
# number of rings (size 3 to 8) (size 9 to 14) (size 15 to 20)
#    0.000    0.000    6.667    2.000    0.000    5.333 
#    0.000    0.000    0.000    0.000    0.000    0.000 
#    0.000    0.000    0.000    0.000    0.000    0.000 
#
# Total GULP energy -67228.426031 kJ/mol
# GULP energy per Si atom -5602.368836 kJ/mol
# Density = 2.393542 g / cm^3
# Si number density = 23.990017 Si / 1000 Ang^3
#
#
#
# Elastic Constant Matrix: (Units=GPa)
#
#
# Indices 1 2 3 4 5 6 
#
# 1 171.8454 67.5199 37.0769 0.0000 0.0000 0.0000
# 2 67.5199 140.9507 51.9517 0.0000 0.0000 0.0000
# 3 37.0769 51.9517 156.4197 0.0000 0.0000 0.0000
# 4 0.0000 0.0000 0.0000 21.9087 0.0000 0.0000
# 5 0.0000 0.0000 0.0000 0.0000 20.9334 0.0000
# 6 0.0000 0.0000 0.0000 0.0000 0.0000 18.1442
#
#
#
# Elastic Compliance Matrix: (Units=1/GPa)
#
#
# Indices 1 2 3 4 5 6 
#
# 1 0.007224 -0.003224 -0.000642 0.000000 0.000000 0.000000
# 2 -0.003224 0.009523 -0.002399 0.000000 0.000000 0.000000
# 3 -0.000642 -0.002399 0.007342 0.000000 0.000000 0.000000
# 4 0.000000 0.000000 0.000000 0.045644 0.000000 0.000000
# 5 0.000000 0.000000 0.000000 0.000000 0.047770 0.000000
# 6 0.000000 0.000000 0.000000 0.000000 0.000000 0.055114
#
#
# Mechanical properties :
#
#
# Convention : Reuss Voigt Hill
#
# Bulk Modulus (GPa) = 86.50161 86.92365 86.71263
# Shear Modulus (GPa) = 26.45493 33.04175 29.74834
#
# Velocity S-wave (km/s) = 3.32437 3.71524 3.52523
# Velocity P-wave (km/s) = 7.13238 7.39702 7.26591
#
# Compressibility (1/GPa) = 0.01156048
#
# Stress axis : x y z
#
# Youngs Moduli (GPa) = 138.41863 105.00521 136.20606
#
# Poissons Ratio (x) = 0.33857 0.08739
# Poissons Ratio (y) = 0.44630 0.32672
# Poissons Ratio (z) = 0.08880 0.25188
#
# Static dielectric constant tensor:
#      x y z
#    x 1.849210 0.000000 0.000000 
#    y 0.000000 1.959530 0.000000 
#    z 0.000000 0.000000 1.928000 
# 
# From -- ./inp_files/1976.got.cif
#   From: 2010.05.17/outbox.cif.g08.bks.cpg/sg37_1_cif.got.tgz:1976.got - 2010.06.03 17:53:42.
