data_PCOD9355387
_publ_section_title
;
Structure prediction by ZEFSAII (Michael W. Deem and Ramdas Pophale) SiO2 
 PCOD9355387
Probable space group: C C C 2
;
_chemical_formula_sum "Si O2"
_cell_formula_units_Z 32
_cell_length_a 7.713522
_cell_length_b 17.039590
_cell_length_c 10.909377
_cell_angle_alpha 90.000000
_cell_angle_beta 90.000000
_cell_angle_gamma 90.000000
_cell_volume 1433.876719
_symmetry_space_group_name_H-M "C C C 2"
_symmetry_group_IT_number 37
_symmetry_cell_setting 'orthorhombic'
loop_
_space_group_symop_operation_xyz
x,y,z
-x,-y,z
-x,y,1/2+z
x,-y,1/2+z
1/2+x,1/2+y,z
1/2-x,1/2-y,z
1/2-x,1/2+y,1/2+z
1/2+x,1/2-y,1/2+z
loop_
_atom_site_type_symbol
_atom_site_label
_atom_site_fract_x
_atom_site_fract_y
_atom_site_fract_z
Si Si1 0.285214 0.389882 0.457290
Si Si2 0.000000 0.000000 0.315960
Si Si3 0.819749 0.479352 0.638738
Si Si4 0.750000 0.750000 0.641787
Si Si5 0.612650 0.818203 0.219976
O O1 0.201447 0.466327 0.520572
O O2 0.462254 0.423547 0.398104
O O3 0.313798 0.321782 0.555907
O O4 0.162130 0.355549 0.351532
O O5 0.836015 0.002827 0.227189
O O6 0.840206 0.386475 0.622416
O O7 0.000000 0.500000 0.702632
O O8 0.582597 0.785405 0.711500
O O9 0.750000 0.750000 0.200400
#
# Coordination Sequence:
#
# PCOD9355387 Si02
#       5
#     8   4   8   4   8
#     4  11  25  47  75 110 146 198 252 305 386 453
#     4  10  26  44  76 106 148 190 246 308 374 446
#     4  11  24  48  72 107 146 198 250 307 367 459
#     4  12  26  50  72 106 156 190 250 316 376 444
#     4  11  27  49  73 108 151 192 253 309 374 451
#
# _framework density 22.317122000000001
#
# number of rings (size 3 to 8) (size 9 to 14) (size 15 to 20)
#    0.000    1.000    3.750    0.750   10.500    4.000 
#    2.250    2.500    0.000    0.000    0.000    0.000 
#    0.000    0.000    0.000    0.000    0.000    0.000 
#
# Total GULP energy -89406.190076 kJ/mol
# GULP energy per Si atom -5587.886880 kJ/mol
# Density = 2.226633 g / cm^3
# Si number density = 22.317122 Si / 1000 Ang^3
#
#
#
# Elastic Constant Matrix: (Units=GPa)
#
#
# Indices 1 2 3 4 5 6 
#
# 1 192.4110 77.8276 46.4210 0.0000 0.0000 0.0000
# 2 77.8276 189.0748 65.7478 0.0000 0.0000 0.0000
# 3 46.4210 65.7478 46.8406 0.0000 0.0000 0.0000
# 4 0.0000 0.0000 0.0000 33.5676 0.0000 0.0000
# 5 0.0000 0.0000 0.0000 0.0000 11.5385 0.0000
# 6 0.0000 0.0000 0.0000 0.0000 0.0000 46.6353
#
#
#
# Elastic Compliance Matrix: (Units=1/GPa)
#
#
# Indices 1 2 3 4 5 6 
#
# 1 0.006909 -0.000904 -0.005577 0.000000 0.000000 0.000000
# 2 -0.000904 0.010450 -0.013772 0.000000 0.000000 0.000000
# 3 -0.005577 -0.013772 0.046208 0.000000 0.000000 0.000000
# 4 0.000000 0.000000 0.000000 0.029791 0.000000 0.000000
# 5 0.000000 0.000000 0.000000 0.000000 0.086667 0.000000
# 6 0.000000 0.000000 0.000000 0.000000 0.000000 0.021443
#
#
# Mechanical properties :
#
#
# Convention : Reuss Voigt Hill
#
# Bulk Modulus (GPa) = 43.36750 89.81326 66.59038
# Shear Modulus (GPa) = 20.02717 34.23694 27.13205
#
# Velocity S-wave (km/s) = 2.99890 3.92102 3.49054
# Velocity P-wave (km/s) = 5.60943 7.79940 6.79325
#
# Compressibility (1/GPa) = 0.02305874
#
# Stress axis : x y z
#
# Youngs Moduli (GPa) = 144.74760 95.69180 21.64137
#
# Poissons Ratio (x) = 0.08653 0.12070
# Poissons Ratio (y) = 0.13089 0.29805
# Poissons Ratio (z) = 0.80731 1.31789
#
# Static dielectric constant tensor:
#      x y z
#    x 1.822040 0.000000 0.000000 
#    y 0.000000 1.886680 0.000000 
#    z 0.000000 0.000000 1.870440 
# 
# From -- ./inp_files/5376.got.cif
#   From: 2010.05.17/outbox.cif.g08.bks.cpg/sg37_3_cif.got.tgz:5376.got - 2010.06.03 17:53:42.
