data_PCOD9355275
_publ_section_title
;
Structure prediction by ZEFSAII (Michael W. Deem and Ramdas Pophale) SiO2 
 PCOD9355275
Probable space group: C C C 2
;
_chemical_formula_sum "Si O2"
_cell_formula_units_Z 40
_cell_length_a 4.803265
_cell_length_b 17.137229
_cell_length_c 19.365774
_cell_angle_alpha 90.000000
_cell_angle_beta 90.000000
_cell_angle_gamma 90.000000
_cell_volume 1594.086952
_symmetry_space_group_name_H-M "C C C 2"
_symmetry_group_IT_number 37
_symmetry_cell_setting 'orthorhombic'
loop_
_space_group_symop_operation_xyz
x,y,z
-x,-y,z
-x,y,1/2+z
x,-y,1/2+z
1/2+x,1/2+y,z
1/2-x,1/2-y,z
1/2-x,1/2+y,1/2+z
1/2+x,1/2-y,1/2+z
loop_
_atom_site_type_symbol
_atom_site_label
_atom_site_fract_x
_atom_site_fract_y
_atom_site_fract_z
Si Si1 0.750000 0.250000 0.459220
Si Si2 0.905262 0.621557 0.385023
Si Si3 0.372950 0.622062 0.570615
Si Si4 0.599654 0.414226 0.291362
Si Si5 0.853663 0.661532 0.656377
Si Si6 0.500000 0.000000 0.495102
O O1 0.971249 0.297293 0.413438
O O2 0.614791 0.312894 0.510662
O O3 0.166910 0.578876 0.349543
O O4 0.837372 0.564292 0.448308
O O5 0.659619 0.627479 0.329221
O O6 0.674571 0.611539 0.602211
O O7 0.220167 0.548861 0.538534
O O8 0.172757 0.651769 0.633807
O O9 0.500000 0.500000 0.268025
O O10 0.755180 0.368148 0.230738
O O11 0.750000 0.750000 0.648126
#
# Coordination Sequence:
#
# PCOD9355275 Si02
#       6
#     4   8   8   8   8   4
#     4  10  24  46  72 106 140 188 232 304 366 442
#     4  11  25  46  71 104 143 185 242 299 369 431
#     4  11  25  44  73 104 142 182 240 297 369 428
#     4  12  26  46  71 101 143 189 247 300 358 434
#     4  12  26  47  69 102 143 190 242 296 356 436
#     4  10  24  44  74 104 142 184 232 304 372 438
#
# _framework density 25.092732999999999
#
# number of rings (size 3 to 8) (size 9 to 14) (size 15 to 20)
#    0.000    0.800    4.000    1.200    4.200   10.400 
#    0.000    0.000    0.000    0.000    0.000    0.000 
#    0.000    0.000    0.000    0.000    0.000    0.000 
#
# Total GULP energy -112197.010758 kJ/mol
# GULP energy per Si atom -5609.850538 kJ/mol
# Density = 2.503562 g / cm^3
# Si number density = 25.092733 Si / 1000 Ang^3
#
#
#
# Elastic Constant Matrix: (Units=GPa)
#
#
# Indices 1 2 3 4 5 6 
#
# 1 114.2502 19.0031 24.6996 0.0000 0.0000 0.0000
# 2 19.0031 133.1801 46.9878 0.0000 0.0000 0.0000
# 3 24.6996 46.9878 93.8212 0.0000 0.0000 0.0000
# 4 0.0000 0.0000 0.0000 25.3341 0.0000 0.0000
# 5 0.0000 0.0000 0.0000 0.0000 12.7186 0.0000
# 6 0.0000 0.0000 0.0000 0.0000 0.0000 39.0566
#
#
#
# Elastic Compliance Matrix: (Units=1/GPa)
#
#
# Indices 1 2 3 4 5 6 
#
# 1 0.009316 -0.000564 -0.002170 0.000000 0.000000 0.000000
# 2 -0.000564 0.009154 -0.004436 0.000000 0.000000 0.000000
# 3 -0.002170 -0.004436 0.013452 0.000000 0.000000 0.000000
# 4 0.000000 0.000000 0.000000 0.039473 0.000000 0.000000
# 5 0.000000 0.000000 0.000000 0.000000 0.078625 0.000000
# 6 0.000000 0.000000 0.000000 0.000000 0.000000 0.025604
#
#
# Mechanical properties :
#
#
# Convention : Reuss Voigt Hill
#
# Bulk Modulus (GPa) = 56.87808 58.07027 57.47418
# Shear Modulus (GPa) = 25.53317 32.12591 28.82954
#
# Velocity S-wave (km/s) = 3.19337 3.58199 3.39325
# Velocity P-wave (km/s) = 6.02604 6.34823 6.18923
#
# Compressibility (1/GPa) = 0.01758146
#
# Stress axis : x y z
#
# Youngs Moduli (GPa) = 107.34647 109.23916 74.33998
#
# Poissons Ratio (x) = 0.06156 0.16133
# Poissons Ratio (y) = 0.06049 0.32979
# Poissons Ratio (z) = 0.23297 0.48462
#
# Static dielectric constant tensor:
#      x y z
#    x 1.924560 0.000000 0.000000 
#    y 0.000000 1.999410 0.000000 
#    z 0.000000 0.000000 1.995660 
# 
# From -- ./inp_files/13764.got.cif
#   From: 2010.05.17/outbox.cif.g08.bks.cpg/sg37_7_cif.got.tgz:13764.got - 2010.06.03 17:53:42.
