data_PCOD9355480
_publ_section_title
;
Structure prediction by ZEFSAII (Michael W. Deem and Ramdas Pophale) SiO2 
 PCOD9355480
Probable space group: C C C 2
;
_chemical_formula_sum "Si O2"
_cell_formula_units_Z 48
_cell_length_a 9.470433
_cell_length_b 17.881381
_cell_length_c 13.553668
_cell_angle_alpha 90.000000
_cell_angle_beta 90.000000
_cell_angle_gamma 90.000000
_cell_volume 2295.238056
_symmetry_space_group_name_H-M "C C C 2"
_symmetry_group_IT_number 37
_symmetry_cell_setting 'orthorhombic'
loop_
_space_group_symop_operation_xyz
x,y,z
-x,-y,z
-x,y,1/2+z
x,-y,1/2+z
1/2+x,1/2+y,z
1/2-x,1/2-y,z
1/2-x,1/2+y,1/2+z
1/2+x,1/2-y,1/2+z
loop_
_atom_site_type_symbol
_atom_site_label
_atom_site_fract_x
_atom_site_fract_y
_atom_site_fract_z
Si Si1 0.380154 0.562426 0.140720
Si Si2 0.587443 0.669997 0.046486
Si Si3 0.724658 0.834352 0.351617
Si Si4 0.400561 0.933715 0.025387
Si Si5 0.619112 0.165662 0.633750
Si Si6 0.975031 0.085886 0.353670
O O1 0.500000 0.500000 0.128004
O O2 0.444209 0.636102 0.090145
O O3 0.376800 0.577543 0.257604
O O4 0.238000 0.541333 0.085175
O O5 0.592715 0.757028 0.074545
O O6 0.727644 0.637850 0.097908
O O7 0.589895 0.641218 0.934646
O O8 0.750000 0.750000 0.388989
O O9 0.646794 0.882427 0.434423
O O10 0.636125 0.824540 0.250751
O O11 0.872680 0.877015 0.328375
O O12 0.500000 0.000000 0.988130
O O13 0.495501 0.888750 0.103130
O O14 0.000000 0.000000 0.390212
#
# Coordination Sequence:
#
# PCOD9355480 Si02
#       6
#     8   8   8   8   8   8
#     4  11  23  44  70 100 144 190 244 289 361 428
#     4  11  21  44  71  99 137 190 240 291 355 433
#     4  12  24  49  73 103 145 198 244 296 370 431
#     4  12  29  43  72 110 151 187 238 311 362 436
#     4  11  25  44  72 103 146 185 237 306 373 420
#     4  11  24  40  78 103 132 193 251 294 346 444
#
# _framework density 20.912863999999999
#
# number of rings (size 3 to 8) (size 9 to 14) (size 15 to 20)
#    0.000    0.667    5.000    2.500    4.667    2.000 
#    0.000    1.667    0.000    0.000    0.000    0.000 
#    0.000    0.000    0.000    0.000    0.000    0.000 
#
# Total GULP energy -134154.431810 kJ/mol
# GULP energy per Si atom -5589.767992 kJ/mol
# Density = 2.086526 g / cm^3
# Si number density = 20.912864 Si / 1000 Ang^3
#
#
#
# Elastic Constant Matrix: (Units=GPa)
#
#
# Indices 1 2 3 4 5 6 
#
# 1 91.3747 44.7408 38.7169 0.0000 0.0000 0.0000
# 2 44.7408 132.7260 51.1714 0.0000 0.0000 0.0000
# 3 38.7169 51.1714 148.2708 0.0000 0.0000 0.0000
# 4 0.0000 0.0000 0.0000 15.8021 0.0000 0.0000
# 5 0.0000 0.0000 0.0000 0.0000 33.6929 0.0000
# 6 0.0000 0.0000 0.0000 0.0000 0.0000 32.4163
#
#
#
# Elastic Compliance Matrix: (Units=1/GPa)
#
#
# Indices 1 2 3 4 5 6 
#
# 1 0.013754 -0.003751 -0.002297 0.000000 0.000000 0.000000
# 2 -0.003751 0.009714 -0.002373 0.000000 0.000000 0.000000
# 3 -0.002297 -0.002373 0.008163 0.000000 0.000000 0.000000
# 4 0.000000 0.000000 0.000000 0.063283 0.000000 0.000000
# 5 0.000000 0.000000 0.000000 0.000000 0.029680 0.000000
# 6 0.000000 0.000000 0.000000 0.000000 0.000000 0.030849
#
#
# Mechanical properties :
#
#
# Convention : Reuss Voigt Hill
#
# Bulk Modulus (GPa) = 67.61701 71.29219 69.45460
# Shear Modulus (GPa) = 28.21472 32.23175 30.22323
#
# Velocity S-wave (km/s) = 3.67707 3.93012 3.80570
# Velocity P-wave (km/s) = 7.10146 7.39991 7.25222
#
# Compressibility (1/GPa) = 0.01478918
#
# Stress axis : x y z
#
# Youngs Moduli (GPa) = 72.70776 102.94938 122.50148
#
# Poissons Ratio (x) = 0.38613 0.28138
# Poissons Ratio (y) = 0.27270 0.29069
# Poissons Ratio (z) = 0.16701 0.24429
#
# Static dielectric constant tensor:
#      x y z
#    x 1.745510 0.000000 0.000000 
#    y 0.000000 1.758790 0.000000 
#    z 0.000000 0.000000 1.765060 
# 
# From -- ./inp_files/10586.got.cif
#   From: 2010.05.17/outbox.cif.g08.bks.cpg/sg37_6_cif.got.tgz:10586.got - 2010.06.03 17:53:42.
