data_PCOD9355140
_publ_section_title
;
Structure prediction by ZEFSAII (Michael W. Deem and Ramdas Pophale) SiO2 
 PCOD9355140
Probable space group: C C C 2
;
_chemical_formula_sum "Si O2"
_cell_formula_units_Z 60
_cell_length_a 8.995311
_cell_length_b 25.501803
_cell_length_c 10.812706
_cell_angle_alpha 90.000000
_cell_angle_beta 90.000000
_cell_angle_gamma 90.000000
_cell_volume 2480.398524
_symmetry_space_group_name_H-M "C C C 2"
_symmetry_group_IT_number 37
_symmetry_cell_setting 'orthorhombic'
loop_
_space_group_symop_operation_xyz
x,y,z
-x,-y,z
-x,y,1/2+z
x,-y,1/2+z
1/2+x,1/2+y,z
1/2-x,1/2-y,z
1/2-x,1/2+y,1/2+z
1/2+x,1/2-y,1/2+z
loop_
_atom_site_type_symbol
_atom_site_label
_atom_site_fract_x
_atom_site_fract_y
_atom_site_fract_z
Si Si1 0.500000 0.500000 0.721720
Si Si2 0.311369 0.878482 0.621727
Si Si3 0.109827 0.783862 0.561556
Si Si4 0.394440 0.144441 0.747664
Si Si5 0.277975 0.432246 0.582403
Si Si6 0.394357 0.295628 0.786370
Si Si7 0.478268 0.943594 0.436518
Si Si8 0.405283 0.604760 0.843920
O O1 0.369525 0.480490 0.633254
O O2 0.464898 0.548200 0.808954
O O3 0.188303 0.841607 0.557025
O O4 0.468595 0.849239 0.651792
O O5 0.352404 0.929857 0.540635
O O6 0.236998 0.889668 0.754333
O O7 0.250000 0.750000 0.607799
O O8 0.072185 0.768617 0.420042
O O9 0.975637 0.778247 0.659066
O O10 0.280119 0.102439 0.693117
O O11 0.283535 0.193208 0.772371
O O12 0.463442 0.110415 0.859454
O O13 0.369376 0.395839 0.488284
O O14 0.131263 0.447318 0.509900
O O15 0.480532 0.350572 0.808878
O O16 0.500000 0.000000 0.364851
#
# Coordination Sequence:
#
# PCOD9355140 Si02
#       8
#     4   8   8   8   8   8   8   8
#     4  12  24  36  62  94 144 192 260 296 358 414
#     4  10  23  44  67  96 144 188 236 303 371 438
#     4  11  26  50  79 114 142 186 244 314 388 464
#     4  11  22  42  67 100 135 195 236 298 366 434
#     4  11  24  38  58  93 132 187 250 293 351 418
#     4  11  24  47  77 105 148 186 244 305 379 451
#     4  11  23  38  65  95 141 187 246 293 352 430
#     4  11  23  41  61  96 137 193 239 303 356 431
#
# _framework density 24.189661999999998
#
# number of rings (size 3 to 8) (size 9 to 14) (size 15 to 20)
#    0.000    1.067    4.000    2.000    3.733    4.267 
#    0.000    0.667    0.000    0.000    0.000    0.000 
#    0.000    0.000    0.000    0.000    0.000    0.000 
#
# Total GULP energy -167425.507004 kJ/mol
# GULP energy per Si atom -5580.850233 kJ/mol
# Density = 2.413460 g / cm^3
# Si number density = 24.189662 Si / 1000 Ang^3
#
#
#
# Elastic Constant Matrix: (Units=GPa)
#
#
# Indices 1 2 3 4 5 6 
#
# 1 85.4067 23.6436 32.9889 0.0000 0.0000 0.0000
# 2 23.6436 51.3567 13.6242 0.0000 0.0000 0.0000
# 3 32.9889 13.6242 77.0604 0.0000 0.0000 0.0000
# 4 0.0000 0.0000 0.0000 25.6679 0.0000 0.0000
# 5 0.0000 0.0000 0.0000 0.0000 38.4596 0.0000
# 6 0.0000 0.0000 0.0000 0.0000 0.0000 45.1354
#
#
#
# Elastic Compliance Matrix: (Units=1/GPa)
#
#
# Indices 1 2 3 4 5 6 
#
# 1 0.015431 -0.005615 -0.005613 0.000000 0.000000 0.000000
# 2 -0.005615 0.022473 -0.001569 0.000000 0.000000 0.000000
# 3 -0.005613 -0.001569 0.015657 0.000000 0.000000 0.000000
# 4 0.000000 0.000000 0.000000 0.038959 0.000000 0.000000
# 5 0.000000 0.000000 0.000000 0.000000 0.026001 0.000000
# 6 0.000000 0.000000 0.000000 0.000000 0.000000 0.022156
#
#
# Mechanical properties :
#
#
# Convention : Reuss Voigt Hill
#
# Bulk Modulus (GPa) = 35.75765 39.37080 37.56422
# Shear Modulus (GPa) = 28.47453 31.42370 29.94911
#
# Velocity S-wave (km/s) = 3.43466 3.60815 3.52248
# Velocity P-wave (km/s) = 5.52662 5.80255 5.66626
#
# Compressibility (1/GPa) = 0.02796604
#
# Stress axis : x y z
#
# Youngs Moduli (GPa) = 64.80328 44.49763 63.86794
#
# Poissons Ratio (x) = 0.24986 0.35851
# Poissons Ratio (y) = 0.36388 0.10024
# Poissons Ratio (z) = 0.36376 0.06984
#
# Static dielectric constant tensor:
#      x y z
#    x 1.947800 0.000000 0.000000 
#    y 0.000000 2.070110 0.000000 
#    z 0.000000 0.000000 1.953260 
# 
# From -- ./inp_files/6536.got.cif
#   From: 2010.05.17/outbox.cif.g08.bks.cpg/sg37_4_cif.got.tgz:6536.got - 2010.06.03 17:53:42.
