data_PCOD9355986
_publ_section_title
;
Structure prediction by ZEFSAII (Michael W. Deem and Ramdas Pophale) SiO2 
 PCOD9355986
Probable space group: A M M 2
;
_chemical_formula_sum "Si O2"
_cell_formula_units_Z 48
_cell_length_a 13.136190
_cell_length_b 7.424003
_cell_length_c 24.431249
_cell_angle_alpha 90.000000
_cell_angle_beta 90.000000
_cell_angle_gamma 90.000000
_cell_volume 2382.611481
_symmetry_space_group_name_H-M "A M M 2"
_symmetry_group_IT_number 38
_symmetry_cell_setting 'orthorhombic'
loop_
_space_group_symop_operation_xyz
x,y,z
-x,-y,z
-x,y,z
x,-y,z
x,1/2+y,1/2+z
-x,1/2-y,1/2+z
-x,1/2+y,1/2+z
x,1/2-y,1/2+z
loop_
_atom_site_type_symbol
_atom_site_label
_atom_site_fract_x
_atom_site_fract_y
_atom_site_fract_z
Si Si1 0.684894 0.213113 0.417950
Si Si2 0.618649 0.219808 0.299175
Si Si3 0.500000 0.282085 0.992856
Si Si4 0.500000 0.788669 0.120860
Si Si5 0.116032 0.719592 0.608605
Si Si6 0.700067 0.220543 0.183312
Si Si7 0.885016 0.716362 0.484423
O O1 0.664921 0.282704 0.356810
O O2 0.600199 0.282712 0.460522
O O3 0.797314 0.236793 0.441860
O O4 0.666176 0.000000 0.414452
O O5 0.500000 0.273040 0.294896
O O6 0.681052 0.276951 0.245702
O O7 0.619250 0.000000 0.298843
O O8 0.500000 0.500000 0.992490
O O9 0.500000 0.228695 0.055888
O O10 0.397118 0.717484 0.147996
O O11 0.500000 0.000000 0.134578
O O12 0.117387 0.500000 0.608473
O O13 0.197709 0.780474 0.652963
O O14 0.141795 0.776674 0.546336
O O15 0.000000 0.774523 0.620024
O O16 0.702176 0.000000 0.182896
O O17 0.889037 0.500000 0.486203
O O18 0.000000 0.779794 0.471579
#
# Coordination Sequence:
#
# PCOD9355986 Si02
#       7
#     8   8   4   4   8   8   8
#     4  10  19  31  48  69  95 128 164 196 230 280
#     4   9  15  27  44  63  91 127 158 186 230 283
#     4  10  20  31  43  65  99 132 155 188 242 288
#     4  10  18  27  45  71  91 112 153 202 236 278
#     4   8  14  25  41  62  90 120 146 180 232 284
#     4   9  15  24  42  68  91 114 150 192 233 275
#     4   9  18  33  51  70  96 128 157 193 243 288
#
# _framework density 20.145963999999999
#
# number of rings (size 3 to 8) (size 9 to 14) (size 15 to 20)
#    0.000    2.833    1.667    2.000    0.000    2.333 
#    0.000    0.833    0.000    4.000    0.000    0.000 
#    0.000    0.000    0.000    0.000    0.000    0.000 
#
# Total GULP energy -133945.295107 kJ/mol
# GULP energy per Si atom -5581.053963 kJ/mol
# Density = 2.010011 g / cm^3
# Si number density = 20.145964 Si / 1000 Ang^3
#
#
#
# Elastic Constant Matrix: (Units=GPa)
#
#
# Indices 1 2 3 4 5 6 
#
# 1 131.1749 -7.9070 91.9997 0.0000 0.0000 0.0000
# 2 -7.9070 58.1231 -9.9542 0.0000 0.0000 0.0000
# 3 91.9997 -9.9542 160.3652 0.0000 0.0000 0.0000
# 4 0.0000 0.0000 0.0000 12.7268 0.0000 0.0000
# 5 0.0000 0.0000 0.0000 0.0000 29.0148 0.0000
# 6 0.0000 0.0000 0.0000 0.0000 0.0000 -1.5822
#
#
#
# Elastic Compliance Matrix: (Units=1/GPa)
#
#
# Indices 1 2 3 4 5 6 
#
# 1 0.012769 0.000488 -0.007295 0.000000 0.000000 0.000000
# 2 0.000488 0.017408 0.000801 0.000000 0.000000 0.000000
# 3 -0.007295 0.000801 0.010471 0.000000 0.000000 0.000000
# 4 0.000000 0.000000 0.000000 0.078574 0.000000 0.000000
# 5 0.000000 0.000000 0.000000 0.000000 0.034465 0.000000
# 6 0.000000 0.000000 0.000000 0.000000 0.000000 -0.632018
#
#
# Mechanical properties :
#
#
# Convention : Reuss Voigt Hill
#
# Bulk Modulus (GPa) = 34.92260 55.32669 45.12465
# Shear Modulus (GPa) = -10.94640 26.40020 7.72690
#
# Velocity S-wave (km/s) = -2.33353 3.62394 1.96056
# Velocity P-wave (km/s) = 3.17993 6.71067 5.25095
#
# Compressibility (1/GPa) = 0.02863475
#
# Stress axis : x y z
#
# Youngs Moduli (GPa) = 78.31182 57.44364 95.50390
#
# Poissons Ratio (x) = -0.02802 0.69674
# Poissons Ratio (y) = -0.03820 -0.07648
# Poissons Ratio (z) = 0.57132 -0.04600
#
# Static dielectric constant tensor:
#      x y z
#    x 1.690230 0.000000 0.000000 
#    y 0.000000 1.809880 0.000000 
#    z 0.000000 0.000000 1.684160 
# 
# From -- ./inp_files/20620.got.cif
#   From: 2010.05.17/outbox.cif.g08.bks.cpg/sg38_11_cif.got.tgz:20620.got - 2010.06.03 18:07:57.
