data_PCOD9355180
_publ_section_title
;
Structure prediction by ZEFSAII (Michael W. Deem and Ramdas Pophale) SiO2 
 PCOD9355180
Probable space group: C C C 2
;
_chemical_formula_sum "Si O2"
_cell_formula_units_Z 48
_cell_length_a 11.600647
_cell_length_b 7.930601
_cell_length_c 21.235038
_cell_angle_alpha 90.000000
_cell_angle_beta 90.000000
_cell_angle_gamma 90.000000
_cell_volume 1953.625677
_symmetry_space_group_name_H-M "C C C 2"
_symmetry_group_IT_number 37
_symmetry_cell_setting 'orthorhombic'
loop_
_space_group_symop_operation_xyz
x,y,z
-x,-y,z
-x,y,1/2+z
x,-y,1/2+z
1/2+x,1/2+y,z
1/2-x,1/2-y,z
1/2-x,1/2+y,1/2+z
1/2+x,1/2-y,1/2+z
loop_
_atom_site_type_symbol
_atom_site_label
_atom_site_fract_x
_atom_site_fract_y
_atom_site_fract_z
Si Si1 0.082223 0.152994 0.573300
Si Si2 0.500000 0.000000 0.008279
Si Si3 0.751040 0.063571 0.500600
Si Si4 0.750000 0.250000 0.275035
Si Si5 0.957190 0.672146 0.698594
Si Si6 0.083571 0.656456 0.826725
Si Si7 0.666204 0.509243 0.366782
O O1 0.034762 0.325591 0.543369
O O2 0.068338 0.184900 0.647803
O O3 0.204614 0.079278 0.548829
O O4 0.000000 0.000000 0.554481
O O5 0.621389 0.964456 0.975866
O O6 0.750000 0.250000 0.530185
O O7 0.826699 0.053998 0.437856
O O8 0.834259 0.359371 0.231910
O O9 0.662409 0.354844 0.318373
O O10 0.000000 0.500000 0.666583
O O11 0.051073 0.702312 0.753883
O O12 0.210488 0.587356 0.843634
O O13 0.078114 0.835436 0.862506
O O14 0.000000 0.500000 0.842271
#
# Coordination Sequence:
#
# PCOD9355180 Si02
#       7
#     8   4   8   4   8   8   8
#     4  12  28  51  76 114 157 220 267 325 404 476
#     4  12  28  50  80 106 154 208 262 336 382 472
#     4  12  28  52  75 116 159 209 272 329 408 489
#     4  12  24  44  74 116 146 196 256 328 410 470
#     4  11  25  48  74 110 158 199 262 326 394 480
#     4  10  23  47  68 108 154 198 252 317 404 467
#     4  11  25  45  77 112 151 201 259 329 400 489
#
# _framework density 24.569704000000002
#
# number of rings (size 3 to 8) (size 9 to 14) (size 15 to 20)
#    0.000    0.667    6.667    0.500   10.500    0.000 
#    3.000    0.000    0.000    0.000    0.000    0.000 
#    0.000    0.000    0.000    0.000    0.000    0.000 
#
# Total GULP energy -134021.712806 kJ/mol
# GULP energy per Si atom -5584.238034 kJ/mol
# Density = 2.451378 g / cm^3
# Si number density = 24.569704 Si / 1000 Ang^3
#
#
#
# Elastic Constant Matrix: (Units=GPa)
#
#
# Indices 1 2 3 4 5 6 
#
# 1 112.0689 37.7501 32.2164 0.0000 0.0000 0.0000
# 2 37.7501 182.7029 51.1465 0.0000 0.0000 0.0000
# 3 32.2164 51.1465 94.4337 0.0000 0.0000 0.0000
# 4 0.0000 0.0000 0.0000 69.0775 0.0000 0.0000
# 5 0.0000 0.0000 0.0000 0.0000 9.3911 0.0000
# 6 0.0000 0.0000 0.0000 0.0000 0.0000 48.0079
#
#
#
# Elastic Compliance Matrix: (Units=1/GPa)
#
#
# Indices 1 2 3 4 5 6 
#
# 1 0.010161 -0.001331 -0.002746 0.000000 0.000000 0.000000
# 2 -0.001331 0.006626 -0.003135 0.000000 0.000000 0.000000
# 3 -0.002746 -0.003135 0.013224 0.000000 0.000000 0.000000
# 4 0.000000 0.000000 0.000000 0.014476 0.000000 0.000000
# 5 0.000000 0.000000 0.000000 0.000000 0.106484 0.000000
# 6 0.000000 0.000000 0.000000 0.000000 0.000000 0.020830
#
#
# Mechanical properties :
#
#
# Convention : Reuss Voigt Hill
#
# Bulk Modulus (GPa) = 64.15045 70.15903 67.15474
# Shear Modulus (GPa) = 26.12076 43.16813 34.64445
#
# Velocity S-wave (km/s) = 3.26410 4.19617 3.75913
# Velocity P-wave (km/s) = 6.35390 7.21763 6.79949
#
# Compressibility (1/GPa) = 0.01558836
#
# Stress axis : x y z
#
# Youngs Moduli (GPa) = 98.41920 150.92381 75.62085
#
# Poissons Ratio (x) = 0.20085 0.20762
# Poissons Ratio (y) = 0.13097 0.23704
# Poissons Ratio (z) = 0.27022 0.47309
#
# Static dielectric constant tensor:
#      x y z
#    x 2.036710 0.000000 0.000000 
#    y 0.000000 1.695990 0.000000 
#    z 0.000000 0.000000 1.926900 
# 
# From -- ./inp_files/18669.got.cif
#   From: 2010.05.17/outbox.cif.g08.bks.cpg/sg37_10_cif.got.tgz:18669.got - 2010.06.03 17:53:42.
