data_PCOD9355406
_publ_section_title
;
Structure prediction by ZEFSAII (Michael W. Deem and Ramdas Pophale) SiO2 
 PCOD9355406
Probable space group: C C C 2
;
_chemical_formula_sum "Si O2"
_cell_formula_units_Z 36
_cell_length_a 8.921436
_cell_length_b 18.703900
_cell_length_c 8.223392
_cell_angle_alpha 90.000000
_cell_angle_beta 90.000000
_cell_angle_gamma 90.000000
_cell_volume 1372.201625
_symmetry_space_group_name_H-M "C C C 2"
_symmetry_group_IT_number 37
_symmetry_cell_setting 'orthorhombic'
loop_
_space_group_symop_operation_xyz
x,y,z
-x,-y,z
-x,y,1/2+z
x,-y,1/2+z
1/2+x,1/2+y,z
1/2-x,1/2-y,z
1/2-x,1/2+y,1/2+z
1/2+x,1/2-y,1/2+z
loop_
_atom_site_type_symbol
_atom_site_label
_atom_site_fract_x
_atom_site_fract_y
_atom_site_fract_z
Si Si1 0.054491 0.627465 0.313400
Si Si2 0.730886 0.898646 0.478847
Si Si3 0.442627 0.709210 0.820924
Si Si4 0.000000 0.000000 0.543171
Si Si5 0.330067 0.633811 0.524054
O O1 0.145125 0.606925 0.151342
O O2 0.164360 0.617496 0.467394
O O3 0.898185 0.587799 0.346026
O O4 0.004432 0.710783 0.322150
O O5 0.817877 0.823495 0.444239
O O6 0.858041 0.958870 0.465814
O O7 0.366709 0.696733 0.647426
O O8 0.583882 0.657953 0.860050
O O9 0.911043 0.067493 0.611975
#
# Coordination Sequence:
#
# PCOD9355406 Si02
#       5
#     8   8   8   4   8
#     4  12  25  45  74 111 143 190 251 312 372 438
#     4  11  26  47  76 106 151 195 245 312 369 453
#     4  11  24  44  69 107 147 188 238 305 388 446
#     4  10  26  50  72 106 146 202 254 296 386 444
#     4  11  24  43  73 102 146 192 241 309 366 451
#
# _framework density 26.235211
#
# number of rings (size 3 to 8) (size 9 to 14) (size 15 to 20)
#    0.000    0.889    0.000    6.667    0.000   14.222 
#    0.000    4.444    0.000    1.333    0.000    0.000 
#    0.000    0.000    0.000    0.000    0.000    0.000 
#
# Total GULP energy -100620.041883 kJ/mol
# GULP energy per Si atom -5590.002327 kJ/mol
# Density = 2.617550 g / cm^3
# Si number density = 26.235211 Si / 1000 Ang^3
#
#
#
# Elastic Constant Matrix: (Units=GPa)
#
#
# Indices 1 2 3 4 5 6 
#
# 1 211.6062 51.8941 67.7622 0.0000 0.0000 0.0000
# 2 51.8941 97.9117 27.1064 0.0000 0.0000 0.0000
# 3 67.7622 27.1064 144.5709 0.0000 0.0000 0.0000
# 4 0.0000 0.0000 0.0000 -870.3686 0.0000 0.0000
# 5 0.0000 0.0000 0.0000 0.0000 39.3020 0.0000
# 6 0.0000 0.0000 0.0000 0.0000 0.0000 60.9995
#
#
#
# Elastic Compliance Matrix: (Units=1/GPa)
#
#
# Indices 1 2 3 4 5 6 
#
# 1 0.006124 -0.002585 -0.002386 0.000000 0.000000 0.000000
# 2 -0.002585 0.011864 -0.001013 0.000000 0.000000 0.000000
# 3 -0.002386 -0.001013 0.008225 0.000000 0.000000 0.000000
# 4 0.000000 0.000000 0.000000 -0.001149 0.000000 0.000000
# 5 0.000000 0.000000 0.000000 0.000000 0.025444 0.000000
# 6 0.000000 0.000000 0.000000 0.000000 0.000000 0.016394
#
#
# Mechanical properties :
#
#
# Convention : Reuss Voigt Hill
#
# Bulk Modulus (GPa) = 70.19674 83.06825 76.63250
# Shear Modulus (GPa) = 59.79681 -133.52501 -36.86410
#
# Velocity S-wave (km/s) = 4.77934 -7.14184 -3.75258
# Velocity P-wave (km/s) = 7.56775 6.02297 3.23996
#
# Compressibility (1/GPa) = 0.01424568
#
# Stress axis : x y z
#
# Youngs Moduli (GPa) = 163.30116 84.28995 121.58012
#
# Poissons Ratio (x) = 0.21790 0.29003
# Poissons Ratio (y) = 0.42216 0.12313
# Poissons Ratio (z) = 0.38956 0.08536
#
# Static dielectric constant tensor:
#      x y z
#    x 2.043400 0.000000 0.000000 
#    y 0.000000 2.554750 0.000000 
#    z 0.000000 0.000000 2.102270 
# 
# From -- ./inp_files/2112.got.cif
#   From: 2010.05.17/outbox.cif.g08.bks.cpg/sg37_2_cif.got.tgz:2112.got - 2010.06.03 17:53:42.
