data_PCOD9355942
_publ_section_title
;
Structure prediction by ZEFSAII (Michael W. Deem and Ramdas Pophale) SiO2 
 PCOD9355942
Probable space group: A M M 2
;
_chemical_formula_sum "Si O2"
_cell_formula_units_Z 48
_cell_length_a 7.566589
_cell_length_b 19.235343
_cell_length_c 15.034348
_cell_angle_alpha 90.000000
_cell_angle_beta 90.000000
_cell_angle_gamma 90.000000
_cell_volume 2188.188233
_symmetry_space_group_name_H-M "A M M 2"
_symmetry_group_IT_number 38
_symmetry_cell_setting 'orthorhombic'
loop_
_space_group_symop_operation_xyz
x,y,z
-x,-y,z
-x,y,z
x,-y,z
x,1/2+y,1/2+z
-x,1/2-y,1/2+z
-x,1/2+y,1/2+z
x,1/2-y,1/2+z
loop_
_atom_site_type_symbol
_atom_site_label
_atom_site_fract_x
_atom_site_fract_y
_atom_site_fract_z
Si Si1 0.785673 0.075124 0.277250
Si Si2 0.784933 0.500000 0.442670
Si Si3 0.794059 0.347910 0.193088
Si Si4 0.216008 0.000000 0.737236
Si Si5 0.787205 0.114961 0.078400
Si Si6 0.794605 0.727494 0.823343
Si Si7 0.298935 0.765127 0.523952
O O1 0.748464 0.079306 0.172046
O O2 0.719558 0.149268 0.313615
O O3 0.000000 0.074481 0.288805
O O4 0.721503 0.000000 0.311935
O O5 0.734705 0.500000 0.340935
O O6 0.726523 0.567538 0.496940
O O7 0.000000 0.500000 0.445694
O O8 0.720402 0.426024 0.199162
O O9 0.718345 0.289219 0.261180
O O10 0.000000 0.354096 0.219197
O O11 0.783204 0.319205 0.093074
O O12 0.000000 0.000000 0.729054
O O13 0.000000 0.122113 0.073395
O O14 0.709575 0.191190 0.072808
O O15 0.787635 0.744659 0.927601
O O16 0.000000 0.721442 0.794739
O O17 0.500000 0.785735 0.508134
#
# Coordination Sequence:
#
# PCOD9355942 Si02
#       7
#     8   4   8   4   8   8   8
#     4   9  16  30  56  90 116 138 178 236 291 334
#     4   9  16  28  57  94 119 138 174 238 300 348
#     4  10  20  39  64  87 113 147 192 243 290 339
#     4   9  18  32  55  90 117 138 182 242 294 336
#     4  10  17  32  59  88 116 145 184 232 286 344
#     4  10  20  37  62  86 113 149 193 241 287 341
#     4  12  25  38  55  82 118 159 198 234 281 342
#
# _framework density 21.935955
#
# number of rings (size 3 to 8) (size 9 to 14) (size 15 to 20)
#    0.000    2.000    2.500    2.500    0.000    3.333 
#    1.500    0.833    0.000    2.000    0.000    0.000 
#    0.000    0.000    0.000    0.000    0.000    0.000 
#
# Total GULP energy -133939.755582 kJ/mol
# GULP energy per Si atom -5580.823149 kJ/mol
# Density = 2.188603 g / cm^3
# Si number density = 21.935955 Si / 1000 Ang^3
#
#
#
# Elastic Constant Matrix: (Units=GPa)
#
#
# Indices 1 2 3 4 5 6 
#
# 1 43.6019 15.3998 -4.1673 0.0000 0.0000 0.0000
# 2 15.3998 174.0657 29.1381 0.0000 0.0000 0.0000
# 3 -4.1673 29.1381 55.0518 0.0000 0.0000 0.0000
# 4 0.0000 0.0000 0.0000 28.2211 0.0000 0.0000
# 5 0.0000 0.0000 0.0000 0.0000 -50.4058 0.0000
# 6 0.0000 0.0000 0.0000 0.0000 0.0000-1459.8796
#
#
#
# Elastic Compliance Matrix: (Units=1/GPa)
#
#
# Indices 1 2 3 4 5 6 
#
# 1 0.024194 -0.002685 0.003253 0.000000 0.000000 0.000000
# 2 -0.002685 0.006601 -0.003697 0.000000 0.000000 0.000000
# 3 0.003253 -0.003697 0.020368 0.000000 0.000000 0.000000
# 4 0.000000 0.000000 0.000000 0.035435 0.000000 0.000000
# 5 0.000000 0.000000 0.000000 0.000000 -0.019839 0.000000
# 6 0.000000 0.000000 0.000000 0.000000 0.000000 -0.000685
#
#
# Mechanical properties :
#
#
# Convention : Reuss Voigt Hill
#
# Bulk Modulus (GPa) = 22.26982 39.27340 30.77161
# Shear Modulus (GPa) = 57.27307 -280.92296 -111.82494
#
# Velocity S-wave (km/s) = 5.11526 -11.32886 -7.14763
# Velocity P-wave (km/s) = 6.71283 12.37665 7.35253
#
# Compressibility (1/GPa) = 0.04490382
#
# Stress axis : x y z
#
# Youngs Moduli (GPa) = 41.33263 151.48289 49.09705
#
# Poissons Ratio (x) = 0.40672 -0.15969
# Poissons Ratio (y) = 0.11098 0.18152
# Poissons Ratio (z) = -0.13443 0.56007
#
# Static dielectric constant tensor:
#      x y z
#    x 1.822510 0.000000 0.000000 
#    y 0.000000 1.829600 0.000000 
#    z 0.000000 0.000000 1.749810 
# 
# From -- ./inp_files/12140.got.cif
#   From: 2010.05.17/outbox.cif.g08.bks.cpg/sg38_7_cif.got.tgz:12140.got - 2010.06.03 18:07:57.
