data_PCOD9355131
_publ_section_title
;
Structure prediction by ZEFSAII (Michael W. Deem and Ramdas Pophale) SiO2 
 PCOD9355131
Probable space group: C C C 2
;
_chemical_formula_sum "Si O2"
_cell_formula_units_Z 64
_cell_length_a 22.619269
_cell_length_b 8.717139
_cell_length_c 15.328481
_cell_angle_alpha 90.000000
_cell_angle_beta 90.000000
_cell_angle_gamma 90.000000
_cell_volume 3022.398023
_symmetry_space_group_name_H-M "C C C 2"
_symmetry_group_IT_number 37
_symmetry_cell_setting 'orthorhombic'
loop_
_space_group_symop_operation_xyz
x,y,z
-x,-y,z
-x,y,1/2+z
x,-y,1/2+z
1/2+x,1/2+y,z
1/2-x,1/2-y,z
1/2-x,1/2+y,1/2+z
1/2+x,1/2-y,1/2+z
loop_
_atom_site_type_symbol
_atom_site_label
_atom_site_fract_x
_atom_site_fract_y
_atom_site_fract_z
Si Si1 0.253793 0.434692 0.427290
Si Si2 0.131859 0.378775 0.367642
Si Si3 0.948482 0.383333 0.323571
Si Si4 0.560985 0.317865 0.006588
Si Si5 0.802987 0.870514 0.078165
Si Si6 0.554445 0.383009 0.198406
Si Si7 0.575368 0.332510 0.483624
Si Si8 0.163612 0.063502 0.272805
O O1 0.250000 0.250000 0.426077
O O2 0.185355 0.470508 0.412731
O O3 0.284681 0.491056 0.514510
O O4 0.292039 0.499311 0.346505
O O5 0.102361 0.497339 0.301207
O O6 0.090855 0.309346 0.445553
O O7 0.149028 0.231391 0.310816
O O8 0.967572 0.268286 0.248080
O O9 0.923555 0.277142 0.400546
O O10 0.000000 0.500000 0.351537
O O11 0.582905 0.336817 0.105628
O O12 0.490496 0.296237 0.019405
O O13 0.572139 0.484819 0.962704
O O14 0.750000 0.750000 0.066290
O O15 0.806496 0.917449 0.178767
O O16 0.867986 0.813097 0.046150
O O17 0.500000 0.500000 0.185580
O O18 0.604680 0.466088 0.255615
#
# Coordination Sequence:
#
# PCOD9355131 Si02
#       8
#     8   8   8   8   8   8   8   8
#     4  10  23  43  68  95 141 183 226 281 340 409
#     4  11  23  46  65 101 141 179 220 290 346 410
#     4  12  25  41  65 102 138 177 222 282 365 397
#     4  11  22  44  71  96 133 181 236 278 344 409
#     4  12  23  43  70 104 136 185 233 285 343 410
#     4  12  24  43  68 101 134 181 231 287 332 424
#     4  11  22  42  68  99 131 181 231 278 334 421
#     4  11  24  45  72  98 136 184 241 275 341 415
#
# _framework density 21.175239000000001
#
# number of rings (size 3 to 8) (size 9 to 14) (size 15 to 20)
#    0.000    0.750    3.750    5.625    1.750    0.000 
#    9.000    0.625    0.000    0.000    0.000    0.000 
#    0.000    0.000    0.000    0.000    0.000    0.000 
#
# Total GULP energy -178607.079541 kJ/mol
# GULP energy per Si atom -5581.471236 kJ/mol
# Density = 2.112704 g / cm^3
# Si number density = 21.175239 Si / 1000 Ang^3
#
#
#
# Elastic Constant Matrix: (Units=GPa)
#
#
# Indices 1 2 3 4 5 6 
#
# 1 106.6074 23.5822 37.5264 0.0000 0.0000 0.0000
# 2 23.5822 61.1535 44.7496 0.0000 0.0000 0.0000
# 3 37.5264 44.7496 136.5027 0.0000 0.0000 0.0000
# 4 0.0000 0.0000 0.0000 5.6714 0.0000 0.0000
# 5 0.0000 0.0000 0.0000 0.0000 21.6714 0.0000
# 6 0.0000 0.0000 0.0000 0.0000 0.0000 26.4552
#
#
#
# Elastic Compliance Matrix: (Units=1/GPa)
#
#
# Indices 1 2 3 4 5 6 
#
# 1 0.010689 -0.002594 -0.002088 0.000000 0.000000 0.000000
# 2 -0.002594 0.022143 -0.006546 0.000000 0.000000 0.000000
# 3 -0.002088 -0.006546 0.010046 0.000000 0.000000 0.000000
# 4 0.000000 0.000000 0.000000 0.176324 0.000000 0.000000
# 5 0.000000 0.000000 0.000000 0.000000 0.046144 0.000000
# 6 0.000000 0.000000 0.000000 0.000000 0.000000 0.037800
#
#
# Mechanical properties :
#
#
# Convention : Reuss Voigt Hill
#
# Bulk Modulus (GPa) = 48.96793 57.33110 53.14951
# Shear Modulus (GPa) = 15.04176 23.98663 19.51419
#
# Velocity S-wave (km/s) = 2.66812 3.36931 3.03901
# Velocity P-wave (km/s) = 5.71552 6.50152 6.12115
#
# Compressibility (1/GPa) = 0.02042153
#
# Stress axis : x y z
#
# Youngs Moduli (GPa) = 93.55366 45.16189 99.54327
#
# Poissons Ratio (x) = 0.11714 0.20787
# Poissons Ratio (y) = 0.24267 0.65160
# Poissons Ratio (z) = 0.19536 0.29563
#
# Static dielectric constant tensor:
#      x y z
#    x 1.899470 0.000000 0.000000 
#    y 0.000000 1.758020 0.000000 
#    z 0.000000 0.000000 1.753330 
# 
# From -- ./inp_files/13181.got.cif
#   From: 2010.05.17/outbox.cif.g08.bks.cpg/sg37_7_cif.got.tgz:13181.got - 2010.06.03 17:53:42.
