data_PCOD9355030
_publ_section_title
;
Structure prediction by ZEFSAII (Michael W. Deem and Ramdas Pophale) SiO2 
 PCOD9355030
Probable space group: C C C 2
;
_chemical_formula_sum "Si O2"
_cell_formula_units_Z 44
_cell_length_a 14.662332
_cell_length_b 14.676451
_cell_length_c 9.155106
_cell_angle_alpha 90.000000
_cell_angle_beta 90.000000
_cell_angle_gamma 90.000000
_cell_volume 1970.096389
_symmetry_space_group_name_H-M "C C C 2"
_symmetry_group_IT_number 37
_symmetry_cell_setting 'orthorhombic'
loop_
_space_group_symop_operation_xyz
x,y,z
-x,-y,z
-x,y,1/2+z
x,-y,1/2+z
1/2+x,1/2+y,z
1/2-x,1/2-y,z
1/2-x,1/2+y,1/2+z
1/2+x,1/2-y,1/2+z
loop_
_atom_site_type_symbol
_atom_site_label
_atom_site_fract_x
_atom_site_fract_y
_atom_site_fract_z
Si Si1 0.709025 0.902770 0.815060
Si Si2 0.930876 0.718119 0.444978
Si Si3 0.993721 0.606917 0.707073
Si Si4 0.800137 0.031399 0.598045
Si Si5 0.750000 0.250000 0.121101
Si Si6 0.077831 0.077163 0.364680
O O1 0.603513 0.879161 0.790671
O O2 0.772783 0.830296 0.732457
O O3 0.729357 0.989873 0.714163
O O4 0.742636 0.912607 0.979330
O O5 0.992904 0.671108 0.566990
O O6 0.832394 0.723319 0.518575
O O7 0.956597 0.821038 0.400500
O O8 0.930504 0.646823 0.313424
O O9 0.000000 0.500000 0.672356
O O10 0.872638 0.078880 0.706340
O O11 0.853815 0.958228 0.493732
O O12 0.000000 0.000000 0.357698
#
# Coordination Sequence:
#
# PCOD9355030 Si02
#       6
#     8   8   8   8   4   8
#     4  10  23  44  71  97 137 182 229 290 344 420
#     4  11  26  46  71 104 140 190 229 294 355 414
#     4  11  27  45  73 101 140 181 242 295 350 411
#     4  10  23  42  72  99 139 185 228 275 369 407
#     4  10  22  48  70  96 146 176 240 288 344 424
#     4  11  24  42  71 107 147 179 230 290 350 435
#
# _framework density 22.333933999999999
#
# number of rings (size 3 to 8) (size 9 to 14) (size 15 to 20)
#    0.000    1.455    1.818    1.091   12.727    1.455 
#    0.000    0.000    0.000    0.000    0.000    0.000 
#    0.000    0.000    0.000    0.000    0.000    0.000 
#
# Total GULP energy -122865.839626 kJ/mol
# GULP energy per Si atom -5584.810892 kJ/mol
# Density = 2.228310 g / cm^3
# Si number density = 22.333934 Si / 1000 Ang^3
#
#
#
# Elastic Constant Matrix: (Units=GPa)
#
#
# Indices 1 2 3 4 5 6 
#
# 1 37.7862 19.1790 39.6876 0.0000 0.0000 0.0000
# 2 19.1790 133.5093 70.0298 0.0000 0.0000 0.0000
# 3 39.6876 70.0298 171.3862 0.0000 0.0000 0.0000
# 4 0.0000 0.0000 0.0000 -5.3588 0.0000 0.0000
# 5 0.0000 0.0000 0.0000 0.0000 9.4852 0.0000
# 6 0.0000 0.0000 0.0000 0.0000 0.0000 27.4385
#
#
#
# Elastic Compliance Matrix: (Units=1/GPa)
#
#
# Indices 1 2 3 4 5 6 
#
# 1 0.035073 -0.000990 -0.007717 0.000000 0.000000 0.000000
# 2 -0.000990 0.009561 -0.003677 0.000000 0.000000 0.000000
# 3 -0.007717 -0.003677 0.009124 0.000000 0.000000 0.000000
# 4 0.000000 0.000000 0.000000 -0.186610 0.000000 0.000000
# 5 0.000000 0.000000 0.000000 0.000000 0.105427 0.000000
# 6 0.000000 0.000000 0.000000 0.000000 0.000000 0.036445
#
#
# Mechanical properties :
#
#
# Convention : Reuss Voigt Hill
#
# Bulk Modulus (GPa) = 34.49637 66.71938 50.60787
# Shear Modulus (GPa) = 115.06557 20.56535 67.81546
#
# Velocity S-wave (km/s) = 7.18557 3.03778 5.51636
# Velocity P-wave (km/s) = 9.18272 6.49943 7.95503
#
# Compressibility (1/GPa) = 0.02898856
#
# Stress axis : x y z
#
# Youngs Moduli (GPa) = 28.51220 104.58770 109.59583
#
# Poissons Ratio (x) = 0.10359 0.84575
# Poissons Ratio (y) = 0.02824 0.40304
# Poissons Ratio (z) = 0.22003 0.38462
#
# Static dielectric constant tensor:
#      x y z
#    x 1.870330 0.000000 0.000000 
#    y 0.000000 1.887020 0.000000 
#    z 0.000000 0.000000 1.826840 
# 
# From -- ./inp_files/3950.got.cif
#   From: 2010.05.17/outbox.cif.g08.bks.cpg/sg37_2_cif.got.tgz:3950.got - 2010.06.03 17:53:42.
