data_PCOD9355668
_publ_section_title
;
Structure prediction by ZEFSAII (Michael W. Deem and Ramdas Pophale) SiO2 
 PCOD9355668
Probable space group: C C C 2
;
_chemical_formula_sum "Si O2"
_cell_formula_units_Z 36
_cell_length_a 6.512020
_cell_length_b 19.961186
_cell_length_c 12.089821
_cell_angle_alpha 90.000000
_cell_angle_beta 90.000000
_cell_angle_gamma 90.000000
_cell_volume 1571.527330
_symmetry_space_group_name_H-M "C C C 2"
_symmetry_group_IT_number 37
_symmetry_cell_setting 'orthorhombic'
loop_
_space_group_symop_operation_xyz
x,y,z
-x,-y,z
-x,y,1/2+z
x,-y,1/2+z
1/2+x,1/2+y,z
1/2-x,1/2-y,z
1/2-x,1/2+y,1/2+z
1/2+x,1/2-y,1/2+z
loop_
_atom_site_type_symbol
_atom_site_label
_atom_site_fract_x
_atom_site_fract_y
_atom_site_fract_z
Si Si1 0.640575 0.945227 0.220060
Si Si2 0.980132 0.220909 0.750598
Si Si3 0.500000 0.500000 0.061017
Si Si4 0.140929 0.870830 0.919139
Si Si5 0.813111 0.655935 0.633111
O O1 0.748614 0.899382 0.310563
O O2 0.467329 0.904959 0.152576
O O3 0.500000 0.000000 0.281968
O O4 0.809798 0.978899 0.140102
O O5 0.750000 0.250000 0.741815
O O6 0.007532 0.186659 0.870669
O O7 0.094864 0.287296 0.710915
O O8 0.072324 0.162107 0.670099
O O9 0.552336 0.435561 0.983970
O O10 0.299117 0.835382 0.002312
#
# Coordination Sequence:
#
# PCOD9355668 Si02
#       5
#     8   8   4   8   8
#     4  12  27  49  73 117 159 199 273 332 390 501
#     4  11  26  51  71 112 157 199 267 330 384 493
#     4  12  28  50  78 120 160 208 264 342 416 490
#     4  12  27  48  81 110 153 212 260 328 420 464
#     4  11  27  49  75 111 156 207 266 324 399 483
#
# _framework density 22.907653
#
# number of rings (size 3 to 8) (size 9 to 14) (size 15 to 20)
#    0.000    0.444    4.444    2.000    9.333    0.000 
#    4.000    0.000    0.000    0.000    0.000    0.000 
#    0.000    0.000    0.000    0.000    0.000    0.000 
#
# Total GULP energy -100212.492186 kJ/mol
# GULP energy per Si atom -5567.360677 kJ/mol
# Density = 2.285551 g / cm^3
# Si number density = 22.907653 Si / 1000 Ang^3
#
#
#
# Elastic Constant Matrix: (Units=GPa)
#
#
# Indices 1 2 3 4 5 6 
#
# 1 104.4864 64.8312 49.4435 0.0000 0.0000 0.0000
# 2 64.8312 118.3775 57.2038 0.0000 0.0000 0.0000
# 3 49.4435 57.2038 132.1648 0.0000 0.0000 0.0000
# 4 0.0000 0.0000 0.0000 68.6180 0.0000 0.0000
# 5 0.0000 0.0000 0.0000 0.0000 -187.8261 0.0000
# 6 0.0000 0.0000 0.0000 0.0000 0.0000 68.9569
#
#
#
# Elastic Compliance Matrix: (Units=1/GPa)
#
#
# Indices 1 2 3 4 5 6 
#
# 1 0.015188 -0.007046 -0.002632 0.000000 0.000000 0.000000
# 2 -0.007046 0.013950 -0.003402 0.000000 0.000000 0.000000
# 3 -0.002632 -0.003402 0.010024 0.000000 0.000000 0.000000
# 4 0.000000 0.000000 0.000000 0.014573 0.000000 0.000000
# 5 0.000000 0.000000 0.000000 0.000000 -0.005324 0.000000
# 6 0.000000 0.000000 0.000000 0.000000 0.000000 0.014502
#
#
# Mechanical properties :
#
#
# Convention : Reuss Voigt Hill
#
# Bulk Modulus (GPa) = 76.91530 77.55399 77.23464
# Shear Modulus (GPa) = 53.52877 2.18645 27.85761
#
# Velocity S-wave (km/s) = 4.83921 0.97803 3.49102
# Velocity P-wave (km/s) = 8.05438 5.93329 7.07379
#
# Compressibility (1/GPa) = 0.01300131
#
# Stress axis : x y z
#
# Youngs Moduli (GPa) = 65.84102 71.68258 99.76496
#
# Poissons Ratio (x) = 0.50507 0.26261
# Poissons Ratio (y) = 0.46392 0.33941
# Poissons Ratio (z) = 0.17331 0.24387
#
# Static dielectric constant tensor:
#      x y z
#    x 2.335650 0.000000 0.000000 
#    y 0.000000 1.928530 0.000000 
#    z 0.000000 0.000000 1.808910 
# 
# From -- ./inp_files/5464.got.cif
#   From: 2010.05.17/outbox.cif.g08.bks.cpg/sg37_3_cif.got.tgz:5464.got - 2010.06.03 17:53:42.
