data_PCOD9355812
_publ_section_title
;
Structure prediction by ZEFSAII (Michael W. Deem and Ramdas Pophale) SiO2 
 PCOD9355812
Probable space group: A M M 2
;
_chemical_formula_sum "Si O2"
_cell_formula_units_Z 56
_cell_length_a 7.521151
_cell_length_b 12.317169
_cell_length_c 32.152247
_cell_angle_alpha 90.000000
_cell_angle_beta 90.000000
_cell_angle_gamma 90.000000
_cell_volume 2978.561268
_symmetry_space_group_name_H-M "A M M 2"
_symmetry_group_IT_number 38
_symmetry_cell_setting 'orthorhombic'
loop_
_space_group_symop_operation_xyz
x,y,z
-x,-y,z
-x,y,z
x,-y,z
x,1/2+y,1/2+z
-x,1/2-y,1/2+z
-x,1/2+y,1/2+z
x,1/2-y,1/2+z
loop_
_atom_site_type_symbol
_atom_site_label
_atom_site_fract_x
_atom_site_fract_y
_atom_site_fract_z
Si Si1 0.286498 0.625415 0.417270
Si Si2 0.702847 0.500000 0.098057
Si Si3 0.214250 0.000000 0.693016
Si Si4 0.786786 0.122926 0.170338
Si Si5 0.788876 0.874845 0.825934
Si Si6 0.714462 0.239314 0.587278
Si Si7 0.216375 0.719721 0.241431
Si Si8 0.283057 0.626415 0.507838
O O1 0.500000 0.624080 0.418367
O O2 0.223884 0.500000 0.416186
O O3 0.237074 0.671135 0.372329
O O4 0.226950 0.669310 0.462162
O O5 0.500000 0.500000 0.082022
O O6 0.701222 0.500000 0.147967
O O7 0.784329 0.616027 0.086340
O O8 0.261691 0.892152 0.717976
O O9 0.000000 0.000000 0.687771
O O10 0.753018 0.198274 0.130225
O O11 0.719958 0.182199 0.212250
O O12 0.000000 0.116295 0.173925
O O13 0.718734 0.000000 0.164784
O O14 0.721205 0.798832 0.788695
O O15 0.000000 0.884557 0.819514
O O16 0.717787 0.000000 0.823769
O O17 0.500000 0.233386 0.585057
O O18 0.779108 0.306672 0.547499
O O19 0.000000 0.727815 0.242209
O O20 0.500000 0.628031 0.508523
O O21 0.231155 0.500000 0.511279
#
# Coordination Sequence:
#
# PCOD9355812 Si02
#       8
#     8   4   4   8   8   8   8   8
#     4   8  14  25  40  60  84 107 136 175 215 256
#     4  10  20  30  42  68  96 112 142 190 224 249
#     4  10  16  28  48  62  82 122 156 172 208 267
#     4  10  20  32  46  66  90 116 151 189 217 251
#     4   9  15  24  40  62  85 109 138 172 213 261
#     4  10  19  31  47  66  90 119 148 180 220 263
#     4   9  16  27  44  64  86 115 148 176 210 262
#     4   8  14  26  44  62  82 113 147 173 208 264
#
# _framework density 18.801023000000001
#
# number of rings (size 3 to 8) (size 9 to 14) (size 15 to 20)
#    0.000    2.857    2.143    1.286    0.000    0.857 
#    0.000    2.143    0.000    2.571    1.857    0.000 
#    0.000    0.000    0.000    0.000    0.000    0.000 
#
# Total GULP energy -155997.194509 kJ/mol
# GULP energy per Si atom -5571.328375 kJ/mol
# Density = 1.875823 g / cm^3
# Si number density = 18.801023 Si / 1000 Ang^3
#
#
#
# Elastic Constant Matrix: (Units=GPa)
#
#
# Indices 1 2 3 4 5 6 
#
# 1 46.7083 6.5176 2.5434 0.0000 0.0000 0.0000
# 2 6.5176 118.4407 75.3955 0.0000 0.0000 0.0000
# 3 2.5434 75.3955 183.1129 0.0000 0.0000 0.0000
# 4 0.0000 0.0000 0.0000 14.2879 0.0000 0.0000
# 5 0.0000 0.0000 0.0000 0.0000 18.4635 0.0000
# 6 0.0000 0.0000 0.0000 0.0000 0.0000 8.5647
#
#
#
# Elastic Compliance Matrix: (Units=1/GPa)
#
#
# Indices 1 2 3 4 5 6 
#
# 1 0.021584 -0.001351 0.000256 0.000000 0.000000 0.000000
# 2 -0.001351 0.011527 -0.004727 0.000000 0.000000 0.000000
# 3 0.000256 -0.004727 0.007404 0.000000 0.000000 0.000000
# 4 0.000000 0.000000 0.000000 0.069990 0.000000 0.000000
# 5 0.000000 0.000000 0.000000 0.000000 0.054161 0.000000
# 6 0.000000 0.000000 0.000000 0.000000 0.000000 0.116759
#
#
# Mechanical properties :
#
#
# Convention : Reuss Voigt Hill
#
# Bulk Modulus (GPa) = 34.63679 57.46388 46.05033
# Shear Modulus (GPa) = 16.51851 25.85024 21.18438
#
# Velocity S-wave (km/s) = 2.96733 3.71204 3.36038
# Velocity P-wave (km/s) = 5.49571 7.00021 6.29308
#
# Compressibility (1/GPa) = 0.02887104
#
# Stress axis : x y z
#
# Youngs Moduli (GPa) = 46.33062 86.75593 135.06296
#
# Poissons Ratio (x) = 0.11721 -0.03464
# Poissons Ratio (y) = 0.06259 0.63847
# Poissons Ratio (z) = -0.01188 0.41012
#
# Static dielectric constant tensor:
#      x y z
#    x 1.725520 0.000000 0.000000 
#    y 0.000000 1.645550 0.000000 
#    z 0.000000 0.000000 1.676800 
# 
# From -- ./inp_files/22565.got.cif
#   From: 2010.05.17/outbox.cif.g08.bks.cpg/sg38_12_cif.got.tgz:22565.got - 2010.06.03 18:07:57.
