data_PCOD9355993
_publ_section_title
;
Structure prediction by ZEFSAII (Michael W. Deem and Ramdas Pophale) SiO2 
 PCOD9355993
Probable space group: A M M 2
;
_chemical_formula_sum "Si O2"
_cell_formula_units_Z 64
_cell_length_a 9.028706
_cell_length_b 18.998828
_cell_length_c 26.853524
_cell_angle_alpha 90.000000
_cell_angle_beta 90.000000
_cell_angle_gamma 90.000000
_cell_volume 4606.314738
_symmetry_space_group_name_H-M "A M M 2"
_symmetry_group_IT_number 38
_symmetry_cell_setting 'orthorhombic'
loop_
_space_group_symop_operation_xyz
x,y,z
-x,-y,z
-x,y,z
x,-y,z
x,1/2+y,1/2+z
-x,1/2-y,1/2+z
-x,1/2+y,1/2+z
x,1/2-y,1/2+z
loop_
_atom_site_type_symbol
_atom_site_label
_atom_site_fract_x
_atom_site_fract_y
_atom_site_fract_z
Si Si1 0.177856 0.419809 0.641320
Si Si2 0.328601 0.213351 0.587997
Si Si3 0.670325 0.796443 0.193664
Si Si4 0.320332 0.341406 0.246633
Si Si5 0.319539 0.419899 0.144578
Si Si6 0.676561 0.583076 0.446206
Si Si7 0.823442 0.583127 0.340071
Si Si8 0.822935 0.659779 0.538953
O O1 0.230548 0.500000 0.646395
O O2 0.239117 0.366646 0.682805
O O3 0.218726 0.388250 0.587052
O O4 0.000000 0.419539 0.643526
O O5 0.500000 0.210571 0.571179
O O6 0.328529 0.253070 0.641542
O O7 0.273034 0.135302 0.601892
O O8 0.232959 0.261772 0.551811
O O9 0.500000 0.814436 0.204561
O O10 0.723286 0.739095 0.233811
O O11 0.500000 0.343345 0.250069
O O12 0.277462 0.389175 0.198751
O O13 0.247639 0.371964 0.295895
O O14 0.500000 0.419016 0.143741
O O15 0.269762 0.500000 0.138140
O O16 0.500000 0.592867 0.443751
O O17 0.705795 0.500000 0.455858
O O18 0.750190 0.600378 0.393179
O O19 0.746251 0.628337 0.490394
O O20 0.794359 0.500000 0.330549
O O21 0.000000 0.593028 0.342346
O O22 0.000000 0.658106 0.533925
#
# Coordination Sequence:
#
# PCOD9355993 Si02
#       8
#     8   8   8   8   8   8   8   8
#     4   9  17  27  39  57  81 109 138 166 200 242
#     4   8  14  25  39  56  79 105 136 170 199 234
#     4   8  15  26  39  57  79 104 135 169 201 233
#     4   9  16  27  43  60  80 108 140 170 201 238
#     4   8  13  22  39  61  82 107 139 172 203 234
#     4  10  20  32  45  60  78 103 136 171 204 237
#     4  10  20  31  42  59  83 108 135 168 203 237
#     4  10  18  28  42  58  80 109 137 166 203 243
#
# _framework density 13.893969999999999
#
# number of rings (size 3 to 8) (size 9 to 14) (size 15 to 20)
#    0.000    3.000    0.000    3.375    0.000    3.750 
#    0.000    1.875    0.000    1.125    0.000    0.000 
#    0.000    1.000    0.000    5.250    0.000    4.250 
#
# Total GULP energy -178184.467173 kJ/mol
# GULP energy per Si atom -5568.264599 kJ/mol
# Density = 1.386235 g / cm^3
# Si number density = 13.893970 Si / 1000 Ang^3
#
#
#
# Elastic Constant Matrix: (Units=GPa)
#
#
# Indices 1 2 3 4 5 6 
#
# 1 34.8720 39.4691 40.9839 0.0000 0.0000 0.0000
# 2 39.4691 122.3138 64.0709 0.0000 0.0000 0.0000
# 3 40.9839 64.0709 91.3911 0.0000 0.0000 0.0000
# 4 0.0000 0.0000 0.0000 26.6934 0.0000 0.0000
# 5 0.0000 0.0000 0.0000 0.0000 19.8281 0.0000
# 6 0.0000 0.0000 0.0000 0.0000 0.0000 18.3350
#
#
#
# Elastic Compliance Matrix: (Units=1/GPa)
#
#
# Indices 1 2 3 4 5 6 
#
# 1 0.066651 -0.009246 -0.023407 0.000000 0.000000 0.000000
# 2 -0.009246 0.014203 -0.005811 0.000000 0.000000 0.000000
# 3 -0.023407 -0.005811 0.025513 0.000000 0.000000 0.000000
# 4 0.000000 0.000000 0.000000 0.037462 0.000000 0.000000
# 5 0.000000 0.000000 0.000000 0.000000 0.050433 0.000000
# 6 0.000000 0.000000 0.000000 0.000000 0.000000 0.054541
#
#
# Mechanical properties :
#
#
# Convention : Reuss Voigt Hill
#
# Bulk Modulus (GPa) = 33.96938 59.73607 46.85272
# Shear Modulus (GPa) = 14.90115 19.90818 17.40467
#
# Velocity S-wave (km/s) = 3.27844 3.78943 3.54316
# Velocity P-wave (km/s) = 6.23161 7.88885 7.10869
#
# Compressibility (1/GPa) = 0.02943827
#
# Stress axis : x y z
#
# Youngs Moduli (GPa) = 15.00354 70.40658 39.19627
#
# Poissons Ratio (x) = 0.65099 0.91747
# Poissons Ratio (y) = 0.13873 0.22777
# Poissons Ratio (z) = 0.35119 0.40913
#
# Static dielectric constant tensor:
#      x y z
#    x 1.461730 0.000000 0.000000 
#    y 0.000000 1.468320 0.000000 
#    z 0.000000 0.000000 1.429570 
# 
# From -- ./inp_files/22262.got.cif
#   From: 2010.05.17/outbox.cif.g08.bks.cpg/sg38_12_cif.got.tgz:22262.got - 2010.06.03 18:07:57.
