data_PCOD9355457
_publ_section_title
;
Structure prediction by ZEFSAII (Michael W. Deem and Ramdas Pophale) SiO2 
 PCOD9355457
Probable space group: C C C 2
;
_chemical_formula_sum "Si O2"
_cell_formula_units_Z 44
_cell_length_a 22.248284
_cell_length_b 11.038489
_cell_length_c 8.337818
_cell_angle_alpha 90.000000
_cell_angle_beta 90.000000
_cell_angle_gamma 90.000000
_cell_volume 2047.663363
_symmetry_space_group_name_H-M "C C C 2"
_symmetry_group_IT_number 37
_symmetry_cell_setting 'orthorhombic'
loop_
_space_group_symop_operation_xyz
x,y,z
-x,-y,z
-x,y,1/2+z
x,-y,1/2+z
1/2+x,1/2+y,z
1/2-x,1/2-y,z
1/2-x,1/2+y,1/2+z
1/2+x,1/2-y,1/2+z
loop_
_atom_site_type_symbol
_atom_site_label
_atom_site_fract_x
_atom_site_fract_y
_atom_site_fract_z
Si Si1 0.250000 0.250000 0.104530
Si Si2 0.073204 0.100223 0.368219
Si Si3 0.812819 0.125186 0.096216
Si Si4 0.157467 0.699720 0.365058
Si Si5 0.449040 0.664579 0.493786
Si Si6 0.237884 0.466728 0.323287
O O1 0.221949 0.357757 0.205477
O O2 0.195932 0.215534 0.987534
O O3 0.133328 0.118882 0.469401
O O4 0.068290 0.137663 0.180256
O O5 0.020501 0.170889 0.465713
O O6 0.064521 0.955114 0.386263
O O7 0.826697 0.245457 0.193619
O O8 0.796311 0.027802 0.236309
O O9 0.755808 0.101471 0.984669
O O10 0.089687 0.724718 0.421425
O O11 0.187252 0.566750 0.360741
#
# Coordination Sequence:
#
# PCOD9355457 Si02
#       6
#     4   8   8   8   8   8
#     4  12  24  40  62  92 132 182 236 276 346 410
#     4  11  21  37  65  97 137 186 230 293 344 409
#     4  12  22  40  62  94 138 179 225 281 350 405
#     4  12  24  43  62  98 146 181 225 290 345 429
#     4  11  22  38  61  98 138 180 236 287 353 406
#     4  12  25  40  64  98 141 184 229 284 346 424
#
# _framework density 21.487908000000001
#
# number of rings (size 3 to 8) (size 9 to 14) (size 15 to 20)
#    0.000    0.364    3.636    8.727    2.545    0.000 
#    0.000    0.000    0.000    0.000    0.000   26.727 
#    0.000    0.000    0.000    0.000    0.000    0.000 
#
# Total GULP energy -122691.563059 kJ/mol
# GULP energy per Si atom -5576.889230 kJ/mol
# Density = 2.143900 g / cm^3
# Si number density = 21.487908 Si / 1000 Ang^3
#
#
#
# Elastic Constant Matrix: (Units=GPa)
#
#
# Indices 1 2 3 4 5 6 
#
# 1 103.2156 45.1290 46.2365 0.0000 0.0000 0.0000
# 2 45.1290 72.4265 57.9054 0.0000 0.0000 0.0000
# 3 46.2365 57.9054 154.1616 0.0000 0.0000 0.0000
# 4 0.0000 0.0000 0.0000 27.4197 0.0000 0.0000
# 5 0.0000 0.0000 0.0000 0.0000 33.5441 0.0000
# 6 0.0000 0.0000 0.0000 0.0000 0.0000 20.1767
#
#
#
# Elastic Compliance Matrix: (Units=1/GPa)
#
#
# Indices 1 2 3 4 5 6 
#
# 1 0.013488 -0.007389 -0.001270 0.000000 0.000000 0.000000
# 2 -0.007389 0.023781 -0.006716 0.000000 0.000000 0.000000
# 3 -0.001270 -0.006716 0.009390 0.000000 0.000000 0.000000
# 4 0.000000 0.000000 0.000000 0.036470 0.000000 0.000000
# 5 0.000000 0.000000 0.000000 0.000000 0.029811 0.000000
# 6 0.000000 0.000000 0.000000 0.000000 0.000000 0.049562
#
#
# Mechanical properties :
#
#
# Convention : Reuss Voigt Hill
#
# Bulk Modulus (GPa) = 62.85879 69.81615 66.33747
# Shear Modulus (GPa) = 25.18171 28.26363 26.72267
#
# Velocity S-wave (km/s) = 3.42702 3.63068 3.53032
# Velocity P-wave (km/s) = 6.70641 7.08076 6.89613
#
# Compressibility (1/GPa) = 0.01590867
#
# Stress axis : x y z
#
# Youngs Moduli (GPa) = 74.13950 42.05032 106.49255
#
# Poissons Ratio (x) = 0.31072 0.13524
# Poissons Ratio (y) = 0.54783 0.71524
# Poissons Ratio (z) = 0.09415 0.28242
#
# Static dielectric constant tensor:
#      x y z
#    x 1.894260 0.000000 0.000000 
#    y 0.000000 1.853280 0.000000 
#    z 0.000000 0.000000 1.841780 
# 
# From -- ./inp_files/4567.got.cif
#   From: 2010.05.17/outbox.cif.g08.bks.cpg/sg37_3_cif.got.tgz:4567.got - 2010.06.03 17:53:42.
