data_PCOD9355139
_publ_section_title
;
Structure prediction by ZEFSAII (Michael W. Deem and Ramdas Pophale) SiO2 
 PCOD9355139
Probable space group: C C C 2
;
_chemical_formula_sum "Si O2"
_cell_formula_units_Z 40
_cell_length_a 10.146672
_cell_length_b 10.146678
_cell_length_c 20.246205
_cell_angle_alpha 90.000000
_cell_angle_beta 90.000000
_cell_angle_gamma 90.000000
_cell_volume 2084.448310
_symmetry_space_group_name_H-M "C C C 2"
_symmetry_group_IT_number 37
_symmetry_cell_setting 'orthorhombic'
loop_
_space_group_symop_operation_xyz
x,y,z
-x,-y,z
-x,y,1/2+z
x,-y,1/2+z
1/2+x,1/2+y,z
1/2-x,1/2-y,z
1/2-x,1/2+y,1/2+z
1/2+x,1/2-y,1/2+z
loop_
_atom_site_type_symbol
_atom_site_label
_atom_site_fract_x
_atom_site_fract_y
_atom_site_fract_z
Si Si1 0.478917 0.346969 0.399440
Si Si2 0.901460 0.882006 0.550425
Si Si3 0.617993 0.098540 0.104458
Si Si4 0.750000 0.750000 0.303929
Si Si5 0.250000 0.750000 0.350953
Si Si6 0.846969 0.478917 0.255443
O O1 0.500000 0.500000 0.380627
O O2 0.425397 0.346465 0.473966
O O3 0.375153 0.279564 0.350569
O O4 0.620377 0.277964 0.393616
O O5 0.750235 0.923336 0.562195
O O6 0.923336 0.749765 0.592688
O O7 0.000000 0.000000 0.568145
O O8 0.500000 0.000000 0.086737
O O9 0.653533 0.074602 0.180917
O O10 0.777965 0.620377 0.261266
O O11 0.220438 0.624847 0.304312
O O12 0.000000 0.500000 0.274257
#
# Coordination Sequence:
#
# PCOD9355139 Si02
#       6
#     8   8   8   4   4   8
#     4  11  24  41  66  99 132 171 217 266 333 390
#     4  10  23  44  65  95 131 171 222 271 321 386
#     4  10  23  44  65  95 131 171 222 271 321 386
#     4  12  22  42  65  99 136 168 210 272 326 398
#     4  12  22  42  65  99 136 168 210 272 326 398
#     4  11  24  41  66  99 132 171 217 266 333 390
#
# _framework density 19.189730999999998
#
# number of rings (size 3 to 8) (size 9 to 14) (size 15 to 20)
#    0.000    1.200    4.000    2.400    0.000    7.200 
#    7.200    0.000    0.000    0.000    0.000    0.000 
#    0.000    0.000    0.000    0.000    0.000    0.000 
#
# Total GULP energy -111786.169060 kJ/mol
# GULP energy per Si atom -5589.308453 kJ/mol
# Density = 1.914605 g / cm^3
# Si number density = 19.189731 Si / 1000 Ang^3
#
#
#
# Elastic Constant Matrix: (Units=GPa)
#
#
# Indices 1 2 3 4 5 6 
#
# 1 128.3650 44.5817 49.0094 0.0000 0.0000 0.0000
# 2 44.5817 128.3680 49.0114 0.0000 0.0000 0.0000
# 3 49.0094 49.0114 88.3254 0.0000 0.0000 0.0000
# 4 0.0000 0.0000 0.0000 15.9055 0.0000 0.0000
# 5 0.0000 0.0000 0.0000 0.0000 15.9045 0.0000
# 6 0.0000 0.0000 0.0000 0.0000 0.0000 38.7825
#
#
#
# Elastic Compliance Matrix: (Units=1/GPa)
#
#
# Indices 1 2 3 4 5 6 
#
# 1 0.010185 -0.001750 -0.004680 0.000000 0.000000 0.000000
# 2 -0.001750 0.010185 -0.004680 0.000000 0.000000 0.000000
# 3 -0.004680 -0.004680 0.016516 0.000000 0.000000 0.000000
# 4 0.000000 0.000000 0.000000 0.062871 0.000000 0.000000
# 5 0.000000 0.000000 0.000000 0.000000 0.062875 0.000000
# 6 0.000000 0.000000 0.000000 0.000000 0.000000 0.025785
#
#
# Mechanical properties :
#
#
# Convention : Reuss Voigt Hill
#
# Bulk Modulus (GPa) = 68.19391 70.02926 69.11159
# Shear Modulus (GPa) = 23.19894 27.61556 25.40725
#
# Velocity S-wave (km/s) = 3.48073 3.79764 3.64263
# Velocity P-wave (km/s) = 7.19498 7.47005 7.33381
#
# Compressibility (1/GPa) = 0.01466407
#
# Stress axis : x y z
#
# Youngs Moduli (GPa) = 98.18309 98.18387 60.54810
#
# Poissons Ratio (x) = 0.17185 0.28338
# Poissons Ratio (y) = 0.17185 0.28339
# Poissons Ratio (z) = 0.45951 0.45954
#
# Static dielectric constant tensor:
#      x y z
#    x 1.666790 0.000000 0.000000 
#    y 0.000000 1.666790 0.000000 
#    z 0.000000 0.000000 1.637860 
# 
# From -- ./inp_files/18260.got.cif
#   From: 2010.05.17/outbox.cif.g08.bks.cpg/sg37_10_cif.got.tgz:18260.got - 2010.06.03 17:53:42.
