data_PCOD9355520
_publ_section_title
;
Structure prediction by ZEFSAII (Michael W. Deem and Ramdas Pophale) SiO2 
 PCOD9355520
Probable space group: C C C 2
;
_chemical_formula_sum "Si O2"
_cell_formula_units_Z 40
_cell_length_a 9.189041
_cell_length_b 12.362134
_cell_length_c 13.820467
_cell_angle_alpha 90.000000
_cell_angle_beta 90.000000
_cell_angle_gamma 90.000000
_cell_volume 1569.951928
_symmetry_space_group_name_H-M "C C C 2"
_symmetry_group_IT_number 37
_symmetry_cell_setting 'orthorhombic'
loop_
_space_group_symop_operation_xyz
x,y,z
-x,-y,z
-x,y,1/2+z
x,-y,1/2+z
1/2+x,1/2+y,z
1/2-x,1/2-y,z
1/2-x,1/2+y,1/2+z
1/2+x,1/2-y,1/2+z
loop_
_atom_site_type_symbol
_atom_site_label
_atom_site_fract_x
_atom_site_fract_y
_atom_site_fract_z
Si Si1 0.897935 0.418302 0.465800
Si Si2 0.172914 0.864498 0.315046
Si Si3 0.295176 0.513089 0.115731
Si Si4 0.396093 0.693698 0.727185
Si Si5 0.078377 0.226172 0.553839
O O1 0.744093 0.406638 0.412480
O O2 0.851327 0.490316 0.557985
O O3 0.000000 0.500000 0.405801
O O4 0.978143 0.303325 0.485404
O O5 0.250000 0.750000 0.304891
O O6 0.998085 0.856314 0.309624
O O7 0.217933 0.930887 0.220330
O O8 0.344213 0.394398 0.149224
O O9 0.401365 0.594778 0.056682
O O10 0.250000 0.750000 0.763238
O O11 0.509495 0.758844 0.659070
O O12 0.250000 0.250000 0.543618
#
# Coordination Sequence:
#
# PCOD9355520 Si02
#       5
#     8   8   8   8   8
#     4  12  27  48  82 120 171 223 279 359 432 514
#     4  11  28  51  74 121 166 209 279 352 415 518
#     4  11  24  50  84 115 162 216 282 342 432 511
#     4  11  23  46  83 117 157 221 272 349 433 515
#     4  11  22  45  78 121 150 212 273 337 425 512
#
# _framework density 25.478489
#
# number of rings (size 3 to 8) (size 9 to 14) (size 15 to 20)
#    0.000    0.800    4.000    4.800    2.800    2.400 
#    7.200    1.000    0.000    0.000    0.000    0.000 
#    0.000    0.000    0.000    0.000    0.000    0.000 
#
# Total GULP energy -111523.532287 kJ/mol
# GULP energy per Si atom -5576.176614 kJ/mol
# Density = 2.542050 g / cm^3
# Si number density = 25.478489 Si / 1000 Ang^3
#
#
#
# Elastic Constant Matrix: (Units=GPa)
#
#
# Indices 1 2 3 4 5 6 
#
# 1 205.6986 44.4022 49.5945 0.0000 0.0000 0.0000
# 2 44.4022 61.4047 20.3824 0.0000 0.0000 0.0000
# 3 49.5945 20.3824 60.4853 0.0000 0.0000 0.0000
# 4 0.0000 0.0000 0.0000 10.5390 0.0000 0.0000
# 5 0.0000 0.0000 0.0000 0.0000 42.8621 0.0000
# 6 0.0000 0.0000 0.0000 0.0000 0.0000 39.1269
#
#
#
# Elastic Compliance Matrix: (Units=1/GPa)
#
#
# Indices 1 2 3 4 5 6 
#
# 1 0.006624 -0.003363 -0.004298 0.000000 0.000000 0.000000
# 2 -0.003363 0.020044 -0.003997 0.000000 0.000000 0.000000
# 3 -0.004298 -0.003997 0.021404 0.000000 0.000000 0.000000
# 4 0.000000 0.000000 0.000000 0.094886 0.000000 0.000000
# 5 0.000000 0.000000 0.000000 0.000000 0.023331 0.000000
# 6 0.000000 0.000000 0.000000 0.000000 0.000000 0.025558
#
#
# Mechanical properties :
#
#
# Convention : Reuss Voigt Hill
#
# Bulk Modulus (GPa) = 40.39438 61.81633 51.10535
# Shear Modulus (GPa) = 22.38005 32.71954 27.54980
#
# Velocity S-wave (km/s) = 2.96698 3.58747 3.29187
# Velocity P-wave (km/s) = 5.25605 6.44009 5.87796
#
# Compressibility (1/GPa) = 0.02475592
#
# Stress axis : x y z
#
# Youngs Moduli (GPa) = 150.97484 49.89034 46.72083
#
# Poissons Ratio (x) = 0.16778 0.20079
# Poissons Ratio (y) = 0.50773 0.18674
# Poissons Ratio (z) = 0.64885 0.19941
#
# Static dielectric constant tensor:
#      x y z
#    x 2.100910 0.000000 0.000000 
#    y 0.000000 2.178200 0.000000 
#    z 0.000000 0.000000 2.052360 
# 
# From -- ./inp_files/14234.got.cif
#   From: 2010.05.17/outbox.cif.g08.bks.cpg/sg37_8_cif.got.tgz:14234.got - 2010.06.03 17:53:42.
