data_PCOD9355951
_publ_section_title
;
Structure prediction by ZEFSAII (Michael W. Deem and Ramdas Pophale) SiO2 
 PCOD9355951
Probable space group: A M M 2
;
_chemical_formula_sum "Si O2"
_cell_formula_units_Z 56
_cell_length_a 7.379491
_cell_length_b 30.557793
_cell_length_c 14.291633
_cell_angle_alpha 90.000000
_cell_angle_beta 90.000000
_cell_angle_gamma 90.000000
_cell_volume 3222.776939
_symmetry_space_group_name_H-M "A M M 2"
_symmetry_group_IT_number 38
_symmetry_cell_setting 'orthorhombic'
loop_
_space_group_symop_operation_xyz
x,y,z
-x,-y,z
-x,y,z
x,-y,z
x,1/2+y,1/2+z
-x,1/2-y,1/2+z
-x,1/2+y,1/2+z
x,1/2-y,1/2+z
loop_
_atom_site_type_symbol
_atom_site_label
_atom_site_fract_x
_atom_site_fract_y
_atom_site_fract_z
Si Si1 0.720975 0.181024 0.698420
Si Si2 0.716615 0.404488 0.303484
Si Si3 0.279433 0.682709 0.619699
Si Si4 0.279181 0.729192 0.014576
Si Si5 0.792314 0.000000 0.823419
Si Si6 0.279264 0.269321 0.803645
Si Si7 0.722427 0.905167 0.019587
Si Si8 0.702575 0.000000 0.035872
O O1 0.500000 0.180455 0.697552
O O2 0.784256 0.134670 0.738351
O O3 0.778343 0.194720 0.593994
O O4 0.773129 0.221065 0.766811
O O5 0.500000 0.400254 0.306655
O O6 0.756122 0.454214 0.272599
O O7 0.779801 0.399912 0.411220
O O8 0.500000 0.682106 0.619558
O O9 0.226258 0.722708 0.551787
O O10 0.222124 0.696349 0.724009
O O11 0.219714 0.636172 0.580414
O O12 0.500000 0.728663 0.013691
O O13 0.217675 0.721844 0.908838
O O14 0.000000 0.000000 0.851809
O O15 0.688258 0.000000 0.922085
O O16 0.500000 0.269644 0.804573
O O17 0.500000 0.906337 0.019169
O O18 0.784901 0.952598 0.056512
O O19 0.500000 0.000000 0.076339
#
# Coordination Sequence:
#
# PCOD9355951 Si02
#       8
#     8   8   8   8   4   8   8   4
#     4   8  13  19  29  45  64  91 122 142 164 205
#     4   9  15  24  37  51  69  94 120 142 168 206
#     4   8  12  16  24  40  62  90 119 142 171 207
#     4   8  12  17  24  38  63  91 116 142 171 204
#     4  10  18  26  36  52  73  92 112 142 179 212
#     4   8  12  17  25  41  68  95 116 144 177 203
#     4   8  12  18  29  44  62  86 115 142 166 200
#     4   8  14  24  36  50  69  94 122 146 171 206
#
# _framework density 17.376318999999999
#
# number of rings (size 3 to 8) (size 9 to 14) (size 15 to 20)
#    0.000    3.714    0.000    4.071    0.000    3.429 
#    0.000    0.000    0.000    0.000    0.000    1.000 
#    0.000   35.429    0.000    6.286    0.000    5.714 
#
# Total GULP energy -155949.894723 kJ/mol
# GULP energy per Si atom -5569.639097 kJ/mol
# Density = 1.733677 g / cm^3
# Si number density = 17.376319 Si / 1000 Ang^3
#
#
#
# Elastic Constant Matrix: (Units=GPa)
#
#
# Indices 1 2 3 4 5 6 
#
# 1 61.6169 3.2899 4.6150 0.0000 0.0000 0.0000
# 2 3.2899 189.6192 91.8816 0.0000 0.0000 0.0000
# 3 4.6150 91.8816 129.6212 0.0000 0.0000 0.0000
# 4 0.0000 0.0000 0.0000 26.8462 0.0000 0.0000
# 5 0.0000 0.0000 0.0000 0.0000 -14.7633 0.0000
# 6 0.0000 0.0000 0.0000 0.0000 0.0000 -36.0620
#
#
#
# Elastic Compliance Matrix: (Units=1/GPa)
#
#
# Indices 1 2 3 4 5 6 
#
# 1 0.016273 -0.000002 -0.000578 0.000000 0.000000 0.000000
# 2 -0.000002 0.008033 -0.005694 0.000000 0.000000 0.000000
# 3 -0.000578 -0.005694 0.011771 0.000000 0.000000 0.000000
# 4 0.000000 0.000000 0.000000 0.037249 0.000000 0.000000
# 5 0.000000 0.000000 0.000000 0.000000 -0.067735 0.000000
# 6 0.000000 0.000000 0.000000 0.000000 0.000000 -0.027730
#
#
# Mechanical properties :
#
#
# Convention : Reuss Voigt Hill
#
# Bulk Modulus (GPa) = 42.50080 64.49226 53.49653
# Shear Modulus (GPa) = -2860.15224 13.94222 -1423.10501
#
# Velocity S-wave (km/s) = -40.61501 2.83569 -28.64907
# Velocity P-wave (km/s) = 46.63611 6.92222 32.61142
#
# Compressibility (1/GPa) = 0.02352897
#
# Stress axis : x y z
#
# Youngs Moduli (GPa) = 61.45255 124.48929 84.95103
#
# Poissons Ratio (x) = 0.00030 0.04907
# Poissons Ratio (y) = 0.00015 0.48371
# Poissons Ratio (z) = 0.03550 0.70884
#
# Static dielectric constant tensor:
#      x y z
#    x 1.642830 0.000000 0.000000 
#    y 0.000000 1.605330 0.000000 
#    z 0.000000 0.000000 1.564630 
# 
# From -- ./inp_files/13015.got.cif
#   From: 2010.05.17/outbox.cif.g08.bks.cpg/sg38_7_cif.got.tgz:13015.got - 2010.06.03 18:07:57.
