data_PCOD9355222
_publ_section_title
;
Structure prediction by ZEFSAII (Michael W. Deem and Ramdas Pophale) SiO2 
 PCOD9355222
Probable space group: C C C 2
;
_chemical_formula_sum "Si O2"
_cell_formula_units_Z 64
_cell_length_a 8.796258
_cell_length_b 31.085856
_cell_length_c 11.544116
_cell_angle_alpha 90.000000
_cell_angle_beta 90.000000
_cell_angle_gamma 90.000000
_cell_volume 3156.613954
_symmetry_space_group_name_H-M "C C C 2"
_symmetry_group_IT_number 37
_symmetry_cell_setting 'orthorhombic'
loop_
_space_group_symop_operation_xyz
x,y,z
-x,-y,z
-x,y,1/2+z
x,-y,1/2+z
1/2+x,1/2+y,z
1/2-x,1/2-y,z
1/2-x,1/2+y,1/2+z
1/2+x,1/2-y,1/2+z
loop_
_atom_site_type_symbol
_atom_site_label
_atom_site_fract_x
_atom_site_fract_y
_atom_site_fract_z
Si Si1 0.829404 0.017934 0.084410
Si Si2 0.733260 0.883785 0.838357
Si Si3 0.333709 0.209568 0.199879
Si Si4 0.425390 0.238691 0.530863
Si Si5 0.821909 0.119858 0.083285
Si Si6 0.675876 0.516785 0.841701
Si Si7 0.095303 0.177933 0.010348
Si Si8 0.085028 0.650709 0.896920
O O1 0.847620 0.069089 0.081138
O O2 0.760950 0.005752 0.211739
O O3 0.000000 0.000000 0.085030
O O4 0.757316 0.002446 0.962142
O O5 0.736384 0.871043 0.703502
O O6 0.803469 0.931593 0.851363
O O7 0.561613 0.879374 0.885059
O O8 0.834657 0.850082 0.908506
O O9 0.250000 0.250000 0.261414
O O10 0.491374 0.228351 0.151924
O O11 0.227286 0.196014 0.092827
O O12 0.355412 0.166902 0.273780
O O13 0.250000 0.250000 0.547457
O O14 0.503659 0.279880 0.472535
O O15 0.453983 0.196107 0.456997
O O16 0.975678 0.147396 0.077134
O O17 0.717244 0.131055 0.974434
O O18 0.500000 0.500000 0.839263
#
# Coordination Sequence:
#
# PCOD9355222 Si02
#       8
#     8   8   8   8   8   8   8   8
#     4   9  18  38  63  97 131 161 214 276 333 407
#     4  11  25  42  68  98 137 177 221 282 341 404
#     4  10  24  42  61  90 129 180 231 286 327 397
#     4  11  22  42  62  90 133 180 228 281 338 395
#     4  11  25  41  68 102 133 175 224 277 346 414
#     4   9  18  38  65  96 131 164 213 276 337 405
#     4  11  23  40  65  96 129 172 237 273 344 382
#     4  12  24  44  62  93 142 174 229 270 349 399
#
# _framework density 20.274889000000002
#
# number of rings (size 3 to 8) (size 9 to 14) (size 15 to 20)
#    0.000    1.500    2.500    2.625    1.750    1.000 
#    2.250    0.625    0.000    3.000    0.000    0.000 
#    0.000    0.000    0.000    0.000    0.000    0.000 
#
# Total GULP energy -178558.103764 kJ/mol
# GULP energy per Si atom -5579.940743 kJ/mol
# Density = 2.022874 g / cm^3
# Si number density = 20.274889 Si / 1000 Ang^3
#
#
#
# Elastic Constant Matrix: (Units=GPa)
#
#
# Indices 1 2 3 4 5 6 
#
# 1 95.1122 33.4760 24.1775 0.0000 0.0000 0.0000
# 2 33.4760 97.7954 31.6940 0.0000 0.0000 0.0000
# 3 24.1775 31.6940 94.1537 0.0000 0.0000 0.0000
# 4 0.0000 0.0000 0.0000 -83.5641 0.0000 0.0000
# 5 0.0000 0.0000 0.0000 0.0000 19.4707 0.0000
# 6 0.0000 0.0000 0.0000 0.0000 0.0000 23.4454
#
#
#
# Elastic Compliance Matrix: (Units=1/GPa)
#
#
# Indices 1 2 3 4 5 6 
#
# 1 0.012265 -0.003567 -0.001949 0.000000 0.000000 0.000000
# 2 -0.003567 0.012515 -0.003297 0.000000 0.000000 0.000000
# 3 -0.001949 -0.003297 0.012231 0.000000 0.000000 0.000000
# 4 0.000000 0.000000 0.000000 -0.011967 0.000000 0.000000
# 5 0.000000 0.000000 0.000000 0.000000 0.051359 0.000000
# 6 0.000000 0.000000 0.000000 0.000000 0.000000 0.042652
#
#
# Mechanical properties :
#
#
# Convention : Reuss Voigt Hill
#
# Bulk Modulus (GPa) = 51.58382 51.75067 51.66725
# Shear Modulus (GPa) = 34.93039 5.05133 19.99086
#
# Velocity S-wave (km/s) = 4.15521 1.58014 3.14346
# Velocity P-wave (km/s) = 6.96552 5.37671 6.22204
#
# Compressibility (1/GPa) = 0.01938592
#
# Stress axis : x y z
#
# Youngs Moduli (GPa) = 81.53534 79.90552 81.75853
#
# Poissons Ratio (x) = 0.28500 0.15933
# Poissons Ratio (y) = 0.29081 0.26955
# Poissons Ratio (z) = 0.15889 0.26344
#
# Static dielectric constant tensor:
#      x y z
#    x 1.717310 0.000000 0.000000 
#    y 0.000000 1.919560 0.000000 
#    z 0.000000 0.000000 1.798840 
# 
# From -- ./inp_files/6614.got.cif
#   From: 2010.05.17/outbox.cif.g08.bks.cpg/sg37_4_cif.got.tgz:6614.got - 2010.06.03 17:53:42.
