data_PCOD9355555
_publ_section_title
;
Structure prediction by ZEFSAII (Michael W. Deem and Ramdas Pophale) SiO2 
 PCOD9355555
Probable space group: C C C 2
;
_chemical_formula_sum "Si O2"
_cell_formula_units_Z 56
_cell_length_a 5.426344
_cell_length_b 30.206351
_cell_length_c 14.124168
_cell_angle_alpha 90.000000
_cell_angle_beta 90.000000
_cell_angle_gamma 90.000000
_cell_volume 2315.093104
_symmetry_space_group_name_H-M "C C C 2"
_symmetry_group_IT_number 37
_symmetry_cell_setting 'orthorhombic'
loop_
_space_group_symop_operation_xyz
x,y,z
-x,-y,z
-x,y,1/2+z
x,-y,1/2+z
1/2+x,1/2+y,z
1/2-x,1/2-y,z
1/2-x,1/2+y,1/2+z
1/2+x,1/2-y,1/2+z
loop_
_atom_site_type_symbol
_atom_site_label
_atom_site_fract_x
_atom_site_fract_y
_atom_site_fract_z
Si Si1 0.180826 0.298172 0.913730
Si Si2 0.500000 0.000000 0.550865
Si Si3 0.065918 0.922739 0.300001
Si Si4 0.229393 0.915979 0.624058
Si Si5 0.983505 0.649000 0.757375
Si Si6 0.360085 0.799144 0.082902
Si Si7 0.933528 0.131821 0.959503
Si Si8 0.500000 0.500000 0.434076
O O1 0.250000 0.250000 0.878991
O O2 0.969179 0.322954 0.853147
O O3 0.413923 0.329379 0.909927
O O4 0.111886 0.295943 0.024149
O O5 0.574282 0.045394 0.604662
O O6 0.758092 0.987978 0.496437
O O7 0.968322 0.935343 0.197318
O O8 0.121675 0.964767 0.362787
O O9 0.293646 0.889920 0.284549
O O10 0.861905 0.898655 0.369536
O O11 0.327640 0.873966 0.684575
O O12 0.111500 0.898438 0.526424
O O13 0.865291 0.687245 0.691410
O O14 0.250000 0.750000 0.069244
O O15 0.236831 0.842152 0.032757
#
# Coordination Sequence:
#
# PCOD9355555 Si02
#       8
#     8   4   8   8   8   8   8   4
#     4  11  23  44  66 102 145 191 246 311 381 462
#     4  12  32  50  84 116 158 204 266 332 400 482
#     4  11  27  46  75 105 153 196 254 318 389 470
#     4  12  26  47  77 108 150 202 257 320 398 478
#     4  11  26  43  71 105 143 194 254 313 386 468
#     4  12  23  41  71 101 143 190 247 313 379 460
#     4  11  23  46  69 106 143 196 249 306 387 460
#     4  12  30  52  78 118 156 204 258 332 398 480
#
# _framework density 24.18909
#
# number of rings (size 3 to 8) (size 9 to 14) (size 15 to 20)
#    0.000    0.571    5.714    1.286    8.000    0.000 
#    0.000    0.714    0.000    0.000    0.000    0.000 
#    0.000    0.000    0.000    0.000    0.000    0.000 
#
# Total GULP energy -156218.236681 kJ/mol
# GULP energy per Si atom -5579.222739 kJ/mol
# Density = 2.413403 g / cm^3
# Si number density = 24.189090 Si / 1000 Ang^3
#
#
#
# Elastic Constant Matrix: (Units=GPa)
#
#
# Indices 1 2 3 4 5 6 
#
# 1 58.5531 11.9175 16.1781 0.0000 0.0000 0.0000
# 2 11.9175 94.4711 45.7918 0.0000 0.0000 0.0000
# 3 16.1781 45.7918 116.7369 0.0000 0.0000 0.0000
# 4 0.0000 0.0000 0.0000 239.8833 0.0000 0.0000
# 5 0.0000 0.0000 0.0000 0.0000 30.6631 0.0000
# 6 0.0000 0.0000 0.0000 0.0000 0.0000 37.9855
#
#
#
# Elastic Compliance Matrix: (Units=1/GPa)
#
#
# Indices 1 2 3 4 5 6 
#
# 1 0.017887 -0.001303 -0.001968 0.000000 0.000000 0.000000
# 2 -0.001303 0.013165 -0.004984 0.000000 0.000000 0.000000
# 3 -0.001968 -0.004984 0.010794 0.000000 0.000000 0.000000
# 4 0.000000 0.000000 0.000000 0.004169 0.000000 0.000000
# 5 0.000000 0.000000 0.000000 0.000000 0.032612 0.000000
# 6 0.000000 0.000000 0.000000 0.000000 0.000000 0.026326
#
#
# Mechanical properties :
#
#
# Convention : Reuss Voigt Hill
#
# Bulk Modulus (GPa) = 39.46643 46.39288 42.92965
# Shear Modulus (GPa) = 38.48870 74.76464 56.62667
#
# Velocity S-wave (km/s) = 3.99326 5.56556 4.84364
# Velocity P-wave (km/s) = 6.13292 7.77956 7.00480
#
# Compressibility (1/GPa) = 0.02533799
#
# Stress axis : x y z
#
# Youngs Moduli (GPa) = 55.90534 75.95734 92.64433
#
# Poissons Ratio (x) = 0.09894 0.18232
# Poissons Ratio (y) = 0.07282 0.46172
# Poissons Ratio (z) = 0.11002 0.37855
#
# Static dielectric constant tensor:
#      x y z
#    x 2.035680 0.000000 0.000000 
#    y 0.000000 2.001810 0.000000 
#    z 0.000000 0.000000 1.976410 
# 
# From -- ./inp_files/9960.got.cif
#   From: 2010.05.17/outbox.cif.g08.bks.cpg/sg37_5_cif.got.tgz:9960.got - 2010.06.03 17:53:42.
