data_PCOD9355114
_publ_section_title
;
Structure prediction by ZEFSAII (Michael W. Deem and Ramdas Pophale) SiO2 
 PCOD9355114
Probable space group: C C C 2
;
_chemical_formula_sum "Si O2"
_cell_formula_units_Z 40
_cell_length_a 10.298695
_cell_length_b 22.186011
_cell_length_c 8.691938
_cell_angle_alpha 90.000000
_cell_angle_beta 90.000000
_cell_angle_gamma 90.000000
_cell_volume 1985.994495
_symmetry_space_group_name_H-M "C C C 2"
_symmetry_group_IT_number 37
_symmetry_cell_setting 'orthorhombic'
loop_
_space_group_symop_operation_xyz
x,y,z
-x,-y,z
-x,y,1/2+z
x,-y,1/2+z
1/2+x,1/2+y,z
1/2-x,1/2-y,z
1/2-x,1/2+y,1/2+z
1/2+x,1/2-y,1/2+z
loop_
_atom_site_type_symbol
_atom_site_label
_atom_site_fract_x
_atom_site_fract_y
_atom_site_fract_z
Si Si1 0.408695 0.416822 0.787670
Si Si2 0.920126 0.558653 0.310940
Si Si3 0.457443 0.855594 0.554298
Si Si4 0.642487 0.457256 0.941449
Si Si5 0.689403 0.186249 0.281579
O O1 0.560980 0.410957 0.832013
O O2 0.381187 0.472798 0.900954
O O3 0.391159 0.441368 0.615651
O O4 0.306042 0.362606 0.801450
O O5 0.879902 0.605527 0.178887
O O6 0.794098 0.546074 0.409267
O O7 0.000000 0.500000 0.254647
O O8 0.011597 0.594894 0.425360
O O9 0.382242 0.807788 0.448392
O O10 0.584650 0.832908 0.648758
O O11 0.750000 0.250000 0.237371
#
# Coordination Sequence:
#
# PCOD9355114 Si02
#       5
#     8   8   8   8   8
#     4  11  24  40  63  98 136 175 218 283 340 417
#     4  11  22  37  68  97 134 168 209 274 349 410
#     4  10  23  43  61  99 127 165 229 277 322 417
#     4  11  23  39  63 100 134 172 216 275 351 414
#     4  11  25  47  68  92 137 180 236 282 340 408
#
# _framework density 20.141044000000001
#
# number of rings (size 3 to 8) (size 9 to 14) (size 15 to 20)
#    0.000    1.200    2.000    5.400    8.400    1.600 
#    0.000    2.000    0.000    0.000    0.000    0.000 
#    0.000    0.000    0.000    0.000    0.000    0.000 
#
# Total GULP energy -111411.133453 kJ/mol
# GULP energy per Si atom -5570.556673 kJ/mol
# Density = 2.009520 g / cm^3
# Si number density = 20.141044 Si / 1000 Ang^3
#
#
#
# Elastic Constant Matrix: (Units=GPa)
#
#
# Indices 1 2 3 4 5 6 
#
# 1 60.8864 27.4770 8.1667 0.0000 0.0000 0.0000
# 2 27.4770 85.3068 29.6692 0.0000 0.0000 0.0000
# 3 8.1667 29.6692 84.9915 0.0000 0.0000 0.0000
# 4 0.0000 0.0000 0.0000 8.0370 0.0000 0.0000
# 5 0.0000 0.0000 0.0000 0.0000 17.5777 0.0000
# 6 0.0000 0.0000 0.0000 0.0000 0.0000 26.8676
#
#
#
# Elastic Compliance Matrix: (Units=1/GPa)
#
#
# Indices 1 2 3 4 5 6 
#
# 1 0.019227 -0.006317 0.000358 0.000000 0.000000 0.000000
# 2 -0.006317 0.015418 -0.004775 0.000000 0.000000 0.000000
# 3 0.000358 -0.004775 0.013398 0.000000 0.000000 0.000000
# 4 0.000000 0.000000 0.000000 0.124425 0.000000 0.000000
# 5 0.000000 0.000000 0.000000 0.000000 0.056890 0.000000
# 6 0.000000 0.000000 0.000000 0.000000 0.000000 0.037220
#
#
# Mechanical properties :
#
#
# Convention : Reuss Voigt Hill
#
# Bulk Modulus (GPa) = 37.63085 40.20116 38.91601
# Shear Modulus (GPa) = 16.84036 21.55457 19.19747
#
# Velocity S-wave (km/s) = 2.89471 3.27491 3.09066
# Velocity P-wave (km/s) = 5.46779 5.85689 5.66568
#
# Compressibility (1/GPa) = 0.02657394
#
# Stress axis : x y z
#
# Youngs Moduli (GPa) = 52.01024 64.85937 74.63566
#
# Poissons Ratio (x) = 0.40974 -0.02671
# Poissons Ratio (y) = 0.32857 0.35640
# Poissons Ratio (z) = -0.01861 0.30971
#
# Static dielectric constant tensor:
#      x y z
#    x 2.135150 0.000000 0.000000 
#    y 0.000000 1.889090 0.000000 
#    z 0.000000 0.000000 1.739650 
# 
# From -- ./inp_files/2212.got.cif
#   From: 2010.05.17/outbox.cif.g08.bks.cpg/sg37_2_cif.got.tgz:2212.got - 2010.06.03 17:53:42.
