data_PCOD9355654
_publ_section_title
;
Structure prediction by ZEFSAII (Michael W. Deem and Ramdas Pophale) SiO2 
 PCOD9355654
Probable space group: C C C 2
;
_chemical_formula_sum "Si O2"
_cell_formula_units_Z 48
_cell_length_a 5.865004
_cell_length_b 14.253004
_cell_length_c 24.949842
_cell_angle_alpha 90.000000
_cell_angle_beta 90.000000
_cell_angle_gamma 90.000000
_cell_volume 2085.655233
_symmetry_space_group_name_H-M "C C C 2"
_symmetry_group_IT_number 37
_symmetry_cell_setting 'orthorhombic'
loop_
_space_group_symop_operation_xyz
x,y,z
-x,-y,z
-x,y,1/2+z
x,-y,1/2+z
1/2+x,1/2+y,z
1/2-x,1/2-y,z
1/2-x,1/2+y,1/2+z
1/2+x,1/2-y,1/2+z
loop_
_atom_site_type_symbol
_atom_site_label
_atom_site_fract_x
_atom_site_fract_y
_atom_site_fract_z
Si Si1 0.699224 0.856910 0.215100
Si Si2 0.256240 0.947921 0.604885
Si Si3 0.104684 0.896008 0.494667
Si Si4 0.529506 0.888852 0.912261
Si Si5 0.500000 0.500000 0.782191
Si Si6 0.750000 0.750000 0.485283
Si Si7 0.151658 0.646234 0.300300
O O1 0.750000 0.750000 0.229817
O O2 0.736221 0.872774 0.152554
O O3 0.455331 0.877737 0.242591
O O4 0.867013 0.927274 0.245068
O O5 0.274690 0.909899 0.544464
O O6 0.500000 0.000000 0.614324
O O7 0.000000 0.000000 0.607750
O O8 0.224255 0.866646 0.439152
O O9 0.937031 0.813343 0.514710
O O10 0.000000 0.000000 0.486643
O O11 0.361604 0.829346 0.948513
O O12 0.486096 0.859232 0.851034
O O13 0.500000 0.000000 0.918244
O O14 0.669419 0.565170 0.814972
O O15 0.250000 0.750000 0.297823
#
# Coordination Sequence:
#
# PCOD9355654 Si02
#       7
#     8   8   8   8   4   4   8
#     4  12  26  47  75 109 146 198 259 318 392 469
#     4  11  26  50  82 113 157 210 260 331 395 469
#     4  11  25  48  77 112 153 202 259 323 388 475
#     4  12  26  46  74 111 152 204 255 324 389 465
#     4  12  24  48  70 100 152 190 248 320 384 456
#     4  12  26  46  78 108 158 194 258 320 394 466
#     4  12  27  45  75 110 150 200 261 316 396 468
#
# _framework density 23.014351999999999
#
# number of rings (size 3 to 8) (size 9 to 14) (size 15 to 20)
#    0.000    0.333    4.167    4.500    4.667    4.000 
#    0.000    0.000    1.833    0.000    0.000    0.000 
#    0.000    0.000    0.000    0.000    0.000    0.000 
#
# Total GULP energy -134029.652552 kJ/mol
# GULP energy per Si atom -5584.568856 kJ/mol
# Density = 2.296197 g / cm^3
# Si number density = 23.014352 Si / 1000 Ang^3
#
#
#
# Elastic Constant Matrix: (Units=GPa)
#
#
# Indices 1 2 3 4 5 6 
#
# 1 65.5251 34.7023 -2.4654 0.0000 0.0000 0.0000
# 2 34.7023 135.0543 10.3944 0.0000 0.0000 0.0000
# 3 -2.4654 10.3944 79.5198 0.0000 0.0000 0.0000
# 4 0.0000 0.0000 0.0000 6.3487 0.0000 0.0000
# 5 0.0000 0.0000 0.0000 0.0000 11.3735 0.0000
# 6 0.0000 0.0000 0.0000 0.0000 0.0000 32.5201
#
#
#
# Elastic Compliance Matrix: (Units=1/GPa)
#
#
# Indices 1 2 3 4 5 6 
#
# 1 0.017770 -0.004655 0.001159 0.000000 0.000000 0.000000
# 2 -0.004655 0.008699 -0.001281 0.000000 0.000000 0.000000
# 3 0.001159 -0.001281 0.012779 0.000000 0.000000 0.000000
# 4 0.000000 0.000000 0.000000 0.157513 0.000000 0.000000
# 5 0.000000 0.000000 0.000000 0.000000 0.087924 0.000000
# 6 0.000000 0.000000 0.000000 0.000000 0.000000 0.030750
#
#
# Mechanical properties :
#
#
# Convention : Reuss Voigt Hill
#
# Bulk Modulus (GPa) = 33.67691 40.59576 37.13633
# Shear Modulus (GPa) = 14.93034 25.87964 20.40499
#
# Velocity S-wave (km/s) = 2.54980 3.35699 2.98085
# Velocity P-wave (km/s) = 4.83047 5.71870 5.29325
#
# Compressibility (1/GPa) = 0.02969394
#
# Stress axis : x y z
#
# Youngs Moduli (GPa) = 56.27324 114.95240 78.25373
#
# Poissons Ratio (x) = 0.53514 -0.09073
# Poissons Ratio (y) = 0.26197 0.10028
# Poissons Ratio (z) = -0.06525 0.14731
#
# Static dielectric constant tensor:
#      x y z
#    x 2.033970 0.000000 0.000000 
#    y 0.000000 2.119500 0.000000 
#    z 0.000000 0.000000 1.763750 
# 
# From -- ./inp_files/19334.got.cif
#   From: 2010.05.17/outbox.cif.g08.bks.cpg/sg37_10_cif.got.tgz:19334.got - 2010.06.03 17:53:42.
