data_PCOD9355194
_publ_section_title
;
Structure prediction by ZEFSAII (Michael W. Deem and Ramdas Pophale) SiO2 
 PCOD9355194
Probable space group: C C C 2
;
_chemical_formula_sum "Si O2"
_cell_formula_units_Z 48
_cell_length_a 14.210549
_cell_length_b 5.366450
_cell_length_c 27.529080
_cell_angle_alpha 90.000000
_cell_angle_beta 90.000000
_cell_angle_gamma 90.000000
_cell_volume 2099.373165
_symmetry_space_group_name_H-M "C C C 2"
_symmetry_group_IT_number 37
_symmetry_cell_setting 'orthorhombic'
loop_
_space_group_symop_operation_xyz
x,y,z
-x,-y,z
-x,y,1/2+z
x,-y,1/2+z
1/2+x,1/2+y,z
1/2-x,1/2-y,z
1/2-x,1/2+y,1/2+z
1/2+x,1/2-y,1/2+z
loop_
_atom_site_type_symbol
_atom_site_label
_atom_site_fract_x
_atom_site_fract_y
_atom_site_fract_z
Si Si1 0.500000 0.500000 0.663831
Si Si2 0.146822 0.147913 0.827447
Si Si3 0.145013 0.781206 0.739306
Si Si4 0.500000 0.000000 0.284065
Si Si5 0.860770 0.759246 0.030609
Si Si6 0.636593 0.761123 0.591484
Si Si7 0.940377 0.250751 0.423630
O O1 0.582299 0.413819 0.699803
O O2 0.556903 0.701085 0.631457
O O3 0.250000 0.250000 0.812816
O O4 0.142660 0.182159 0.885587
O O5 0.046979 0.283395 0.815562
O O6 0.143344 0.902948 0.793468
O O7 0.250000 0.750000 0.722478
O O8 0.088828 0.531127 0.748729
O O9 0.750000 0.750000 0.021247
O O10 0.880343 0.530078 0.067216
O O11 0.878550 0.030952 0.053878
O O12 0.909422 0.719327 0.979229
O O13 0.750000 0.750000 0.605945
O O14 0.000000 0.500000 0.411301
O O15 0.000000 0.000000 0.421070
#
# Coordination Sequence:
#
# PCOD9355194 Si02
#       7
#     4   8   8   4   8   8   8
#     4  12  28  46  76 108 146 202 260 322 380 462
#     4  12  25  46  73 108 149 199 249 312 376 452
#     4  12  27  47  74 108 150 199 253 314 384 449
#     4  12  22  46  72 100 144 194 242 304 370 450
#     4  10  23  48  72 106 148 191 245 311 380 452
#     4  10  25  47  75 108 147 193 251 314 383 448
#     4  12  26  42  74 113 150 196 252 303 377 466
#
# _framework density 22.863966999999999
#
# number of rings (size 3 to 8) (size 9 to 14) (size 15 to 20)
#    0.000    0.667    4.167    2.500    3.500    5.333 
#    0.000    2.500    0.000    0.000    0.000    0.000 
#    0.000    0.000    0.000    0.000    0.000    0.000 
#
# Total GULP energy -133793.806851 kJ/mol
# GULP energy per Si atom -5574.741952 kJ/mol
# Density = 2.281193 g / cm^3
# Si number density = 22.863967 Si / 1000 Ang^3
#
#
#
# Elastic Constant Matrix: (Units=GPa)
#
#
# Indices 1 2 3 4 5 6 
#
# 1 182.1190 29.2423 57.5148 0.0000 0.0000 0.0000
# 2 29.2423 85.3497 37.3236 0.0000 0.0000 0.0000
# 3 57.5148 37.3236 81.3914 0.0000 0.0000 0.0000
# 4 0.0000 0.0000 0.0000 75.6185 0.0000 0.0000
# 5 0.0000 0.0000 0.0000 0.0000 -137.7610 0.0000
# 6 0.0000 0.0000 0.0000 0.0000 0.0000 33.4348
#
#
#
# Elastic Compliance Matrix: (Units=1/GPa)
#
#
# Indices 1 2 3 4 5 6 
#
# 1 0.007074 -0.000297 -0.004863 0.000000 0.000000 0.000000
# 2 -0.000297 0.014668 -0.006516 0.000000 0.000000 0.000000
# 3 -0.004863 -0.006516 0.018711 0.000000 0.000000 0.000000
# 4 0.000000 0.000000 0.000000 0.013224 0.000000 0.000000
# 5 0.000000 0.000000 0.000000 0.000000 -0.007259 0.000000
# 6 0.000000 0.000000 0.000000 0.000000 0.000000 0.029909
#
#
# Mechanical properties :
#
#
# Convention : Reuss Voigt Hill
#
# Bulk Modulus (GPa) = 58.47778 66.33571 62.40675
# Shear Modulus (GPa) = 47.44747 9.24376 28.34562
#
# Velocity S-wave (km/s) = 4.56039 2.01289 3.52483
# Velocity P-wave (km/s) = 7.30489 5.87184 6.62721
#
# Compressibility (1/GPa) = 0.01710051
#
# Stress axis : x y z
#
# Youngs Moduli (GPa) = 141.35599 68.17603 53.44554
#
# Poissons Ratio (x) = 0.02027 0.25989
# Poissons Ratio (y) = 0.04203 0.34826
# Poissons Ratio (z) = 0.68737 0.44425
#
# Static dielectric constant tensor:
#      x y z
#    x 1.882470 0.000000 0.000000 
#    y 0.000000 1.535600 0.000000 
#    z 0.000000 0.000000 2.065790 
# 
# From -- ./inp_files/19913.got.cif
#   From: 2010.05.17/outbox.cif.g08.bks.cpg/sg37_10_cif.got.tgz:19913.got - 2010.06.03 17:53:42.
