data_PCOD9355897
_publ_section_title
;
Structure prediction by ZEFSAII (Michael W. Deem and Ramdas Pophale) SiO2 
 PCOD9355897
Probable space group: A M M 2
;
_chemical_formula_sum "Si O2"
_cell_formula_units_Z 64
_cell_length_a 7.362870
_cell_length_b 20.081298
_cell_length_c 21.807876
_cell_angle_alpha 90.000000
_cell_angle_beta 90.000000
_cell_angle_gamma 90.000000
_cell_volume 3224.425022
_symmetry_space_group_name_H-M "A M M 2"
_symmetry_group_IT_number 38
_symmetry_cell_setting 'orthorhombic'
loop_
_space_group_symop_operation_xyz
x,y,z
-x,-y,z
-x,y,z
x,-y,z
x,1/2+y,1/2+z
-x,1/2-y,1/2+z
-x,1/2+y,1/2+z
x,1/2-y,1/2+z
loop_
_atom_site_type_symbol
_atom_site_label
_atom_site_fract_x
_atom_site_fract_y
_atom_site_fract_z
Si Si1 0.779458 0.573616 0.768470
Si Si2 0.718666 0.574349 0.388059
Si Si3 0.220580 0.073705 0.411149
Si Si4 0.777346 0.785904 0.457758
Si Si5 0.788530 0.286743 0.334945
Si Si6 0.280844 0.074735 0.029514
Si Si7 0.789466 0.284109 0.580322
Si Si8 0.777139 0.787398 0.214466
O O1 0.719517 0.500000 0.748227
O O2 0.726633 0.582916 0.839809
O O3 0.720924 0.636952 0.729762
O O4 0.000000 0.573378 0.767685
O O5 0.500000 0.574128 0.389036
O O6 0.778788 0.500000 0.370362
O O7 0.775962 0.634443 0.344883
O O8 0.777909 0.586237 0.458660
O O9 0.277018 0.137218 0.450337
O O10 0.000000 0.073481 0.411505
O O11 0.280292 0.000000 0.430910
O O12 0.713742 0.747272 0.396692
O O13 0.711863 0.750819 0.519739
O O14 0.000000 0.782733 0.457822
O O15 0.715944 0.258665 0.270974
O O16 0.000000 0.267527 0.334200
O O17 0.500000 0.075170 0.029978
O O18 0.222375 0.000000 0.047600
O O19 0.218081 0.136334 0.069875
O O20 0.712540 0.267599 0.646978
O O21 0.000000 0.264095 0.581898
O O22 0.000000 0.786649 0.212750
#
# Coordination Sequence:
#
# PCOD9355897 Si02
#       8
#     8   8   8   8   8   8   8   8
#     4   8  12  19  32  51  78 111 141 167 205 259
#     4   9  18  32  49  69  92 117 150 195 238 273
#     4   8  12  19  34  55  79 108 141 175 212 256
#     4   9  15  24  39  61  87 114 147 186 220 257
#     4  10  17  28  47  68  91 120 151 186 230 276
#     4   9  18  32  47  64  91 125 156 188 230 278
#     4  10  19  29  43  66  94 122 153 189 227 268
#     4   9  17  27  39  61  94 123 145 182 232 269
#
# _framework density 19.848500999999999
#
# number of rings (size 3 to 8) (size 9 to 14) (size 15 to 20)
#    0.000    3.000    2.500    1.500    0.000    1.000 
#    0.000    3.125    0.000    0.750    0.000    3.500 
#    0.000    3.000    0.000    0.000    0.000    0.250 
#
# Total GULP energy -178515.064604 kJ/mol
# GULP energy per Si atom -5578.595769 kJ/mol
# Density = 1.980332 g / cm^3
# Si number density = 19.848501 Si / 1000 Ang^3
#
#
#
# Elastic Constant Matrix: (Units=GPa)
#
#
# Indices 1 2 3 4 5 6 
#
# 1 70.6425 -5.7600 8.5725 0.0000 0.0000 0.0000
# 2 -5.7600 118.5343 85.7326 0.0000 0.0000 0.0000
# 3 8.5725 85.7326 154.6348 0.0000 0.0000 0.0000
# 4 0.0000 0.0000 0.0000 23.7584 0.0000 0.0000
# 5 0.0000 0.0000 0.0000 0.0000 -8.8488 0.0000
# 6 0.0000 0.0000 0.0000 0.0000 0.0000 47.2776
#
#
#
# Elastic Compliance Matrix: (Units=1/GPa)
#
#
# Indices 1 2 3 4 5 6 
#
# 1 0.014575 0.002158 -0.002004 0.000000 0.000000 0.000000
# 2 0.002158 0.014404 -0.008105 0.000000 0.000000 0.000000
# 3 -0.002004 -0.008105 0.011072 0.000000 0.000000 0.000000
# 4 0.000000 0.000000 0.000000 0.042090 0.000000 0.000000
# 5 0.000000 0.000000 0.000000 0.000000 -0.113009 0.000000
# 6 0.000000 0.000000 0.000000 0.000000 0.000000 0.021152
#
#
# Mechanical properties :
#
#
# Convention : Reuss Voigt Hill
#
# Bulk Modulus (GPa) = 41.41327 57.87798 49.64563
# Shear Modulus (GPa) = 351.23591 29.45520 190.34556
#
# Velocity S-wave (km/s) = 13.31700 3.85645 9.80344
# Velocity P-wave (km/s) = 16.04265 7.00377 12.37779
#
# Compressibility (1/GPa) = 0.02414685
#
# Stress axis : x y z
#
# Youngs Moduli (GPa) = 68.61074 69.42732 90.32051
#
# Poissons Ratio (x) = -0.14982 0.18104
# Poissons Ratio (y) = -0.14806 0.73207
# Poissons Ratio (z) = 0.13753 0.56273
#
# Static dielectric constant tensor:
#      x y z
#    x 1.821290 0.000000 0.000000 
#    y 0.000000 1.697680 0.000000 
#    z 0.000000 0.000000 1.684370 
# 
# From -- ./inp_files/17938.got.cif
#   From: 2010.05.17/outbox.cif.g08.bks.cpg/sg38_9_cif.got.tgz:17938.got - 2010.06.03 18:07:57.
