data_PCOD9355800
_publ_section_title
;
Structure prediction by ZEFSAII (Michael W. Deem and Ramdas Pophale) SiO2 
 PCOD9355800
Probable space group: A M M 2
;
_chemical_formula_sum "Si O2"
_cell_formula_units_Z 64
_cell_length_a 7.476377
_cell_length_b 31.387494
_cell_length_c 15.151670
_cell_angle_alpha 90.000000
_cell_angle_beta 90.000000
_cell_angle_gamma 90.000000
_cell_volume 3555.562674
_symmetry_space_group_name_H-M "A M M 2"
_symmetry_group_IT_number 38
_symmetry_cell_setting 'orthorhombic'
loop_
_space_group_symop_operation_xyz
x,y,z
-x,-y,z
-x,y,z
x,-y,z
x,1/2+y,1/2+z
-x,1/2-y,1/2+z
-x,1/2+y,1/2+z
x,1/2-y,1/2+z
loop_
_atom_site_type_symbol
_atom_site_label
_atom_site_fract_x
_atom_site_fract_y
_atom_site_fract_z
Si Si1 0.718071 0.366366 0.442440
Si Si2 0.715123 0.676477 0.258669
Si Si3 0.713623 0.047491 0.866744
Si Si4 0.283482 0.223880 0.271811
Si Si5 0.292166 0.785868 0.468312
Si Si6 0.215659 0.451693 0.160626
Si Si7 0.719519 0.296268 0.580205
Si Si8 0.202176 0.367516 0.078495
O O1 0.500000 0.366919 0.444888
O O2 0.769295 0.342782 0.352016
O O3 0.780539 0.414844 0.429566
O O4 0.775802 0.337228 0.523646
O O5 0.500000 0.671621 0.249955
O O6 0.754888 0.726263 0.258612
O O7 0.798539 0.653011 0.175889
O O8 0.500000 0.045621 0.878503
O O9 0.742346 0.058232 0.763235
O O10 0.786627 0.000000 0.881646
O O11 0.500000 0.218622 0.272729
O O12 0.215981 0.211611 0.369178
O O13 0.220023 0.202030 0.181661
O O14 0.500000 0.774177 0.456549
O O15 0.220965 0.747349 0.530051
O O16 0.284789 0.831283 0.516741
O O17 0.278887 0.500000 0.143067
O O18 0.283174 0.414364 0.096176
O O19 0.000000 0.451646 0.153892
O O20 0.500000 0.295195 0.581347
O O21 0.000000 0.373208 0.046345
#
# Coordination Sequence:
#
# PCOD9355800 Si02
#       8
#     8   8   8   8   8   8   8   8
#     4   9  15  23  39  64  90 115 142 174 213 250
#     4  10  16  26  45  65  87 115 146 178 208 244
#     4   9  16  25  40  64  90 113 141 178 216 252
#     4   9  16  26  43  66  85 109 149 185 209 242
#     4  10  18  29  46  64  83 110 147 184 214 250
#     4   9  18  31  44  59  83 114 144 173 208 257
#     4   9  15  24  42  65  86 110 146 183 209 244
#     4  11  21  30  42  64  90 116 144 174 217 261
#
# _framework density 17.999963999999999
#
# number of rings (size 3 to 8) (size 9 to 14) (size 15 to 20)
#    0.000    2.500    3.750    0.375    0.000    0.500 
#    0.000    0.625    0.000    0.750    0.000    0.875 
#    0.000    3.000    0.000    0.000    0.000    0.000 
#
# Total GULP energy -178388.454826 kJ/mol
# GULP energy per Si atom -5574.639213 kJ/mol
# Density = 1.795900 g / cm^3
# Si number density = 17.999964 Si / 1000 Ang^3
#
#
#
# Elastic Constant Matrix: (Units=GPa)
#
#
# Indices 1 2 3 4 5 6 
#
# 1 46.5594 2.3168 1.4940 0.0000 0.0000 0.0000
# 2 2.3168 107.8050 55.8489 0.0000 0.0000 0.0000
# 3 1.4940 55.8489 111.0455 0.0000 0.0000 0.0000
# 4 0.0000 0.0000 0.0000 23.2829 0.0000 0.0000
# 5 0.0000 0.0000 0.0000 0.0000 9.3755 0.0000
# 6 0.0000 0.0000 0.0000 0.0000 0.0000 7.2159
#
#
#
# Elastic Compliance Matrix: (Units=1/GPa)
#
#
# Indices 1 2 3 4 5 6 
#
# 1 0.021501 -0.000422 -0.000077 0.000000 0.000000 0.000000
# 2 -0.000422 0.012553 -0.006308 0.000000 0.000000 0.000000
# 3 -0.000077 -0.006308 0.012179 0.000000 0.000000 0.000000
# 4 0.000000 0.000000 0.000000 0.042950 0.000000 0.000000
# 5 0.000000 0.000000 0.000000 0.000000 0.106661 0.000000
# 6 0.000000 0.000000 0.000000 0.000000 0.000000 0.138583
#
#
# Mechanical properties :
#
#
# Convention : Reuss Voigt Hill
#
# Bulk Modulus (GPa) = 30.65662 42.74771 36.70217
# Shear Modulus (GPa) = 13.93094 21.69153 17.81123
#
# Velocity S-wave (km/s) = 2.78500 3.47520 3.14907
# Velocity P-wave (km/s) = 5.23547 6.31689 5.80143
#
# Compressibility (1/GPa) = 0.03261938
#
# Stress axis : x y z
#
# Youngs Moduli (GPa) = 46.50857 79.66385 82.11083
#
# Poissons Ratio (x) = 0.03364 0.00632
# Poissons Ratio (y) = 0.01964 0.51792
# Poissons Ratio (z) = 0.00358 0.50248
#
# Static dielectric constant tensor:
#      x y z
#    x 1.677650 0.000000 0.000000 
#    y 0.000000 1.640830 0.000000 
#    z 0.000000 0.000000 1.598950 
# 
# From -- ./inp_files/13079.got.cif
#   From: 2010.05.17/outbox.cif.g08.bks.cpg/sg38_7_cif.got.tgz:13079.got - 2010.06.03 18:07:57.
