data_PCOD9355507
_publ_section_title
;
Structure prediction by ZEFSAII (Michael W. Deem and Ramdas Pophale) SiO2 
 PCOD9355507
Probable space group: C C C 2
;
_chemical_formula_sum "Si O2"
_cell_formula_units_Z 56
_cell_length_a 8.504815
_cell_length_b 21.984339
_cell_length_c 13.760450
_cell_angle_alpha 90.000000
_cell_angle_beta 90.000000
_cell_angle_gamma 90.000000
_cell_volume 2572.828986
_symmetry_space_group_name_H-M "C C C 2"
_symmetry_group_IT_number 37
_symmetry_cell_setting 'orthorhombic'
loop_
_space_group_symop_operation_xyz
x,y,z
-x,-y,z
-x,y,1/2+z
x,-y,1/2+z
1/2+x,1/2+y,z
1/2-x,1/2-y,z
1/2-x,1/2+y,1/2+z
1/2+x,1/2-y,1/2+z
loop_
_atom_site_type_symbol
_atom_site_label
_atom_site_fract_x
_atom_site_fract_y
_atom_site_fract_z
Si Si1 0.303122 0.038728 0.870370
Si Si2 0.731205 0.418197 0.991444
Si Si3 0.388179 0.551135 0.184465
Si Si4 0.071307 0.626861 0.833128
Si Si5 0.108416 0.855553 0.467836
Si Si6 0.137945 0.844233 0.694861
Si Si7 0.077955 0.754328 0.301925
O O1 0.195810 0.024128 0.777608
O O2 0.469334 0.064946 0.831044
O O3 0.232944 0.097536 0.924511
O O4 0.277832 0.982685 0.943456
O O5 0.846402 0.372001 0.938441
O O6 0.556210 0.393134 0.970248
O O7 0.736892 0.425318 0.106661
O O8 0.500000 0.500000 0.136962
O O9 0.501244 0.605980 0.214003
O O10 0.207457 0.633264 0.751752
O O11 0.965209 0.685674 0.824750
O O12 0.153791 0.839653 0.578656
O O13 0.092953 0.797355 0.397299
O O14 0.062080 0.783147 0.738402
O O15 0.250000 0.750000 0.252980
#
# Coordination Sequence:
#
# PCOD9355507 Si02
#       7
#     8   8   8   8   8   8   8
#     4  12  23  44  70 102 146 181 230 287 356 434
#     4  11  24  41  69 104 134 184 231 287 358 425
#     4  11  22  42  72 101 137 184 233 284 349 434
#     4  12  25  44  69 100 145 183 231 298 355 421
#     4  11  23  45  72 101 136 189 235 289 358 429
#     4  11  24  43  70 105 136 184 241 290 359 420
#     4  12  24  48  67  98 138 187 242 297 353 420
#
# _framework density 21.765924999999999
#
# number of rings (size 3 to 8) (size 9 to 14) (size 15 to 20)
#    0.000    0.571    4.286    4.714    0.000    2.286 
#    7.714    2.857    0.000    0.000    0.000    0.000 
#    0.000    0.000    0.000    0.000    0.000    0.000 
#
# Total GULP energy -156515.374048 kJ/mol
# GULP energy per Si atom -5589.834787 kJ/mol
# Density = 2.171638 g / cm^3
# Si number density = 21.765925 Si / 1000 Ang^3
#
#
#
# Elastic Constant Matrix: (Units=GPa)
#
#
# Indices 1 2 3 4 5 6 
#
# 1 86.7560 25.3429 21.2387 0.0000 0.0000 0.0000
# 2 25.3429 96.6821 5.6608 0.0000 0.0000 0.0000
# 3 21.2387 5.6608 78.9471 0.0000 0.0000 0.0000
# 4 0.0000 0.0000 0.0000 19.8899 0.0000 0.0000
# 5 0.0000 0.0000 0.0000 0.0000 -1.8092 0.0000
# 6 0.0000 0.0000 0.0000 0.0000 0.0000 40.8710
#
#
#
# Elastic Compliance Matrix: (Units=1/GPa)
#
#
# Indices 1 2 3 4 5 6 
#
# 1 0.013307 -0.003292 -0.003344 0.000000 0.000000 0.000000
# 2 -0.003292 0.011201 0.000083 0.000000 0.000000 0.000000
# 3 -0.003344 0.000083 0.013560 0.000000 0.000000 0.000000
# 4 0.000000 0.000000 0.000000 0.050277 0.000000 0.000000
# 5 0.000000 0.000000 0.000000 0.000000 -0.552730 0.000000
# 6 0.000000 0.000000 0.000000 0.000000 0.000000 0.024467
#
#
# Mechanical properties :
#
#
# Convention : Reuss Voigt Hill
#
# Bulk Modulus (GPa) = 40.06179 40.76334 40.41256
# Shear Modulus (GPa) = -11.94774 25.79985 6.92605
#
# Velocity S-wave (km/s) = -2.34544 3.44660 1.78577
# Velocity P-wave (km/s) = 3.33330 5.88281 4.78113
#
# Compressibility (1/GPa) = 0.02496144
#
# Stress axis : x y z
#
# Youngs Moduli (GPa) = 75.14882 89.27495 73.74440
#
# Poissons Ratio (x) = 0.29392 0.24659
# Poissons Ratio (y) = 0.24741 -0.00609
# Poissons Ratio (z) = 0.25128 -0.00737
#
# Static dielectric constant tensor:
#      x y z
#    x 1.854320 0.000000 0.000000 
#    y 0.000000 1.811870 0.000000 
#    z 0.000000 0.000000 1.761600 
# 
# From -- ./inp_files/10823.got.cif
#   From: 2010.05.17/outbox.cif.g08.bks.cpg/sg37_6_cif.got.tgz:10823.got - 2010.06.03 17:53:42.
