data_PCOD9355729
_publ_section_title
;
Structure prediction by ZEFSAII (Michael W. Deem and Ramdas Pophale) SiO2 
 PCOD9355729
Probable space group: C C C 2
;
_chemical_formula_sum "Si O2"
_cell_formula_units_Z 32
_cell_length_a 4.760847
_cell_length_b 31.903005
_cell_length_c 8.270171
_cell_angle_alpha 90.000000
_cell_angle_beta 90.000000
_cell_angle_gamma 90.000000
_cell_volume 1256.117615
_symmetry_space_group_name_H-M "C C C 2"
_symmetry_group_IT_number 37
_symmetry_cell_setting 'orthorhombic'
loop_
_space_group_symop_operation_xyz
x,y,z
-x,-y,z
-x,y,1/2+z
x,-y,1/2+z
1/2+x,1/2+y,z
1/2-x,1/2-y,z
1/2-x,1/2+y,1/2+z
1/2+x,1/2-y,1/2+z
loop_
_atom_site_type_symbol
_atom_site_label
_atom_site_fract_x
_atom_site_fract_y
_atom_site_fract_z
Si Si1 0.871527 0.329731 0.426840
Si Si2 0.149779 0.796124 0.103636
Si Si3 0.405052 0.546867 0.671008
Si Si4 0.923364 0.577460 0.483477
O O1 0.744035 0.326001 0.249379
O O2 0.665348 0.305623 0.550405
O O3 0.168730 0.306829 0.444383
O O4 0.930669 0.377350 0.475979
O O5 0.250000 0.750000 0.154382
O O6 0.500000 0.500000 0.708782
O O7 0.678213 0.572819 0.616909
O O8 0.237153 0.567440 0.818098
O O9 0.177302 0.546163 0.525776
#
# Coordination Sequence:
#
# PCOD9355729 Si02
#       4
#     8   8   8   8
#     4  12  27  47  74 108 147 195 247 308 377 448
#     4  12  25  47  74 107 146 194 248 308 374 450
#     4  12  27  50  78 111 151 201 254 313 380 454
#     4  12  27  50  76 110 151 198 255 315 378 454
#
# _framework density 25.475322999999999
#
# number of rings (size 3 to 8) (size 9 to 14) (size 15 to 20)
#    0.000    0.000    0.000    9.750    0.000    6.000 
#    0.000    3.750    0.000    0.000    0.000    0.000 
#    0.000    0.000    0.000    0.000    0.000    0.000 
#
# Total GULP energy -89803.278062 kJ/mol
# GULP energy per Si atom -5612.704879 kJ/mol
# Density = 2.541734 g / cm^3
# Si number density = 25.475323 Si / 1000 Ang^3
#
#
#
# Elastic Constant Matrix: (Units=GPa)
#
#
# Indices 1 2 3 4 5 6 
#
# 1 159.5986 51.5729 33.1778 0.0000 0.0000 0.0000
# 2 51.5729 145.3122 28.0089 0.0000 0.0000 0.0000
# 3 33.1778 28.0089 95.2608 0.0000 0.0000 0.0000
# 4 0.0000 0.0000 0.0000 24.5676 0.0000 0.0000
# 5 0.0000 0.0000 0.0000 0.0000 40.5329 0.0000
# 6 0.0000 0.0000 0.0000 0.0000 0.0000 48.1154
#
#
#
# Elastic Compliance Matrix: (Units=1/GPa)
#
#
# Indices 1 2 3 4 5 6 
#
# 1 0.007392 -0.002255 -0.001911 0.000000 0.000000 0.000000
# 2 -0.002255 0.007983 -0.001562 0.000000 0.000000 0.000000
# 3 -0.001911 -0.001562 0.011622 0.000000 0.000000 0.000000
# 4 0.000000 0.000000 0.000000 0.040704 0.000000 0.000000
# 5 0.000000 0.000000 0.000000 0.000000 0.024671 0.000000
# 6 0.000000 0.000000 0.000000 0.000000 0.000000 0.020783
#
#
# Mechanical properties :
#
#
# Convention : Reuss Voigt Hill
#
# Bulk Modulus (GPa) = 64.34676 69.52121 66.93398
# Shear Modulus (GPa) = 38.52294 41.80396 40.16345
#
# Velocity S-wave (km/s) = 3.89288 4.05527 3.97490
# Velocity P-wave (km/s) = 6.74680 7.01967 6.88459
#
# Compressibility (1/GPa) = 0.01554080
#
# Stress axis : x y z
#
# Youngs Moduli (GPa) = 135.28600 125.26462 86.04050
#
# Poissons Ratio (x) = 0.28247 0.16446
# Poissons Ratio (y) = 0.30507 0.13438
# Poissons Ratio (z) = 0.25859 0.19564
#
# Static dielectric constant tensor:
#      x y z
#    x 1.938250 0.000000 0.000000 
#    y 0.000000 2.020330 0.000000 
#    z 0.000000 0.000000 2.034510 
# 
# From -- ./inp_files/1754.got.cif
#   From: 2010.05.17/outbox.cif.g08.bks.cpg/sg37_1_cif.got.tgz:1754.got - 2010.06.03 17:53:42.
