data_PCOD9355913
_publ_section_title
;
Structure prediction by ZEFSAII (Michael W. Deem and Ramdas Pophale) SiO2 
 PCOD9355913
Probable space group: A M M 2
;
_chemical_formula_sum "Si O2"
_cell_formula_units_Z 64
_cell_length_a 7.493310
_cell_length_b 21.160630
_cell_length_c 20.717687
_cell_angle_alpha 90.000000
_cell_angle_beta 90.000000
_cell_angle_gamma 90.000000
_cell_volume 3285.061927
_symmetry_space_group_name_H-M "A M M 2"
_symmetry_group_IT_number 38
_symmetry_cell_setting 'orthorhombic'
loop_
_space_group_symop_operation_xyz
x,y,z
-x,-y,z
-x,y,z
x,-y,z
x,1/2+y,1/2+z
-x,1/2-y,1/2+z
-x,1/2+y,1/2+z
x,1/2-y,1/2+z
loop_
_atom_site_type_symbol
_atom_site_label
_atom_site_fract_x
_atom_site_fract_y
_atom_site_fract_z
Si Si1 0.219230 0.689330 0.710730
Si Si2 0.204256 0.216273 0.351958
Si Si3 0.290670 0.637915 0.347461
Si Si4 0.218530 0.727172 0.992024
Si Si5 0.785315 0.374085 0.489666
Si Si6 0.714002 0.070261 0.719319
Si Si7 0.212960 0.311852 0.130235
Si Si8 0.782036 0.429559 0.624385
O O1 0.282440 0.691731 0.784788
O O2 0.278526 0.752534 0.672930
O O3 0.273370 0.626967 0.671682
O O4 0.000000 0.690816 0.711772
O O5 0.203108 0.292860 0.348135
O O6 0.283203 0.202239 0.422590
O O7 0.000000 0.193613 0.353304
O O8 0.500000 0.649672 0.336890
O O9 0.269804 0.606670 0.417703
O O10 0.220808 0.596464 0.288381
O O11 0.278511 0.692344 0.056702
O O12 0.000000 0.726172 0.989552
O O13 0.270326 0.800891 0.998208
O O14 0.724016 0.413681 0.551205
O O15 0.000000 0.375022 0.490577
O O16 0.500000 0.066225 0.724331
O O17 0.752437 0.122664 0.665773
O O18 0.782261 0.000000 0.705458
O O19 0.000000 0.303604 0.126751
O O20 0.725462 0.500000 0.643156
O O21 0.000000 0.428784 0.624294
#
# Coordination Sequence:
#
# PCOD9355913 Si02
#       8
#     8   8   8   8   8   8   8   8
#     4   9  15  25  45  71  95 123 158 194 230 269
#     4   9  16  28  48  70  94 124 154 187 231 279
#     4  10  19  30  45  66  92 122 156 192 229 273
#     4   8  14  25  44  68  93 118 146 189 239 273
#     4   9  16  28  45  66  95 129 158 184 222 273
#     4  10  22  37  48  63  93 128 156 190 241 287
#     4  10  17  29  50  72  91 117 159 201 232 271
#     4   9  16  26  43  70 101 129 157 191 230 271
#
# _framework density 19.482129
#
# number of rings (size 3 to 8) (size 9 to 14) (size 15 to 20)
#    0.000    2.750    2.500    1.125    0.000    1.250 
#    0.000    2.500    0.000    1.500    0.000    3.500 
#    0.000    0.000    0.000    0.000    0.000    0.000 
#
# Total GULP energy -178473.596049 kJ/mol
# GULP energy per Si atom -5577.299877 kJ/mol
# Density = 1.943779 g / cm^3
# Si number density = 19.482129 Si / 1000 Ang^3
#
#
#
# Elastic Constant Matrix: (Units=GPa)
#
#
# Indices 1 2 3 4 5 6 
#
# 1 51.8777 -4.3618 3.8383 0.0000 0.0000 0.0000
# 2 -4.3618 113.0569 95.1745 0.0000 0.0000 0.0000
# 3 3.8383 95.1745 202.5990 0.0000 0.0000 0.0000
# 4 0.0000 0.0000 0.0000 18.4519 0.0000 0.0000
# 5 0.0000 0.0000 0.0000 0.0000 21.9907 0.0000
# 6 0.0000 0.0000 0.0000 0.0000 0.0000 32.6068
#
#
#
# Elastic Compliance Matrix: (Units=1/GPa)
#
#
# Indices 1 2 3 4 5 6 
#
# 1 0.019513 0.001760 -0.001196 0.000000 0.000000 0.000000
# 2 0.001760 0.014790 -0.006981 0.000000 0.000000 0.000000
# 3 -0.001196 -0.006981 0.008238 0.000000 0.000000 0.000000
# 4 0.000000 0.000000 0.000000 0.054195 0.000000 0.000000
# 5 0.000000 0.000000 0.000000 0.000000 0.045474 0.000000
# 6 0.000000 0.000000 0.000000 0.000000 0.000000 0.030668
#
#
# Mechanical properties :
#
#
# Convention : Reuss Voigt Hill
#
# Bulk Modulus (GPa) = 33.66391 61.87061 47.76726
# Shear Modulus (GPa) = 25.56041 32.80206 29.18123
#
# Velocity S-wave (km/s) = 3.62607 4.10774 3.87440
# Velocity P-wave (km/s) = 5.90323 7.37052 6.67730
#
# Compressibility (1/GPa) = 0.02970540
#
# Stress axis : x y z
#
# Youngs Moduli (GPa) = 51.24886 67.61338 121.38770
#
# Poissons Ratio (x) = -0.11900 0.14524
# Poissons Ratio (y) = -0.09020 0.84743
# Poissons Ratio (z) = 0.06132 0.47202
#
# Static dielectric constant tensor:
#      x y z
#    x 1.744820 0.000000 0.000000 
#    y 0.000000 1.650280 0.000000 
#    z 0.000000 0.000000 1.709360 
# 
# From -- ./inp_files/20049.got.cif
#   From: 2010.05.17/outbox.cif.g08.bks.cpg/sg38_11_cif.got.tgz:20049.got - 2010.06.03 18:07:57.
