data_PCOD9355218
_publ_section_title
;
Structure prediction by ZEFSAII (Michael W. Deem and Ramdas Pophale) SiO2 
 PCOD9355218
Probable space group: C C C 2
;
_chemical_formula_sum "Si O2"
_cell_formula_units_Z 52
_cell_length_a 21.620139
_cell_length_b 5.087098
_cell_length_c 22.546506
_cell_angle_alpha 90.000000
_cell_angle_beta 90.000000
_cell_angle_gamma 90.000000
_cell_volume 2479.749637
_symmetry_space_group_name_H-M "C C C 2"
_symmetry_group_IT_number 37
_symmetry_cell_setting 'orthorhombic'
loop_
_space_group_symop_operation_xyz
x,y,z
-x,-y,z
-x,y,1/2+z
x,-y,1/2+z
1/2+x,1/2+y,z
1/2-x,1/2-y,z
1/2-x,1/2+y,1/2+z
1/2+x,1/2-y,1/2+z
loop_
_atom_site_type_symbol
_atom_site_label
_atom_site_fract_x
_atom_site_fract_y
_atom_site_fract_z
Si Si1 0.794524 0.988780 0.892140
Si Si2 0.642661 0.149586 0.095047
Si Si3 0.622193 0.715522 0.294344
Si Si4 0.750000 0.250000 0.177338
Si Si5 0.440201 0.624552 0.195312
Si Si6 0.500000 0.000000 0.292178
Si Si7 0.178029 0.171038 0.024230
Si Si8 0.250000 0.250000 0.247990
O O1 0.750000 0.250000 0.898484
O O2 0.849168 0.025891 0.844568
O O3 0.750000 0.750000 0.874266
O O4 0.823524 0.908778 0.955360
O O5 0.702074 0.099936 0.135828
O O6 0.592008 0.203609 0.145141
O O7 0.657543 0.419426 0.061441
O O8 0.637731 0.915816 0.047895
O O9 0.598727 0.593164 0.231730
O O10 0.560546 0.858580 0.320573
O O11 0.687238 0.862655 0.279041
O O12 0.724745 0.490750 0.215469
O O13 0.500000 0.500000 0.165272
O O14 0.465890 0.795903 0.249308
O O15 0.250000 0.250000 0.033991
#
# Coordination Sequence:
#
# PCOD9355218 Si02
#       8
#     8   8   8   4   8   4   8   4
#     4  11  25  42  68 102 142 182 229 291 356 421
#     4  12  22  37  64  93 132 174 222 272 342 414
#     4  11  24  41  68 103 142 188 226 293 354 434
#     4  12  22  34  57  98 139 170 206 278 340 430
#     4  10  24  41  66  98 135 182 232 280 350 418
#     4  10  24  46  64  96 144 188 232 278 356 438
#     4  11  22  40  60  97 134 175 219 277 345 411
#     4  12  24  36  63 104 145 166 224 280 360 412
#
# _framework density 20.969857000000001
#
# number of rings (size 3 to 8) (size 9 to 14) (size 15 to 20)
#    0.000    0.923    3.846    3.692    7.538    0.000 
#    0.000    0.000    0.000    3.692    0.000    0.000 
#    0.000    0.000    0.000    0.000    0.000    0.000 
#
# Total GULP energy -144836.824814 kJ/mol
# GULP energy per Si atom -5570.647108 kJ/mol
# Density = 2.092213 g / cm^3
# Si number density = 20.969857 Si / 1000 Ang^3
#
#
#
# Elastic Constant Matrix: (Units=GPa)
#
#
# Indices 1 2 3 4 5 6 
#
# 1 125.9520 24.8620 47.6050 0.0000 0.0000 0.0000
# 2 24.8620 101.1642 34.9015 0.0000 0.0000 0.0000
# 3 47.6050 34.9015 89.7302 0.0000 0.0000 0.0000
# 4 0.0000 0.0000 0.0000 35.4797 0.0000 0.0000
# 5 0.0000 0.0000 0.0000 0.0000 -23.8296 0.0000
# 6 0.0000 0.0000 0.0000 0.0000 0.0000 31.7813
#
#
#
# Elastic Compliance Matrix: (Units=1/GPa)
#
#
# Indices 1 2 3 4 5 6 
#
# 1 0.009976 -0.000723 -0.005012 0.000000 0.000000 0.000000
# 2 -0.000723 0.011469 -0.004078 0.000000 0.000000 0.000000
# 3 -0.005012 -0.004078 0.015389 0.000000 0.000000 0.000000
# 4 0.000000 0.000000 0.000000 0.028185 0.000000 0.000000
# 5 0.000000 0.000000 0.000000 0.000000 -0.041965 0.000000
# 6 0.000000 0.000000 0.000000 0.000000 0.000000 0.031465
#
#
# Mechanical properties :
#
#
# Convention : Reuss Voigt Hill
#
# Bulk Modulus (GPa) = 58.10261 59.06483 58.58372
# Shear Modulus (GPa) = 62.59230 22.65147 42.62189
#
# Velocity S-wave (km/s) = 5.46932 3.29019 4.51325
# Velocity P-wave (km/s) = 8.22511 6.53158 7.42678
#
# Compressibility (1/GPa) = 0.01721093
#
# Stress axis : x y z
#
# Youngs Moduli (GPa) = 100.23616 87.18906 64.97956
#
# Poissons Ratio (x) = 0.06302 0.32566
# Poissons Ratio (y) = 0.07245 0.26496
# Poissons Ratio (z) = 0.50236 0.35553
#
# Static dielectric constant tensor:
#      x y z
#    x 1.974700 0.000000 0.000000 
#    y 0.000000 1.625540 0.000000 
#    z 0.000000 0.000000 1.794660 
# 
# From -- ./inp_files/17474.got.cif
#   From: 2010.05.17/outbox.cif.g08.bks.cpg/sg37_9_cif.got.tgz:17474.got - 2010.06.03 17:53:42.
