data_PCOD9355885
_publ_section_title
;
Structure prediction by ZEFSAII (Michael W. Deem and Ramdas Pophale) SiO2 
 PCOD9355885
Probable space group: A M M 2
;
_chemical_formula_sum "Si O2"
_cell_formula_units_Z 64
_cell_length_a 7.676106
_cell_length_b 28.576178
_cell_length_c 15.353725
_cell_angle_alpha 90.000000
_cell_angle_beta 90.000000
_cell_angle_gamma 90.000000
_cell_volume 3367.897484
_symmetry_space_group_name_H-M "A M M 2"
_symmetry_group_IT_number 38
_symmetry_cell_setting 'orthorhombic'
loop_
_space_group_symop_operation_xyz
x,y,z
-x,-y,z
-x,y,z
x,-y,z
x,1/2+y,1/2+z
-x,1/2-y,1/2+z
-x,1/2+y,1/2+z
x,1/2-y,1/2+z
loop_
_atom_site_type_symbol
_atom_site_label
_atom_site_fract_x
_atom_site_fract_y
_atom_site_fract_z
Si Si1 0.291607 0.863329 0.650770
Si Si2 0.797676 0.866997 0.101099
Si Si3 0.213066 0.945841 0.971873
Si Si4 0.706692 0.676703 0.778983
Si Si5 0.289934 0.217914 0.976634
Si Si6 0.287252 0.826030 0.472578
Si Si7 0.713067 0.217652 0.778126
Si Si8 0.790542 0.553000 0.276279
O O1 0.500000 0.857714 0.646673
O O2 0.226093 0.858067 0.552115
O O3 0.223629 0.820601 0.710051
O O4 0.257916 0.911006 0.701585
O O5 0.732825 0.857364 0.198222
O O6 0.776135 0.819575 0.045271
O O7 0.000000 0.877291 0.110295
O O8 0.721000 0.909404 0.043777
O O9 0.269330 0.932475 0.873545
O O10 0.000000 0.944474 0.972056
O O11 0.262290 0.000000 0.987200
O O12 0.500000 0.682081 0.789216
O O13 0.773812 0.662400 0.874673
O O14 0.772113 0.729353 0.758580
O O15 0.500000 0.216522 0.980709
O O16 0.239260 0.271906 0.992168
O O17 0.236634 0.206010 0.877546
O O18 0.500000 0.827558 0.471292
O O19 0.500000 0.217297 0.775747
O O20 0.728511 0.500000 0.260461
O O21 0.000000 0.551608 0.279851
#
# Coordination Sequence:
#
# PCOD9355885 Si02
#       8
#     8   8   8   8   8   8   8   8
#     4  10  17  27  46  71  94 114 146 190 228 259
#     4  11  20  28  44  71  94 114 150 194 230 263
#     4   8  16  32  50  65  87 120 150 177 218 275
#     4   9  17  32  49  63  88 127 161 184 215 261
#     4   9  16  29  47  66  92 125 154 177 213 266
#     4   8  16  30  48  67  88 122 162 188 210 258
#     4   8  15  27  46  70  92 118 152 184 213 260
#     4   9  18  33  50  67  89 118 149 178 217 275
#
# _framework density 19.002953999999999
#
# number of rings (size 3 to 8) (size 9 to 14) (size 15 to 20)
#    0.000    3.000    0.000    4.125    0.000    2.250 
#    0.000    6.250    0.000    3.750    0.000    3.500 
#    0.000    0.000    0.000    0.000    0.000    0.000 
#
# Total GULP energy -178429.378150 kJ/mol
# GULP energy per Si atom -5575.918067 kJ/mol
# Density = 1.895970 g / cm^3
# Si number density = 19.002954 Si / 1000 Ang^3
#
#
#
# Elastic Constant Matrix: (Units=GPa)
#
#
# Indices 1 2 3 4 5 6 
#
# 1 26.1356 -0.1918 4.4333 0.0000 0.0000 0.0000
# 2 -0.1918 91.7519 103.9396 0.0000 0.0000 0.0000
# 3 4.4333 103.9396 173.5952 0.0000 0.0000 0.0000
# 4 0.0000 0.0000 0.0000 32.8993 0.0000 0.0000
# 5 0.0000 0.0000 0.0000 0.0000 -0.2444 0.0000
# 6 0.0000 0.0000 0.0000 0.0000 0.0000 16.5749
#
#
#
# Elastic Compliance Matrix: (Units=1/GPa)
#
#
# Indices 1 2 3 4 5 6 
#
# 1 0.038838 0.003745 -0.003234 0.000000 0.000000 0.000000
# 2 0.003745 0.034238 -0.020596 0.000000 0.000000 0.000000
# 3 -0.003234 -0.020596 0.018175 0.000000 0.000000 0.000000
# 4 0.000000 0.000000 0.000000 0.030396 0.000000 0.000000
# 5 0.000000 0.000000 0.000000 0.000000 -4.090822 0.000000
# 6 0.000000 0.000000 0.000000 0.000000 0.000000 0.060332
#
#
# Mechanical properties :
#
#
# Convention : Reuss Voigt Hill
#
# Bulk Modulus (GPa) = 19.57664 56.42721 38.00193
# Shear Modulus (GPa) = -1.29815 22.06606 10.38396
#
# Velocity S-wave (km/s) = -0.82741 3.41132 2.34014
# Velocity P-wave (km/s) = 3.06781 6.72864 5.22905
#
# Compressibility (1/GPa) = 0.05108128
#
# Stress axis : x y z
#
# Youngs Moduli (GPa) = 25.74792 29.20707 55.02140
#
# Poissons Ratio (x) = -0.10938 0.17794
# Poissons Ratio (y) = -0.09642 1.13321
# Poissons Ratio (z) = 0.08327 0.60154
#
# Static dielectric constant tensor:
#      x y z
#    x 1.725900 0.000000 0.000000 
#    y 0.000000 1.649450 0.000000 
#    z 0.000000 0.000000 1.685300 
# 
# From -- ./inp_files/13048.got.cif
#   From: 2010.05.17/outbox.cif.g08.bks.cpg/sg38_7_cif.got.tgz:13048.got - 2010.06.03 18:07:57.
