data_PCOD9355398
_publ_section_title
;
Structure prediction by ZEFSAII (Michael W. Deem and Ramdas Pophale) SiO2 
 PCOD9355398
Probable space group: C C C 2
;
_chemical_formula_sum "Si O2"
_cell_formula_units_Z 40
_cell_length_a 8.810759
_cell_length_b 19.859106
_cell_length_c 11.370899
_cell_angle_alpha 90.000000
_cell_angle_beta 90.000000
_cell_angle_gamma 90.000000
_cell_volume 1989.609372
_symmetry_space_group_name_H-M "C C C 2"
_symmetry_group_IT_number 37
_symmetry_cell_setting 'orthorhombic'
loop_
_space_group_symop_operation_xyz
x,y,z
-x,-y,z
-x,y,1/2+z
x,-y,1/2+z
1/2+x,1/2+y,z
1/2-x,1/2-y,z
1/2-x,1/2+y,1/2+z
1/2+x,1/2-y,1/2+z
loop_
_atom_site_type_symbol
_atom_site_label
_atom_site_fract_x
_atom_site_fract_y
_atom_site_fract_z
Si Si1 0.693974 0.384248 0.974490
Si Si2 0.500000 0.500000 0.591415
Si Si3 0.773783 0.893921 0.198628
Si Si4 0.040433 0.656484 0.132544
Si Si5 0.250000 0.750000 0.302439
Si Si6 0.065879 0.209690 0.021041
O O1 0.708896 0.380865 0.835902
O O2 0.589283 0.446407 0.012410
O O3 0.849449 0.383631 0.045744
O O4 0.603174 0.318265 0.013719
O O5 0.628129 0.459931 0.665159
O O6 0.592548 0.892139 0.178642
O O7 0.848819 0.835260 0.118192
O O8 0.143849 0.698779 0.226820
O O9 0.950748 0.713909 0.060690
O O10 0.144367 0.792401 0.393086
#
# Coordination Sequence:
#
# PCOD9355398 Si02
#       6
#     8   4   8   8   4   8
#     4  11  24  44  67  92 131 171 222 268 325 391
#     4  10  26  48  66  92 118 182 228 270 336 374
#     4  11  24  44  68  95 133 171 224 272 322 395
#     4  12  23  40  66 106 130 174 212 268 335 391
#     4  12  22  38  64 104 146 166 214 262 332 414
#     4  11  22  40  66 100 136 173 208 258 339 399
#
# _framework density 20.104448999999999
#
# number of rings (size 3 to 8) (size 9 to 14) (size 15 to 20)
#    0.000    0.800    4.000    3.000    2.800    2.400 
#    0.000    2.000    0.000    0.000    0.000    0.000 
#    0.000    0.000    0.000    0.000    0.000    0.000 
#
# Total GULP energy -111661.774842 kJ/mol
# GULP energy per Si atom -5583.088742 kJ/mol
# Density = 2.005869 g / cm^3
# Si number density = 20.104449 Si / 1000 Ang^3
#
#
#
# Elastic Constant Matrix: (Units=GPa)
#
#
# Indices 1 2 3 4 5 6 
#
# 1 138.8945 33.6423 66.7831 0.0000 0.0000 0.0000
# 2 33.6423 61.0375 21.5327 0.0000 0.0000 0.0000
# 3 66.7831 21.5327 135.7772 0.0000 0.0000 0.0000
# 4 0.0000 0.0000 0.0000 16.5131 0.0000 0.0000
# 5 0.0000 0.0000 0.0000 0.0000 35.8699 0.0000
# 6 0.0000 0.0000 0.0000 0.0000 0.0000 18.9636
#
#
#
# Elastic Compliance Matrix: (Units=1/GPa)
#
#
# Indices 1 2 3 4 5 6 
#
# 1 0.010328 -0.004132 -0.004425 0.000000 0.000000 0.000000
# 2 -0.004132 0.019007 -0.000982 0.000000 0.000000 0.000000
# 3 -0.004425 -0.000982 0.009697 0.000000 0.000000 0.000000
# 4 0.000000 0.000000 0.000000 0.060558 0.000000 0.000000
# 5 0.000000 0.000000 0.000000 0.000000 0.027879 0.000000
# 6 0.000000 0.000000 0.000000 0.000000 0.000000 0.052733
#
#
# Mechanical properties :
#
#
# Convention : Reuss Voigt Hill
#
# Bulk Modulus (GPa) = 50.11200 64.40283 57.25741
# Shear Modulus (GPa) = 24.28015 28.51940 26.39977
#
# Velocity S-wave (km/s) = 3.47897 3.77047 3.62765
# Velocity P-wave (km/s) = 6.41230 7.14555 6.78883
#
# Compressibility (1/GPa) = 0.01995530
#
# Stress axis : x y z
#
# Youngs Moduli (GPa) = 96.82533 52.61202 103.12405
#
# Poissons Ratio (x) = 0.21737 0.45629
# Poissons Ratio (y) = 0.40004 0.10129
# Poissons Ratio (z) = 0.42842 0.05167
#
# Static dielectric constant tensor:
#      x y z
#    x 1.757950 0.000000 0.000000 
#    y 0.000000 1.714300 0.000000 
#    z 0.000000 0.000000 1.679920 
# 
# From -- ./inp_files/2229.got.cif
#   From: 2010.05.17/outbox.cif.g08.bks.cpg/sg37_2_cif.got.tgz:2229.got - 2010.06.03 17:53:42.
