data_PCOD9355353
_publ_section_title
;
Structure prediction by ZEFSAII (Michael W. Deem and Ramdas Pophale) SiO2 
 PCOD9355353
Probable space group: C C C 2
;
_chemical_formula_sum "Si O2"
_cell_formula_units_Z 64
_cell_length_a 9.229594
_cell_length_b 22.569169
_cell_length_c 13.854685
_cell_angle_alpha 90.000000
_cell_angle_beta 90.000000
_cell_angle_gamma 90.000000
_cell_volume 2885.990000
_symmetry_space_group_name_H-M "C C C 2"
_symmetry_group_IT_number 37
_symmetry_cell_setting 'orthorhombic'
loop_
_space_group_symop_operation_xyz
x,y,z
-x,-y,z
-x,y,1/2+z
x,-y,1/2+z
1/2+x,1/2+y,z
1/2-x,1/2-y,z
1/2-x,1/2+y,1/2+z
1/2+x,1/2-y,1/2+z
loop_
_atom_site_type_symbol
_atom_site_label
_atom_site_fract_x
_atom_site_fract_y
_atom_site_fract_z
Si Si1 0.954986 0.182906 0.930540
Si Si2 0.503039 0.095603 0.107918
Si Si3 0.448762 0.934666 0.326978
Si Si4 0.195397 0.404460 0.450212
Si Si5 0.870906 0.802865 0.212380
Si Si6 0.317411 0.606913 0.543212
Si Si7 0.349450 0.518730 0.384882
Si Si8 0.910962 0.268866 0.083014
O O1 0.813801 0.146377 0.969512
O O2 0.932787 0.180860 0.816706
O O3 0.942483 0.248778 0.973251
O O4 0.103709 0.155174 0.972639
O O5 0.505216 0.073601 0.216379
O O6 0.352577 0.091244 0.050725
O O7 0.547800 0.164401 0.104140
O O8 0.632382 0.066613 0.047360
O O9 0.550814 0.889476 0.387752
O O10 0.273507 0.937581 0.338953
O O11 0.500000 0.000000 0.359287
O O12 0.277547 0.454979 0.393672
O O13 0.750000 0.750000 0.222114
O O14 0.834135 0.861987 0.149439
O O15 0.991470 0.771830 0.149168
O O16 0.381707 0.548271 0.490318
O O17 0.500000 0.500000 0.334671
O O18 0.750000 0.250000 0.106398
#
# Coordination Sequence:
#
# PCOD9355353 Si02
#       8
#     8   8   8   8   8   8   8   8
#     4  11  24  44  68  99 140 185 227 290 360 420
#     4  12  24  43  70  97 139 182 237 291 357 421
#     4  10  25  42  68 105 135 184 243 292 356 438
#     4  11  23  43  69  96 138 178 235 289 350 429
#     4  11  24  44  70 101 137 182 233 281 356 425
#     4  11  24  45  71  99 140 184 234 294 356 436
#     4  11  23  47  69 101 142 184 231 294 360 422
#     4  11  24  43  63 100 137 173 230 290 343 427
#
# _framework density 22.176099000000001
#
# number of rings (size 3 to 8) (size 9 to 14) (size 15 to 20)
#    0.000    1.000    5.000    1.125    1.750    1.000 
#    2.250    0.625    0.000    0.000    0.000    0.000 
#    0.000    0.000    0.000    0.000    0.000    0.000 
#
# Total GULP energy -178202.499111 kJ/mol
# GULP energy per Si atom -5568.828097 kJ/mol
# Density = 2.212563 g / cm^3
# Si number density = 22.176099 Si / 1000 Ang^3
#
#
#
# Elastic Constant Matrix: (Units=GPa)
#
#
# Indices 1 2 3 4 5 6 
#
# 1 86.4454 21.2714 10.3432 0.0000 0.0000 0.0000
# 2 21.2714 62.9075 -6.9674 0.0000 0.0000 0.0000
# 3 10.3432 -6.9674 91.3033 0.0000 0.0000 0.0000
# 4 0.0000 0.0000 0.0000 29.0939 0.0000 0.0000
# 5 0.0000 0.0000 0.0000 0.0000 7.9537 0.0000
# 6 0.0000 0.0000 0.0000 0.0000 0.0000 76.1312
#
#
#
# Elastic Compliance Matrix: (Units=1/GPa)
#
#
# Indices 1 2 3 4 5 6 
#
# 1 0.012908 -0.004565 -0.001811 0.000000 0.000000 0.000000
# 2 -0.004565 0.017646 0.001864 0.000000 0.000000 0.000000
# 3 -0.001811 0.001864 0.011300 0.000000 0.000000 0.000000
# 4 0.000000 0.000000 0.000000 0.034371 0.000000 0.000000
# 5 0.000000 0.000000 0.000000 0.000000 0.125728 0.000000
# 6 0.000000 0.000000 0.000000 0.000000 0.000000 0.013135
#
#
# Mechanical properties :
#
#
# Convention : Reuss Voigt Hill
#
# Bulk Modulus (GPa) = 30.45983 32.21673 31.33828
# Shear Modulus (GPa) = 21.27147 37.03636 29.15391
#
# Velocity S-wave (km/s) = 3.10047 4.09112 3.62975
# Velocity P-wave (km/s) = 5.15582 6.07253 5.63285
#
# Compressibility (1/GPa) = 0.03283012
#
# Stress axis : x y z
#
# Youngs Moduli (GPa) = 77.47142 56.66863 88.49672
#
# Poissons Ratio (x) = 0.25870 0.16024
# Poissons Ratio (y) = 0.35367 -0.16494
# Poissons Ratio (z) = 0.14027 -0.10562
#
# Static dielectric constant tensor:
#      x y z
#    x 1.984830 0.000000 0.000000 
#    y 0.000000 1.825440 0.000000 
#    z 0.000000 0.000000 1.838910 
# 
# From -- ./inp_files/11000.got.cif
#   From: 2010.05.17/outbox.cif.g08.bks.cpg/sg37_6_cif.got.tgz:11000.got - 2010.06.03 17:53:42.
