data_PCOD9356943
_publ_section_title
;
Structure prediction by ZEFSAII (Michael W. Deem and Ramdas Pophale) SiO2 
 PCOD9356943
Probable space group: A M M 2
;
_chemical_formula_sum "Si O2"
_cell_formula_units_Z 56
_cell_length_a 18.519122
_cell_length_b 8.169592
_cell_length_c 19.696343
_cell_angle_alpha 90.000000
_cell_angle_beta 90.000000
_cell_angle_gamma 90.000000
_cell_volume 2979.932037
_symmetry_space_group_name_H-M "A M M 2"
_symmetry_group_IT_number 38
_symmetry_cell_setting 'orthorhombic'
loop_
_space_group_symop_operation_xyz
x,y,z
-x,-y,z
-x,y,z
x,-y,z
x,1/2+y,1/2+z
-x,1/2-y,1/2+z
-x,1/2+y,1/2+z
x,1/2-y,1/2+z
loop_
_atom_site_type_symbol
_atom_site_label
_atom_site_fract_x
_atom_site_fract_y
_atom_site_fract_z
Si Si1 0.704090 0.196334 0.075650
Si Si2 0.917459 0.697967 0.464952
Si Si3 0.797512 0.183671 0.699054
Si Si4 0.582410 0.199699 0.177482
Si Si5 0.084922 0.186327 0.119859
Si Si6 0.239531 0.303342 0.929577
Si Si7 0.312490 0.187903 0.295755
O O1 0.759513 0.281563 0.127038
O O2 0.626658 0.241615 0.109008
O O3 0.711109 0.000000 0.080807
O O4 0.724347 0.247554 0.000036
O O5 0.919206 0.500000 0.465783
O O6 0.904205 0.751948 0.543314
O O7 0.844847 0.749748 0.425701
O O8 0.000000 0.750844 0.445305
O O9 0.879691 0.214119 0.680378
O O10 0.760874 0.304586 0.751807
O O11 0.783599 0.000000 0.722275
O O12 0.500000 0.255957 0.177362
O O13 0.627528 0.258545 0.243813
O O14 0.582378 0.000000 0.180601
O O15 0.000000 0.178577 0.128649
O O16 0.114333 0.000000 0.121839
O O17 0.239576 0.500000 0.926827
O O18 0.289241 0.238447 0.867687
O O19 0.334145 0.000000 0.307959
#
# Coordination Sequence:
#
# PCOD9356943 Si02
#       7
#     8   8   8   8   8   8   8
#     4  10  19  32  53  77 104 136 168 209 261 309
#     4   9  18  32  51  74 101 138 179 219 267 314
#     4  11  20  31  50  76 101 129 171 217 256 306
#     4   8  15  32  58  81  99 131 179 218 252 308
#     4   9  17  30  49  72  99 133 172 215 265 313
#     4  11  21  33  51  79 109 139 179 220 258 309
#     4   9  20  36  53  74 105 141 174 211 260 313
#
# _framework density 18.792376000000001
#
# number of rings (size 3 to 8) (size 9 to 14) (size 15 to 20)
#    0.000    2.429    1.429    3.857    0.000    1.714 
#    0.000    2.857    0.000   12.429    0.000    0.000 
#    0.000    0.000    0.000    0.000    0.000    0.000 
#
# Total GULP energy -155901.801080 kJ/mol
# GULP energy per Si atom -5567.921467 kJ/mol
# Density = 1.874960 g / cm^3
# Si number density = 18.792376 Si / 1000 Ang^3
#
#
#
# Elastic Constant Matrix: (Units=GPa)
#
#
# Indices 1 2 3 4 5 6 
#
# 1 113.4038 6.7700 42.3162 0.0000 0.0000 0.0000
# 2 6.7700 25.4727 -6.1349 0.0000 0.0000 0.0000
# 3 42.3162 -6.1349 87.0999 0.0000 0.0000 0.0000
# 4 0.0000 0.0000 0.0000 16.8163 0.0000 0.0000
# 5 0.0000 0.0000 0.0000 0.0000 21.1178 0.0000
# 6 0.0000 0.0000 0.0000 0.0000 0.0000 10.6272
#
#
#
# Elastic Compliance Matrix: (Units=1/GPa)
#
#
# Indices 1 2 3 4 5 6 
#
# 1 0.011230 -0.004373 -0.005764 0.000000 0.000000 0.000000
# 2 -0.004373 0.041638 0.005057 0.000000 0.000000 0.000000
# 3 -0.005764 0.005057 0.014638 0.000000 0.000000 0.000000
# 4 0.000000 0.000000 0.000000 0.059466 0.000000 0.000000
# 5 0.000000 0.000000 0.000000 0.000000 0.047353 0.000000
# 6 0.000000 0.000000 0.000000 0.000000 0.000000 0.094098
#
#
# Mechanical properties :
#
#
# Convention : Reuss Voigt Hill
#
# Bulk Modulus (GPa) = 17.43785 34.65320 26.04552
# Shear Modulus (GPa) = 16.79557 21.91393 19.35475
#
# Velocity S-wave (km/s) = 2.99280 3.41854 3.21273
# Velocity P-wave (km/s) = 4.60888 5.83626 5.25850
#
# Compressibility (1/GPa) = 0.05734653
#
# Stress axis : x y z
#
# Youngs Moduli (GPa) = 89.04839 24.01657 68.31743
#
# Poissons Ratio (x) = 0.10502 0.39377
# Poissons Ratio (y) = 0.38939 -0.34550
# Poissons Ratio (z) = 0.51326 -0.12146
#
# Static dielectric constant tensor:
#      x y z
#    x 1.698470 0.000000 0.000000 
#    y 0.000000 1.695340 0.000000 
#    z 0.000000 0.000000 1.653530 
# 
# From -- ./inp_files/21310.got.cif
#   From: 2010.05.17/outbox.cif.g08.bks.cpg/sg38_11_cif.got.tgz:21310.got - 2010.06.03 18:07:57.
