data_PCOD9356976
_publ_section_title
;
Structure prediction by ZEFSAII (Michael W. Deem and Ramdas Pophale) SiO2 
 PCOD9356976
Probable space group: A M M 2
;
_chemical_formula_sum "Si O2"
_cell_formula_units_Z 64
_cell_length_a 9.078213
_cell_length_b 20.766460
_cell_length_c 17.158958
_cell_angle_alpha 90.000000
_cell_angle_beta 90.000000
_cell_angle_gamma 90.000000
_cell_volume 3234.847037
_symmetry_space_group_name_H-M "A M M 2"
_symmetry_group_IT_number 38
_symmetry_cell_setting 'orthorhombic'
loop_
_space_group_symop_operation_xyz
x,y,z
-x,-y,z
-x,y,z
x,-y,z
x,1/2+y,1/2+z
-x,1/2-y,1/2+z
-x,1/2+y,1/2+z
x,1/2-y,1/2+z
loop_
_atom_site_type_symbol
_atom_site_label
_atom_site_fract_x
_atom_site_fract_y
_atom_site_fract_z
Si Si1 0.829438 0.337787 0.354040
Si Si2 0.661537 0.427491 0.251962
Si Si3 0.322705 0.423823 0.486124
Si Si4 0.825606 0.076720 0.453309
Si Si5 0.173502 0.115940 0.148531
Si Si6 0.331519 0.136453 0.598116
Si Si7 0.663421 0.924671 0.299369
Si Si8 0.825660 0.738401 0.209258
O O1 0.799287 0.391673 0.288230
O O2 0.740042 0.370183 0.425369
O O3 0.784632 0.275318 0.300803
O O4 0.000000 0.331091 0.376646
O O5 0.500000 0.398287 0.274231
O O6 0.660709 0.500000 0.279352
O O7 0.668335 0.422546 0.159270
O O8 0.500000 0.421005 0.485691
O O9 0.282506 0.500000 0.470026
O O10 0.258401 0.403935 0.570307
O O11 0.765575 0.117739 0.525032
O O12 0.747895 0.101134 0.374619
O O13 0.000000 0.083177 0.445244
O O14 0.794515 0.000000 0.465676
O O15 0.241847 0.079481 0.221729
O O16 0.191535 0.189959 0.176299
O O17 0.000000 0.103110 0.138225
O O18 0.500000 0.149647 0.574961
O O19 0.267421 0.193551 0.651313
O O20 0.500000 0.896242 0.288792
O O21 0.646916 0.000000 0.316026
O O22 0.000000 0.722151 0.204624
#
# Coordination Sequence:
#
# PCOD9356976 Si02
#       8
#     8   8   8   8   8   8   8   8
#     4  10  20  36  58  84 115 152 196 242 292 352
#     4   9  17  29  47  74 110 150 188 231 288 347
#     4  11  24  41  62  91 126 159 196 250 311 364
#     4  10  20  34  54  82 116 153 194 240 290 345
#     4  11  23  41  64  88 115 154 199 245 299 359
#     4  10  19  32  53  80 112 152 196 241 289 342
#     4  10  21  38  60  86 116 148 186 238 297 353
#     4   9  21  41  60  82 117 158 199 243 292 350
#
# _framework density 19.784552000000001
#
# number of rings (size 3 to 8) (size 9 to 14) (size 15 to 20)
#    0.000    2.000    0.000    3.375    0.000    8.250 
#    2.250    0.000    0.000    0.000    0.000    0.000 
#    0.000    0.000    0.000    0.000    0.000    0.000 
#
# Total GULP energy -178275.551802 kJ/mol
# GULP energy per Si atom -5571.110994 kJ/mol
# Density = 1.973952 g / cm^3
# Si number density = 19.784552 Si / 1000 Ang^3
#
#
#
# Elastic Constant Matrix: (Units=GPa)
#
#
# Indices 1 2 3 4 5 6 
#
# 1 69.5267 36.7825 42.5033 0.0000 0.0000 0.0000
# 2 36.7825 39.5941 19.3349 0.0000 0.0000 0.0000
# 3 42.5033 19.3349 133.1148 0.0000 0.0000 0.0000
# 4 0.0000 0.0000 0.0000 37.2424 0.0000 0.0000
# 5 0.0000 0.0000 0.0000 0.0000 28.2734 0.0000
# 6 0.0000 0.0000 0.0000 0.0000 0.0000 19.6146
#
#
#
# Elastic Compliance Matrix: (Units=1/GPa)
#
#
# Indices 1 2 3 4 5 6 
#
# 1 0.032802 -0.027294 -0.006509 0.000000 0.000000 0.000000
# 2 -0.027294 0.049896 0.001468 0.000000 0.000000 0.000000
# 3 -0.006509 0.001468 0.009377 0.000000 0.000000 0.000000
# 4 0.000000 0.000000 0.000000 0.026851 0.000000 0.000000
# 5 0.000000 0.000000 0.000000 0.000000 0.035369 0.000000
# 6 0.000000 0.000000 0.000000 0.000000 0.000000 0.050982
#
#
# Mechanical properties :
#
#
# Convention : Reuss Voigt Hill
#
# Bulk Modulus (GPa) = 36.49127 48.83079 42.66103
# Shear Modulus (GPa) = 17.91583 26.60041 22.25812
#
# Velocity S-wave (km/s) = 3.01249 3.67073 3.35778
# Velocity P-wave (km/s) = 5.53033 6.53456 6.05331
#
# Compressibility (1/GPa) = 0.02740381
#
# Stress axis : x y z
#
# Youngs Moduli (GPa) = 30.48616 20.04188 106.63837
#
# Poissons Ratio (x) = 0.54702 0.69412
# Poissons Ratio (y) = 0.83209 -0.15650
# Poissons Ratio (z) = 0.19844 -0.02941
#
# Static dielectric constant tensor:
#      x y z
#    x 1.710770 0.000000 0.000000 
#    y 0.000000 1.743790 0.000000 
#    z 0.000000 0.000000 1.694340 
# 
# From -- ./inp_files/12776.got.cif
#   From: 2010.05.17/outbox.cif.g08.bks.cpg/sg38_7_cif.got.tgz:12776.got - 2010.06.03 18:07:57.
