data_PCOD9356810
_publ_section_title
;
Structure prediction by ZEFSAII (Michael W. Deem and Ramdas Pophale) SiO2 
 PCOD9356810
Probable space group: A M M 2
;
_chemical_formula_sum "Si O2"
_cell_formula_units_Z 56
_cell_length_a 15.552343
_cell_length_b 8.867498
_cell_length_c 20.712320
_cell_angle_alpha 90.000000
_cell_angle_beta 90.000000
_cell_angle_gamma 90.000000
_cell_volume 2856.443724
_symmetry_space_group_name_H-M "A M M 2"
_symmetry_group_IT_number 38
_symmetry_cell_setting 'orthorhombic'
loop_
_space_group_symop_operation_xyz
x,y,z
-x,-y,z
-x,y,z
x,-y,z
x,1/2+y,1/2+z
-x,1/2-y,1/2+z
-x,1/2+y,1/2+z
x,1/2-y,1/2+z
loop_
_atom_site_type_symbol
_atom_site_label
_atom_site_fract_x
_atom_site_fract_y
_atom_site_fract_z
Si Si1 0.271668 0.680479 0.324550
Si Si2 0.096714 0.680692 0.778505
Si Si3 0.596864 0.179166 0.223453
Si Si4 0.865056 0.676175 0.140483
Si Si5 0.908573 0.318437 0.505526
Si Si6 0.334562 0.324995 0.099286
Si Si7 0.281768 0.681399 0.467779
O O1 0.266144 0.500000 0.319594
O O2 0.175736 0.745719 0.316626
O O3 0.332708 0.742761 0.268626
O O4 0.308923 0.719892 0.395186
O O5 0.103832 0.500000 0.781000
O O6 0.108890 0.736657 0.704811
O O7 0.000000 0.723884 0.799727
O O8 0.500000 0.215899 0.245078
O O9 0.608751 0.234011 0.150034
O O10 0.609273 0.000000 0.226239
O O11 0.888122 0.500000 0.146185
O O12 0.905376 0.750560 0.077205
O O13 0.762605 0.685090 0.127845
O O14 0.906912 0.500000 0.509284
O O15 0.819148 0.272754 0.472947
O O16 0.000000 0.273139 0.474846
O O17 0.359398 0.500000 0.097797
O O18 0.330396 0.258225 0.027239
O O19 0.286785 0.500000 0.475736
#
# Coordination Sequence:
#
# PCOD9356810 Si02
#       7
#     8   8   8   8   8   8   8
#     4  11  23  40  62  90 123 162 205 253 305 358
#     4  11  23  36  53  80 117 164 210 252 301 356
#     4  11  24  42  67  95 122 156 197 245 305 370
#     4  10  19  31  50  79 113 149 192 247 303 350
#     4   9  17  30  49  74 107 150 199 246 293 349
#     4  10  20  36  61  91 119 151 194 244 300 356
#     4   9  20  37  58  83 117 160 201 244 300 359
#
# _framework density 19.604797000000001
#
# number of rings (size 3 to 8) (size 9 to 14) (size 15 to 20)
#    0.000    1.857    1.429    2.571    0.000    7.143 
#    0.000    2.143    0.000    0.857    0.000    0.000 
#    0.000    0.000    0.000    0.000    0.000    0.000 
#
# Total GULP energy -156357.675667 kJ/mol
# GULP energy per Si atom -5584.202702 kJ/mol
# Density = 1.956018 g / cm^3
# Si number density = 19.604797 Si / 1000 Ang^3
#
#
#
# Elastic Constant Matrix: (Units=GPa)
#
#
# Indices 1 2 3 4 5 6 
#
# 1 58.4374 32.1979 33.1483 0.0000 0.0000 0.0000
# 2 32.1979 43.1589 33.0027 0.0000 0.0000 0.0000
# 3 33.1483 33.0027 117.0908 0.0000 0.0000 0.0000
# 4 0.0000 0.0000 0.0000 26.4185 0.0000 0.0000
# 5 0.0000 0.0000 0.0000 0.0000 -6.9858 0.0000
# 6 0.0000 0.0000 0.0000 0.0000 0.0000 13.3053
#
#
#
# Elastic Compliance Matrix: (Units=1/GPa)
#
#
# Indices 1 2 3 4 5 6 
#
# 1 0.029740 -0.020076 -0.002761 0.000000 0.000000 0.000000
# 2 -0.020076 0.043088 -0.006461 0.000000 0.000000 0.000000
# 3 -0.002761 -0.006461 0.011143 0.000000 0.000000 0.000000
# 4 0.000000 0.000000 0.000000 0.037852 0.000000 0.000000
# 5 0.000000 0.000000 0.000000 0.000000 -0.143147 0.000000
# 6 0.000000 0.000000 0.000000 0.000000 0.000000 0.075158
#
#
# Mechanical properties :
#
#
# Convention : Reuss Voigt Hill
#
# Bulk Modulus (GPa) = 39.40816 46.15388 42.78102
# Shear Modulus (GPa) = 41.36063 14.57014 27.96539
#
# Velocity S-wave (km/s) = 4.59815 2.72911 3.78094
# Velocity P-wave (km/s) = 6.95238 5.78999 6.39764
#
# Compressibility (1/GPa) = 0.02537546
#
# Stress axis : x y z
#
# Youngs Moduli (GPa) = 33.62505 23.20829 89.74162
#
# Poissons Ratio (x) = 0.46592 0.24776
# Poissons Ratio (y) = 0.67504 0.57984
# Poissons Ratio (z) = 0.09283 0.14995
#
# Static dielectric constant tensor:
#      x y z
#    x 1.711160 0.000000 0.000000 
#    y 0.000000 1.650260 0.000000 
#    z 0.000000 0.000000 1.666010 
# 
# From -- ./inp_files/21024.got.cif
#   From: 2010.05.17/outbox.cif.g08.bks.cpg/sg38_11_cif.got.tgz:21024.got - 2010.06.03 18:07:57.
