data_PCOD9356621
_publ_section_title
;
Structure prediction by ZEFSAII (Michael W. Deem and Ramdas Pophale) SiO2 
 PCOD9356621
Probable space group: A M M 2
;
_chemical_formula_sum "Si O2"
_cell_formula_units_Z 56
_cell_length_a 9.131036
_cell_length_b 18.681983
_cell_length_c 21.353986
_cell_angle_alpha 90.000000
_cell_angle_beta 90.000000
_cell_angle_gamma 90.000000
_cell_volume 3642.688052
_symmetry_space_group_name_H-M "A M M 2"
_symmetry_group_IT_number 38
_symmetry_cell_setting 'orthorhombic'
loop_
_space_group_symop_operation_xyz
x,y,z
-x,-y,z
-x,y,z
x,-y,z
x,1/2+y,1/2+z
-x,1/2-y,1/2+z
-x,1/2+y,1/2+z
x,1/2-y,1/2+z
loop_
_atom_site_type_symbol
_atom_site_label
_atom_site_fract_x
_atom_site_fract_y
_atom_site_fract_z
Si Si1 0.826218 0.416052 0.341120
Si Si2 0.824080 0.418439 0.844218
Si Si3 0.676543 0.648009 0.464336
Si Si4 0.824397 0.836977 0.216258
Si Si5 0.331999 0.707623 0.906270
Si Si6 0.825151 0.915395 0.086562
Si Si7 0.331146 0.706843 0.273683
O O1 0.804096 0.500000 0.329054
O O2 0.748759 0.394676 0.406479
O O3 0.756689 0.365511 0.287979
O O4 0.000000 0.402128 0.346339
O O5 0.772698 0.500000 0.851606
O O6 0.784311 0.387715 0.775331
O O7 0.761570 0.363075 0.894919
O O8 0.000000 0.418080 0.847542
O O9 0.500000 0.643125 0.459764
O O10 0.717203 0.731952 0.455425
O O11 0.736184 0.616597 0.528709
O O12 0.788728 0.875473 0.151258
O O13 0.744903 0.761288 0.225832
O O14 0.000000 0.826516 0.219150
O O15 0.500000 0.688107 0.919304
O O16 0.328884 0.750629 0.840169
O O17 0.000000 0.906739 0.075331
O O18 0.796645 0.000000 0.092637
O O19 0.500000 0.692845 0.257773
#
# Coordination Sequence:
#
# PCOD9356621 Si02
#       7
#     8   8   8   8   8   8   8
#     4  10  19  30  46  68  92 118 149 185 226 272
#     4   9  16  26  43  67  90 112 141 178 219 261
#     4  10  20  32  45  63  90 122 155 190 226 266
#     4   9  17  30  46  63  89 123 153 182 217 259
#     4   8  16  29  42  59  84 114 146 179 218 263
#     4  10  20  32  46  66  92 123 158 190 220 260
#     4   9  17  29  45  65  89 116 148 185 223 265
#
# _framework density 15.373262
#
# number of rings (size 3 to 8) (size 9 to 14) (size 15 to 20)
#    0.000    2.714    0.000    3.000    0.000    9.714 
#    0.000    0.000    0.000    2.571    0.000    1.000 
#    0.000    5.714    0.000    0.000    0.000    0.000 
#
# Total GULP energy -156009.724279 kJ/mol
# GULP energy per Si atom -5571.775867 kJ/mol
# Density = 1.533827 g / cm^3
# Si number density = 15.373262 Si / 1000 Ang^3
#
#
#
# Elastic Constant Matrix: (Units=GPa)
#
#
# Indices 1 2 3 4 5 6 
#
# 1 60.8884 72.1739 40.3700 0.0000 0.0000 0.0000
# 2 72.1739 141.8273 61.0809 0.0000 0.0000 0.0000
# 3 40.3700 61.0809 66.3465 0.0000 0.0000 0.0000
# 4 0.0000 0.0000 0.0000 25.9569 0.0000 0.0000
# 5 0.0000 0.0000 0.0000 0.0000 17.1632 0.0000
# 6 0.0000 0.0000 0.0000 0.0000 0.0000 15.4614
#
#
#
# Elastic Compliance Matrix: (Units=1/GPa)
#
#
# Indices 1 2 3 4 5 6 
#
# 1 0.045442 -0.018586 -0.010539 0.000000 0.000000 0.000000
# 2 -0.018586 0.019285 -0.006445 0.000000 0.000000 0.000000
# 3 -0.010539 -0.006445 0.027419 0.000000 0.000000 0.000000
# 4 0.000000 0.000000 0.000000 0.038525 0.000000 0.000000
# 5 0.000000 0.000000 0.000000 0.000000 0.058264 0.000000
# 6 0.000000 0.000000 0.000000 0.000000 0.000000 0.064677
#
#
# Mechanical properties :
#
#
# Convention : Reuss Voigt Hill
#
# Bulk Modulus (GPa) = 47.60827 68.47908 58.04368
# Shear Modulus (GPa) = 15.07142 18.07881 16.57511
#
# Velocity S-wave (km/s) = 3.13448 3.43299 3.28712
# Velocity P-wave (km/s) = 6.64345 7.76884 7.22808
#
# Compressibility (1/GPa) = 0.02100475
#
# Stress axis : x y z
#
# Youngs Moduli (GPa) = 22.00623 51.85501 36.47105
#
# Poissons Ratio (x) = 0.96376 0.38438
# Poissons Ratio (y) = 0.40900 0.23506
# Poissons Ratio (z) = 0.23193 0.33422
#
# Static dielectric constant tensor:
#      x y z
#    x 1.518480 0.000000 0.000000 
#    y 0.000000 1.513630 0.000000 
#    z 0.000000 0.000000 1.490550 
# 
# From -- ./inp_files/19970.got.cif
#   From: 2010.05.17/outbox.cif.g08.bks.cpg/sg38_10_cif.got.tgz:19970.got - 2010.06.03 18:07:57.
