data_PCOD9356110
_publ_section_title
;
Structure prediction by ZEFSAII (Michael W. Deem and Ramdas Pophale) SiO2 
 PCOD9356110
Probable space group: A M M 2
;
_chemical_formula_sum "Si O2"
_cell_formula_units_Z 64
_cell_length_a 7.558518
_cell_length_b 30.762762
_cell_length_c 12.465350
_cell_angle_alpha 90.000000
_cell_angle_beta 90.000000
_cell_angle_gamma 90.000000
_cell_volume 2898.454280
_symmetry_space_group_name_H-M "A M M 2"
_symmetry_group_IT_number 38
_symmetry_cell_setting 'orthorhombic'
loop_
_space_group_symop_operation_xyz
x,y,z
-x,-y,z
-x,y,z
x,-y,z
x,1/2+y,1/2+z
-x,1/2-y,1/2+z
-x,1/2+y,1/2+z
x,1/2-y,1/2+z
loop_
_atom_site_type_symbol
_atom_site_label
_atom_site_fract_x
_atom_site_fract_y
_atom_site_fract_z
Si Si1 0.199336 0.304147 0.386840
Si Si2 0.206482 0.345734 0.976502
Si Si3 0.297055 0.935767 0.382984
Si Si4 0.202828 0.450662 0.643237
Si Si5 0.284133 0.954567 0.618671
Si Si6 0.217404 0.649417 0.604142
Si Si7 0.792403 0.717915 0.787535
Si Si8 0.704686 0.865494 0.709342
O O1 0.273594 0.325007 0.496024
O O2 0.284483 0.265482 0.314825
O O3 0.191907 0.342893 0.302592
O O4 0.000000 0.289062 0.415560
O O5 0.291851 0.384568 0.908481
O O6 0.219872 0.303885 0.904004
O O7 0.000000 0.356668 0.988632
O O8 0.285078 0.341636 0.094379
O O9 0.500000 0.949703 0.370605
O O10 0.204184 0.947542 0.273075
O O11 0.224221 0.953649 0.495220
O O12 0.276404 0.500000 0.616860
O O13 0.276160 0.401928 0.610428
O O14 0.000000 0.451166 0.605005
O O15 0.500000 0.951305 0.612715
O O16 0.223464 0.913021 0.681972
O O17 0.236018 0.000000 0.669582
O O18 0.273289 0.681854 0.701798
O O19 0.000000 0.647127 0.607561
O O20 0.000000 0.724221 0.756811
O O21 0.500000 0.868222 0.742041
#
# Coordination Sequence:
#
# PCOD9356110 Si02
#       8
#     8   8   8   8   8   8   8   8
#     4  10  21  36  59  81 103 144 190 230 276 334
#     4  10  18  32  56  82 110 143 183 225 269 328
#     4  10  18  29  48  78 115 146 176 223 283 338
#     4  10  19  32  52  77 109 151 192 232 283 337
#     4   8  15  29  49  71  98 139 182 215 258 316
#     4   9  18  35  55  80 111 137 182 242 282 326
#     4   9  18  32  57  85 105 134 180 230 276 325
#     4  10  21  36  53  78 114 145 178 226 277 328
#
# _framework density 22.080734
#
# number of rings (size 3 to 8) (size 9 to 14) (size 15 to 20)
#    0.000    2.500    1.250    2.250    1.750    0.750 
#    0.000    2.500    0.000    8.250    0.000    0.000 
#    0.000    0.000    0.000    0.000    0.000    0.000 
#
# Total GULP energy -178182.663951 kJ/mol
# GULP energy per Si atom -5568.208248 kJ/mol
# Density = 2.203048 g / cm^3
# Si number density = 22.080734 Si / 1000 Ang^3
#
#
#
# Elastic Constant Matrix: (Units=GPa)
#
#
# Indices 1 2 3 4 5 6 
#
# 1 49.3915 11.1902 -0.4058 0.0000 0.0000 0.0000
# 2 11.1902 151.4337 70.9418 0.0000 0.0000 0.0000
# 3 -0.4058 70.9418 83.1954 0.0000 0.0000 0.0000
# 4 0.0000 0.0000 0.0000 -83.1367 0.0000 0.0000
# 5 0.0000 0.0000 0.0000 0.0000 32.5883 0.0000
# 6 0.0000 0.0000 0.0000 0.0000 0.0000 -6.4763
#
#
#
# Elastic Compliance Matrix: (Units=1/GPa)
#
#
# Indices 1 2 3 4 5 6 
#
# 1 0.020865 -0.002647 0.002359 0.000000 0.000000 0.000000
# 2 -0.002647 0.011332 -0.009676 0.000000 0.000000 0.000000
# 3 0.002359 -0.009676 0.020282 0.000000 0.000000 0.000000
# 4 0.000000 0.000000 0.000000 -0.012028 0.000000 0.000000
# 5 0.000000 0.000000 0.000000 0.000000 0.030686 0.000000
# 6 0.000000 0.000000 0.000000 0.000000 0.000000 -0.154410
#
#
# Mechanical properties :
#
#
# Convention : Reuss Voigt Hill
#
# Bulk Modulus (GPa) = 30.72032 49.71920 40.21976
# Shear Modulus (GPa) = -95.24723 2.08136 -46.58294
#
# Velocity S-wave (km/s) = -6.57492 0.97194 -4.59809
# Velocity P-wave (km/s) = 6.61033 4.88113 3.15206
#
# Compressibility (1/GPa) = 0.03255175
#
# Stress axis : x y z
#
# Youngs Moduli (GPa) = 47.92607 88.24611 49.30459
#
# Poissons Ratio (x) = 0.23358 -0.11630
# Poissons Ratio (y) = 0.12685 0.47706
# Poissons Ratio (z) = -0.11305 0.85385
#
# Static dielectric constant tensor:
#      x y z
#    x 1.838260 0.000000 0.000000 
#    y 0.000000 2.002170 0.000000 
#    z 0.000000 0.000000 1.753230 
# 
# From -- ./inp_files/8663.got.cif
#   From: 2010.05.17/outbox.cif.g08.bks.cpg/sg38_5_cif.got.tgz:8663.got - 2010.06.03 18:07:57.
