data_PCOD9356896
_publ_section_title
;
Structure prediction by ZEFSAII (Michael W. Deem and Ramdas Pophale) SiO2 
 PCOD9356896
Probable space group: A M M 2
;
_chemical_formula_sum "Si O2"
_cell_formula_units_Z 56
_cell_length_a 16.020338
_cell_length_b 7.421599
_cell_length_c 20.976560
_cell_angle_alpha 90.000000
_cell_angle_beta 90.000000
_cell_angle_gamma 90.000000
_cell_volume 2494.040080
_symmetry_space_group_name_H-M "A M M 2"
_symmetry_group_IT_number 38
_symmetry_cell_setting 'orthorhombic'
loop_
_space_group_symop_operation_xyz
x,y,z
-x,-y,z
-x,y,z
x,-y,z
x,1/2+y,1/2+z
-x,1/2-y,1/2+z
-x,1/2+y,1/2+z
x,1/2-y,1/2+z
loop_
_atom_site_type_symbol
_atom_site_label
_atom_site_fract_x
_atom_site_fract_y
_atom_site_fract_z
Si Si1 0.409818 0.279758 0.991950
Si Si2 0.590552 0.718820 0.274868
Si Si3 0.228130 0.721301 0.947778
Si Si4 0.623206 0.706227 0.132901
Si Si5 0.194582 0.786405 0.169740
Si Si6 0.223644 0.207452 0.309530
Si Si7 0.092593 0.715703 0.050438
O O1 0.500000 0.224617 0.964861
O O2 0.408035 0.500000 0.991950
O O3 0.323733 0.221047 0.959744
O O4 0.405134 0.217447 0.065724
O O5 0.500000 0.771905 0.301364
O O6 0.595324 0.500000 0.275291
O O7 0.595122 0.781801 0.200906
O O8 0.675043 0.786904 0.306822
O O9 0.228900 0.500000 0.947850
O O10 0.199305 0.783848 0.877922
O O11 0.165270 0.781540 0.003145
O O12 0.594395 0.500000 0.133105
O O13 0.723522 0.707724 0.135722
O O14 0.192275 0.714493 0.242195
O O15 0.117677 0.753967 0.123378
O O16 0.209240 0.000000 0.174096
O O17 0.196065 0.000000 0.309850
O O18 0.091172 0.500000 0.043320
O O19 0.000000 0.784215 0.035792
#
# Coordination Sequence:
#
# PCOD9356896 Si02
#       7
#     8   8   8   8   8   8   8
#     4   9  15  23  43  74 101 127 166 216 259 289
#     4   9  17  28  44  69 101 137 178 220 259 301
#     4   9  17  32  51  76 106 132 168 215 255 298
#     4   9  15  27  47  70  98 132 174 218 255 291
#     4  10  19  32  51  77 107 135 165 202 255 313
#     4   9  19  33  50  72 102 140 173 206 254 310
#     4  10  20  36  60  84 101 125 166 215 263 307
#
# _framework density 22.453527999999999
#
# number of rings (size 3 to 8) (size 9 to 14) (size 15 to 20)
#    0.000    2.714    1.429    0.857    0.000    3.429 
#    0.000    2.857    0.000    3.857    0.000    0.000 
#    0.000    0.000    0.000    0.000    0.000    0.000 
#
# Total GULP energy -156260.721019 kJ/mol
# GULP energy per Si atom -5580.740036 kJ/mol
# Density = 2.240242 g / cm^3
# Si number density = 22.453528 Si / 1000 Ang^3
#
#
#
# Elastic Constant Matrix: (Units=GPa)
#
#
# Indices 1 2 3 4 5 6 
#
# 1 115.6607 1.5564 58.7655 0.0000 0.0000 0.0000
# 2 1.5564 78.5334 -1.2081 0.0000 0.0000 0.0000
# 3 58.7655 -1.2081 141.8154 0.0000 0.0000 0.0000
# 4 0.0000 0.0000 0.0000 4.9939 0.0000 0.0000
# 5 0.0000 0.0000 0.0000 0.0000 -7.7799 0.0000
# 6 0.0000 0.0000 0.0000 0.0000 0.0000 -7.3127
#
#
#
# Elastic Compliance Matrix: (Units=1/GPa)
#
#
# Indices 1 2 3 4 5 6 
#
# 1 0.010958 -0.000287 -0.004543 0.000000 0.000000 0.000000
# 2 -0.000287 0.012743 0.000228 0.000000 0.000000 0.000000
# 3 -0.004543 0.000228 0.008936 0.000000 0.000000 0.000000
# 4 0.000000 0.000000 0.000000 0.200243 0.000000 0.000000
# 5 0.000000 0.000000 0.000000 0.000000 -0.128536 0.000000
# 6 0.000000 0.000000 0.000000 0.000000 0.000000 -0.136749
#
#
# Mechanical properties :
#
#
# Convention : Reuss Voigt Hill
#
# Bulk Modulus (GPa) = 42.67829 50.47079 46.57454
# Shear Modulus (GPa) = -324.89831 16.43998 -154.22917
#
# Velocity S-wave (km/s) = -12.04210 2.70881 -8.29682
# Velocity P-wave (km/s) = 13.20231 5.68421 8.42588
#
# Compressibility (1/GPa) = 0.02343112
#
# Stress axis : x y z
#
# Youngs Moduli (GPa) = 91.25548 78.47677 111.90657
#
# Poissons Ratio (x) = 0.02253 0.50843
# Poissons Ratio (y) = 0.02620 -0.02546
# Poissons Ratio (z) = 0.41460 -0.01785
#
# Static dielectric constant tensor:
#      x y z
#    x 1.807500 0.000000 0.000000 
#    y 0.000000 1.868110 0.000000 
#    z 0.000000 0.000000 1.839300 
# 
# From -- ./inp_files/21095.got.cif
#   From: 2010.05.17/outbox.cif.g08.bks.cpg/sg38_11_cif.got.tgz:21095.got - 2010.06.03 18:07:57.
