data_PCOD9356592
_publ_section_title
;
Structure prediction by ZEFSAII (Michael W. Deem and Ramdas Pophale) SiO2 
 PCOD9356592
Probable space group: A M M 2
;
_chemical_formula_sum "Si O2"
_cell_formula_units_Z 48
_cell_length_a 11.614437
_cell_length_b 13.615743
_cell_length_c 18.666495
_cell_angle_alpha 90.000000
_cell_angle_beta 90.000000
_cell_angle_gamma 90.000000
_cell_volume 2951.904386
_symmetry_space_group_name_H-M "A M M 2"
_symmetry_group_IT_number 38
_symmetry_cell_setting 'orthorhombic'
loop_
_space_group_symop_operation_xyz
x,y,z
-x,-y,z
-x,y,z
x,-y,z
x,1/2+y,1/2+z
-x,1/2-y,1/2+z
-x,1/2+y,1/2+z
x,1/2-y,1/2+z
loop_
_atom_site_type_symbol
_atom_site_label
_atom_site_fract_x
_atom_site_fract_y
_atom_site_fract_z
Si Si1 0.246824 0.613390 0.709350
Si Si2 0.361159 0.109039 0.785871
Si Si3 0.638139 0.208377 0.634003
Si Si4 0.000000 0.880671 0.265985
Si Si5 0.754177 0.117637 0.494586
Si Si6 0.362439 0.687338 0.850444
Si Si7 0.000000 0.380771 0.932490
O O1 0.246767 0.500000 0.686648
O O2 0.313603 0.685004 0.655896
O O3 0.116076 0.647846 0.724730
O O4 0.308985 0.623607 0.786367
O O5 0.500000 0.105320 0.792464
O O6 0.338091 0.140509 0.703808
O O7 0.323259 0.200070 0.835255
O O8 0.315926 0.000000 0.801768
O O9 0.500000 0.210924 0.623482
O O10 0.702507 0.167227 0.564969
O O11 0.000000 0.847082 0.349186
O O12 0.000000 0.000000 0.268727
O O13 0.678626 0.147904 0.426120
O O14 0.884359 0.148169 0.474046
O O15 0.751486 0.000000 0.503118
O O16 0.500000 0.684155 0.844886
O O17 0.000000 0.500000 0.929323
#
# Coordination Sequence:
#
# PCOD9356592 Si02
#       7
#     8   8   8   4   8   8   4
#     4  10  19  33  53  75 103 135 170 218 261 300
#     4   8  15  30  48  66  96 134 167 202 242 293
#     4  10  21  33  48  76 108 138 173 206 253 323
#     4   9  16  31  54  78 100 130 174 214 260 310
#     4  11  21  34  52  74 104 136 168 215 263 305
#     4  10  19  29  48  78 101 127 172 213 257 315
#     4   9  18  33  52  76 102 130 170 216 262 308
#
# _framework density 16.260688999999999
#
# number of rings (size 3 to 8) (size 9 to 14) (size 15 to 20)
#    0.000    2.333    1.667    3.000    0.000    4.667 
#    0.000    0.833    0.000    2.000    0.000   11.667 
#    0.000    0.000    0.000    0.000    0.000    0.000 
#
# Total GULP energy -133769.656087 kJ/mol
# GULP energy per Si atom -5573.735670 kJ/mol
# Density = 1.622368 g / cm^3
# Si number density = 16.260689 Si / 1000 Ang^3
#
#
#
# Elastic Constant Matrix: (Units=GPa)
#
#
# Indices 1 2 3 4 5 6 
#
# 1 68.8005 13.5958 3.9855 0.0000 0.0000 0.0000
# 2 13.5958 70.6110 17.8302 0.0000 0.0000 0.0000
# 3 3.9855 17.8302 50.5852 0.0000 0.0000 0.0000
# 4 0.0000 0.0000 0.0000 12.0406 0.0000 0.0000
# 5 0.0000 0.0000 0.0000 0.0000 23.8072 0.0000
# 6 0.0000 0.0000 0.0000 0.0000 0.0000 17.8636
#
#
#
# Elastic Compliance Matrix: (Units=1/GPa)
#
#
# Indices 1 2 3 4 5 6 
#
# 1 0.015111 -0.002864 -0.000181 0.000000 0.000000 0.000000
# 2 -0.002864 0.016089 -0.005445 0.000000 0.000000 0.000000
# 3 -0.000181 -0.005445 0.021702 0.000000 0.000000 0.000000
# 4 0.000000 0.000000 0.000000 0.083052 0.000000 0.000000
# 5 0.000000 0.000000 0.000000 0.000000 0.042004 0.000000
# 6 0.000000 0.000000 0.000000 0.000000 0.000000 0.055980
#
#
# Mechanical properties :
#
#
# Convention : Reuss Voigt Hill
#
# Bulk Modulus (GPa) = 27.83845 28.97996 28.40920
# Shear Modulus (GPa) = 19.01919 21.04795 20.03357
#
# Velocity S-wave (km/s) = 3.42371 3.60169 3.51383
# Velocity P-wave (km/s) = 5.72594 5.92934 5.82852
#
# Compressibility (1/GPa) = 0.03592154
#
# Stress axis : x y z
#
# Youngs Moduli (GPa) = 66.17603 62.15614 46.07818
#
# Poissons Ratio (x) = 0.17801 0.00835
# Poissons Ratio (y) = 0.18952 0.25091
# Poissons Ratio (z) = 0.01199 0.33845
#
# Static dielectric constant tensor:
#      x y z
#    x 1.557520 0.000000 0.000000 
#    y 0.000000 1.561110 0.000000 
#    z 0.000000 0.000000 1.519240 
# 
# From -- ./inp_files/13735.got.cif
#   From: 2010.05.17/outbox.cif.g08.bks.cpg/sg38_7_cif.got.tgz:13735.got - 2010.06.03 18:07:57.
