data_PCOD9356770
_publ_section_title
;
Structure prediction by ZEFSAII (Michael W. Deem and Ramdas Pophale) SiO2 
 PCOD9356770
Probable space group: A M M 2
;
_chemical_formula_sum "Si O2"
_cell_formula_units_Z 58
_cell_length_a 15.679645
_cell_length_b 7.690823
_cell_length_c 25.545404
_cell_angle_alpha 90.000000
_cell_angle_beta 90.000000
_cell_angle_gamma 90.000000
_cell_volume 3080.504287
_symmetry_space_group_name_H-M "A M M 2"
_symmetry_group_IT_number 38
_symmetry_cell_setting 'orthorhombic'
loop_
_space_group_symop_operation_xyz
x,y,z
-x,-y,z
-x,y,z
x,-y,z
x,1/2+y,1/2+z
-x,1/2-y,1/2+z
-x,1/2+y,1/2+z
x,1/2-y,1/2+z
loop_
_atom_site_type_symbol
_atom_site_label
_atom_site_fract_x
_atom_site_fract_y
_atom_site_fract_z
Si Si1 0.406360 0.292822 0.537430
Si Si2 0.123109 0.199130 0.964982
Si Si3 0.403233 0.292756 0.335499
Si Si4 0.724381 0.713338 0.625227
Si Si5 0.094661 0.289523 0.587879
Si Si6 0.000000 0.000000 0.429210
Si Si7 0.690886 0.199572 0.437962
Si Si8 0.403021 0.291138 0.715389
O O1 0.500000 0.221757 0.550418
O O2 0.409725 0.500000 0.545742
O O3 0.330439 0.229686 0.574680
O O4 0.382743 0.261019 0.477397
O O5 0.073503 0.345172 0.932836
O O6 0.222627 0.201558 0.951101
O O7 0.093513 0.000000 0.958042
O O8 0.109315 0.246492 0.026276
O O9 0.500000 0.227247 0.344470
O O10 0.403787 0.500000 0.341657
O O11 0.339998 0.219410 0.378686
O O12 0.381872 0.251245 0.275412
O O13 0.726920 0.500000 0.625492
O O14 0.822205 0.772431 0.619461
O O15 0.669264 0.770490 0.675282
O O16 0.093105 0.500000 0.592511
O O17 0.000000 0.225178 0.602735
O O18 0.707782 0.000000 0.449829
O O19 0.500000 0.226455 0.704499
O O20 0.406358 0.500000 0.710087
#
# Coordination Sequence:
#
# PCOD9356770 Si02
#       8
#     8   8   8   8   8   2   8   8
#     4  10  19  31  49  74 110 154 189 221 274 347
#     4  11  21  36  56  81 117 151 187 238 285 339
#     4  10  21  37  56  76 103 143 189 236 286 342
#     4   9  16  28  49  77 107 139 183 229 277 340
#     4   9  16  28  50  77 105 145 185 226 279 335
#     4  12  22  36  56  86 110 152 198 236 288 346
#     4  12  23  35  52  80 112 145 188 234 283 344
#     4   9  17  31  52  77 102 134 181 236 285 331
#
# _framework density 18.828087
#
# number of rings (size 3 to 8) (size 9 to 14) (size 15 to 20)
#    0.000    1.931    2.759    2.690    0.000    4.414 
#    0.000    0.690    1.517    1.655    1.793    0.000 
#    0.000    0.000    0.000    0.000    0.000    0.000 
#
# Total GULP energy -161574.492726 kJ/mol
# GULP energy per Si atom -5571.534232 kJ/mol
# Density = 1.878523 g / cm^3
# Si number density = 18.828087 Si / 1000 Ang^3
#
#
#
# Elastic Constant Matrix: (Units=GPa)
#
#
# Indices 1 2 3 4 5 6 
#
# 1 159.1946 13.8502 62.4496 0.0000 0.0000 0.0000
# 2 13.8502 56.2489 -3.4078 0.0000 0.0000 0.0000
# 3 62.4496 -3.4078 70.5540 0.0000 0.0000 0.0000
# 4 0.0000 0.0000 0.0000 13.8640 0.0000 0.0000
# 5 0.0000 0.0000 0.0000 0.0000 128.3047 0.0000
# 6 0.0000 0.0000 0.0000 0.0000 0.0000 16.4564
#
#
#
# Elastic Compliance Matrix: (Units=1/GPa)
#
#
# Indices 1 2 3 4 5 6 
#
# 1 0.010117 -0.003042 -0.009102 0.000000 0.000000 0.000000
# 2 -0.003042 0.018745 0.003598 0.000000 0.000000 0.000000
# 3 -0.009102 0.003598 0.022403 0.000000 0.000000 0.000000
# 4 0.000000 0.000000 0.000000 0.072129 0.000000 0.000000
# 5 0.000000 0.000000 0.000000 0.000000 0.007794 0.000000
# 6 0.000000 0.000000 0.000000 0.000000 0.000000 0.060767
#
#
# Mechanical properties :
#
#
# Convention : Reuss Voigt Hill
#
# Bulk Modulus (GPa) = 29.26189 47.97571 38.61880
# Shear Modulus (GPa) = 22.68212 45.93206 34.30709
#
# Velocity S-wave (km/s) = 3.47464 4.94454 4.27326
# Velocity P-wave (km/s) = 5.62786 7.62458 6.70101
#
# Compressibility (1/GPa) = 0.03417415
#
# Stress axis : x y z
#
# Youngs Moduli (GPa) = 98.84606 53.34675 44.63592
#
# Poissons Ratio (x) = 0.16231 0.40626
# Poissons Ratio (y) = 0.30074 -0.16062
# Poissons Ratio (z) = 0.89966 -0.19196
#
# Static dielectric constant tensor:
#      x y z
#    x 1.629730 0.000000 0.000000 
#    y 0.000000 1.689550 0.000000 
#    z 0.000000 0.000000 1.620630 
# 
# From -- ./inp_files/22810.got.cif
#   From: 2010.05.17/outbox.cif.g08.bks.cpg/sg38_12_cif.got.tgz:22810.got - 2010.06.03 18:07:57.
