data_PCOD9356908
_publ_section_title
;
Structure prediction by ZEFSAII (Michael W. Deem and Ramdas Pophale) SiO2 
 PCOD9356908
Probable space group: A M M 2
;
_chemical_formula_sum "Si O2"
_cell_formula_units_Z 56
_cell_length_a 7.553908
_cell_length_b 15.123496
_cell_length_c 22.609863
_cell_angle_alpha 90.000000
_cell_angle_beta 90.000000
_cell_angle_gamma 90.000000
_cell_volume 2582.984606
_symmetry_space_group_name_H-M "A M M 2"
_symmetry_group_IT_number 38
_symmetry_cell_setting 'orthorhombic'
loop_
_space_group_symop_operation_xyz
x,y,z
-x,-y,z
-x,y,z
x,-y,z
x,1/2+y,1/2+z
-x,1/2-y,1/2+z
-x,1/2+y,1/2+z
x,1/2-y,1/2+z
loop_
_atom_site_type_symbol
_atom_site_label
_atom_site_fract_x
_atom_site_fract_y
_atom_site_fract_z
Si Si1 0.710633 0.290103 0.117440
Si Si2 0.784484 0.400076 0.452035
Si Si3 0.287184 0.899579 0.729559
Si Si4 0.787239 0.783975 0.844372
Si Si5 0.286538 0.398771 0.006095
Si Si6 0.787092 0.598185 0.587242
Si Si7 0.793518 0.402798 0.869390
O O1 0.500000 0.304290 0.115606
O O2 0.780794 0.345813 0.172714
O O3 0.778853 0.329745 0.055180
O O4 0.739481 0.185506 0.123074
O O5 0.735618 0.500000 0.434041
O O6 0.719904 0.330164 0.404306
O O7 0.724897 0.386783 0.519463
O O8 0.000000 0.396794 0.452847
O O9 0.500000 0.904288 0.724248
O O10 0.248720 0.845726 0.788838
O O11 0.219840 0.000000 0.732005
O O12 0.716921 0.684214 0.838785
O O13 0.000000 0.777591 0.850422
O O14 0.500000 0.392767 0.001601
O O15 0.244237 0.500000 0.024540
O O16 0.214985 0.385820 0.940082
O O17 0.725538 0.500000 0.606261
O O18 0.000000 0.594634 0.585796
O O19 0.713801 0.500000 0.858674
O O20 0.000000 0.408388 0.852751
#
# Coordination Sequence:
#
# PCOD9356908 Si02
#       7
#     8   8   8   8   8   8   8
#     4  10  20  34  52  73 100 135 170 205 249 297
#     4   8  14  26  46  72 100 128 158 196 245 295
#     4  10  22  39  55  72  98 131 166 206 251 297
#     4  10  19  32  52  75 100 133 171 208 245 290
#     4   9  17  30  50  76 104 134 168 205 247 298
#     4   9  18  33  53  77 104 133 165 202 246 297
#     4   9  18  32  50  75 106 135 163 201 251 301
#
# _framework density 21.680347000000001
#
# number of rings (size 3 to 8) (size 9 to 14) (size 15 to 20)
#    0.000    2.714    0.000    2.571    0.000    5.714 
#    0.000    1.429    0.000    6.000    0.000    0.000 
#    0.000    0.000    0.000    0.000    0.000    0.000 
#
# Total GULP energy -156292.059532 kJ/mol
# GULP energy per Si atom -5581.859269 kJ/mol
# Density = 2.163100 g / cm^3
# Si number density = 21.680347 Si / 1000 Ang^3
#
#
#
# Elastic Constant Matrix: (Units=GPa)
#
#
# Indices 1 2 3 4 5 6 
#
# 1 52.2348 3.0822 -4.4284 0.0000 0.0000 0.0000
# 2 3.0822 209.4368 68.4646 0.0000 0.0000 0.0000
# 3 -4.4284 68.4646 39.5027 0.0000 0.0000 0.0000
# 4 0.0000 0.0000 0.0000 36.7766 0.0000 0.0000
# 5 0.0000 0.0000 0.0000 0.0000 18.9178 0.0000
# 6 0.0000 0.0000 0.0000 0.0000 0.0000 11.7215
#
#
#
# Elastic Compliance Matrix: (Units=1/GPa)
#
#
# Indices 1 2 3 4 5 6 
#
# 1 0.019816 -0.002348 0.006291 0.000000 0.000000 0.000000
# 2 -0.002348 0.011294 -0.019838 0.000000 0.000000 0.000000
# 3 0.006291 -0.019838 0.060403 0.000000 0.000000 0.000000
# 4 0.000000 0.000000 0.000000 0.027191 0.000000 0.000000
# 5 0.000000 0.000000 0.000000 0.000000 0.052860 0.000000
# 6 0.000000 0.000000 0.000000 0.000000 0.000000 0.085313
#
#
# Mechanical properties :
#
#
# Convention : Reuss Voigt Hill
#
# Bulk Modulus (GPa) = 16.74386 48.37901 32.56143
# Shear Modulus (GPa) = 16.20349 29.08693 22.64521
#
# Velocity S-wave (km/s) = 2.73679 3.66680 3.23538
# Velocity P-wave (km/s) = 4.21029 6.34747 5.38595
#
# Compressibility (1/GPa) = 0.05972339
#
# Stress axis : x y z
#
# Youngs Moduli (GPa) = 50.46358 88.54003 16.55555
#
# Poissons Ratio (x) = 0.20792 -0.10416
# Poissons Ratio (y) = 0.11850 0.32843
# Poissons Ratio (z) = -0.31749 1.75647
#
# Static dielectric constant tensor:
#      x y z
#    x 1.821300 0.000000 0.000000 
#    y 0.000000 1.823220 0.000000 
#    z 0.000000 0.000000 1.746390 
# 
# From -- ./inp_files/19744.got.cif
#   From: 2010.05.17/outbox.cif.g08.bks.cpg/sg38_10_cif.got.tgz:19744.got - 2010.06.03 18:07:57.
