data_PCOD9356301
_publ_section_title
;
Structure prediction by ZEFSAII (Michael W. Deem and Ramdas Pophale) SiO2 
 PCOD9356301
Probable space group: A M M 2
;
_chemical_formula_sum "Si O2"
_cell_formula_units_Z 56
_cell_length_a 20.714955
_cell_length_b 7.710081
_cell_length_c 15.851482
_cell_angle_alpha 90.000000
_cell_angle_beta 90.000000
_cell_angle_gamma 90.000000
_cell_volume 2531.703294
_symmetry_space_group_name_H-M "A M M 2"
_symmetry_group_IT_number 38
_symmetry_cell_setting 'orthorhombic'
loop_
_space_group_symop_operation_xyz
x,y,z
-x,-y,z
-x,y,z
x,-y,z
x,1/2+y,1/2+z
-x,1/2-y,1/2+z
-x,1/2+y,1/2+z
x,1/2-y,1/2+z
loop_
_atom_site_type_symbol
_atom_site_label
_atom_site_fract_x
_atom_site_fract_y
_atom_site_fract_z
Si Si1 0.430679 0.702636 0.215040
Si Si2 0.847305 0.800205 0.480363
Si Si3 0.707317 0.212134 0.728593
Si Si4 0.154466 0.213552 0.663435
Si Si5 0.569877 0.707508 0.912255
Si Si6 0.709553 0.205328 0.925262
Si Si7 0.072028 0.295856 0.319831
O O1 0.500000 0.779932 0.189078
O O2 0.431731 0.500000 0.190412
O O3 0.360770 0.775412 0.190517
O O4 0.429067 0.712637 0.317774
O O5 0.845128 0.500000 0.163098
O O6 0.866221 0.726740 0.571134
O O7 0.769734 0.788660 0.472370
O O8 0.882038 0.718490 0.400589
O O9 0.772021 0.267139 0.682350
O O10 0.711893 0.264394 0.827065
O O11 0.705059 0.000000 0.728191
O O12 0.108767 0.276573 0.738326
O O13 0.133438 0.000000 0.478226
O O14 0.500000 0.755974 0.950683
O O15 0.570682 0.500000 0.902837
O O16 0.636792 0.758143 0.956165
O O17 0.720228 0.000000 0.926299
O O18 0.065542 0.500000 0.303178
O O19 0.000000 0.224458 0.333474
#
# Coordination Sequence:
#
# PCOD9356301 Si02
#       7
#     8   8   8   8   8   8   8
#     4   8  13  21  37  65  97 131 176 226 273 324
#     4  11  22  35  57  87 117 146 182 233 285 329
#     4   8  13  25  48  71  95 134 181 224 261 313
#     4   9  18  34  56  82 110 145 186 225 271 331
#     4   9  16  25  40  68 106 142 181 234 291 336
#     4  10  18  31  53  75 104 147 193 234 274 333
#     4  10  21  40  64  85 110 148 189 225 269 334
#
# _framework density 22.119495000000001
#
# number of rings (size 3 to 8) (size 9 to 14) (size 15 to 20)
#    0.000    2.714    1.429    2.143    0.000    1.714 
#    0.000    2.857    0.000    0.857    0.000    4.000 
#    0.000    0.000    0.000    0.000    0.000    0.143 
#
# Total GULP energy -156170.524781 kJ/mol
# GULP energy per Si atom -5577.518742 kJ/mol
# Density = 2.206915 g / cm^3
# Si number density = 22.119495 Si / 1000 Ang^3
#
#
#
# Elastic Constant Matrix: (Units=GPa)
#
#
# Indices 1 2 3 4 5 6 
#
# 1 150.1206 -2.0958 52.5675 0.0000 0.0000 0.0000
# 2 -2.0958 39.5510 0.8946 0.0000 0.0000 0.0000
# 3 52.5675 0.8946 94.9235 0.0000 0.0000 0.0000
# 4 0.0000 0.0000 0.0000 3.9504 0.0000 0.0000
# 5 0.0000 0.0000 0.0000 0.0000 -10.6401 0.0000
# 6 0.0000 0.0000 0.0000 0.0000 0.0000 9.8749
#
#
#
# Elastic Compliance Matrix: (Units=1/GPa)
#
#
# Indices 1 2 3 4 5 6 
#
# 1 0.008275 0.000542 -0.004588 0.000000 0.000000 0.000000
# 2 0.000542 0.025325 -0.000539 0.000000 0.000000 0.000000
# 3 -0.004588 -0.000539 0.013081 0.000000 0.000000 0.000000
# 4 0.000000 0.000000 0.000000 0.253141 0.000000 0.000000
# 5 0.000000 0.000000 0.000000 0.000000 -0.093984 0.000000
# 6 0.000000 0.000000 0.000000 0.000000 0.000000 0.101266
#
#
# Mechanical properties :
#
#
# Convention : Reuss Voigt Hill
#
# Bulk Modulus (GPa) = 26.65849 43.03643 34.84746
# Shear Modulus (GPa) = 15.20788 16.18563 15.69675
#
# Velocity S-wave (km/s) = 2.62493 2.70800 2.66679
# Velocity P-wave (km/s) = 4.61142 5.41075 5.02700
#
# Compressibility (1/GPa) = 0.03751150
#
# Stress axis : x y z
#
# Youngs Moduli (GPa) = 120.83952 39.48707 76.44887
#
# Poissons Ratio (x) = -0.02141 0.35074
# Poissons Ratio (y) = -0.06553 0.04121
# Poissons Ratio (z) = 0.55441 0.02128
#
# Static dielectric constant tensor:
#      x y z
#    x 1.851050 0.000000 0.000000 
#    y 0.000000 1.816090 0.000000 
#    z 0.000000 0.000000 1.804160 
# 
# From -- ./inp_files/15441.got.cif
#   From: 2010.05.17/outbox.cif.g08.bks.cpg/sg38_8_cif.got.tgz:15441.got - 2010.06.03 18:07:57.
