data_PCOD9356806
_publ_section_title
;
Structure prediction by ZEFSAII (Michael W. Deem and Ramdas Pophale) SiO2 
 PCOD9356806
Probable space group: A M M 2
;
_chemical_formula_sum "Si O2"
_cell_formula_units_Z 64
_cell_length_a 14.911650
_cell_length_b 8.826671
_cell_length_c 25.540758
_cell_angle_alpha 90.000000
_cell_angle_beta 90.000000
_cell_angle_gamma 90.000000
_cell_volume 3361.680407
_symmetry_space_group_name_H-M "A M M 2"
_symmetry_group_IT_number 38
_symmetry_cell_setting 'orthorhombic'
loop_
_space_group_symop_operation_xyz
x,y,z
-x,-y,z
-x,y,z
x,-y,z
x,1/2+y,1/2+z
-x,1/2-y,1/2+z
-x,1/2+y,1/2+z
x,1/2-y,1/2+z
loop_
_atom_site_type_symbol
_atom_site_label
_atom_site_fract_x
_atom_site_fract_y
_atom_site_fract_z
Si Si1 0.903000 0.317648 0.629030
Si Si2 0.398975 0.175263 0.312034
Si Si3 0.603504 0.315313 0.494448
Si Si4 0.703732 0.683417 0.601066
Si Si5 0.899017 0.180789 0.352648
Si Si6 0.137925 0.825654 0.739617
Si Si7 0.653005 0.173579 0.709491
Si Si8 0.724746 0.180181 0.896750
O O1 0.901746 0.500000 0.629097
O O2 0.809270 0.269263 0.602082
O O3 0.899111 0.260084 0.688810
O O4 0.000000 0.268556 0.606495
O O5 0.500000 0.190579 0.332870
O O6 0.398328 0.227339 0.251986
O O7 0.332251 0.277130 0.345447
O O8 0.371058 0.000000 0.315700
O O9 0.500000 0.263941 0.490947
O O10 0.601511 0.500000 0.493031
O O11 0.651440 0.271916 0.548662
O O12 0.665737 0.266148 0.446077
O O13 0.701159 0.500000 0.605296
O O14 0.657287 0.754871 0.652017
O O15 0.885145 0.247536 0.294309
O O16 0.821748 0.245627 0.389797
O O17 0.000000 0.219596 0.369909
O O18 0.890794 0.000000 0.349699
O O19 0.244721 0.825724 0.730590
O O20 0.107782 0.000000 0.740320
O O21 0.621336 0.000000 0.708198
O O22 0.735484 0.000000 0.900030
#
# Coordination Sequence:
#
# PCOD9356806 Si02
#       8
#     8   8   8   8   8   8   8   8
#     4   9  17  29  47  74 109 148 187 227 275 331
#     4  11  23  37  56  83 114 151 191 231 284 352
#     4   9  19  37  61  86 110 142 188 239 292 346
#     4   9  18  34  56  80 109 146 189 236 282 340
#     4  11  23  37  55  80 113 153 192 231 281 342
#     4  10  19  31  50  78 111 149 190 231 275 329
#     4  10  20  34  53  81 117 153 185 230 287 337
#     4  11  22  38  60  85 113 146 188 243 296 342
#
# _framework density 19.038097
#
# number of rings (size 3 to 8) (size 9 to 14) (size 15 to 20)
#    0.000    2.000    1.250    2.625    0.000    5.750 
#    0.000    3.125    0.000    3.750    0.000    0.000 
#    0.000    0.000    0.000    0.000    0.000    0.000 
#
# Total GULP energy -178604.660919 kJ/mol
# GULP energy per Si atom -5581.395654 kJ/mol
# Density = 1.899477 g / cm^3
# Si number density = 19.038097 Si / 1000 Ang^3
#
#
#
# Elastic Constant Matrix: (Units=GPa)
#
#
# Indices 1 2 3 4 5 6 
#
# 1 130.1781 24.5673 67.1532 0.0000 0.0000 0.0000
# 2 24.5673 28.3352 15.1134 0.0000 0.0000 0.0000
# 3 67.1532 15.1134 111.9079 0.0000 0.0000 0.0000
# 4 0.0000 0.0000 0.0000 21.0312 0.0000 0.0000
# 5 0.0000 0.0000 0.0000 0.0000 11.5023 0.0000
# 6 0.0000 0.0000 0.0000 0.0000 0.0000 16.5423
#
#
#
# Elastic Compliance Matrix: (Units=1/GPa)
#
#
# Indices 1 2 3 4 5 6 
#
# 1 0.012384 -0.007300 -0.006446 0.000000 0.000000 0.000000
# 2 -0.007300 0.042334 -0.001337 0.000000 0.000000 0.000000
# 3 -0.006446 -0.001337 0.012984 0.000000 0.000000 0.000000
# 4 0.000000 0.000000 0.000000 0.047548 0.000000 0.000000
# 5 0.000000 0.000000 0.000000 0.000000 0.086939 0.000000
# 6 0.000000 0.000000 0.000000 0.000000 0.000000 0.060451
#
#
# Mechanical properties :
#
#
# Convention : Reuss Voigt Hill
#
# Bulk Modulus (GPa) = 26.63961 53.78768 40.21364
# Shear Modulus (GPa) = 16.37630 20.72097 18.54864
#
# Velocity S-wave (km/s) = 2.93607 3.30266 3.12475
# Velocity P-wave (km/s) = 5.05146 6.54656 5.84699
#
# Compressibility (1/GPa) = 0.03753809
#
# Stress axis : x y z
#
# Youngs Moduli (GPa) = 80.74621 23.62173 77.01525
#
# Poissons Ratio (x) = 0.17243 0.49642
# Poissons Ratio (y) = 0.58942 0.10297
# Poissons Ratio (z) = 0.52047 0.03158
#
# Static dielectric constant tensor:
#      x y z
#    x 1.709430 0.000000 0.000000 
#    y 0.000000 1.643020 0.000000 
#    z 0.000000 0.000000 1.625850 
# 
# From -- ./inp_files/22900.got.cif
#   From: 2010.05.17/outbox.cif.g08.bks.cpg/sg38_12_cif.got.tgz:22900.got - 2010.06.03 18:07:57.
