data_PCOD9356952
_publ_section_title
;
Structure prediction by ZEFSAII (Michael W. Deem and Ramdas Pophale) SiO2 
 PCOD9356952
Probable space group: A M M 2
;
_chemical_formula_sum "Si O2"
_cell_formula_units_Z 44
_cell_length_a 7.526788
_cell_length_b 14.390277
_cell_length_c 21.646419
_cell_angle_alpha 90.000000
_cell_angle_beta 90.000000
_cell_angle_gamma 90.000000
_cell_volume 2344.579149
_symmetry_space_group_name_H-M "A M M 2"
_symmetry_group_IT_number 38
_symmetry_cell_setting 'orthorhombic'
loop_
_space_group_symop_operation_xyz
x,y,z
-x,-y,z
-x,y,z
x,-y,z
x,1/2+y,1/2+z
-x,1/2-y,1/2+z
-x,1/2+y,1/2+z
x,1/2-y,1/2+z
loop_
_atom_site_type_symbol
_atom_site_label
_atom_site_fract_x
_atom_site_fract_y
_atom_site_fract_z
Si Si1 0.283798 0.900251 0.988330
Si Si2 0.000000 0.313719 0.718340
Si Si3 0.714790 0.305695 0.947495
Si Si4 0.000000 0.888606 0.356585
Si Si5 0.698623 0.860481 0.583623
Si Si6 0.000000 0.401045 0.178819
Si Si7 0.299525 0.354639 0.623523
O O1 0.500000 0.897458 0.989523
O O2 0.231596 0.803133 0.956807
O O3 0.230054 0.000000 0.960524
O O4 0.229041 0.899685 0.060331
O O5 0.000000 0.346052 0.788290
O O6 0.831044 0.354789 0.681202
O O7 0.000000 0.199988 0.712366
O O8 0.500000 0.309379 0.939052
O O9 0.827729 0.351601 0.893644
O O10 0.755639 0.358679 0.012085
O O11 0.000000 0.000000 0.354415
O O12 0.500000 0.898252 0.587606
O O13 0.832918 0.901320 0.632565
O O14 0.688665 0.752509 0.602575
O O15 0.000000 0.500000 0.214498
O O16 0.500000 0.387511 0.637146
#
# Coordination Sequence:
#
# PCOD9356952 Si02
#       7
#     8   4   8   4   8   4   8
#     4   8  14  28  55  89 117 138 164 205 264 331
#     4  10  22  38  51  69 101 138 179 221 256 297
#     4   9  19  37  57  79 111 143 172 216 268 312
#     4  12  27  42  54  71  97 138 194 237 260 297
#     4   8  15  29  51  79 107 133 161 198 252 313
#     4  10  19  32  53  78 104 132 161 206 268 324
#     4   8  15  30  52  77 106 136 164 202 253 305
#
# _framework density 18.766694000000001
#
# number of rings (size 3 to 8) (size 9 to 14) (size 15 to 20)
#    0.000    3.091    0.000    2.727    0.000    5.818 
#    0.000    4.091    0.000    0.000    0.000    0.000 
#    0.000    0.000    0.000    0.000    0.000    0.000 
#
# Total GULP energy -122545.984696 kJ/mol
# GULP energy per Si atom -5570.272032 kJ/mol
# Density = 1.872398 g / cm^3
# Si number density = 18.766694 Si / 1000 Ang^3
#
#
#
# Elastic Constant Matrix: (Units=GPa)
#
#
# Indices 1 2 3 4 5 6 
#
# 1 75.4689 27.6213 50.6080 0.0000 0.0000 0.0000
# 2 27.6213 143.8247 46.1156 0.0000 0.0000 0.0000
# 3 50.6080 46.1156 122.6778 0.0000 0.0000 0.0000
# 4 0.0000 0.0000 0.0000 13.2842 0.0000 0.0000
# 5 0.0000 0.0000 0.0000 0.0000 47.6274 0.0000
# 6 0.0000 0.0000 0.0000 0.0000 0.0000 -9.9413
#
#
#
# Elastic Compliance Matrix: (Units=1/GPa)
#
#
# Indices 1 2 3 4 5 6 
#
# 1 0.018516 -0.001259 -0.007165 0.000000 0.000000 0.000000
# 2 -0.001259 0.007991 -0.002485 0.000000 0.000000 0.000000
# 3 -0.007165 -0.002485 0.012041 0.000000 0.000000 0.000000
# 4 0.000000 0.000000 0.000000 0.075277 0.000000 0.000000
# 5 0.000000 0.000000 0.000000 0.000000 0.020996 0.000000
# 6 0.000000 0.000000 0.000000 0.000000 0.000000 -0.100590
#
#
# Mechanical properties :
#
#
# Convention : Reuss Voigt Hill
#
# Bulk Modulus (GPa) = 59.76762 65.62902 62.69832
# Shear Modulus (GPa) = 81.13372 24.70249 52.91810
#
# Velocity S-wave (km/s) = 6.58230 3.63201 5.31593
# Velocity P-wave (km/s) = 9.47026 7.25504 8.43568
#
# Compressibility (1/GPa) = 0.01673147
#
# Stress axis : x y z
#
# Youngs Moduli (GPa) = 54.00735 125.13554 83.04693
#
# Poissons Ratio (x) = 0.15748 0.59505
# Poissons Ratio (y) = 0.06797 0.20636
# Poissons Ratio (z) = 0.38698 0.31094
#
# Static dielectric constant tensor:
#      x y z
#    x 1.684310 0.000000 0.000000 
#    y 0.000000 1.738460 0.000000 
#    z 0.000000 0.000000 1.596430 
# 
# From -- ./inp_files/16584.got.cif
#   From: 2010.05.17/outbox.cif.g08.bks.cpg/sg38_9_cif.got.tgz:16584.got - 2010.06.03 18:07:57.
