data_PCOD9356723
_publ_section_title
;
Structure prediction by ZEFSAII (Michael W. Deem and Ramdas Pophale) SiO2 
 PCOD9356723
Probable space group: A M M 2
;
_chemical_formula_sum "Si O2"
_cell_formula_units_Z 64
_cell_length_a 8.609502
_cell_length_b 24.094697
_cell_length_c 19.702690
_cell_angle_alpha 90.000000
_cell_angle_beta 90.000000
_cell_angle_gamma 90.000000
_cell_volume 4087.191860
_symmetry_space_group_name_H-M "A M M 2"
_symmetry_group_IT_number 38
_symmetry_cell_setting 'orthorhombic'
loop_
_space_group_symop_operation_xyz
x,y,z
-x,-y,z
-x,y,z
x,-y,z
x,1/2+y,1/2+z
-x,1/2-y,1/2+z
-x,1/2+y,1/2+z
x,1/2-y,1/2+z
loop_
_atom_site_type_symbol
_atom_site_label
_atom_site_fract_x
_atom_site_fract_y
_atom_site_fract_z
Si Si1 0.187947 0.563756 0.794760
Si Si2 0.313416 0.881257 0.431869
Si Si3 0.186705 0.728422 0.284980
Si Si4 0.685610 0.274241 0.575977
Si Si5 0.689491 0.437123 0.073838
Si Si6 0.812863 0.337607 0.699267
Si Si7 0.312891 0.834467 0.661898
Si Si8 0.813709 0.243995 0.434264
O O1 0.236254 0.500000 0.785601
O O2 0.252379 0.588396 0.864836
O O3 0.235497 0.604808 0.733797
O O4 0.000000 0.565509 0.798205
O O5 0.500000 0.879174 0.430455
O O6 0.265591 0.914475 0.499617
O O7 0.249936 0.818796 0.435542
O O8 0.231470 0.787454 0.250641
O O9 0.252647 0.681069 0.236173
O O10 0.237480 0.728697 0.363055
O O11 0.000000 0.725595 0.283354
O O12 0.500000 0.274008 0.571739
O O13 0.741267 0.322206 0.626859
O O14 0.735282 0.216116 0.611981
O O15 0.755454 0.275182 0.501103
O O16 0.500000 0.437546 0.074979
O O17 0.742944 0.500000 0.084687
O O18 0.740692 0.392385 0.129817
O O19 0.000000 0.337037 0.693324
O O20 0.500000 0.834457 0.663160
O O21 0.000000 0.241675 0.434443
#
# Coordination Sequence:
#
# PCOD9356723 Si02
#       8
#     8   8   8   8   8   8   8   8
#     4  10  20  34  50  69  97 131 168 205 238 282
#     4  11  20  31  46  68  99 132 167 201 231 275
#     4   9  18  31  47  66  91 122 156 192 234 283
#     4  10  19  31  47  71  96 121 157 199 242 285
#     4   9  17  30  46  65  93 127 159 190 226 272
#     4   9  17  32  48  67  93 127 162 194 238 286
#     4   9  17  30  46  67  92 120 155 193 231 274
#     4  11  20  32  49  70  96 129 161 194 240 291
#
# _framework density 15.658671999999999
#
# number of rings (size 3 to 8) (size 9 to 14) (size 15 to 20)
#    0.000    2.250    2.500    1.500    0.000    2.750 
#    0.000    0.000    0.000    1.875    0.000    0.875 
#    0.000    1.000    0.000    0.000    0.000    0.000 
#
# Total GULP energy -178474.163169 kJ/mol
# GULP energy per Si atom -5577.317599 kJ/mol
# Density = 1.562303 g / cm^3
# Si number density = 15.658672 Si / 1000 Ang^3
#
#
#
# Elastic Constant Matrix: (Units=GPa)
#
#
# Indices 1 2 3 4 5 6 
#
# 1 14.4043 22.0046 28.7275 0.0000 0.0000 0.0000
# 2 22.0046 105.3328 80.3986 0.0000 0.0000 0.0000
# 3 28.7275 80.3986 151.3495 0.0000 0.0000 0.0000
# 4 0.0000 0.0000 0.0000 18.2706 0.0000 0.0000
# 5 0.0000 0.0000 0.0000 0.0000 21.0775 0.0000
# 6 0.0000 0.0000 0.0000 0.0000 0.0000 15.2273
#
#
#
# Elastic Compliance Matrix: (Units=1/GPa)
#
#
# Indices 1 2 3 4 5 6 
#
# 1 0.121576 -0.013093 -0.016121 0.000000 0.000000 0.000000
# 2 -0.013093 0.017378 -0.006746 0.000000 0.000000 0.000000
# 3 -0.016121 -0.006746 0.013251 0.000000 0.000000 0.000000
# 4 0.000000 0.000000 0.000000 0.054733 0.000000 0.000000
# 5 0.000000 0.000000 0.000000 0.000000 0.047444 0.000000
# 6 0.000000 0.000000 0.000000 0.000000 0.000000 0.065672
#
#
# Mechanical properties :
#
#
# Convention : Reuss Voigt Hill
#
# Bulk Modulus (GPa) = 12.45570 59.26088 35.85829
# Shear Modulus (GPa) = 11.94070 20.24548 16.09309
#
# Velocity S-wave (km/s) = 2.76445 3.59963 3.20932
# Velocity P-wave (km/s) = 4.26161 7.42994 6.05662
#
# Compressibility (1/GPa) = 0.08028450
#
# Stress axis : x y z
#
# Youngs Moduli (GPa) = 8.22530 57.54296 75.46643
#
# Poissons Ratio (x) = 0.75341 1.21660
# Poissons Ratio (y) = 0.10769 0.50913
# Poissons Ratio (z) = 0.13260 0.38821
#
# Static dielectric constant tensor:
#      x y z
#    x 1.530500 0.000000 0.000000 
#    y 0.000000 1.510570 0.000000 
#    z 0.000000 0.000000 1.516800 
# 
# From -- ./inp_files/17184.got.cif
#   From: 2010.05.17/outbox.cif.g08.bks.cpg/sg38_9_cif.got.tgz:17184.got - 2010.06.03 18:07:57.
