data_PCOD9356430
_publ_section_title
;
Structure prediction by ZEFSAII (Michael W. Deem and Ramdas Pophale) SiO2 
 PCOD9356430
Probable space group: A M M 2
;
_chemical_formula_sum "Si O2"
_cell_formula_units_Z 40
_cell_length_a 7.641640
_cell_length_b 12.042899
_cell_length_c 20.692947
_cell_angle_alpha 90.000000
_cell_angle_beta 90.000000
_cell_angle_gamma 90.000000
_cell_volume 1904.320153
_symmetry_space_group_name_H-M "A M M 2"
_symmetry_group_IT_number 38
_symmetry_cell_setting 'orthorhombic'
loop_
_space_group_symop_operation_xyz
x,y,z
-x,-y,z
-x,y,z
x,-y,z
x,1/2+y,1/2+z
-x,1/2-y,1/2+z
-x,1/2+y,1/2+z
x,1/2-y,1/2+z
loop_
_atom_site_type_symbol
_atom_site_label
_atom_site_fract_x
_atom_site_fract_y
_atom_site_fract_z
Si Si1 0.293058 0.742750 0.413520
Si Si2 0.285706 0.372611 0.789885
Si Si3 0.793830 0.375308 0.040876
Si Si4 0.714547 0.500000 0.436307
Si Si5 0.713139 0.000000 0.085761
Si Si6 0.711072 0.723345 0.656992
O O1 0.500000 0.734330 0.401643
O O2 0.224203 0.825294 0.358561
O O3 0.274459 0.793014 0.485246
O O4 0.223172 0.617329 0.408315
O O5 0.500000 0.375605 0.789653
O O6 0.229647 0.500000 0.779242
O O7 0.232114 0.292232 0.731025
O O8 0.720074 0.500000 0.034475
O O9 0.764854 0.325611 0.112191
O O10 0.000000 0.381083 0.030070
O O11 0.500000 0.500000 0.433789
O O12 0.764417 0.500000 0.511515
O O13 0.771824 0.888601 0.120893
O O14 0.500000 0.000000 0.088205
O O15 0.500000 0.723517 0.657008
#
# Coordination Sequence:
#
# PCOD9356430 Si02
#       6
#     8   8   8   4   4   8
#     4  10  19  34  57  83 111 142 176 216 263 318
#     4   9  17  30  53  85 114 138 171 218 267 312
#     4  11  24  39  53  74 107 144 181 225 271 313
#     4   9  16  28  50  80 110 137 168 213 265 308
#     4   9  14  26  52  80 106 133 164 213 269 310
#     4  10  18  33  57  81 106 138 176 219 267 319
#
# _framework density 21.004871000000001
#
# number of rings (size 3 to 8) (size 9 to 14) (size 15 to 20)
#    0.000    2.200    3.000    1.200    0.000    2.400 
#    1.800    3.000    0.000    1.200    0.000    0.000 
#    0.000    0.000    0.000    0.000    0.000    0.000 
#
# Total GULP energy -111611.083378 kJ/mol
# GULP energy per Si atom -5580.554169 kJ/mol
# Density = 2.095706 g / cm^3
# Si number density = 21.004871 Si / 1000 Ang^3
#
#
#
# Elastic Constant Matrix: (Units=GPa)
#
#
# Indices 1 2 3 4 5 6 
#
# 1 35.6336 -0.7704 -5.8015 0.0000 0.0000 0.0000
# 2 -0.7704 128.3949 38.3717 0.0000 0.0000 0.0000
# 3 -5.8015 38.3717 104.0248 0.0000 0.0000 0.0000
# 4 0.0000 0.0000 0.0000 38.7815 0.0000 0.0000
# 5 0.0000 0.0000 0.0000 0.0000 -15.5775 0.0000
# 6 0.0000 0.0000 0.0000 0.0000 0.0000 13.8691
#
#
#
# Elastic Compliance Matrix: (Units=1/GPa)
#
#
# Indices 1 2 3 4 5 6 
#
# 1 0.028334 -0.000340 0.001705 0.000000 0.000000 0.000000
# 2 -0.000340 0.008758 -0.003249 0.000000 0.000000 0.000000
# 3 0.001705 -0.003249 0.010907 0.000000 0.000000 0.000000
# 4 0.000000 0.000000 0.000000 0.025785 0.000000 0.000000
# 5 0.000000 0.000000 0.000000 0.000000 -0.064195 0.000000
# 6 0.000000 0.000000 0.000000 0.000000 0.000000 0.072103
#
#
# Mechanical properties :
#
#
# Convention : Reuss Voigt Hill
#
# Bulk Modulus (GPa) = 22.60861 36.85031 29.72946
# Shear Modulus (GPa) = 49.89935 23.16487 36.53211
#
# Velocity S-wave (km/s) = 4.87931 3.32450 4.17492
# Velocity P-wave (km/s) = 6.52153 5.68491 6.11754
#
# Compressibility (1/GPa) = 0.04423093
#
# Stress axis : x y z
#
# Youngs Moduli (GPa) = 35.29368 114.18756 91.68602
#
# Poissons Ratio (x) = 0.03879 -0.15637
# Poissons Ratio (y) = 0.01199 0.29792
# Poissons Ratio (z) = -0.06019 0.37103
#
# Static dielectric constant tensor:
#      x y z
#    x 1.795970 0.000000 0.000000 
#    y 0.000000 1.751540 0.000000 
#    z 0.000000 0.000000 1.728400 
# 
# From -- ./inp_files/19477.got.cif
#   From: 2010.05.17/outbox.cif.g08.bks.cpg/sg38_10_cif.got.tgz:19477.got - 2010.06.03 18:07:57.
