data_PCOD9356730
_publ_section_title
;
Structure prediction by ZEFSAII (Michael W. Deem and Ramdas Pophale) SiO2 
 PCOD9356730
Probable space group: A M M 2
;
_chemical_formula_sum "Si O2"
_cell_formula_units_Z 40
_cell_length_a 7.792427
_cell_length_b 28.220380
_cell_length_c 7.275510
_cell_angle_alpha 90.000000
_cell_angle_beta 90.000000
_cell_angle_gamma 90.000000
_cell_volume 1599.922853
_symmetry_space_group_name_H-M "A M M 2"
_symmetry_group_IT_number 38
_symmetry_cell_setting 'orthorhombic'
loop_
_space_group_symop_operation_xyz
x,y,z
-x,-y,z
-x,y,z
x,-y,z
x,1/2+y,1/2+z
-x,1/2-y,1/2+z
-x,1/2+y,1/2+z
x,1/2-y,1/2+z
loop_
_atom_site_type_symbol
_atom_site_label
_atom_site_fract_x
_atom_site_fract_y
_atom_site_fract_z
Si Si1 0.796320 0.500000 0.535730
Si Si2 0.799229 0.699096 0.199691
Si Si3 0.802159 0.397430 0.096412
Si Si4 0.308183 0.302109 0.604232
Si Si5 0.295875 0.899456 0.023997
Si Si6 0.211472 0.500000 0.105278
O O1 0.735277 0.549748 0.613812
O O2 0.740504 0.500000 0.321638
O O3 0.000000 0.500000 0.542604
O O4 0.737295 0.656578 0.065418
O O5 0.689713 0.695839 0.383183
O O6 0.788708 0.753516 0.140785
O O7 0.000000 0.689615 0.238794
O O8 0.791328 0.400029 0.322065
O O9 0.726784 0.448359 0.035528
O O10 0.000000 0.398244 0.037819
O O11 0.500000 0.297571 0.680705
O O12 0.233711 0.354412 0.642641
O O13 0.500000 0.893732 0.998812
O O14 0.000000 0.500000 0.094472
#
# Coordination Sequence:
#
# PCOD9356730 Si02
#       6
#     4   8   8   8   8   4
#     4   9  15  23  37  57  84 115 144 179 226 274
#     4  10  19  31  48  70  95 124 160 198 234 279
#     4   8  14  24  39  60  86 115 146 182 227 274
#     4  10  20  33  48  68  96 128 159 194 239 285
#     4   9  16  25  39  60  86 115 148 185 226 275
#     4   7  10  19  35  55  80 109 138 171 216 266
#
# _framework density 25.001204999999999
#
# number of rings (size 3 to 8) (size 9 to 14) (size 15 to 20)
#    0.000    3.000    0.000    3.300    0.000    3.200 
#    0.000    0.000    0.000    0.000    0.000    1.400 
#    0.000    1.600    0.000    0.000    0.000    0.000 
#
# Total GULP energy -111429.203954 kJ/mol
# GULP energy per Si atom -5571.460198 kJ/mol
# Density = 2.494430 g / cm^3
# Si number density = 25.001205 Si / 1000 Ang^3
#
#
#
# Elastic Constant Matrix: (Units=GPa)
#
#
# Indices 1 2 3 4 5 6 
#
# 1 64.3482 32.5215 3.0122 0.0000 0.0000 0.0000
# 2 32.5215 284.3193 -7.2643 0.0000 0.0000 0.0000
# 3 3.0122 -7.2643 57.5428 0.0000 0.0000 0.0000
# 4 0.0000 0.0000 0.0000 5.2991 0.0000 0.0000
# 5 0.0000 0.0000 0.0000 0.0000 8.7910 0.0000
# 6 0.0000 0.0000 0.0000 0.0000 0.0000 29.8661
#
#
#
# Elastic Compliance Matrix: (Units=1/GPa)
#
#
# Indices 1 2 3 4 5 6 
#
# 1 0.016564 -0.001923 -0.001110 0.000000 0.000000 0.000000
# 2 -0.001923 0.003752 0.000574 0.000000 0.000000 0.000000
# 3 -0.001110 0.000574 0.017509 0.000000 0.000000 0.000000
# 4 0.000000 0.000000 0.000000 0.188711 0.000000 0.000000
# 5 0.000000 0.000000 0.000000 0.000000 0.113752 0.000000
# 6 0.000000 0.000000 0.000000 0.000000 0.000000 0.033483
#
#
# Mechanical properties :
#
#
# Convention : Reuss Voigt Hill
#
# Bulk Modulus (GPa) = 30.38788 51.41657 40.90222
# Shear Modulus (GPa) = 12.83179 33.98731 23.40955
#
# Velocity S-wave (km/s) = 2.26795 3.69104 3.06328
# Velocity P-wave (km/s) = 4.36338 6.22698 5.37654
#
# Compressibility (1/GPa) = 0.03290786
#
# Stress axis : x y z
#
# Youngs Moduli (GPa) = 60.37074 266.53790 57.11361
#
# Poissons Ratio (x) = 0.51256 0.06339
# Poissons Ratio (y) = 0.11610 -0.03280
# Poissons Ratio (z) = 0.06700 -0.15307
#
# Static dielectric constant tensor:
#      x y z
#    x 1.901910 0.000000 0.000000 
#    y 0.000000 2.195670 0.000000 
#    z 0.000000 0.000000 2.037770 
# 
# From -- ./inp_files/3496.got.cif
#   From: 2010.05.17/outbox.cif.g08.bks.cpg/sg38_2_cif.got.tgz:3496.got - 2010.06.03 18:07:57.
