data_PCOD9356956
_publ_section_title
;
Structure prediction by ZEFSAII (Michael W. Deem and Ramdas Pophale) SiO2 
 PCOD9356956
Probable space group: A M M 2
;
_chemical_formula_sum "Si O2"
_cell_formula_units_Z 64
_cell_length_a 21.553224
_cell_length_b 8.559382
_cell_length_c 19.169668
_cell_angle_alpha 90.000000
_cell_angle_beta 90.000000
_cell_angle_gamma 90.000000
_cell_volume 3536.464012
_symmetry_space_group_name_H-M "A M M 2"
_symmetry_group_IT_number 38
_symmetry_cell_setting 'orthorhombic'
loop_
_space_group_symop_operation_xyz
x,y,z
-x,-y,z
-x,y,z
x,-y,z
x,1/2+y,1/2+z
-x,1/2-y,1/2+z
-x,1/2+y,1/2+z
x,1/2-y,1/2+z
loop_
_atom_site_type_symbol
_atom_site_label
_atom_site_fract_x
_atom_site_fract_y
_atom_site_fract_z
Si Si1 0.798083 0.810465 0.210400
Si Si2 0.570880 0.811368 0.212518
Si Si3 0.796502 0.187312 0.868652
Si Si4 0.682789 0.689035 0.614321
Si Si5 0.066378 0.812043 0.205905
Si Si6 0.933102 0.311345 0.364360
Si Si7 0.428792 0.687071 0.366457
Si Si8 0.682433 0.185311 0.458176
O O1 0.790843 0.743728 0.288433
O O2 0.741937 0.762957 0.160687
O O3 0.865679 0.761008 0.180377
O O4 0.797419 0.000000 0.215813
O O5 0.500000 0.764537 0.196184
O O6 0.620538 0.761611 0.155047
O O7 0.587024 0.745497 0.288647
O O8 0.572734 0.000000 0.216727
O O9 0.866035 0.233114 0.894916
O O10 0.742015 0.256801 0.914914
O O11 0.791929 0.000000 0.870060
O O12 0.682846 0.500000 0.610585
O O13 0.685646 0.754368 0.536966
O O14 0.066335 0.761635 0.286994
O O15 0.000000 0.755074 0.175909
O O16 0.065671 0.000000 0.201485
O O17 0.932322 0.500000 0.357900
O O18 0.000000 0.268649 0.397608
O O19 0.500000 0.737044 0.380983
O O20 0.426909 0.500000 0.367444
O O21 0.379315 0.751397 0.420675
O O22 0.681039 0.000000 0.457021
#
# Coordination Sequence:
#
# PCOD9356956 Si02
#       8
#     8   8   8   8   8   8   8   8
#     4   9  17  30  50  75 102 133 169 210 257 308
#     4   9  18  34  57  83 109 136 166 203 249 301
#     4  10  19  32  53  78 105 137 173 215 260 309
#     4  10  21  36  52  72 101 137 174 212 255 301
#     4   8  13  22  39  66  98 128 160 201 249 301
#     4   8  14  25  43  70 101 130 163 206 256 306
#     4  10  21  38  61  86 110 136 168 208 253 304
#     4  12  25  38  53  74 104 141 179 219 259 303
#
# _framework density 18.097172
#
# number of rings (size 3 to 8) (size 9 to 14) (size 15 to 20)
#    0.000    2.500    0.000    2.625    0.000    3.750 
#    0.000    1.250    0.000    0.750    0.000    3.500 
#    0.000    0.000    0.000    0.000    0.000    0.000 
#
# Total GULP energy -178334.601754 kJ/mol
# GULP energy per Si atom -5572.956305 kJ/mol
# Density = 1.805598 g / cm^3
# Si number density = 18.097172 Si / 1000 Ang^3
#
#
#
# Elastic Constant Matrix: (Units=GPa)
#
#
# Indices 1 2 3 4 5 6 
#
# 1 162.3204 33.0267 96.3709 0.0000 0.0000 0.0000
# 2 33.0267 19.3994 24.4352 0.0000 0.0000 0.0000
# 3 96.3709 24.4352 97.9004 0.0000 0.0000 0.0000
# 4 0.0000 0.0000 0.0000 29.2957 0.0000 0.0000
# 5 0.0000 0.0000 0.0000 0.0000 -4.3688 0.0000
# 6 0.0000 0.0000 0.0000 0.0000 0.0000 10.0652
#
#
#
# Elastic Compliance Matrix: (Units=1/GPa)
#
#
# Indices 1 2 3 4 5 6 
#
# 1 0.016286 -0.010988 -0.013289 0.000000 0.000000 0.000000
# 2 -0.010988 0.082597 -0.009800 0.000000 0.000000 0.000000
# 3 -0.013289 -0.009800 0.025742 0.000000 0.000000 0.000000
# 4 0.000000 0.000000 0.000000 0.034135 0.000000 0.000000
# 5 0.000000 0.000000 0.000000 0.000000 -0.228894 0.000000
# 6 0.000000 0.000000 0.000000 0.000000 0.000000 0.099352
#
#
# Mechanical properties :
#
#
# Convention : Reuss Voigt Hill
#
# Bulk Modulus (GPa) = 17.70780 65.25399 41.48089
# Shear Modulus (GPa) = 43.03075 15.38424 29.20749
#
# Velocity S-wave (km/s) = 4.88152 2.91879 4.02173
# Velocity P-wave (km/s) = 6.44813 6.89166 6.67358
#
# Compressibility (1/GPa) = 0.05647230
#
# Stress axis : x y z
#
# Youngs Moduli (GPa) = 61.40124 12.10693 38.84662
#
# Poissons Ratio (x) = 0.13303 0.51625
# Poissons Ratio (y) = 0.67465 0.38069
# Poissons Ratio (z) = 0.81599 0.11865
#
# Static dielectric constant tensor:
#      x y z
#    x 1.686250 0.000000 0.000000 
#    y 0.000000 1.607040 0.000000 
#    z 0.000000 0.000000 1.563700 
# 
# From -- ./inp_files/15811.got.cif
#   From: 2010.05.17/outbox.cif.g08.bks.cpg/sg38_8_cif.got.tgz:15811.got - 2010.06.03 18:07:57.
