data_PCOD9356894
_publ_section_title
;
Structure prediction by ZEFSAII (Michael W. Deem and Ramdas Pophale) SiO2 
 PCOD9356894
Probable space group: A M M 2
;
_chemical_formula_sum "Si O2"
_cell_formula_units_Z 64
_cell_length_a 8.580154
_cell_length_b 21.264016
_cell_length_c 20.288421
_cell_angle_alpha 90.000000
_cell_angle_beta 90.000000
_cell_angle_gamma 90.000000
_cell_volume 3701.592627
_symmetry_space_group_name_H-M "A M M 2"
_symmetry_group_IT_number 38
_symmetry_cell_setting 'orthorhombic'
loop_
_space_group_symop_operation_xyz
x,y,z
-x,-y,z
-x,y,z
x,-y,z
x,1/2+y,1/2+z
-x,1/2-y,1/2+z
-x,1/2+y,1/2+z
x,1/2-y,1/2+z
loop_
_atom_site_type_symbol
_atom_site_label
_atom_site_fract_x
_atom_site_fract_y
_atom_site_fract_z
Si Si1 0.686970 0.810161 0.142280
Si Si2 0.313217 0.375510 0.281277
Si Si3 0.813247 0.617918 0.421719
Si Si4 0.188911 0.764967 0.423629
Si Si5 0.312006 0.570085 0.140984
Si Si6 0.688056 0.930355 0.058016
Si Si7 0.812758 0.733359 0.777593
Si Si8 0.812900 0.689261 0.063534
O O1 0.500000 0.808036 0.140773
O O2 0.741156 0.873061 0.104506
O O3 0.743318 0.805585 0.217424
O O4 0.750803 0.748858 0.104570
O O5 0.500000 0.370073 0.284349
O O6 0.251619 0.401869 0.350578
O O7 0.271106 0.415887 0.217213
O O8 0.241766 0.305898 0.271544
O O9 0.766410 0.691516 0.430376
O O10 0.748487 0.581065 0.484142
O O11 0.000000 0.614635 0.420716
O O12 0.238322 0.787403 0.351092
O O13 0.241807 0.802352 0.487895
O O14 0.000000 0.766128 0.423604
O O15 0.500000 0.572828 0.136747
O O16 0.260643 0.500000 0.122304
O O17 0.243858 0.625201 0.096409
O O18 0.500000 0.928412 0.056679
O O19 0.736282 0.000000 0.080696
O O20 0.000000 0.731967 0.774073
O O21 0.000000 0.691361 0.064944
#
# Coordination Sequence:
#
# PCOD9356894 Si02
#       8
#     8   8   8   8   8   8   8   8
#     4  11  21  34  54  81 108 139 180 225 272 321
#     4  10  19  32  51  76 108 146 182 217 260 315
#     4  10  19  33  52  77 109 143 179 220 265 317
#     4   8  17  32  51  78 108 134 167 213 267 314
#     4  10  22  38  53  74 108 145 179 219 265 314
#     4  10  22  38  54  75 107 146 185 225 271 324
#     4  10  19  33  54  80 109 140 174 222 271 317
#     4  11  20  34  57  81 105 137 177 223 269 317
#
# _framework density 17.289856
#
# number of rings (size 3 to 8) (size 9 to 14) (size 15 to 20)
#    0.000    2.000    2.500    2.625    0.000    2.000 
#    0.000    3.125    0.000    0.750    0.000    3.500 
#    0.000    0.000    0.000    0.000    0.000    0.000 
#
# Total GULP energy -178578.007338 kJ/mol
# GULP energy per Si atom -5580.562729 kJ/mol
# Density = 1.725050 g / cm^3
# Si number density = 17.289856 Si / 1000 Ang^3
#
#
#
# Elastic Constant Matrix: (Units=GPa)
#
#
# Indices 1 2 3 4 5 6 
#
# 1 29.5579 30.5428 26.5041 0.0000 0.0000 0.0000
# 2 30.5428 118.3150 77.6714 0.0000 0.0000 0.0000
# 3 26.5041 77.6714 138.1341 0.0000 0.0000 0.0000
# 4 0.0000 0.0000 0.0000 21.0805 0.0000 0.0000
# 5 0.0000 0.0000 0.0000 0.0000 25.0687 0.0000
# 6 0.0000 0.0000 0.0000 0.0000 0.0000 8.1129
#
#
#
# Elastic Compliance Matrix: (Units=1/GPa)
#
#
# Indices 1 2 3 4 5 6 
#
# 1 0.047180 -0.009886 -0.003494 0.000000 0.000000 0.000000
# 2 -0.009886 0.015469 -0.006801 0.000000 0.000000 0.000000
# 3 -0.003494 -0.006801 0.011734 0.000000 0.000000 0.000000
# 4 0.000000 0.000000 0.000000 0.047437 0.000000 0.000000
# 5 0.000000 0.000000 0.000000 0.000000 0.039890 0.000000
# 6 0.000000 0.000000 0.000000 0.000000 0.000000 0.123261
#
#
# Mechanical properties :
#
#
# Convention : Reuss Voigt Hill
#
# Bulk Modulus (GPa) = 29.39344 61.71594 45.55469
# Shear Modulus (GPa) = 14.85120 20.93832 17.89476
#
# Velocity S-wave (km/s) = 2.93397 3.48374 3.22061
# Velocity P-wave (km/s) = 5.33993 7.20794 6.34308
#
# Compressibility (1/GPa) = 0.03402119
#
# Stress axis : x y z
#
# Youngs Moduli (GPa) = 21.19541 64.64623 85.22285
#
# Poissons Ratio (x) = 0.63908 0.29776
# Poissons Ratio (y) = 0.20953 0.57961
# Poissons Ratio (z) = 0.07405 0.43967
#
# Static dielectric constant tensor:
#      x y z
#    x 1.585410 0.000000 0.000000 
#    y 0.000000 1.575240 0.000000 
#    z 0.000000 0.000000 1.599050 
# 
# From -- ./inp_files/17217.got.cif
#   From: 2010.05.17/outbox.cif.g08.bks.cpg/sg38_9_cif.got.tgz:17217.got - 2010.06.03 18:07:57.
