data_PCOD9356307
_publ_section_title
;
Structure prediction by ZEFSAII (Michael W. Deem and Ramdas Pophale) SiO2 
 PCOD9356307
Probable space group: A M M 2
;
_chemical_formula_sum "Si O2"
_cell_formula_units_Z 40
_cell_length_a 11.963953
_cell_length_b 7.361707
_cell_length_c 20.861038
_cell_angle_alpha 90.000000
_cell_angle_beta 90.000000
_cell_angle_gamma 90.000000
_cell_volume 1837.338353
_symmetry_space_group_name_H-M "A M M 2"
_symmetry_group_IT_number 38
_symmetry_cell_setting 'orthorhombic'
loop_
_space_group_symop_operation_xyz
x,y,z
-x,-y,z
-x,y,z
x,-y,z
x,1/2+y,1/2+z
-x,1/2-y,1/2+z
-x,1/2+y,1/2+z
x,1/2-y,1/2+z
loop_
_atom_site_type_symbol
_atom_site_label
_atom_site_fract_x
_atom_site_fract_y
_atom_site_fract_z
Si Si1 0.371752 0.719942 0.467630
Si Si2 0.227286 0.708384 0.844489
Si Si3 0.000000 0.279767 0.907517
Si Si4 0.629518 0.777719 0.224823
Si Si5 0.000000 0.285789 0.560380
Si Si6 0.243408 0.221810 0.095788
O O1 0.500000 0.776790 0.469420
O O2 0.368585 0.500000 0.465565
O O3 0.310201 0.788212 0.404701
O O4 0.307387 0.777707 0.531434
O O5 0.201455 0.500000 0.826726
O O6 0.110958 0.786593 0.870997
O O7 0.294193 0.785972 0.784104
O O8 0.000000 0.500000 0.906784
O O9 0.000000 0.232213 0.982957
O O10 0.500000 0.719796 0.229053
O O11 0.688872 0.722911 0.158707
O O12 0.627193 0.000000 0.226343
O O13 0.115541 0.214268 0.589722
O O14 0.000000 0.500000 0.573968
O O15 0.242121 0.000000 0.096093
#
# Coordination Sequence:
#
# PCOD9356307 Si02
#       6
#     8   8   4   8   4   8
#     4  10  19  31  50  75 101 131 169 212 254 297
#     4  10  20  33  51  74 101 136 171 206 252 302
#     4  10  20  33  49  73 105 135 166 210 254 296
#     4   9  17  30  48  72 103 133 163 206 256 301
#     4  10  18  31  53  77  99 127 168 214 254 298
#     4   9  17  29  48  74 100 128 164 207 252 296
#
# _framework density 21.770621999999999
#
# number of rings (size 3 to 8) (size 9 to 14) (size 15 to 20)
#    0.000    2.400    2.000    1.200    0.000    4.400 
#    0.000    4.000    0.000    2.400    0.000    1.400 
#    0.000    0.000    0.000    0.000    0.000    0.000 
#
# Total GULP energy -111738.352126 kJ/mol
# GULP energy per Si atom -5586.917606 kJ/mol
# Density = 2.172107 g / cm^3
# Si number density = 21.770622 Si / 1000 Ang^3
#
#
#
# Elastic Constant Matrix: (Units=GPa)
#
#
# Indices 1 2 3 4 5 6 
#
# 1 169.4589 -3.6217 47.5628 0.0000 0.0000 0.0000
# 2 -3.6217 77.0061 -12.9418 0.0000 0.0000 0.0000
# 3 47.5628 -12.9418 131.3448 0.0000 0.0000 0.0000
# 4 0.0000 0.0000 0.0000 13.7104 0.0000 0.0000
# 5 0.0000 0.0000 0.0000 0.0000 35.7257 0.0000
# 6 0.0000 0.0000 0.0000 0.0000 0.0000 1.1102
#
#
#
# Elastic Compliance Matrix: (Units=1/GPa)
#
#
# Indices 1 2 3 4 5 6 
#
# 1 0.006569 -0.000092 -0.002388 0.000000 0.000000 0.000000
# 2 -0.000092 0.013206 0.001335 0.000000 0.000000 0.000000
# 3 -0.002388 0.001335 0.008610 0.000000 0.000000 0.000000
# 4 0.000000 0.000000 0.000000 0.072937 0.000000 0.000000
# 5 0.000000 0.000000 0.000000 0.000000 0.027991 0.000000
# 6 0.000000 0.000000 0.000000 0.000000 0.000000 0.900711
#
#
# Mechanical properties :
#
#
# Convention : Reuss Voigt Hill
#
# Bulk Modulus (GPa) = 38.32340 48.86760 43.59550
# Shear Modulus (GPa) = 4.80301 33.22996 19.01649
#
# Velocity S-wave (km/s) = 1.48694 3.91111 2.95870
# Velocity P-wave (km/s) = 4.53756 6.54913 5.63385
#
# Compressibility (1/GPa) = 0.02609372
#
# Stress axis : x y z
#
# Youngs Moduli (GPa) = 152.22041 75.72346 116.14656
#
# Poissons Ratio (x) = 0.00699 0.27736
# Poissons Ratio (y) = 0.01406 -0.15502
# Poissons Ratio (z) = 0.36351 -0.10107
#
# Static dielectric constant tensor:
#      x y z
#    x 1.769570 0.000000 0.000000 
#    y 0.000000 1.907440 0.000000 
#    z 0.000000 0.000000 1.719810 
# 
# From -- ./inp_files/20460.got.cif
#   From: 2010.05.17/outbox.cif.g08.bks.cpg/sg38_11_cif.got.tgz:20460.got - 2010.06.03 18:07:57.
