data_PCOD9356192
_publ_section_title
;
Structure prediction by ZEFSAII (Michael W. Deem and Ramdas Pophale) SiO2 
 PCOD9356192
Probable space group: A M M 2
;
_chemical_formula_sum "Si O2"
_cell_formula_units_Z 56
_cell_length_a 16.183934
_cell_length_b 7.596615
_cell_length_c 20.844770
_cell_angle_alpha 90.000000
_cell_angle_beta 90.000000
_cell_angle_gamma 90.000000
_cell_volume 2562.720972
_symmetry_space_group_name_H-M "A M M 2"
_symmetry_group_IT_number 38
_symmetry_cell_setting 'orthorhombic'
loop_
_space_group_symop_operation_xyz
x,y,z
-x,-y,z
-x,y,z
x,-y,z
x,1/2+y,1/2+z
-x,1/2-y,1/2+z
-x,1/2+y,1/2+z
x,1/2-y,1/2+z
loop_
_atom_site_type_symbol
_atom_site_label
_atom_site_fract_x
_atom_site_fract_y
_atom_site_fract_z
Si Si1 0.814293 0.714502 0.253340
Si Si2 0.233174 0.288089 0.975824
Si Si3 0.410894 0.205303 0.145696
Si Si4 0.629197 0.711349 0.289394
Si Si5 0.226493 0.203357 0.614806
Si Si6 0.090881 0.211827 0.873758
Si Si7 0.588570 0.793870 0.432764
O O1 0.816796 0.500000 0.250122
O O2 0.726033 0.758521 0.285059
O O3 0.810880 0.781199 0.180267
O O4 0.884023 0.774290 0.302444
O O5 0.240743 0.500000 0.980515
O O6 0.164305 0.253727 0.922652
O O7 0.324677 0.218439 0.958081
O O8 0.206795 0.218399 0.045649
O O9 0.500000 0.276251 0.123375
O O10 0.408620 0.221111 0.223078
O O11 0.326481 0.292805 0.121955
O O12 0.406083 0.000000 0.128496
O O13 0.621110 0.500000 0.289345
O O14 0.593381 0.780554 0.355546
O O15 0.199874 0.000000 0.613674
O O16 0.000000 0.276698 0.892815
O O17 0.087651 0.000000 0.870844
O O18 0.500000 0.716548 0.453729
O O19 0.587583 0.000000 0.450108
#
# Coordination Sequence:
#
# PCOD9356192 Si02
#       7
#     8   8   8   8   8   8   8
#     4   8  15  31  53  78 104 131 173 224 269 320
#     4  10  21  37  56  81 115 149 182 228 281 330
#     4  10  20  32  47  72 107 144 184 231 280 328
#     4  10  18  30  50  74 103 140 183 233 280 322
#     4   9  19  35  55  77 105 145 186 226 275 328
#     4  10  20  36  60  85 109 141 181 228 282 338
#     4  10  20  32  47  72 108 148 186 225 276 332
#
# _framework density 21.851775
#
# number of rings (size 3 to 8) (size 9 to 14) (size 15 to 20)
#    0.000    2.429    1.429    2.143    0.000    4.571 
#    0.000    2.143    0.000    2.571    0.000    0.000 
#    0.000    0.000    0.000    0.000    0.000    0.000 
#
# Total GULP energy -156265.322232 kJ/mol
# GULP energy per Si atom -5580.904365 kJ/mol
# Density = 2.180204 g / cm^3
# Si number density = 21.851775 Si / 1000 Ang^3
#
#
#
# Elastic Constant Matrix: (Units=GPa)
#
#
# Indices 1 2 3 4 5 6 
#
# 1 119.1662 5.4075 63.5878 0.0000 0.0000 0.0000
# 2 5.4075 52.8383 -3.8422 0.0000 0.0000 0.0000
# 3 63.5878 -3.8422 138.3172 0.0000 0.0000 0.0000
# 4 0.0000 0.0000 0.0000 8.2003 0.0000 0.0000
# 5 0.0000 0.0000 0.0000 0.0000 8.9385 0.0000
# 6 0.0000 0.0000 0.0000 0.0000 0.0000 7.1423
#
#
#
# Elastic Compliance Matrix: (Units=1/GPa)
#
#
# Indices 1 2 3 4 5 6 
#
# 1 0.011241 -0.001529 -0.005210 0.000000 0.000000 0.000000
# 2 -0.001529 0.019172 0.001236 0.000000 0.000000 0.000000
# 3 -0.005210 0.001236 0.009659 0.000000 0.000000 0.000000
# 4 0.000000 0.000000 0.000000 0.121947 0.000000 0.000000
# 5 0.000000 0.000000 0.000000 0.000000 0.111876 0.000000
# 6 0.000000 0.000000 0.000000 0.000000 0.000000 0.140011
#
#
# Mechanical properties :
#
#
# Convention : Reuss Voigt Hill
#
# Bulk Modulus (GPa) = 34.40614 48.95868 41.68241
# Shear Modulus (GPa) = 11.50475 21.20078 16.35276
#
# Velocity S-wave (km/s) = 2.29703 3.11820 2.73857
# Velocity P-wave (km/s) = 4.77646 5.95128 5.39594
#
# Compressibility (1/GPa) = 0.02906458
#
# Stress axis : x y z
#
# Youngs Moduli (GPa) = 88.95732 52.15935 103.52573
#
# Poissons Ratio (x) = 0.07977 0.53941
# Poissons Ratio (y) = 0.13605 -0.12792
# Poissons Ratio (z) = 0.46350 -0.06445
#
# Static dielectric constant tensor:
#      x y z
#    x 1.800290 0.000000 0.000000 
#    y 0.000000 1.824590 0.000000 
#    z 0.000000 0.000000 1.807190 
# 
# From -- ./inp_files/21049.got.cif
#   From: 2010.05.17/outbox.cif.g08.bks.cpg/sg38_11_cif.got.tgz:21049.got - 2010.06.03 18:07:57.
