data_PCOD9356343
_publ_section_title
;
Structure prediction by ZEFSAII (Michael W. Deem and Ramdas Pophale) SiO2 
 PCOD9356343
Probable space group: A M M 2
;
_chemical_formula_sum "Si O2"
_cell_formula_units_Z 64
_cell_length_a 8.508581
_cell_length_b 31.266724
_cell_length_c 14.974997
_cell_angle_alpha 90.000000
_cell_angle_beta 90.000000
_cell_angle_gamma 90.000000
_cell_volume 3983.880122
_symmetry_space_group_name_H-M "A M M 2"
_symmetry_group_IT_number 38
_symmetry_cell_setting 'orthorhombic'
loop_
_space_group_symop_operation_xyz
x,y,z
-x,-y,z
-x,y,z
x,-y,z
x,1/2+y,1/2+z
-x,1/2-y,1/2+z
-x,1/2+y,1/2+z
x,1/2-y,1/2+z
loop_
_atom_site_type_symbol
_atom_site_label
_atom_site_fract_x
_atom_site_fract_y
_atom_site_fract_z
Si Si1 0.809917 0.133322 0.579180
Si Si2 0.810054 0.548558 0.167811
Si Si3 0.688035 0.549201 0.368083
Si Si4 0.188679 0.868255 0.945747
Si Si5 0.688229 0.208511 0.063683
Si Si6 0.809435 0.323670 0.264680
Si Si7 0.687748 0.206164 0.452468
Si Si8 0.188672 0.774341 0.260158
O O1 0.762485 0.083952 0.594862
O O2 0.761668 0.155267 0.672441
O O3 0.738524 0.163077 0.503247
O O4 0.000000 0.134954 0.571091
O O5 0.760154 0.500000 0.147146
O O6 0.750593 0.559047 0.267806
O O7 0.000000 0.549743 0.172365
O O8 0.500000 0.551587 0.366449
O O9 0.734732 0.500000 0.387012
O O10 0.753113 0.583064 0.439445
O O11 0.245437 0.848363 0.851581
O O12 0.000000 0.867986 0.948979
O O13 0.251729 0.835196 0.018738
O O14 0.500000 0.209287 0.061833
O O15 0.745959 0.209809 0.165723
O O16 0.743852 0.251072 0.007742
O O17 0.758558 0.274938 0.267743
O O18 0.000000 0.324593 0.266445
O O19 0.500000 0.208732 0.449020
O O20 0.754036 0.205022 0.352198
O O21 0.000000 0.776021 0.256793
#
# Coordination Sequence:
#
# PCOD9356343 Si02
#       8
#     8   8   8   8   8   8   8   8
#     4  10  18  32  50  72 100 136 175 209 250 301
#     4   9  17  30  49  73 101 134 173 215 255 300
#     4  10  20  32  47  72 106 139 169 207 258 309
#     4  11  20  34  53  75 100 136 179 213 252 303
#     4  11  23  36  50  74 105 135 169 212 260 307
#     4   9  17  28  47  73 100 130 169 212 247 286
#     4  11  23  35  49  74 104 135 170 211 256 303
#     4  11  21  36  54  71  98 137 177 216 251 294
#
# _framework density 16.064741000000001
#
# number of rings (size 3 to 8) (size 9 to 14) (size 15 to 20)
#    0.000    1.750    3.750    1.875    0.000    2.250 
#    0.000    0.000    0.000    0.000    0.000    0.875 
#    0.000    5.000    0.000    0.000    0.000    0.000 
#
# Total GULP energy -178454.630425 kJ/mol
# GULP energy per Si atom -5576.707201 kJ/mol
# Density = 1.602818 g / cm^3
# Si number density = 16.064741 Si / 1000 Ang^3
#
#
#
# Elastic Constant Matrix: (Units=GPa)
#
#
# Indices 1 2 3 4 5 6 
#
# 1 37.2734 30.3183 25.3861 0.0000 0.0000 0.0000
# 2 30.3183 125.3323 59.8224 0.0000 0.0000 0.0000
# 3 25.3861 59.8224 103.7238 0.0000 0.0000 0.0000
# 4 0.0000 0.0000 0.0000 20.0107 0.0000 0.0000
# 5 0.0000 0.0000 0.0000 0.0000 -1.0498 0.0000
# 6 0.0000 0.0000 0.0000 0.0000 0.0000 20.1127
#
#
#
# Elastic Compliance Matrix: (Units=1/GPa)
#
#
# Indices 1 2 3 4 5 6 
#
# 1 0.035268 -0.006087 -0.005121 0.000000 0.000000 0.000000
# 2 -0.006087 0.012060 -0.005466 0.000000 0.000000 0.000000
# 3 -0.005121 -0.005466 0.014047 0.000000 0.000000 0.000000
# 4 0.000000 0.000000 0.000000 0.049973 0.000000 0.000000
# 5 0.000000 0.000000 0.000000 0.000000 -0.952528 0.000000
# 6 0.000000 0.000000 0.000000 0.000000 0.000000 0.049720
#
#
# Mechanical properties :
#
#
# Convention : Reuss Voigt Hill
#
# Bulk Modulus (GPa) = 35.68003 55.26478 45.47241
# Shear Modulus (GPa) = -6.67762 17.86822 5.59530
#
# Velocity S-wave (km/s) = -2.04101 3.33868 1.86830
# Velocity P-wave (km/s) = 4.08706 7.02413 5.74641
#
# Compressibility (1/GPa) = 0.02802688
#
# Stress axis : x y z
#
# Youngs Moduli (GPa) = 28.35443 82.91735 71.19072
#
# Poissons Ratio (x) = 0.50473 0.36457
# Poissons Ratio (y) = 0.17260 0.38912
# Poissons Ratio (z) = 0.14520 0.45322
#
# Static dielectric constant tensor:
#      x y z
#    x 1.545500 0.000000 0.000000 
#    y 0.000000 1.569420 0.000000 
#    z 0.000000 0.000000 1.521820 
# 
# From -- ./inp_files/13116.got.cif
#   From: 2010.05.17/outbox.cif.g08.bks.cpg/sg38_7_cif.got.tgz:13116.got - 2010.06.03 18:07:57.
