data_PCOD9356925
_publ_section_title
;
Structure prediction by ZEFSAII (Michael W. Deem and Ramdas Pophale) SiO2 
 PCOD9356925
Probable space group: A M M 2
;
_chemical_formula_sum "Si O2"
_cell_formula_units_Z 58
_cell_length_a 15.650560
_cell_length_b 7.635761
_cell_length_c 25.609404
_cell_angle_alpha 90.000000
_cell_angle_beta 90.000000
_cell_angle_gamma 90.000000
_cell_volume 3060.424568
_symmetry_space_group_name_H-M "A M M 2"
_symmetry_group_IT_number 38
_symmetry_cell_setting 'orthorhombic'
loop_
_space_group_symop_operation_xyz
x,y,z
-x,-y,z
-x,y,z
x,-y,z
x,1/2+y,1/2+z
-x,1/2-y,1/2+z
-x,1/2+y,1/2+z
x,1/2-y,1/2+z
loop_
_atom_site_type_symbol
_atom_site_label
_atom_site_fract_x
_atom_site_fract_y
_atom_site_fract_z
Si Si1 0.405185 0.211839 0.529260
Si Si2 0.122825 0.200829 0.952396
Si Si3 0.403174 0.290527 0.322622
Si Si4 0.727800 0.705913 0.618436
Si Si5 0.095225 0.287086 0.574278
Si Si6 0.000000 0.000000 0.414960
Si Si7 0.688541 0.204588 0.427706
Si Si8 0.402979 0.291378 0.703589
O O1 0.500000 0.274078 0.544290
O O2 0.330763 0.277721 0.566989
O O3 0.382100 0.262803 0.469997
O O4 0.405698 0.000000 0.532654
O O5 0.073579 0.344408 0.918802
O O6 0.222637 0.203578 0.939465
O O7 0.093398 0.000000 0.946475
O O8 0.108239 0.254348 0.013049
O O9 0.500000 0.225055 0.331672
O O10 0.404323 0.500000 0.324026
O O11 0.343476 0.227946 0.369056
O O12 0.379347 0.236327 0.263977
O O13 0.740264 0.500000 0.629794
O O14 0.822317 0.778354 0.606259
O O15 0.669111 0.781379 0.664829
O O16 0.095763 0.500000 0.577262
O O17 0.000000 0.227581 0.590179
O O18 0.703113 0.000000 0.437676
O O19 0.500000 0.221183 0.695419
O O20 0.407793 0.500000 0.694210
#
# Coordination Sequence:
#
# PCOD9356925 Si02
#       8
#     8   8   8   8   8   2   8   8
#     4  10  21  33  47  72 111 152 182 216 271 340
#     4  11  21  35  55  82 116 149 189 238 283 341
#     4  10  21  36  55  78 105 142 190 239 283 334
#     4  10  19  32  52  77 106 140 183 228 277 337
#     4   9  17  31  51  76 107 144 180 227 281 331
#     4  12  22  36  56  82 110 156 194 236 292 342
#     4  11  21  35  54  80 112 148 187 229 284 346
#     4   9  18  33  52  75 102 137 184 235 284 335
#
# _framework density 18.951618
#
# number of rings (size 3 to 8) (size 9 to 14) (size 15 to 20)
#    0.000    1.931    2.759    1.862    0.000    3.310 
#    0.000    1.379    0.000    0.000    1.793    0.000 
#    0.000    0.000    0.000    0.000    0.000    0.000 
#
# Total GULP energy -161578.434495 kJ/mol
# GULP energy per Si atom -5571.670155 kJ/mol
# Density = 1.890848 g / cm^3
# Si number density = 18.951618 Si / 1000 Ang^3
#
#
#
# Elastic Constant Matrix: (Units=GPa)
#
#
# Indices 1 2 3 4 5 6 
#
# 1 153.5256 5.1449 59.8718 0.0000 0.0000 0.0000
# 2 5.1449 58.0238 -5.3273 0.0000 0.0000 0.0000
# 3 59.8718 -5.3273 78.5550 0.0000 0.0000 0.0000
# 4 0.0000 0.0000 0.0000 11.6866 0.0000 0.0000
# 5 0.0000 0.0000 0.0000 0.0000 45.7091 0.0000
# 6 0.0000 0.0000 0.0000 0.0000 0.0000 17.9481
#
#
#
# Elastic Compliance Matrix: (Units=1/GPa)
#
#
# Indices 1 2 3 4 5 6 
#
# 1 0.009396 -0.001500 -0.007263 0.000000 0.000000 0.000000
# 2 -0.001500 0.017582 0.002336 0.000000 0.000000 0.000000
# 3 -0.007263 0.002336 0.018424 0.000000 0.000000 0.000000
# 4 0.000000 0.000000 0.000000 0.085568 0.000000 0.000000
# 5 0.000000 0.000000 0.000000 0.000000 0.021877 0.000000
# 6 0.000000 0.000000 0.000000 0.000000 0.000000 0.055716
#
#
# Mechanical properties :
#
#
# Convention : Reuss Voigt Hill
#
# Bulk Modulus (GPa) = 30.72496 45.49813 38.11155
# Shear Modulus (GPa) = 21.52681 30.42978 25.97829
#
# Velocity S-wave (km/s) = 3.37394 4.01141 3.70641
# Velocity P-wave (km/s) = 5.60584 6.74647 6.20243
#
# Compressibility (1/GPa) = 0.03254682
#
# Stress axis : x y z
#
# Youngs Moduli (GPa) = 106.42402 56.87714 54.27659
#
# Poissons Ratio (x) = 0.08532 0.39423
# Poissons Ratio (y) = 0.15964 -0.12677
# Poissons Ratio (z) = 0.77299 -0.13284
#
# Static dielectric constant tensor:
#      x y z
#    x 1.672720 0.000000 0.000000 
#    y 0.000000 1.691720 0.000000 
#    z 0.000000 0.000000 1.634830 
# 
# From -- ./inp_files/22811.got.cif
#   From: 2010.05.17/outbox.cif.g08.bks.cpg/sg38_12_cif.got.tgz:22811.got - 2010.06.03 18:07:57.
