data_PCOD9356145
_publ_section_title
;
Structure prediction by ZEFSAII (Michael W. Deem and Ramdas Pophale) SiO2 
 PCOD9356145
Probable space group: A M M 2
;
_chemical_formula_sum "Si O2"
_cell_formula_units_Z 56
_cell_length_a 22.478089
_cell_length_b 8.908370
_cell_length_c 15.276142
_cell_angle_alpha 90.000000
_cell_angle_beta 90.000000
_cell_angle_gamma 90.000000
_cell_volume 3058.942545
_symmetry_space_group_name_H-M "A M M 2"
_symmetry_group_IT_number 38
_symmetry_cell_setting 'orthorhombic'
loop_
_space_group_symop_operation_xyz
x,y,z
-x,-y,z
-x,y,z
x,-y,z
x,1/2+y,1/2+z
-x,1/2-y,1/2+z
-x,1/2+y,1/2+z
x,1/2-y,1/2+z
loop_
_atom_site_type_symbol
_atom_site_label
_atom_site_fract_x
_atom_site_fract_y
_atom_site_fract_z
Si Si1 0.785175 0.179416 0.926820
Si Si2 0.567698 0.319270 0.080834
Si Si3 0.000000 0.676897 0.776900
Si Si4 0.876595 0.319748 0.276699
Si Si5 0.131788 0.321455 0.071099
Si Si6 0.567693 0.680736 0.770633
Si Si7 0.654783 0.818340 0.425672
Si Si8 0.000000 0.178216 0.587016
O O1 0.822958 0.223576 0.840497
O O2 0.720193 0.251052 0.925935
O O3 0.780404 0.000000 0.927811
O O4 0.822492 0.234311 0.010685
O O5 0.500000 0.278610 0.053836
O O6 0.569631 0.500000 0.087034
O O7 0.578794 0.249916 0.175710
O O8 0.616367 0.272030 0.010254
O O9 0.061754 0.747437 0.809195
O O10 0.000000 0.500000 0.790366
O O11 0.000000 0.721579 0.673991
O O12 0.883475 0.500000 0.278987
O O13 0.865437 0.280032 0.174473
O O14 0.143311 0.500000 0.064579
O O15 0.063142 0.295048 0.041486
O O16 0.500000 0.721660 0.797583
O O17 0.569534 0.500000 0.764669
O O18 0.616389 0.728175 0.841148
O O19 0.658484 0.000000 0.425821
O O20 0.000000 0.000000 0.613071
#
# Coordination Sequence:
#
# PCOD9356145 Si02
#       8
#     8   8   4   8   8   8   8   4
#     4  11  24  38  53  77 107 141 183 224 261 306
#     4   9  18  34  57  83 108 137 174 213 258 315
#     4  10  18  29  54  87 108 128 170 225 269 309
#     4   9  20  39  57  74 105 145 176 211 267 326
#     4   9  18  36  59  79 104 139 176 214 263 322
#     4   9  18  34  57  84 110 136 171 217 265 309
#     4  10  21  37  55  75 106 146 180 212 257 315
#     4   8  16  33  56  79 106 140 172 209 267 329
#
# _framework density 18.306978999999998
#
# number of rings (size 3 to 8) (size 9 to 14) (size 15 to 20)
#    0.000    2.571    0.000    2.357    0.000    8.000 
#    0.000    5.714    0.000    4.286    0.000    0.000 
#    0.000    0.000    0.000    0.000    0.000    0.000 
#
# Total GULP energy -156203.248823 kJ/mol
# GULP energy per Si atom -5578.687458 kJ/mol
# Density = 1.826531 g / cm^3
# Si number density = 18.306979 Si / 1000 Ang^3
#
#
#
# Elastic Constant Matrix: (Units=GPa)
#
#
# Indices 1 2 3 4 5 6 
#
# 1 198.6620 52.3240 106.4569 0.0000 0.0000 0.0000
# 2 52.3240 22.2851 34.4364 0.0000 0.0000 0.0000
# 3 106.4569 34.4364 106.3099 0.0000 0.0000 0.0000
# 4 0.0000 0.0000 0.0000 24.8786 0.0000 0.0000
# 5 0.0000 0.0000 0.0000 0.0000 -7.5602 0.0000
# 6 0.0000 0.0000 0.0000 0.0000 0.0000 27.1281
#
#
#
# Elastic Compliance Matrix: (Units=1/GPa)
#
#
# Indices 1 2 3 4 5 6 
#
# 1 0.015757 -0.025256 -0.007598 0.000000 0.000000 0.000000
# 2 -0.025256 0.130326 -0.016925 0.000000 0.000000 0.000000
# 3 -0.007598 -0.016925 0.022497 0.000000 0.000000 0.000000
# 4 0.000000 0.000000 0.000000 0.040195 0.000000 0.000000
# 5 0.000000 0.000000 0.000000 0.000000 -0.132272 0.000000
# 6 0.000000 0.000000 0.000000 0.000000 0.000000 0.036862
#
#
# Mechanical properties :
#
#
# Convention : Reuss Voigt Hill
#
# Bulk Modulus (GPa) = 14.48799 79.29905 46.89352
# Shear Modulus (GPa) = 21.19275 17.82529 19.50902
#
# Velocity S-wave (km/s) = 3.40609 3.12378 3.26799
# Velocity P-wave (km/s) = 4.83732 7.51139 6.31746
#
# Compressibility (1/GPa) = 0.06902271
#
# Stress axis : x y z
#
# Youngs Moduli (GPa) = 63.46341 7.67309 44.44996
#
# Poissons Ratio (x) = 0.19379 0.33773
# Poissons Ratio (y) = 1.60283 0.75231
# Poissons Ratio (z) = 0.48219 0.12987
#
# Static dielectric constant tensor:
#      x y z
#    x 1.620720 0.000000 0.000000 
#    y 0.000000 1.610410 0.000000 
#    z 0.000000 0.000000 1.626640 
# 
# From -- ./inp_files/15533.got.cif
#   From: 2010.05.17/outbox.cif.g08.bks.cpg/sg38_8_cif.got.tgz:15533.got - 2010.06.03 18:07:57.
