data_PCOD9356234
_publ_section_title
;
Structure prediction by ZEFSAII (Michael W. Deem and Ramdas Pophale) SiO2 
 PCOD9356234
Probable space group: A M M 2
;
_chemical_formula_sum "Si O2"
_cell_formula_units_Z 64
_cell_length_a 15.047491
_cell_length_b 8.464676
_cell_length_c 25.135970
_cell_angle_alpha 90.000000
_cell_angle_beta 90.000000
_cell_angle_gamma 90.000000
_cell_volume 3201.622188
_symmetry_space_group_name_H-M "A M M 2"
_symmetry_group_IT_number 38
_symmetry_cell_setting 'orthorhombic'
loop_
_space_group_symop_operation_xyz
x,y,z
-x,-y,z
-x,y,z
x,-y,z
x,1/2+y,1/2+z
-x,1/2-y,1/2+z
-x,1/2+y,1/2+z
x,1/2-y,1/2+z
loop_
_atom_site_type_symbol
_atom_site_label
_atom_site_fract_x
_atom_site_fract_y
_atom_site_fract_z
Si Si1 0.844378 0.313676 0.171230
Si Si2 0.656137 0.317872 0.642785
Si Si3 0.294548 0.188943 0.530320
Si Si4 0.098469 0.190690 0.284442
Si Si5 0.719666 0.316186 0.832864
Si Si6 0.599544 0.681599 0.247186
Si Si7 0.904090 0.310948 0.052758
Si Si8 0.397296 0.687792 0.427942
O O1 0.820047 0.500000 0.173273
O O2 0.756685 0.209813 0.163207
O O3 0.890200 0.265477 0.225989
O O4 0.898645 0.290722 0.116760
O O5 0.630346 0.500000 0.645750
O O6 0.657706 0.259384 0.582331
O O7 0.600620 0.216773 0.684653
O O8 0.190975 0.246871 0.530130
O O9 0.348397 0.234497 0.478118
O O10 0.291584 0.000000 0.536511
O O11 0.180105 0.241485 0.321868
O O12 0.000000 0.228161 0.305000
O O13 0.105482 0.000000 0.278861
O O14 0.722967 0.500000 0.847936
O O15 0.667691 0.293562 0.777415
O O16 0.661664 0.226569 0.876410
O O17 0.500000 0.705242 0.268165
O O18 0.625535 0.500000 0.256699
O O19 0.905073 0.500000 0.042867
O O20 0.000000 0.246842 0.033969
O O21 0.500000 0.742008 0.422175
O O22 0.398892 0.500000 0.435756
#
# Coordination Sequence:
#
# PCOD9356234 Si02
#       8
#     8   8   8   8   8   8   8   8
#     4  10  18  30  52  82 118 161 206 247 290 343
#     4  11  21  35  56  84 122 163 198 241 297 355
#     4  10  21  38  62  90 119 153 196 248 299 353
#     4  10  21  36  55  84 122 161 200 243 295 354
#     4  11  23  40  63  89 119 155 196 247 300 355
#     4  11  23  38  58  86 120 157 196 243 300 361
#     4   8  15  29  51  83 120 155 193 234 281 341
#     4  11  25  45  67  88 112 149 198 252 307 364
#
# _framework density 19.989867
#
# number of rings (size 3 to 8) (size 9 to 14) (size 15 to 20)
#    0.000    1.750    1.250    4.500    0.000    5.250 
#    0.000    0.625    0.000   11.250    0.000    0.000 
#    0.000    0.000    0.000    0.000    0.000    0.000 
#
# Total GULP energy -178631.491929 kJ/mol
# GULP energy per Si atom -5582.234123 kJ/mol
# Density = 1.994437 g / cm^3
# Si number density = 19.989867 Si / 1000 Ang^3
#
#
#
# Elastic Constant Matrix: (Units=GPa)
#
#
# Indices 1 2 3 4 5 6 
#
# 1 116.4697 10.8879 37.5292 0.0000 0.0000 0.0000
# 2 10.8879 34.5211 1.3396 0.0000 0.0000 0.0000
# 3 37.5292 1.3396 75.3604 0.0000 0.0000 0.0000
# 4 0.0000 0.0000 0.0000 32.0674 0.0000 0.0000
# 5 0.0000 0.0000 0.0000 0.0000 9.3947 0.0000
# 6 0.0000 0.0000 0.0000 0.0000 0.0000 16.6492
#
#
#
# Elastic Compliance Matrix: (Units=1/GPa)
#
#
# Indices 1 2 3 4 5 6 
#
# 1 0.010554 -0.003127 -0.005200 0.000000 0.000000 0.000000
# 2 -0.003127 0.029914 0.001025 0.000000 0.000000 0.000000
# 3 -0.005200 0.001025 0.015841 0.000000 0.000000 0.000000
# 4 0.000000 0.000000 0.000000 0.031184 0.000000 0.000000
# 5 0.000000 0.000000 0.000000 0.000000 0.106443 0.000000
# 6 0.000000 0.000000 0.000000 0.000000 0.000000 0.060063
#
#
# Mechanical properties :
#
#
# Convention : Reuss Voigt Hill
#
# Bulk Modulus (GPa) = 23.97747 36.20716 30.09232
# Shear Modulus (GPa) = 17.69882 23.39523 20.54703
#
# Velocity S-wave (km/s) = 2.97878 3.42476 3.20952
# Velocity P-wave (km/s) = 4.88382 5.81298 5.36854
#
# Compressibility (1/GPa) = 0.04170581
#
# Stress axis : x y z
#
# Youngs Moduli (GPa) = 94.75216 33.42891 63.12725
#
# Poissons Ratio (x) = 0.10453 0.32827
# Poissons Ratio (y) = 0.29628 -0.06473
# Poissons Ratio (z) = 0.49273 -0.03428
#
# Static dielectric constant tensor:
#      x y z
#    x 1.749870 0.000000 0.000000 
#    y 0.000000 1.679350 0.000000 
#    z 0.000000 0.000000 1.684950 
# 
# From -- ./inp_files/22988.got.cif
#   From: 2010.05.17/outbox.cif.g08.bks.cpg/sg38_12_cif.got.tgz:22988.got - 2010.06.03 18:07:57.
