data_PCOD9356686
_publ_section_title
;
Structure prediction by ZEFSAII (Michael W. Deem and Ramdas Pophale) SiO2 
 PCOD9356686
Probable space group: A M M 2
;
_chemical_formula_sum "Si O2"
_cell_formula_units_Z 64
_cell_length_a 39.968650
_cell_length_b 15.164091
_cell_length_c 5.102235
_cell_angle_alpha 90.000000
_cell_angle_beta 90.000000
_cell_angle_gamma 90.000000
_cell_volume 3092.404661
_symmetry_space_group_name_H-M "A M M 2"
_symmetry_group_IT_number 38
_symmetry_cell_setting 'orthorhombic'
loop_
_space_group_symop_operation_xyz
x,y,z
-x,-y,z
-x,y,z
x,-y,z
x,1/2+y,1/2+z
-x,1/2-y,1/2+z
-x,1/2+y,1/2+z
x,1/2-y,1/2+z
loop_
_atom_site_type_symbol
_atom_site_label
_atom_site_fract_x
_atom_site_fract_y
_atom_site_fract_z
Si Si1 0.462963 0.808552 0.603050
Si Si2 0.963783 0.188206 0.477296
Si Si3 0.355170 0.393329 0.448511
Si Si4 0.783649 0.606577 0.452299
Si Si5 0.176544 0.393869 0.952381
Si Si6 0.605682 0.394241 0.948445
Si Si7 0.893352 0.809079 0.595356
Si Si8 0.285880 0.805405 0.103113
O O1 0.500000 0.849275 0.564639
O O2 0.461155 0.727009 0.398910
O O3 0.431280 0.866877 0.531744
O O4 0.963257 0.268173 0.689757
O O5 0.928476 0.141518 0.533873
O O6 0.000000 0.142720 0.510793
O O7 0.354293 0.500000 0.446437
O O8 0.367721 0.362376 0.165295
O O9 0.319107 0.358936 0.530935
O O10 0.382426 0.363560 0.663720
O O11 0.782297 0.500000 0.453233
O O12 0.811037 0.635389 0.667462
O O13 0.747725 0.642479 0.532558
O O14 0.796423 0.636143 0.168415
O O15 0.176430 0.500000 0.953905
O O16 0.140043 0.361682 0.031886
O O17 0.607071 0.500000 0.946427
O O18 0.893284 0.773185 0.891331
O O19 0.286063 0.721770 0.906732
#
# Coordination Sequence:
#
# PCOD9356686 Si02
#       8
#     8   8   8   8   8   8   8   8
#     4  10  21  36  55  81 113 147 179 216 267 317
#     4   8  14  25  41  64  94 126 161 200 244 296
#     4  10  22  40  58  79 110 144 176 212 261 317
#     4  10  22  40  57  73 101 141 173 203 254 313
#     4  10  21  36  54  75 101 135 171 206 253 311
#     4  10  21  37  59  83 107 142 184 221 256 301
#     4  10  19  30  49  75 100 129 166 211 256 295
#     4  12  25  38  57  85 109 133 172 219 262 302
#
# _framework density 20.695867
#
# number of rings (size 3 to 8) (size 9 to 14) (size 15 to 20)
#    0.000    2.000    0.000    3.375    0.000    6.250 
#    0.000    5.000    0.000    4.875    0.000    0.000 
#    0.000   13.000    0.000    0.000    0.000    2.000 
#
# Total GULP energy -178713.789498 kJ/mol
# GULP energy per Si atom -5584.805922 kJ/mol
# Density = 2.064876 g / cm^3
# Si number density = 20.695867 Si / 1000 Ang^3
#
#
#
# Elastic Constant Matrix: (Units=GPa)
#
#
# Indices 1 2 3 4 5 6 
#
# 1 118.6772 4.9969 -11.2576 0.0000 0.0000 0.0000
# 2 4.9969 15.1103 -0.7912 0.0000 0.0000 0.0000
# 3 -11.2576 -0.7912 67.3051 0.0000 0.0000 0.0000
# 4 0.0000 0.0000 0.0000 16.2327 0.0000 0.0000
# 5 0.0000 0.0000 0.0000 0.0000 32.3079 0.0000
# 6 0.0000 0.0000 0.0000 0.0000 0.0000 95.4303
#
#
#
# Elastic Compliance Matrix: (Units=1/GPa)
#
#
# Indices 1 2 3 4 5 6 
#
# 1 0.008679 -0.002796 0.001419 0.000000 0.000000 0.000000
# 2 -0.002796 0.067121 0.000321 0.000000 0.000000 0.000000
# 3 0.001419 0.000321 0.015099 0.000000 0.000000 0.000000
# 4 0.000000 0.000000 0.000000 0.061604 0.000000 0.000000
# 5 0.000000 0.000000 0.000000 0.000000 0.030952 0.000000
# 6 0.000000 0.000000 0.000000 0.000000 0.000000 0.010479
#
#
# Mechanical properties :
#
#
# Convention : Reuss Voigt Hill
#
# Bulk Modulus (GPa) = 11.26286 20.77655 16.01970
# Shear Modulus (GPa) = 22.15916 42.67049 32.41483
#
# Velocity S-wave (km/s) = 3.27571 4.54562 3.96188
# Velocity P-wave (km/s) = 4.44533 6.13278 5.35593
#
# Compressibility (1/GPa) = 0.08878742
#
# Stress axis : x y z
#
# Youngs Moduli (GPa) = 115.22718 14.89843 66.23046
#
# Poissons Ratio (x) = 0.04165 -0.09396
# Poissons Ratio (y) = 0.32214 -0.02129
# Poissons Ratio (z) = -0.16348 -0.00479
#
# Static dielectric constant tensor:
#      x y z
#    x 1.745350 0.000000 0.000000 
#    y 0.000000 1.724860 0.000000 
#    z 0.000000 0.000000 1.724540 
# 
# From -- ./inp_files/2313.got.cif
#   From: 2010.05.17/outbox.cif.g08.bks.cpg/sg38_2_cif.got.tgz:2313.got - 2010.06.03 18:07:57.
