data_PCOD9356740
_publ_section_title
;
Structure prediction by ZEFSAII (Michael W. Deem and Ramdas Pophale) SiO2 
 PCOD9356740
Probable space group: A M M 2
;
_chemical_formula_sum "Si O2"
_cell_formula_units_Z 64
_cell_length_a 8.764573
_cell_length_b 19.258354
_cell_length_c 21.690213
_cell_angle_alpha 90.000000
_cell_angle_beta 90.000000
_cell_angle_gamma 90.000000
_cell_volume 3661.118154
_symmetry_space_group_name_H-M "A M M 2"
_symmetry_group_IT_number 38
_symmetry_cell_setting 'orthorhombic'
loop_
_space_group_symop_operation_xyz
x,y,z
-x,-y,z
-x,y,z
x,-y,z
x,1/2+y,1/2+z
-x,1/2-y,1/2+z
-x,1/2+y,1/2+z
x,1/2-y,1/2+z
loop_
_atom_site_type_symbol
_atom_site_label
_atom_site_fract_x
_atom_site_fract_y
_atom_site_fract_z
Si Si1 0.817255 0.077928 0.893000
Si Si2 0.318481 0.218329 0.847302
Si Si3 0.320561 0.076437 0.493088
Si Si4 0.685481 0.271302 0.983317
Si Si5 0.829993 0.076974 0.365951
Si Si6 0.682582 0.578259 0.656602
Si Si7 0.823197 0.182535 0.253941
Si Si8 0.818000 0.129147 0.030114
O O1 0.734170 0.139474 0.857298
O O2 0.000000 0.085141 0.884760
O O3 0.772082 0.000000 0.875365
O O4 0.786624 0.090031 0.965673
O O5 0.500000 0.223836 0.845360
O O6 0.268301 0.258449 0.911052
O O7 0.251827 0.249660 0.784277
O O8 0.500000 0.075140 0.507262
O O9 0.263111 0.153717 0.510121
O O10 0.294038 0.079488 0.419393
O O11 0.256832 0.000000 0.512603
O O12 0.500000 0.269036 0.984978
O O13 0.753592 0.206855 0.020639
O O14 0.812264 0.130381 0.311813
O O15 0.000000 0.086208 0.394430
O O16 0.825122 0.000000 0.338740
O O17 0.500000 0.579833 0.658898
O O18 0.732520 0.500000 0.675969
O O19 0.745424 0.640793 0.698618
O O20 0.739987 0.592049 0.587503
O O21 0.000000 0.195093 0.239060
O O22 0.000000 0.131019 0.039115
#
# Coordination Sequence:
#
# PCOD9356740 Si02
#       8
#     8   8   8   8   8   8   8   8
#     4   9  18  33  53  77 104 134 168 210 262 314
#     4  10  19  31  48  73 103 134 170 210 256 309
#     4   9  16  26  42  65  95 130 165 201 243 292
#     4   9  17  30  47  70 101 134 170 211 257 307
#     4   9  17  27  40  61  90 125 163 201 239 280
#     4  11  24  39  54  74 102 137 176 216 257 303
#     4  11  21  33  50  70  99 136 174 212 250 297
#     4  10  20  34  54  76 100 133 174 217 260 306
#
# _framework density 17.480996999999999
#
# number of rings (size 3 to 8) (size 9 to 14) (size 15 to 20)
#    0.000    2.250    1.250    2.250    0.000    4.250 
#    0.000    1.250    0.000    0.000    0.000    0.875 
#    0.000    5.000    0.000    0.000    0.000    0.000 
#
# Total GULP energy -178238.460120 kJ/mol
# GULP energy per Si atom -5569.951879 kJ/mol
# Density = 1.744121 g / cm^3
# Si number density = 17.480997 Si / 1000 Ang^3
#
#
#
# Elastic Constant Matrix: (Units=GPa)
#
#
# Indices 1 2 3 4 5 6 
#
# 1 35.5736 27.9431 27.0195 0.0000 0.0000 0.0000
# 2 27.9431 119.8910 24.0850 0.0000 0.0000 0.0000
# 3 27.0195 24.0850 47.9465 0.0000 0.0000 0.0000
# 4 0.0000 0.0000 0.0000 15.9151 0.0000 0.0000
# 5 0.0000 0.0000 0.0000 0.0000 23.7771 0.0000
# 6 0.0000 0.0000 0.0000 0.0000 0.0000 23.5855
#
#
#
# Elastic Compliance Matrix: (Units=1/GPa)
#
#
# Indices 1 2 3 4 5 6 
#
# 1 0.054255 -0.007233 -0.026941 0.000000 0.000000 0.000000
# 2 -0.007233 0.010241 -0.001068 0.000000 0.000000 0.000000
# 3 -0.026941 -0.001068 0.036576 0.000000 0.000000 0.000000
# 4 0.000000 0.000000 0.000000 0.062833 0.000000 0.000000
# 5 0.000000 0.000000 0.000000 0.000000 0.042057 0.000000
# 6 0.000000 0.000000 0.000000 0.000000 0.000000 0.042399
#
#
# Mechanical properties :
#
#
# Convention : Reuss Voigt Hill
#
# Bulk Modulus (GPa) = 32.69407 40.16736 36.43072
# Shear Modulus (GPa) = 15.19558 20.94645 18.07101
#
# Velocity S-wave (km/s) = 2.95152 3.46532 3.21869
# Velocity P-wave (km/s) = 5.50986 6.24811 5.89056
#
# Compressibility (1/GPa) = 0.03058658
#
# Stress axis : x y z
#
# Youngs Moduli (GPa) = 18.43140 97.64326 27.34057
#
# Poissons Ratio (x) = 0.70626 0.73659
# Poissons Ratio (y) = 0.13332 0.02921
# Poissons Ratio (z) = 0.49657 0.10433
#
# Static dielectric constant tensor:
#      x y z
#    x 1.613270 0.000000 0.000000 
#    y 0.000000 1.660920 0.000000 
#    z 0.000000 0.000000 1.562660 
# 
# From -- ./inp_files/20038.got.cif
#   From: 2010.05.17/outbox.cif.g08.bks.cpg/sg38_11_cif.got.tgz:20038.got - 2010.06.03 18:07:57.
