data_PCOD9356010
_publ_section_title
;
Structure prediction by ZEFSAII (Michael W. Deem and Ramdas Pophale) SiO2 
 PCOD9356010
Probable space group: A M M 2
;
_chemical_formula_sum "Si O2"
_cell_formula_units_Z 56
_cell_length_a 29.839757
_cell_length_b 20.084641
_cell_length_c 5.013326
_cell_angle_alpha 90.000000
_cell_angle_beta 90.000000
_cell_angle_gamma 90.000000
_cell_volume 3004.590583
_symmetry_space_group_name_H-M "A M M 2"
_symmetry_group_IT_number 38
_symmetry_cell_setting 'orthorhombic'
loop_
_space_group_symop_operation_xyz
x,y,z
-x,-y,z
-x,y,z
x,-y,z
x,1/2+y,1/2+z
-x,1/2-y,1/2+z
-x,1/2+y,1/2+z
x,1/2-y,1/2+z
loop_
_atom_site_type_symbol
_atom_site_label
_atom_site_fract_x
_atom_site_fract_y
_atom_site_fract_z
Si Si1 0.141819 0.925455 0.282420
Si Si2 0.451351 0.797288 0.944102
Si Si3 0.074580 0.791302 0.863619
Si Si4 0.167992 0.351216 0.284414
Si Si5 0.357484 0.703104 0.319475
Si Si6 0.737223 0.794308 0.947442
Si Si7 0.949964 0.924774 0.571882
O O1 0.165871 0.873279 0.477984
O O2 0.089413 0.918254 0.355090
O O3 0.155613 0.000000 0.352232
O O4 0.152194 0.910967 0.976901
O O5 0.500000 0.830899 0.906778
O O6 0.450509 0.735052 0.737061
O O7 0.404368 0.833442 0.882416
O O8 0.060937 0.735062 0.650787
O O9 0.128819 0.797726 0.840057
O O10 0.056459 0.863097 0.772824
O O11 0.217047 0.330364 0.373745
O O12 0.357781 0.766409 0.523621
O O13 0.309749 0.669364 0.379440
O O14 0.736876 0.729896 0.751642
O O15 0.000000 0.920880 0.458521
O O16 0.945063 0.000000 0.689722
#
# Coordination Sequence:
#
# PCOD9356010 Si02
#       7
#     8   8   8   8   8   8   8
#     4  10  21  37  56  77  99 123 158 199 235 282
#     4   8  12  18  28  42  63  95 137 181 220 257
#     4  11  22  37  56  80 107 132 161 200 242 284
#     4  11  20  34  53  74  99 130 160 191 239 288
#     4   8  14  22  32  49  74 105 142 184 222 258
#     4  10  18  28  43  64  91 121 155 191 226 272
#     4   9  20  40  62  82 105 135 168 201 241 292
#
# _framework density 18.638145999999999
#
# number of rings (size 3 to 8) (size 9 to 14) (size 15 to 20)
#    0.000    2.429    0.000    3.857    0.000    1.143 
#    0.000    6.429    0.000   18.857    0.000    0.000 
#    0.000    0.000    0.000    0.000    0.000    4.286 
#
# Total GULP energy -156065.394674 kJ/mol
# GULP energy per Si atom -5573.764095 kJ/mol
# Density = 1.859572 g / cm^3
# Si number density = 18.638146 Si / 1000 Ang^3
#
#
#
# Elastic Constant Matrix: (Units=GPa)
#
#
# Indices 1 2 3 4 5 6 
#
# 1 144.9018 18.2473 -7.0968 0.0000 0.0000 0.0000
# 2 18.2473 44.2097 3.3177 0.0000 0.0000 0.0000
# 3 -7.0968 3.3177 56.6728 0.0000 0.0000 0.0000
# 4 0.0000 0.0000 0.0000 19.2199 0.0000 0.0000
# 5 0.0000 0.0000 0.0000 0.0000 15.7759 0.0000
# 6 0.0000 0.0000 0.0000 0.0000 0.0000 6.3275
#
#
#
# Elastic Compliance Matrix: (Units=1/GPa)
#
#
# Indices 1 2 3 4 5 6 
#
# 1 0.007348 -0.003115 0.001102 0.000000 0.000000 0.000000
# 2 -0.003115 0.024040 -0.001797 0.000000 0.000000 0.000000
# 3 0.001102 -0.001797 0.017888 0.000000 0.000000 0.000000
# 4 0.000000 0.000000 0.000000 0.052030 0.000000 0.000000
# 5 0.000000 0.000000 0.000000 0.000000 0.063388 0.000000
# 6 0.000000 0.000000 0.000000 0.000000 0.000000 0.158041
#
#
# Mechanical properties :
#
#
# Convention : Reuss Voigt Hill
#
# Bulk Modulus (GPa) = 24.00648 30.52452 27.26550
# Shear Modulus (GPa) = 14.52475 23.68572 19.10523
#
# Velocity S-wave (km/s) = 2.79463 3.56872 3.20513
# Velocity P-wave (km/s) = 4.82923 5.77876 5.32520
#
# Compressibility (1/GPa) = 0.04165542
#
# Stress axis : x y z
#
# Youngs Moduli (GPa) = 136.10000 41.59691 55.90207
#
# Poissons Ratio (x) = 0.12959 -0.06163
# Poissons Ratio (y) = 0.42401 0.10048
# Poissons Ratio (z) = -0.15005 0.07477
#
# Static dielectric constant tensor:
#      x y z
#    x 1.751970 0.000000 0.000000 
#    y 0.000000 1.628480 0.000000 
#    z 0.000000 0.000000 1.652460 
# 
# From -- ./inp_files/2242.got.cif
#   From: 2010.05.17/outbox.cif.g08.bks.cpg/sg38_2_cif.got.tgz:2242.got - 2010.06.03 18:07:57.
