data_PCOD9356543
_publ_section_title
;
Structure prediction by ZEFSAII (Michael W. Deem and Ramdas Pophale) SiO2 
 PCOD9356543
Probable space group: A M M 2
;
_chemical_formula_sum "Si O2"
_cell_formula_units_Z 64
_cell_length_a 9.455611
_cell_length_b 13.927080
_cell_length_c 34.906824
_cell_angle_alpha 90.000000
_cell_angle_beta 90.000000
_cell_angle_gamma 90.000000
_cell_volume 4596.846521
_symmetry_space_group_name_H-M "A M M 2"
_symmetry_group_IT_number 38
_symmetry_cell_setting 'orthorhombic'
loop_
_space_group_symop_operation_xyz
x,y,z
-x,-y,z
-x,y,z
x,-y,z
x,1/2+y,1/2+z
-x,1/2-y,1/2+z
-x,1/2+y,1/2+z
x,1/2-y,1/2+z
loop_
_atom_site_type_symbol
_atom_site_label
_atom_site_fract_x
_atom_site_fract_y
_atom_site_fract_z
Si Si1 0.162366 0.883297 0.664260
Si Si2 0.331575 0.389288 0.929667
Si Si3 0.831200 0.386397 0.313594
Si Si4 0.831903 0.112357 0.970591
Si Si5 0.169345 0.385773 0.077207
Si Si6 0.337685 0.883055 0.737682
Si Si7 0.168525 0.779869 0.891579
Si Si8 0.668495 0.218601 0.509458
O O1 0.204255 0.856549 0.621003
O O2 0.261938 0.850359 0.698652
O O3 0.000000 0.853415 0.670986
O O4 0.162524 0.000000 0.664621
O O5 0.500000 0.382645 0.922977
O O6 0.288259 0.500000 0.925979
O O7 0.249847 0.317411 0.901717
O O8 0.306198 0.351363 0.972908
O O9 0.804006 0.500000 0.319998
O O10 0.748507 0.355247 0.275591
O O11 0.790377 0.327612 0.351398
O O12 0.000000 0.376268 0.307629
O O13 0.804892 0.147206 0.926944
O O14 0.000000 0.126684 0.977794
O O15 0.800169 0.000000 0.974758
O O16 0.740301 0.180853 0.997721
O O17 0.197738 0.500000 0.073142
O O18 0.256961 0.327014 0.046263
O O19 0.000000 0.372768 0.072121
O O20 0.500000 0.852094 0.739475
O O21 0.336011 0.000000 0.736942
O O22 0.000000 0.762464 0.890737
O O23 0.500000 0.227922 0.514556
#
# Coordination Sequence:
#
# PCOD9356543 Si02
#       8
#     8   8   8   8   8   8   8   8
#     4   8  14  25  39  54  75 105 137 166 199 238
#     4   9  18  31  43  56  79 110 138 165 203 247
#     4   9  16  26  40  57  80 109 136 164 200 240
#     4   9  17  30  46  61  80 107 138 173 210 245
#     4   9  17  28  42  60  82 109 141 174 205 240
#     4   9  16  24  35  54  79 106 136 166 195 232
#     4   9  17  28  43  63  81 101 136 175 206 238
#     4  10  19  29  42  61  84 109 138 171 206 246
#
# _framework density 13.922587999999999
#
# number of rings (size 3 to 8) (size 9 to 14) (size 15 to 20)
#    0.000    3.000    0.000    2.250    0.000    5.750 
#    0.000    1.250    0.000    2.250    0.000    0.000 
#    0.000    1.000    0.000    5.500    0.000    4.375 
#
# Total GULP energy -178221.111658 kJ/mol
# GULP energy per Si atom -5569.409739 kJ/mol
# Density = 1.389090 g / cm^3
# Si number density = 13.922588 Si / 1000 Ang^3
#
#
#
# Elastic Constant Matrix: (Units=GPa)
#
#
# Indices 1 2 3 4 5 6 
#
# 1 62.6387 48.6720 76.4516 0.0000 0.0000 0.0000
# 2 48.6720 80.3000 57.5161 0.0000 0.0000 0.0000
# 3 76.4516 57.5161 136.0805 0.0000 0.0000 0.0000
# 4 0.0000 0.0000 0.0000 19.4893 0.0000 0.0000
# 5 0.0000 0.0000 0.0000 0.0000 19.5601 0.0000
# 6 0.0000 0.0000 0.0000 0.0000 0.0000 17.8903
#
#
#
# Elastic Compliance Matrix: (Units=1/GPa)
#
#
# Indices 1 2 3 4 5 6 
#
# 1 0.067079 -0.019599 -0.029402 0.000000 0.000000 0.000000
# 2 -0.019599 0.023587 0.001042 0.000000 0.000000 0.000000
# 3 -0.029402 0.001042 0.023427 0.000000 0.000000 0.000000
# 4 0.000000 0.000000 0.000000 0.051310 0.000000 0.000000
# 5 0.000000 0.000000 0.000000 0.000000 0.051125 0.000000
# 6 0.000000 0.000000 0.000000 0.000000 0.000000 0.055896
#
#
# Mechanical properties :
#
#
# Convention : Reuss Voigt Hill
#
# Bulk Modulus (GPa) = 55.02377 71.58874 63.30625
# Shear Modulus (GPa) = 13.35469 17.81323 15.58396
#
# Velocity S-wave (km/s) = 3.10047 3.58082 3.34927
# Velocity P-wave (km/s) = 7.24046 8.28415 7.77983
#
# Compressibility (1/GPa) = 0.01817397
#
# Stress axis : x y z
#
# Youngs Moduli (GPa) = 14.90773 42.39704 42.68606
#
# Poissons Ratio (x) = 0.83093 1.25507
# Poissons Ratio (y) = 0.29217 -0.04446
# Poissons Ratio (z) = 0.43832 -0.04416
#
# Static dielectric constant tensor:
#      x y z
#    x 1.461450 0.000000 0.000000 
#    y 0.000000 1.428790 0.000000 
#    z 0.000000 0.000000 1.451280 
# 
# From -- ./inp_files/24771.got.cif
#   From: 2010.05.17/outbox.cif.g08.bks.cpg/sg38_13_cif.got.tgz:24771.got - 2010.06.03 18:07:57.
