data_PCOD9356604
_publ_section_title
;
Structure prediction by ZEFSAII (Michael W. Deem and Ramdas Pophale) SiO2 
 PCOD9356604
Probable space group: A M M 2
;
_chemical_formula_sum "Si O2"
_cell_formula_units_Z 56
_cell_length_a 9.036535
_cell_length_b 14.003966
_cell_length_c 29.799397
_cell_angle_alpha 90.000000
_cell_angle_beta 90.000000
_cell_angle_gamma 90.000000
_cell_volume 3771.034093
_symmetry_space_group_name_H-M "A M M 2"
_symmetry_group_IT_number 38
_symmetry_cell_setting 'orthorhombic'
loop_
_space_group_symop_operation_xyz
x,y,z
-x,-y,z
-x,y,z
x,-y,z
x,1/2+y,1/2+z
-x,1/2-y,1/2+z
-x,1/2+y,1/2+z
x,1/2-y,1/2+z
loop_
_atom_site_type_symbol
_atom_site_label
_atom_site_fract_x
_atom_site_fract_y
_atom_site_fract_z
Si Si1 0.676961 0.890380 0.707370
Si Si2 0.829435 0.884133 0.446519
Si Si3 0.323670 0.707208 0.762484
Si Si4 0.324428 0.386209 0.038508
Si Si5 0.176579 0.710955 0.123324
Si Si6 0.821371 0.610884 0.847033
Si Si7 0.677615 0.889512 0.167958
O O1 0.500000 0.881203 0.698562
O O2 0.712790 0.814517 0.746298
O O3 0.762209 0.857484 0.662899
O O4 0.708468 0.000000 0.718538
O O5 0.731277 0.857136 0.489029
O O6 0.776483 0.854623 0.396930
O O7 0.000000 0.853471 0.453156
O O8 0.831077 0.000000 0.444821
O O9 0.500000 0.700966 0.769680
O O10 0.241658 0.672446 0.806605
O O11 0.287451 0.641124 0.719278
O O12 0.500000 0.372842 0.042783
O O13 0.293571 0.500000 0.043889
O O14 0.240125 0.328198 0.076742
O O15 0.239606 0.815372 0.135870
O O16 0.000000 0.711226 0.123102
O O17 0.774418 0.500000 0.841344
O O18 0.000000 0.612042 0.846474
O O19 0.500000 0.877416 0.162664
O O20 0.714773 0.000000 0.160455
#
# Coordination Sequence:
#
# PCOD9356604 Si02
#       7
#     8   8   8   8   8   8   8
#     4   9  18  33  48  61  84 118 153 188 222 257
#     4   8  15  28  43  60  85 115 145 177 215 259
#     4   9  17  28  44  66  87 111 146 182 217 255
#     4  10  19  30  45  65  89 117 148 181 218 262
#     4  11  21  30  44  67  92 117 146 180 220 265
#     4   9  17  28  42  62  90 121 146 171 211 262
#     4   9  18  33  49  64  87 119 152 185 218 253
#
# _framework density 14.850038
#
# number of rings (size 3 to 8) (size 9 to 14) (size 15 to 20)
#    0.000    2.714    0.000    4.286    0.000    6.857 
#    0.000    1.429    0.000    0.000    0.000    1.000 
#    0.000    3.429    0.000    0.000    0.000    0.000 
#
# Total GULP energy -156051.542797 kJ/mol
# GULP energy per Si atom -5573.269386 kJ/mol
# Density = 1.481624 g / cm^3
# Si number density = 14.850038 Si / 1000 Ang^3
#
#
#
# Elastic Constant Matrix: (Units=GPa)
#
#
# Indices 1 2 3 4 5 6 
#
# 1 52.4145 46.0527 59.5716 0.0000 0.0000 0.0000
# 2 46.0527 97.3623 65.2281 0.0000 0.0000 0.0000
# 3 59.5716 65.2281 138.6748 0.0000 0.0000 0.0000
# 4 0.0000 0.0000 0.0000 21.4177 0.0000 0.0000
# 5 0.0000 0.0000 0.0000 0.0000 30.9102 0.0000
# 6 0.0000 0.0000 0.0000 0.0000 0.0000 15.4917
#
#
#
# Elastic Compliance Matrix: (Units=1/GPa)
#
#
# Indices 1 2 3 4 5 6 
#
# 1 0.045563 -0.012321 -0.013777 0.000000 0.000000 0.000000
# 2 -0.012321 0.018329 -0.003328 0.000000 0.000000 0.000000
# 3 -0.013777 -0.003328 0.014695 0.000000 0.000000 0.000000
# 4 0.000000 0.000000 0.000000 0.046690 0.000000 0.000000
# 5 0.000000 0.000000 0.000000 0.000000 0.032352 0.000000
# 6 0.000000 0.000000 0.000000 0.000000 0.000000 0.064551
#
#
# Mechanical properties :
#
#
# Convention : Reuss Voigt Hill
#
# Bulk Modulus (GPa) = 50.67642 70.01736 60.34689
# Shear Modulus (GPa) = 17.38454 21.40386 19.39420
#
# Velocity S-wave (km/s) = 3.42522 3.80061 3.61779
# Velocity P-wave (km/s) = 7.05991 8.15546 7.62738
#
# Compressibility (1/GPa) = 0.01973304
#
# Stress axis : x y z
#
# Youngs Moduli (GPa) = 21.94751 54.55914 68.04997
#
# Poissons Ratio (x) = 0.67224 0.93755
# Poissons Ratio (y) = 0.27042 0.22649
# Poissons Ratio (z) = 0.30238 0.18159
#
# Static dielectric constant tensor:
#      x y z
#    x 1.493750 0.000000 0.000000 
#    y 0.000000 1.481990 0.000000 
#    z 0.000000 0.000000 1.482550 
# 
# From -- ./inp_files/24632.got.cif
#   From: 2010.05.17/outbox.cif.g08.bks.cpg/sg38_13_cif.got.tgz:24632.got - 2010.06.03 18:07:57.
