data_PCOD9356222
_publ_section_title
;
Structure prediction by ZEFSAII (Michael W. Deem and Ramdas Pophale) SiO2 
 PCOD9356222
Probable space group: A M M 2
;
_chemical_formula_sum "Si O2"
_cell_formula_units_Z 48
_cell_length_a 17.061943
_cell_length_b 16.540212
_cell_length_c 9.345534
_cell_angle_alpha 90.000000
_cell_angle_beta 90.000000
_cell_angle_gamma 90.000000
_cell_volume 2637.385902
_symmetry_space_group_name_H-M "A M M 2"
_symmetry_group_IT_number 38
_symmetry_cell_setting 'orthorhombic'
loop_
_space_group_symop_operation_xyz
x,y,z
-x,-y,z
-x,y,z
x,-y,z
x,1/2+y,1/2+z
-x,1/2-y,1/2+z
-x,1/2+y,1/2+z
x,1/2-y,1/2+z
loop_
_atom_site_type_symbol
_atom_site_label
_atom_site_fract_x
_atom_site_fract_y
_atom_site_fract_z
Si Si1 0.760666 0.905276 0.243960
Si Si2 0.269376 0.160716 0.549911
Si Si3 0.316681 0.842216 0.990958
Si Si4 0.822035 0.094280 0.801815
Si Si5 0.913043 0.401527 0.572671
Si Si6 0.589200 0.403247 0.244922
O O1 0.753279 0.889042 0.410404
O O2 0.842443 0.873082 0.175654
O O3 0.759347 0.000000 0.217554
O O4 0.688177 0.867954 0.155646
O O5 0.287363 0.250369 0.493799
O O6 0.200406 0.149858 0.667414
O O7 0.346853 0.127796 0.630812
O O8 0.252296 0.896880 0.908376
O O9 0.392582 0.858872 0.895845
O O10 0.829781 0.000000 0.758504
O O11 0.892400 0.118595 0.907371
O O12 0.912846 0.500000 0.578703
O O13 0.000000 0.373491 0.612146
O O14 0.500000 0.387318 0.199748
O O15 0.598468 0.500000 0.262771
#
# Coordination Sequence:
#
# PCOD9356222 Si02
#       6
#     8   8   8   8   8   8
#     4  10  18  30  52  76  99 128 165 211 254 296
#     4  11  20  32  51  78 106 129 162 211 259 299
#     4  10  19  33  52  73  98 130 167 203 244 303
#     4   9  17  32  53  72  97 136 176 206 241 304
#     4   8  15  29  50  75 101 133 174 215 252 294
#     4  10  21  38  56  72  98 137 174 206 247 305
#
# _framework density 18.199839000000001
#
# number of rings (size 3 to 8) (size 9 to 14) (size 15 to 20)
#    0.000    2.333    0.000    7.000    0.000    0.667 
#    0.000    1.667    0.000   23.000    0.000    0.000 
#    0.000    0.000    0.000    0.000    0.000    0.000 
#
# Total GULP energy -133644.018050 kJ/mol
# GULP energy per Si atom -5568.500752 kJ/mol
# Density = 1.815842 g / cm^3
# Si number density = 18.199839 Si / 1000 Ang^3
#
#
#
# Elastic Constant Matrix: (Units=GPa)
#
#
# Indices 1 2 3 4 5 6 
#
# 1 81.7263 11.0673 32.4749 0.0000 0.0000 0.0000
# 2 11.0673 52.2963 -5.8067 0.0000 0.0000 0.0000
# 3 32.4749 -5.8067 84.1533 0.0000 0.0000 0.0000
# 4 0.0000 0.0000 0.0000 21.0255 0.0000 0.0000
# 5 0.0000 0.0000 0.0000 0.0000 21.2591 0.0000
# 6 0.0000 0.0000 0.0000 0.0000 0.0000 -5.0848
#
#
#
# Elastic Compliance Matrix: (Units=1/GPa)
#
#
# Indices 1 2 3 4 5 6 
#
# 1 0.015202 -0.003898 -0.006135 0.000000 0.000000 0.000000
# 2 -0.003898 0.020269 0.002903 0.000000 0.000000 0.000000
# 3 -0.006135 0.002903 0.014451 0.000000 0.000000 0.000000
# 4 0.000000 0.000000 0.000000 0.047561 0.000000 0.000000
# 5 0.000000 0.000000 0.000000 0.000000 0.047039 0.000000
# 6 0.000000 0.000000 0.000000 0.000000 0.000000 -0.196664
#
#
# Mechanical properties :
#
#
# Convention : Reuss Voigt Hill
#
# Bulk Modulus (GPa) = 28.04228 32.62745 30.33486
# Shear Modulus (GPa) = -192.35380 19.46932 -86.44224
#
# Velocity S-wave (km/s) = -10.29171 3.27425 -6.89922
# Velocity P-wave (km/s) = 11.21536 5.67984 6.83826
#
# Compressibility (1/GPa) = 0.03566044
#
# Stress axis : x y z
#
# Youngs Moduli (GPa) = 65.78142 49.33611 69.19910
#
# Poissons Ratio (x) = 0.19233 0.42457
# Poissons Ratio (y) = 0.25644 -0.20088
# Poissons Ratio (z) = 0.40360 -0.14322
#
# Static dielectric constant tensor:
#      x y z
#    x 1.663910 0.000000 0.000000 
#    y 0.000000 1.658300 0.000000 
#    z 0.000000 0.000000 1.637330 
# 
# From -- ./inp_files/6179.got.cif
#   From: 2010.05.17/outbox.cif.g08.bks.cpg/sg38_4_cif.got.tgz:6179.got - 2010.06.03 18:07:57.
