data_PCOD9356102
_publ_section_title
;
Structure prediction by ZEFSAII (Michael W. Deem and Ramdas Pophale) SiO2 
 PCOD9356102
Probable space group: A M M 2
;
_chemical_formula_sum "Si O2"
_cell_formula_units_Z 64
_cell_length_a 20.501410
_cell_length_b 7.539212
_cell_length_c 20.923605
_cell_angle_alpha 90.000000
_cell_angle_beta 90.000000
_cell_angle_gamma 90.000000
_cell_volume 3234.046049
_symmetry_space_group_name_H-M "A M M 2"
_symmetry_group_IT_number 38
_symmetry_cell_setting 'orthorhombic'
loop_
_space_group_symop_operation_xyz
x,y,z
-x,-y,z
-x,y,z
x,-y,z
x,1/2+y,1/2+z
-x,1/2-y,1/2+z
-x,1/2+y,1/2+z
x,1/2-y,1/2+z
loop_
_atom_site_type_symbol
_atom_site_label
_atom_site_fract_x
_atom_site_fract_y
_atom_site_fract_z
Si Si1 0.796205 0.291389 0.536790
Si Si2 0.321213 0.282960 0.350014
Si Si3 0.822787 0.216306 0.896158
Si Si4 0.427268 0.206523 0.949796
Si Si5 0.836761 0.786470 0.673895
Si Si6 0.350377 0.203301 0.573210
Si Si7 0.310089 0.216823 0.707629
Si Si8 0.925392 0.717228 0.289688
O O1 0.782892 0.500000 0.529419
O O2 0.826793 0.227998 0.470207
O O3 0.839922 0.265825 0.599724
O O4 0.725215 0.208397 0.550256
O O5 0.320468 0.500000 0.351627
O O6 0.248366 0.229060 0.370461
O O7 0.374968 0.217008 0.399903
O O8 0.334336 0.229077 0.277118
O O9 0.879667 0.275234 0.848495
O O10 0.824363 0.000000 0.894710
O O11 0.500000 0.283757 0.948400
O O12 0.432948 0.000000 0.932352
O O13 0.395555 0.212240 0.019887
O O14 0.765434 0.728469 0.698959
O O15 0.891723 0.725784 0.723192
O O16 0.836685 0.000000 0.675481
O O17 0.348665 0.279258 0.644966
O O18 0.371316 0.000000 0.577272
O O19 0.310425 0.000000 0.705580
O O20 0.925215 0.500000 0.289782
O O21 0.000000 0.774738 0.295197
#
# Coordination Sequence:
#
# PCOD9356102 Si02
#       8
#     8   8   8   8   8   8   8   8
#     4  10  18  29  48  73  98 125 161 203 245 292
#     4   9  14  26  47  69  92 120 159 207 245 278
#     4   9  15  25  45  70  94 124 162 204 247 285
#     4  10  20  33  50  72  98 131 166 199 242 296
#     4   9  16  28  46  70  97 125 158 199 245 295
#     4  10  19  31  49  74 100 127 158 199 249 295
#     4   8  14  25  45  70  93 117 152 198 243 278
#     4   9  16  27  46  72  99 128 166 210 251 292
#
# _framework density 19.789452000000001
#
# number of rings (size 3 to 8) (size 9 to 14) (size 15 to 20)
#    0.000    2.750    2.500    1.500    0.000    0.250 
#    0.000    1.250    0.000   11.625    0.000    0.000 
#    0.000    0.000    0.000    0.000    0.000    0.000 
#
# Total GULP energy -178468.637736 kJ/mol
# GULP energy per Si atom -5577.144929 kJ/mol
# Density = 1.974441 g / cm^3
# Si number density = 19.789452 Si / 1000 Ang^3
#
#
#
# Elastic Constant Matrix: (Units=GPa)
#
#
# Indices 1 2 3 4 5 6 
#
# 1 130.5881 0.3210 94.4616 0.0000 0.0000 0.0000
# 2 0.3210 46.2701 -2.1430 0.0000 0.0000 0.0000
# 3 94.4616 -2.1430 195.4820 0.0000 0.0000 0.0000
# 4 0.0000 0.0000 0.0000 17.6460 0.0000 0.0000
# 5 0.0000 0.0000 0.0000 0.0000 20.1617 0.0000
# 6 0.0000 0.0000 0.0000 0.0000 0.0000 4.1780
#
#
#
# Elastic Compliance Matrix: (Units=1/GPa)
#
#
# Indices 1 2 3 4 5 6 
#
# 1 0.011778 -0.000345 -0.005695 0.000000 0.000000 0.000000
# 2 -0.000345 0.021633 0.000404 0.000000 0.000000 0.000000
# 3 -0.005695 0.000404 0.007872 0.000000 0.000000 0.000000
# 4 0.000000 0.000000 0.000000 0.056670 0.000000 0.000000
# 5 0.000000 0.000000 0.000000 0.000000 0.049599 0.000000
# 6 0.000000 0.000000 0.000000 0.000000 0.000000 0.239346
#
#
# Mechanical properties :
#
#
# Convention : Reuss Voigt Hill
#
# Bulk Modulus (GPa) = 33.32193 61.95772 47.63982
# Shear Modulus (GPa) = 12.24962 27.04386 19.64674
#
# Velocity S-wave (km/s) = 2.49067 3.70074 3.15427
# Velocity P-wave (km/s) = 5.01458 7.04536 6.11486
#
# Compressibility (1/GPa) = 0.03001027
#
# Stress axis : x y z
#
# Youngs Moduli (GPa) = 84.90220 46.22498 127.03084
#
# Poissons Ratio (x) = 0.01597 0.72348
# Poissons Ratio (y) = 0.02933 -0.05133
# Poissons Ratio (z) = 0.48355 -0.01868
#
# Static dielectric constant tensor:
#      x y z
#    x 1.657150 0.000000 0.000000 
#    y 0.000000 1.765320 0.000000 
#    z 0.000000 0.000000 1.710090 
# 
# From -- ./inp_files/21518.got.cif
#   From: 2010.05.17/outbox.cif.g08.bks.cpg/sg38_11_cif.got.tgz:21518.got - 2010.06.03 18:07:57.
