data_PCOD9356698
_publ_section_title
;
Structure prediction by ZEFSAII (Michael W. Deem and Ramdas Pophale) SiO2 
 PCOD9356698
Probable space group: A M M 2
;
_chemical_formula_sum "Si O2"
_cell_formula_units_Z 64
_cell_length_a 8.406717
_cell_length_b 28.548427
_cell_length_c 15.262290
_cell_angle_alpha 90.000000
_cell_angle_beta 90.000000
_cell_angle_gamma 90.000000
_cell_volume 3662.927418
_symmetry_space_group_name_H-M "A M M 2"
_symmetry_group_IT_number 38
_symmetry_cell_setting 'orthorhombic'
loop_
_space_group_symop_operation_xyz
x,y,z
-x,-y,z
-x,y,z
x,-y,z
x,1/2+y,1/2+z
-x,1/2-y,1/2+z
-x,1/2+y,1/2+z
x,1/2-y,1/2+z
loop_
_atom_site_type_symbol
_atom_site_label
_atom_site_fract_x
_atom_site_fract_y
_atom_site_fract_z
Si Si1 0.307582 0.717937 0.202930
Si Si2 0.188955 0.219304 0.508808
Si Si3 0.691798 0.635533 0.332508
Si Si4 0.307571 0.175051 0.012280
Si Si5 0.306390 0.674105 0.708750
Si Si6 0.310070 0.635512 0.888940
Si Si7 0.808219 0.446267 0.012094
Si Si8 0.191786 0.946161 0.710055
O O1 0.500000 0.716772 0.196008
O O2 0.236770 0.706010 0.108167
O O3 0.256969 0.680688 0.275533
O O4 0.262080 0.771461 0.224791
O O5 0.255627 0.271538 0.494335
O O6 0.261077 0.181698 0.442735
O O7 0.000000 0.219524 0.500418
O O8 0.500000 0.635542 0.333321
O O9 0.747189 0.642633 0.432319
O O10 0.747555 0.589513 0.282373
O O11 0.500000 0.174719 0.013481
O O12 0.252360 0.161928 0.110280
O O13 0.500000 0.672598 0.708350
O O14 0.250806 0.642382 0.789212
O O15 0.500000 0.632997 0.886912
O O16 0.247978 0.590417 0.940384
O O17 0.756923 0.500000 0.995769
O O18 0.755275 0.432942 0.111051
O O19 0.000000 0.446006 0.012957
O O20 0.000000 0.945119 0.710239
O O21 0.241221 0.000000 0.725527
#
# Coordination Sequence:
#
# PCOD9356698 Si02
#       8
#     8   8   8   8   8   8   8   8
#     4   9  17  31  48  69  98 129 159 194 239 285
#     4  11  21  31  45  70 101 132 164 196 235 282
#     4  10  19  30  51  77  96 121 160 202 241 283
#     4   9  18  35  52  67  94 130 164 199 240 280
#     4   8  16  31  50  68  92 128 163 195 232 277
#     4  11  20  31  50  74  97 125 163 201 239 283
#     4   9  19  36  54  73  99 128 156 190 237 289
#     4   9  19  35  52  70  97 130 157 187 235 291
#
# _framework density 17.472363999999999
#
# number of rings (size 3 to 8) (size 9 to 14) (size 15 to 20)
#    0.000    2.500    0.000    4.500    0.000    6.000 
#    0.000    8.750    0.000    0.750    0.000    5.250 
#    0.000    0.000    0.000    0.000    0.000    0.000 
#
# Total GULP energy -178506.145154 kJ/mol
# GULP energy per Si atom -5578.317036 kJ/mol
# Density = 1.743260 g / cm^3
# Si number density = 17.472364 Si / 1000 Ang^3
#
#
#
# Elastic Constant Matrix: (Units=GPa)
#
#
# Indices 1 2 3 4 5 6 
#
# 1 10.4333 13.5221 19.4555 0.0000 0.0000 0.0000
# 2 13.5221 91.9561 104.7666 0.0000 0.0000 0.0000
# 3 19.4555 104.7666 164.3938 0.0000 0.0000 0.0000
# 4 0.0000 0.0000 0.0000 31.1093 0.0000 0.0000
# 5 0.0000 0.0000 0.0000 0.0000 4.5198 0.0000
# 6 0.0000 0.0000 0.0000 0.0000 0.0000 28.8829
#
#
#
# Elastic Compliance Matrix: (Units=1/GPa)
#
#
# Indices 1 2 3 4 5 6 
#
# 1 0.123751 -0.005518 -0.011129 0.000000 0.000000 0.000000
# 2 -0.005518 0.039945 -0.024804 0.000000 0.000000 0.000000
# 3 -0.011129 -0.024804 0.023207 0.000000 0.000000 0.000000
# 4 0.000000 0.000000 0.000000 0.032145 0.000000 0.000000
# 5 0.000000 0.000000 0.000000 0.000000 0.221246 0.000000
# 6 0.000000 0.000000 0.000000 0.000000 0.000000 0.034623
#
#
# Mechanical properties :
#
#
# Convention : Reuss Voigt Hill
#
# Bulk Modulus (GPa) = 9.61522 60.25243 34.93382
# Shear Modulus (GPa) = 8.43901 21.50501 14.97201
#
# Velocity S-wave (km/s) = 2.20009 3.51208 2.93046
# Velocity P-wave (km/s) = 3.45961 7.14182 5.61135
#
# Compressibility (1/GPa) = 0.10400174
#
# Stress axis : x y z
#
# Youngs Moduli (GPa) = 8.08074 25.03418 43.09011
#
# Poissons Ratio (x) = 0.13815 0.47954
# Poissons Ratio (y) = 0.04459 1.06880
# Poissons Ratio (z) = 0.08993 0.62094
#
# Static dielectric constant tensor:
#      x y z
#    x 1.600310 0.000000 0.000000 
#    y 0.000000 1.571010 0.000000 
#    z 0.000000 0.000000 1.618370 
# 
# From -- ./inp_files/13101.got.cif
#   From: 2010.05.17/outbox.cif.g08.bks.cpg/sg38_7_cif.got.tgz:13101.got - 2010.06.03 18:07:57.
