data_PCOD9356580
_publ_section_title
;
Structure prediction by ZEFSAII (Michael W. Deem and Ramdas Pophale) SiO2 
 PCOD9356580
Probable space group: A M M 2
;
_chemical_formula_sum "Si O2"
_cell_formula_units_Z 64
_cell_length_a 9.300910
_cell_length_b 22.697898
_cell_length_c 15.868633
_cell_angle_alpha 90.000000
_cell_angle_beta 90.000000
_cell_angle_gamma 90.000000
_cell_volume 3350.044671
_symmetry_space_group_name_H-M "A M M 2"
_symmetry_group_IT_number 38
_symmetry_cell_setting 'orthorhombic'
loop_
_space_group_symop_operation_xyz
x,y,z
-x,-y,z
-x,y,z
x,-y,z
x,1/2+y,1/2+z
-x,1/2-y,1/2+z
-x,1/2+y,1/2+z
x,1/2-y,1/2+z
loop_
_atom_site_type_symbol
_atom_site_label
_atom_site_fract_x
_atom_site_fract_y
_atom_site_fract_z
Si Si1 0.827690 0.685150 0.744190
Si Si2 0.336259 0.428445 0.304275
Si Si3 0.670390 0.565763 0.797223
Si Si4 0.826537 0.729675 0.921069
Si Si5 0.837921 0.929101 0.643996
Si Si6 0.327365 0.932010 0.997066
Si Si7 0.669440 0.612262 0.981418
Si Si8 0.827842 0.677080 0.559454
O O1 0.754377 0.621615 0.760095
O O2 0.787962 0.728144 0.821736
O O3 0.792278 0.706059 0.649839
O O4 0.000000 0.677204 0.748282
O O5 0.500000 0.407654 0.291354
O O6 0.340755 0.500000 0.299406
O O7 0.231893 0.406952 0.231041
O O8 0.290549 0.416197 0.399907
O O9 0.500000 0.571721 0.778336
O O10 0.716592 0.500000 0.770184
O O11 0.686524 0.571429 0.898687
O O12 0.000000 0.724681 0.927407
O O13 0.751574 0.672255 0.959299
O O14 0.782143 0.784320 0.979099
O O15 0.739417 0.913896 0.564876
O O16 0.000000 0.906449 0.632521
O O17 0.844828 0.000000 0.649753
O O18 0.500000 0.927716 0.005124
O O19 0.247818 0.885921 0.055307
O O20 0.287752 0.000000 0.012392
O O21 0.500000 0.622269 0.993092
O O22 0.000000 0.669948 0.555205
#
# Coordination Sequence:
#
# PCOD9356580 Si02
#       8
#     8   8   8   8   8   8   8   8
#     4   9  19  36  56  77 106 142 179 222 272 323
#     4   8  15  30  49  68  98 139 177 217 265 314
#     4   9  18  32  51  77 108 142 179 219 267 322
#     4   9  19  38  57  74 104 142 181 227 276 321
#     4  10  19  29  45  73 107 143 184 227 273 327
#     4   9  19  36  57  81 111 145 178 219 273 328
#     4  10  19  32  51  74 104 141 183 229 276 323
#     4  10  21  37  58  83 109 142 182 224 274 330
#
# _framework density 19.104223999999999
#
# number of rings (size 3 to 8) (size 9 to 14) (size 15 to 20)
#    0.000    2.750    0.000    1.875    0.000    4.250 
#    2.250    3.750    0.000    0.000    0.000    0.000 
#    0.000    0.000    0.000    0.000    0.000    0.000 
#
# Total GULP energy -178394.655015 kJ/mol
# GULP energy per Si atom -5574.832969 kJ/mol
# Density = 1.906074 g / cm^3
# Si number density = 19.104224 Si / 1000 Ang^3
#
#
#
# Elastic Constant Matrix: (Units=GPa)
#
#
# Indices 1 2 3 4 5 6 
#
# 1 18.9686 9.8695 30.8160 0.0000 0.0000 0.0000
# 2 9.8695 56.5434 36.1553 0.0000 0.0000 0.0000
# 3 30.8160 36.1553 112.4100 0.0000 0.0000 0.0000
# 4 0.0000 0.0000 0.0000 19.9076 0.0000 0.0000
# 5 0.0000 0.0000 0.0000 0.0000 25.1487 0.0000
# 6 0.0000 0.0000 0.0000 0.0000 0.0000 19.7789
#
#
#
# Elastic Compliance Matrix: (Units=1/GPa)
#
#
# Indices 1 2 3 4 5 6 
#
# 1 0.095051 0.000089 -0.026086 0.000000 0.000000 0.000000
# 2 0.000089 0.022265 -0.007186 0.000000 0.000000 0.000000
# 3 -0.026086 -0.007186 0.018358 0.000000 0.000000 0.000000
# 4 0.000000 0.000000 0.000000 0.050232 0.000000 0.000000
# 5 0.000000 0.000000 0.000000 0.000000 0.039763 0.000000
# 6 0.000000 0.000000 0.000000 0.000000 0.000000 0.050559
#
#
# Mechanical properties :
#
#
# Convention : Reuss Voigt Hill
#
# Bulk Modulus (GPa) = 14.42816 37.95596 26.19206
# Shear Modulus (GPa) = 13.67258 20.37245 17.02252
#
# Velocity S-wave (km/s) = 2.67813 3.26910 2.98826
# Velocity P-wave (km/s) = 4.13907 5.84468 5.06420
#
# Compressibility (1/GPa) = 0.06930889
#
# Stress axis : x y z
#
# Youngs Moduli (GPa) = 10.52072 44.91435 54.47140
#
# Poissons Ratio (x) = -0.00400 1.42092
# Poissons Ratio (y) = -0.00094 0.39141
# Poissons Ratio (z) = 0.27444 0.32273
#
# Static dielectric constant tensor:
#      x y z
#    x 1.637340 0.000000 0.000000 
#    y 0.000000 1.649150 0.000000 
#    z 0.000000 0.000000 1.694970 
# 
# From -- ./inp_files/12752.got.cif
#   From: 2010.05.17/outbox.cif.g08.bks.cpg/sg38_7_cif.got.tgz:12752.got - 2010.06.03 18:07:57.
