data_PCOD9356138
_publ_section_title
;
Structure prediction by ZEFSAII (Michael W. Deem and Ramdas Pophale) SiO2 
 PCOD9356138
Probable space group: A M M 2
;
_chemical_formula_sum "Si O2"
_cell_formula_units_Z 48
_cell_length_a 14.704244
_cell_length_b 7.362391
_cell_length_c 20.770453
_cell_angle_alpha 90.000000
_cell_angle_beta 90.000000
_cell_angle_gamma 90.000000
_cell_volume 2248.575878
_symmetry_space_group_name_H-M "A M M 2"
_symmetry_group_IT_number 38
_symmetry_cell_setting 'orthorhombic'
loop_
_space_group_symop_operation_xyz
x,y,z
-x,-y,z
-x,y,z
x,-y,z
x,1/2+y,1/2+z
-x,1/2-y,1/2+z
-x,1/2+y,1/2+z
x,1/2-y,1/2+z
loop_
_atom_site_type_symbol
_atom_site_label
_atom_site_fract_x
_atom_site_fract_y
_atom_site_fract_z
Si Si1 0.500000 0.778490 0.142890
Si Si2 0.193316 0.721368 0.570329
Si Si3 0.302970 0.277939 0.444130
Si Si4 0.692506 0.719561 0.694848
Si Si5 0.000000 0.716701 0.614601
Si Si6 0.000000 0.218432 0.768239
Si Si7 0.500000 0.778435 0.992017
Si Si8 0.192951 0.290134 0.320771
O O1 0.410075 0.721294 0.180837
O O2 0.500000 0.000000 0.141068
O O3 0.500000 0.722515 0.067579
O O4 0.192810 0.500000 0.569523
O O5 0.243553 0.777445 0.505736
O O6 0.249955 0.775900 0.632787
O O7 0.091139 0.785911 0.581307
O O8 0.305866 0.500000 0.442249
O O9 0.407205 0.220689 0.456584
O O10 0.250738 0.213618 0.380334
O O11 0.693123 0.500000 0.697618
O O12 0.742202 0.784428 0.758660
O O13 0.000000 0.745375 0.691579
O O14 0.000000 0.500000 0.606033
O O15 0.906003 0.286614 0.800526
O O16 0.000000 0.000000 0.773736
O O17 0.500000 0.000000 0.992951
O O18 0.174946 0.500000 0.337890
#
# Coordination Sequence:
#
# PCOD9356138 Si02
#       8
#     4   8   8   8   4   4   4   8
#     4   9  16  27  49  79 103 126 161 206 252 290
#     4   9  16  27  47  74  97 120 159 208 245 276
#     4   9  17  29  46  71 101 128 159 203 250 293
#     4  10  18  31  52  76 100 127 165 207 244 288
#     4  10  18  29  51  79  97 119 164 214 248 282
#     4  10  20  33  47  67 101 139 164 192 248 310
#     4   9  14  25  46  71  97 124 159 204 250 292
#     4  10  21  34  49  72 103 136 165 199 249 302
#
# _framework density 21.346844000000001
#
# number of rings (size 3 to 8) (size 9 to 14) (size 15 to 20)
#    0.000    2.500    3.333    0.000    0.000    1.333 
#    0.000    4.583    0.000    2.000    0.000    1.167 
#    0.000    0.000    0.000    0.000    0.000    0.000 
#
# Total GULP energy -134008.688492 kJ/mol
# GULP energy per Si atom -5583.695354 kJ/mol
# Density = 2.129826 g / cm^3
# Si number density = 21.346844 Si / 1000 Ang^3
#
#
#
# Elastic Constant Matrix: (Units=GPa)
#
#
# Indices 1 2 3 4 5 6 
#
# 1 253.8508 3.2607 112.1341 0.0000 0.0000 0.0000
# 2 3.2607 75.9792 -6.7807 0.0000 0.0000 0.0000
# 3 112.1341 -6.7807 172.0942 0.0000 0.0000 0.0000
# 4 0.0000 0.0000 0.0000 12.7430 0.0000 0.0000
# 5 0.0000 0.0000 0.0000 0.0000 31.2127 0.0000
# 6 0.0000 0.0000 0.0000 0.0000 0.0000 -3.8140
#
#
#
# Elastic Compliance Matrix: (Units=1/GPa)
#
#
# Indices 1 2 3 4 5 6 
#
# 1 0.005555 -0.000563 -0.003642 0.000000 0.000000 0.000000
# 2 -0.000563 0.013265 0.000890 0.000000 0.000000 0.000000
# 3 -0.003642 0.000890 0.008219 0.000000 0.000000 0.000000
# 4 0.000000 0.000000 0.000000 0.078475 0.000000 0.000000
# 5 0.000000 0.000000 0.000000 0.000000 0.032038 0.000000
# 6 0.000000 0.000000 0.000000 0.000000 0.000000 -0.262195
#
#
# Mechanical properties :
#
#
# Convention : Reuss Voigt Hill
#
# Bulk Modulus (GPa) = 49.00024 79.90581 64.45302
# Shear Modulus (GPa) = -44.96061 34.24900 -5.35580
#
# Velocity S-wave (km/s) = -4.59431 4.00985 -1.58568
# Velocity P-wave (km/s) = 2.26703 7.67802 5.18712
#
# Compressibility (1/GPa) = 0.02040806
#
# Stress axis : x y z
#
# Youngs Moduli (GPa) = 180.00695 75.38584 121.67088
#
# Poissons Ratio (x) = 0.04248 0.44312
# Poissons Ratio (y) = 0.10142 -0.10826
# Poissons Ratio (z) = 0.65558 -0.06708
#
# Static dielectric constant tensor:
#      x y z
#    x 1.837300 0.000000 0.000000 
#    y 0.000000 1.895000 0.000000 
#    z 0.000000 0.000000 1.704200 
# 
# From -- ./inp_files/14533.got.cif
#   From: 2010.05.17/outbox.cif.g08.bks.cpg/sg38_8_cif.got.tgz:14533.got - 2010.06.03 18:07:57.
