data_PCOD9356639
_publ_section_title
;
Structure prediction by ZEFSAII (Michael W. Deem and Ramdas Pophale) SiO2 
 PCOD9356639
Probable space group: A M M 2
;
_chemical_formula_sum "Si O2"
_cell_formula_units_Z 64
_cell_length_a 8.612385
_cell_length_b 24.026005
_cell_length_c 19.757305
_cell_angle_alpha 90.000000
_cell_angle_beta 90.000000
_cell_angle_gamma 90.000000
_cell_volume 4088.205360
_symmetry_space_group_name_H-M "A M M 2"
_symmetry_group_IT_number 38
_symmetry_cell_setting 'orthorhombic'
loop_
_space_group_symop_operation_xyz
x,y,z
-x,-y,z
-x,y,z
x,-y,z
x,1/2+y,1/2+z
-x,1/2-y,1/2+z
-x,1/2+y,1/2+z
x,1/2-y,1/2+z
loop_
_atom_site_type_symbol
_atom_site_label
_atom_site_fract_x
_atom_site_fract_y
_atom_site_fract_z
Si Si1 0.312114 0.666297 0.800240
Si Si2 0.687600 0.436740 0.887765
Si Si3 0.313418 0.771138 0.169142
Si Si4 0.812245 0.881592 0.524227
Si Si5 0.812452 0.436026 0.166972
Si Si6 0.314253 0.837949 0.753944
Si Si7 0.186207 0.273894 0.377412
Si Si8 0.813080 0.747848 0.025936
O O1 0.500000 0.670318 0.803857
O O2 0.263955 0.606768 0.829540
O O3 0.267011 0.681740 0.723469
O O4 0.243452 0.714867 0.847406
O O5 0.500000 0.437050 0.889053
O O6 0.741498 0.500000 0.877476
O O7 0.746456 0.412935 0.959111
O O8 0.500000 0.770683 0.164994
O O9 0.264111 0.712255 0.203183
O O10 0.246525 0.775479 0.094456
O O11 0.764392 0.911485 0.593859
O O12 0.762123 0.817009 0.524864
O O13 0.000000 0.882757 0.520631
O O14 0.762581 0.500000 0.173929
O O15 0.748459 0.395345 0.224423
O O16 0.000000 0.434501 0.168961
O O17 0.500000 0.838240 0.755132
O O18 0.252821 0.820682 0.827621
O O19 0.236458 0.276235 0.455661
O O20 0.000000 0.275261 0.374712
O O21 0.000000 0.747603 0.027357
#
# Coordination Sequence:
#
# PCOD9356639 Si02
#       8
#     8   8   8   8   8   8   8   8
#     4   9  18  32  46  66  94 122 157 197 236 279
#     4  10  20  32  47  67  94 130 166 198 233 274
#     4   9  18  30  46  66  90 121 154 192 238 282
#     4  10  19  32  46  66  97 130 164 197 229 271
#     4  10  20  33  49  68  94 131 167 198 234 274
#     4  10  20  33  48  69  94 124 159 198 240 278
#     4  10  19  31  48  69  93 121 155 193 237 286
#     4  10  19  30  47  71  95 122 155 191 235 282
#
# _framework density 15.65479
#
# number of rings (size 3 to 8) (size 9 to 14) (size 15 to 20)
#    0.000    2.250    2.500    1.875    0.000    5.000 
#    0.000    0.000    0.000    0.000    0.000    0.875 
#    0.000    3.000    0.000    0.000    0.000    0.000 
#
# Total GULP energy -178466.459159 kJ/mol
# GULP energy per Si atom -5577.076849 kJ/mol
# Density = 1.561916 g / cm^3
# Si number density = 15.654790 Si / 1000 Ang^3
#
#
#
# Elastic Constant Matrix: (Units=GPa)
#
#
# Indices 1 2 3 4 5 6 
#
# 1 9.2812 19.8180 26.5092 0.0000 0.0000 0.0000
# 2 19.8180 103.6218 79.6087 0.0000 0.0000 0.0000
# 3 26.5092 79.6087 161.0054 0.0000 0.0000 0.0000
# 4 0.0000 0.0000 0.0000 20.0979 0.0000 0.0000
# 5 0.0000 0.0000 0.0000 0.0000 21.1437 0.0000
# 6 0.0000 0.0000 0.0000 0.0000 0.0000 15.5487
#
#
#
# Elastic Compliance Matrix: (Units=1/GPa)
#
#
# Indices 1 2 3 4 5 6 
#
# 1 0.237205 -0.024771 -0.026807 0.000000 0.000000 0.000000
# 2 -0.024771 0.018149 -0.004895 0.000000 0.000000 0.000000
# 3 -0.026807 -0.004895 0.013045 0.000000 0.000000 0.000000
# 4 0.000000 0.000000 0.000000 0.049757 0.000000 0.000000
# 5 0.000000 0.000000 0.000000 0.000000 0.047295 0.000000
# 6 0.000000 0.000000 0.000000 0.000000 0.000000 0.064314
#
#
# Mechanical properties :
#
#
# Convention : Reuss Voigt Hill
#
# Bulk Modulus (GPa) = 6.43287 58.42004 32.42646
# Shear Modulus (GPa) = 8.41002 21.22290 14.81646
#
# Velocity S-wave (km/s) = 2.32031 3.68595 3.07978
# Velocity P-wave (km/s) = 3.36104 7.45075 5.77972
#
# Compressibility (1/GPa) = 0.15545169
#
# Stress axis : x y z
#
# Youngs Moduli (GPa) = 4.21576 55.10022 76.65722
#
# Poissons Ratio (x) = 1.36490 2.05497
# Poissons Ratio (y) = 0.10443 0.37524
# Poissons Ratio (z) = 0.11301 0.26972
#
# Static dielectric constant tensor:
#      x y z
#    x 1.533100 0.000000 0.000000 
#    y 0.000000 1.511250 0.000000 
#    z 0.000000 0.000000 1.519110 
# 
# From -- ./inp_files/12861.got.cif
#   From: 2010.05.17/outbox.cif.g08.bks.cpg/sg38_7_cif.got.tgz:12861.got - 2010.06.03 18:07:57.
