data_PCOD9356247
_publ_section_title
;
Structure prediction by ZEFSAII (Michael W. Deem and Ramdas Pophale) SiO2 
 PCOD9356247
Probable space group: A M M 2
;
_chemical_formula_sum "Si O2"
_cell_formula_units_Z 56
_cell_length_a 8.729789
_cell_length_b 22.898837
_cell_length_c 18.422289
_cell_angle_alpha 90.000000
_cell_angle_beta 90.000000
_cell_angle_gamma 90.000000
_cell_volume 3682.652699
_symmetry_space_group_name_H-M "A M M 2"
_symmetry_group_IT_number 38
_symmetry_cell_setting 'orthorhombic'
loop_
_space_group_symop_operation_xyz
x,y,z
-x,-y,z
-x,y,z
x,-y,z
x,1/2+y,1/2+z
-x,1/2-y,1/2+z
-x,1/2+y,1/2+z
x,1/2-y,1/2+z
loop_
_atom_site_type_symbol
_atom_site_label
_atom_site_fract_x
_atom_site_fract_y
_atom_site_fract_z
Si Si1 0.681314 0.223685 0.611230
Si Si2 0.814920 0.149973 0.069304
Si Si3 0.814854 0.848333 0.312161
Si Si4 0.822217 0.186355 0.467366
Si Si5 0.822004 0.321940 0.415262
Si Si6 0.185698 0.716200 0.264073
Si Si7 0.683370 0.567941 0.691659
O O1 0.500000 0.230710 0.614544
O O2 0.757650 0.287417 0.598906
O O3 0.728022 0.185369 0.541338
O O4 0.744969 0.199566 0.687018
O O5 0.754933 0.100071 0.122008
O O6 0.000000 0.151115 0.069425
O O7 0.758383 0.144804 0.985602
O O8 0.768689 0.849573 0.396977
O O9 0.774680 0.784197 0.280356
O O10 0.742415 0.897443 0.262132
O O11 0.000000 0.852265 0.309855
O O12 0.819768 0.253819 0.439737
O O13 0.000000 0.172346 0.482520
O O14 0.758064 0.321125 0.333722
O O15 0.000000 0.339372 0.408833
O O16 0.000000 0.713200 0.261606
O O17 0.500000 0.572433 0.687937
O O18 0.726611 0.500000 0.694249
#
# Coordination Sequence:
#
# PCOD9356247 Si02
#       7
#     8   8   8   8   8   8   8
#     4  11  19  25  38  64  92 118 144 173 213 261
#     4  10  18  31  47  60  79 112 151 188 220 254
#     4   9  17  30  48  63  79 111 152 187 219 254
#     4   8  15  28  43  60  81 110 146 179 212 256
#     4   7  13  25  42  61  79 104 141 178 213 252
#     4   9  15  26  43  62  85 114 143 176 214 257
#     4  11  23  34  44  63  90 117 147 185 227 267
#
# _framework density 15.206429999999999
#
# number of rings (size 3 to 8) (size 9 to 14) (size 15 to 20)
#    0.000    2.714    1.429    4.714    0.000    1.714 
#    0.000    6.429    0.000    0.000    0.000    0.000 
#    0.000    1.143    0.000   10.857    0.000    6.286 
#
# Total GULP energy -155879.969585 kJ/mol
# GULP energy per Si atom -5567.141771 kJ/mol
# Density = 1.517182 g / cm^3
# Si number density = 15.206430 Si / 1000 Ang^3
#
#
#
# Elastic Constant Matrix: (Units=GPa)
#
#
# Indices 1 2 3 4 5 6 
#
# 1 36.2967 20.0636 41.1619 0.0000 0.0000 0.0000
# 2 20.0636 49.1474 47.3497 0.0000 0.0000 0.0000
# 3 41.1619 47.3497 168.7967 0.0000 0.0000 0.0000
# 4 0.0000 0.0000 0.0000 12.7773 0.0000 0.0000
# 5 0.0000 0.0000 0.0000 0.0000 -3.5114 0.0000
# 6 0.0000 0.0000 0.0000 0.0000 0.0000 13.5270
#
#
#
# Elastic Compliance Matrix: (Units=1/GPa)
#
#
# Indices 1 2 3 4 5 6 
#
# 1 0.041260 -0.009798 -0.007313 0.000000 0.000000 0.000000
# 2 -0.009798 0.030209 -0.006085 0.000000 0.000000 0.000000
# 3 -0.007313 -0.006085 0.009414 0.000000 0.000000 0.000000
# 4 0.000000 0.000000 0.000000 0.078264 0.000000 0.000000
# 5 0.000000 0.000000 0.000000 0.000000 -0.284787 0.000000
# 6 0.000000 0.000000 0.000000 0.000000 0.000000 0.073926
#
#
# Mechanical properties :
#
#
# Convention : Reuss Voigt Hill
#
# Bulk Modulus (GPa) = 28.99243 52.37679 40.68461
# Shear Modulus (GPa) = 809.74366 14.26963 412.00665
#
# Velocity S-wave (km/s) = 23.10101 3.06665 16.47818
# Velocity P-wave (km/s) = 27.03053 6.85986 19.71937
#
# Compressibility (1/GPa) = 0.03449176
#
# Stress axis : x y z
#
# Youngs Moduli (GPa) = 24.23654 33.10269 106.22016
#
# Poissons Ratio (x) = 0.32435 0.77678
# Poissons Ratio (y) = 0.23748 0.64632
# Poissons Ratio (z) = 0.17724 0.20142
#
# Static dielectric constant tensor:
#      x y z
#    x 1.505840 0.000000 0.000000 
#    y 0.000000 1.467510 0.000000 
#    z 0.000000 0.000000 1.557840 
# 
# From -- ./inp_files/17110.got.cif
#   From: 2010.05.17/outbox.cif.g08.bks.cpg/sg38_9_cif.got.tgz:17110.got - 2010.06.03 18:07:57.
