data_PCOD9356659
_publ_section_title
;
Structure prediction by ZEFSAII (Michael W. Deem and Ramdas Pophale) SiO2 
 PCOD9356659
Probable space group: A M M 2
;
_chemical_formula_sum "Si O2"
_cell_formula_units_Z 64
_cell_length_a 14.936442
_cell_length_b 9.245384
_cell_length_c 25.417146
_cell_angle_alpha 90.000000
_cell_angle_beta 90.000000
_cell_angle_gamma 90.000000
_cell_volume 3509.933549
_symmetry_space_group_name_H-M "A M M 2"
_symmetry_group_IT_number 38
_symmetry_cell_setting 'orthorhombic'
loop_
_space_group_symop_operation_xyz
x,y,z
-x,-y,z
-x,y,z
x,-y,z
x,1/2+y,1/2+z
-x,1/2-y,1/2+z
-x,1/2+y,1/2+z
x,1/2-y,1/2+z
loop_
_atom_site_type_symbol
_atom_site_label
_atom_site_fract_x
_atom_site_fract_y
_atom_site_fract_z
Si Si1 0.704706 0.326316 0.920490
Si Si2 0.898559 0.172557 0.171693
Si Si3 0.394726 0.325494 0.028916
Si Si4 0.598494 0.332755 0.717984
Si Si5 0.097423 0.326452 0.888991
Si Si6 0.655595 0.335423 0.315912
Si Si7 0.281738 0.826021 0.120108
Si Si8 0.862213 0.166526 0.781418
O O1 0.700085 0.500000 0.914536
O O2 0.810884 0.285249 0.919338
O O3 0.660075 0.251448 0.870138
O O4 0.651935 0.287553 0.973364
O O5 0.822338 0.211900 0.129336
O O6 0.883701 0.255214 0.226703
O O7 0.000000 0.199312 0.153598
O O8 0.888594 0.000000 0.181860
O O9 0.500000 0.283376 0.030729
O O10 0.391270 0.500000 0.034373
O O11 0.335323 0.252765 0.074217
O O12 0.500000 0.324534 0.693144
O O13 0.616792 0.500000 0.731740
O O14 0.600026 0.241749 0.770769
O O15 0.670538 0.286661 0.675190
O O16 0.100950 0.500000 0.882180
O O17 0.100540 0.252064 0.831809
O O18 0.000000 0.290931 0.913439
O O19 0.627705 0.500000 0.324912
O O20 0.756018 0.334550 0.292091
O O21 0.289425 0.000000 0.113340
O O22 0.892764 0.000000 0.780480
#
# Coordination Sequence:
#
# PCOD9356659 Si02
#       8
#     8   8   8   8   8   8   8   8
#     4   9  19  36  56  77 106 142 182 227 273 325
#     4  10  20  34  54  79 108 145 186 223 263 318
#     4  10  22  40  61  83 106 138 183 233 283 331
#     4  10  20  34  54  79 106 141 182 220 268 331
#     4   9  17  30  50  75 104 142 185 223 263 318
#     4  10  20  33  51  79 114 147 178 219 271 323
#     4  10  21  38  59  81 109 142 182 229 273 324
#     4  10  19  30  47  75 112 149 182 219 263 315
#
# _framework density 18.233962999999999
#
# number of rings (size 3 to 8) (size 9 to 14) (size 15 to 20)
#    0.000    2.250    1.250    1.500    0.000    6.000 
#    0.000    1.875    0.000    0.750    0.000    0.000 
#    0.000    0.000    0.000    0.000    0.000    0.000 
#
# Total GULP energy -178444.068043 kJ/mol
# GULP energy per Si atom -5576.377126 kJ/mol
# Density = 1.819246 g / cm^3
# Si number density = 18.233963 Si / 1000 Ang^3
#
#
#
# Elastic Constant Matrix: (Units=GPa)
#
#
# Indices 1 2 3 4 5 6 
#
# 1 133.7773 40.3184 76.7319 0.0000 0.0000 0.0000
# 2 40.3184 31.2794 42.7783 0.0000 0.0000 0.0000
# 3 76.7319 42.7783 110.5204 0.0000 0.0000 0.0000
# 4 0.0000 0.0000 0.0000 29.5578 0.0000 0.0000
# 5 0.0000 0.0000 0.0000 0.0000 17.2107 0.0000
# 6 0.0000 0.0000 0.0000 0.0000 0.0000 17.7788
#
#
#
# Elastic Compliance Matrix: (Units=1/GPa)
#
#
# Indices 1 2 3 4 5 6 
#
# 1 0.013728 -0.009902 -0.005698 0.000000 0.000000 0.000000
# 2 -0.009902 0.075070 -0.022182 0.000000 0.000000 0.000000
# 3 -0.005698 -0.022182 0.021590 0.000000 0.000000 0.000000
# 4 0.000000 0.000000 0.000000 0.033832 0.000000 0.000000
# 5 0.000000 0.000000 0.000000 0.000000 0.058103 0.000000
# 6 0.000000 0.000000 0.000000 0.000000 0.000000 0.056247
#
#
# Mechanical properties :
#
#
# Convention : Reuss Voigt Hill
#
# Bulk Modulus (GPa) = 28.71631 66.13714 47.42673
# Shear Modulus (GPa) = 14.46166 20.62602 17.54384
#
# Velocity S-wave (km/s) = 2.81929 3.36696 3.10522
# Velocity P-wave (km/s) = 5.13623 7.17394 6.23884
#
# Compressibility (1/GPa) = 0.03482342
#
# Stress axis : x y z
#
# Youngs Moduli (GPa) = 72.84516 13.32096 46.31729
#
# Poissons Ratio (x) = 0.13190 0.26393
# Poissons Ratio (y) = 0.72128 1.02742
# Poissons Ratio (z) = 0.41510 0.29549
#
# Static dielectric constant tensor:
#      x y z
#    x 1.690630 0.000000 0.000000 
#    y 0.000000 1.619110 0.000000 
#    z 0.000000 0.000000 1.577330 
# 
# From -- ./inp_files/22941.got.cif
#   From: 2010.05.17/outbox.cif.g08.bks.cpg/sg38_12_cif.got.tgz:22941.got - 2010.06.03 18:07:57.
