data_PCOD9356677
_publ_section_title
;
Structure prediction by ZEFSAII (Michael W. Deem and Ramdas Pophale) SiO2 
 PCOD9356677
Probable space group: A M M 2
;
_chemical_formula_sum "Si O2"
_cell_formula_units_Z 46
_cell_length_a 13.086472
_cell_length_b 7.523544
_cell_length_c 27.787676
_cell_angle_alpha 90.000000
_cell_angle_beta 90.000000
_cell_angle_gamma 90.000000
_cell_volume 2735.881432
_symmetry_space_group_name_H-M "A M M 2"
_symmetry_group_IT_number 38
_symmetry_cell_setting 'orthorhombic'
loop_
_space_group_symop_operation_xyz
x,y,z
-x,-y,z
-x,y,z
x,-y,z
x,1/2+y,1/2+z
-x,1/2-y,1/2+z
-x,1/2+y,1/2+z
x,1/2-y,1/2+z
loop_
_atom_site_type_symbol
_atom_site_label
_atom_site_fract_x
_atom_site_fract_y
_atom_site_fract_z
Si Si1 0.199682 0.788076 0.562560
Si Si2 0.000000 0.000000 0.918386
Si Si3 0.000000 0.716311 0.001927
Si Si4 0.115186 0.788277 0.164107
Si Si5 0.382087 0.211820 0.495261
Si Si6 0.809583 0.000000 0.845355
Si Si7 0.618974 0.500000 0.413489
Si Si8 0.123413 0.290926 0.771133
O O1 0.185731 0.744316 0.618403
O O2 0.302198 0.728110 0.535918
O O3 0.099870 0.730107 0.532651
O O4 0.199828 0.000000 0.559703
O O5 0.100421 0.000000 0.885135
O O6 0.000000 0.173632 0.952654
O O7 0.000000 0.500000 0.995185
O O8 0.149658 0.726976 0.216875
O O9 0.000000 0.718446 0.153989
O O10 0.106301 0.000000 0.169207
O O11 0.500000 0.239849 0.509947
O O12 0.364502 0.328303 0.447697
O O13 0.368565 0.000000 0.486279
O O14 0.825654 0.829214 0.811403
O O15 0.700833 0.000000 0.871326
O O16 0.500000 0.500000 0.398169
O O17 0.148103 0.500000 0.776404
O O18 0.000000 0.273753 0.774964
#
# Coordination Sequence:
#
# PCOD9356677 Si02
#       8
#     8   2   4   8   8   4   4   8
#     4  10  19  30  48  76 104 139 171 206 262 311
#     4  12  24  32  50  78 102 142 172 208 274 318
#     4  10  22  34  43  71 113 135 160 208 260 317
#     4   9  18  30  49  76 105 142 176 211 255 315
#     4   9  19  36  54  74 105 140 179 221 260 315
#     4  12  22  36  56  82 102 140 186 224 273 319
#     4  10  22  38  58  80 102 142 190 226 268 316
#     4   9  19  36  53  76 111 139 176 221 267 321
#
# _framework density 16.813593999999998
#
# number of rings (size 3 to 8) (size 9 to 14) (size 15 to 20)
#    0.000    2.261    1.739    2.087    3.652    1.391 
#    0.000    0.000    0.000    1.043    0.000    2.435 
#    0.000    0.000    0.000    0.000    0.000    0.000 
#
# Total GULP energy -128273.075049 kJ/mol
# GULP energy per Si atom -5577.090220 kJ/mol
# Density = 1.677533 g / cm^3
# Si number density = 16.813594 Si / 1000 Ang^3
#
#
#
# Elastic Constant Matrix: (Units=GPa)
#
#
# Indices 1 2 3 4 5 6 
#
# 1 99.2186 42.9620 90.0897 0.0000 0.0000 0.0000
# 2 42.9620 70.6913 51.8200 0.0000 0.0000 0.0000
# 3 90.0897 51.8200 153.8401 0.0000 0.0000 0.0000
# 4 0.0000 0.0000 0.0000 34.9058 0.0000 0.0000
# 5 0.0000 0.0000 0.0000 0.0000 23.7749 0.0000
# 6 0.0000 0.0000 0.0000 0.0000 0.0000 13.8429
#
#
#
# Elastic Compliance Matrix: (Units=1/GPa)
#
#
# Indices 1 2 3 4 5 6 
#
# 1 0.023003 -0.005451 -0.011635 0.000000 0.000000 0.000000
# 2 -0.005451 0.020076 -0.003570 0.000000 0.000000 0.000000
# 3 -0.011635 -0.003570 0.014516 0.000000 0.000000 0.000000
# 4 0.000000 0.000000 0.000000 0.028649 0.000000 0.000000
# 5 0.000000 0.000000 0.000000 0.000000 0.042061 0.000000
# 6 0.000000 0.000000 0.000000 0.000000 0.000000 0.072239
#
#
# Mechanical properties :
#
#
# Convention : Reuss Voigt Hill
#
# Bulk Modulus (GPa) = 61.41257 77.05483 69.23370
# Shear Modulus (GPa) = 20.21961 23.76328 21.99145
#
# Velocity S-wave (km/s) = 3.47158 3.76352 3.62049
# Velocity P-wave (km/s) = 7.25768 8.05070 7.66446
#
# Compressibility (1/GPa) = 0.01628331
#
# Stress axis : x y z
#
# Youngs Moduli (GPa) = 43.47172 49.81047 68.88855
#
# Poissons Ratio (x) = 0.27153 0.80150
# Poissons Ratio (y) = 0.23698 0.24594
# Poissons Ratio (z) = 0.50578 0.17783
#
# Static dielectric constant tensor:
#      x y z
#    x 1.559130 0.000000 0.000000 
#    y 0.000000 1.595810 0.000000 
#    z 0.000000 0.000000 1.567650 
# 
# From -- ./inp_files/22449.got.cif
#   From: 2010.05.17/outbox.cif.g08.bks.cpg/sg38_12_cif.got.tgz:22449.got - 2010.06.03 18:07:57.
