data_PCOD9356438
_publ_section_title
;
Structure prediction by ZEFSAII (Michael W. Deem and Ramdas Pophale) SiO2 
 PCOD9356438
Probable space group: A M M 2
;
_chemical_formula_sum "Si O2"
_cell_formula_units_Z 48
_cell_length_a 7.434413
_cell_length_b 31.943368
_cell_length_c 10.134150
_cell_angle_alpha 90.000000
_cell_angle_beta 90.000000
_cell_angle_gamma 90.000000
_cell_volume 2406.659871
_symmetry_space_group_name_H-M "A M M 2"
_symmetry_group_IT_number 38
_symmetry_cell_setting 'orthorhombic'
loop_
_space_group_symop_operation_xyz
x,y,z
-x,-y,z
-x,y,z
x,-y,z
x,1/2+y,1/2+z
-x,1/2-y,1/2+z
-x,1/2+y,1/2+z
x,1/2-y,1/2+z
loop_
_atom_site_type_symbol
_atom_site_label
_atom_site_fract_x
_atom_site_fract_y
_atom_site_fract_z
Si Si1 0.000000 0.784193 0.495090
Si Si2 0.711297 0.096319 0.813084
Si Si3 0.716560 0.416702 0.827663
Si Si4 0.280335 0.500000 0.967944
Si Si5 0.000000 0.797204 0.178171
Si Si6 0.796655 0.000000 0.777291
Si Si7 0.281323 0.634770 0.585792
Si Si8 0.282579 0.353152 0.054858
O O1 0.000000 0.740674 0.573405
O O2 0.826425 0.810417 0.544840
O O3 0.000000 0.783329 0.333457
O O4 0.500000 0.104362 0.812270
O O5 0.727159 0.045884 0.820039
O O6 0.776286 0.117319 0.677246
O O7 0.779571 0.121327 0.940100
O O8 0.500000 0.419703 0.831284
O O9 0.783294 0.459353 0.890151
O O10 0.764781 0.404342 0.680598
O O11 0.765190 0.378835 0.923553
O O12 0.500000 0.500000 0.973307
O O13 0.220054 0.500000 0.118661
O O14 0.173871 0.825926 0.144038
O O15 0.000000 0.000000 0.821085
O O16 0.500000 0.641047 0.589630
O O17 0.500000 0.347361 0.059130
#
# Coordination Sequence:
#
# PCOD9356438 Si02
#       8
#     4   8   8   4   4   4   8   8
#     4  12  28  44  68  97 126 166 201 266 331 385
#     4  10  22  40  65  92 127 177 217 259 314 371
#     4   9  17  34  61  89 120 163 208 254 303 357
#     4  10  18  33  58  86 123 167 219 263 299 359
#     4  12  28  46  68  97 126 160 203 264 329 389
#     4  12  24  33  52  94 135 169 211 271 309 357
#     4  10  23  44  68  93 128 170 210 257 320 382
#     4  10  21  40  66  93 125 168 214 255 309 380
#
# _framework density 19.944655000000001
#
# number of rings (size 3 to 8) (size 9 to 14) (size 15 to 20)
#    0.000    1.667    3.333    0.750    4.667    1.333 
#    1.500    2.500    0.000    0.000    0.000    0.000 
#    0.000    0.000    0.000    0.000    0.000    0.000 
#
# Total GULP energy -133878.016710 kJ/mol
# GULP energy per Si atom -5578.250696 kJ/mol
# Density = 1.989926 g / cm^3
# Si number density = 19.944655 Si / 1000 Ang^3
#
#
#
# Elastic Constant Matrix: (Units=GPa)
#
#
# Indices 1 2 3 4 5 6 
#
# 1 74.3645 19.1198 16.8354 0.0000 0.0000 0.0000
# 2 19.1198 108.9710 34.8048 0.0000 0.0000 0.0000
# 3 16.8354 34.8048 114.1502 0.0000 0.0000 0.0000
# 4 0.0000 0.0000 0.0000 34.2066 0.0000 0.0000
# 5 0.0000 0.0000 0.0000 0.0000 7.3653 0.0000
# 6 0.0000 0.0000 0.0000 0.0000 0.0000 37.1016
#
#
#
# Elastic Compliance Matrix: (Units=1/GPa)
#
#
# Indices 1 2 3 4 5 6 
#
# 1 0.014308 -0.002035 -0.001490 0.000000 0.000000 0.000000
# 2 -0.002035 0.010456 -0.002888 0.000000 0.000000 0.000000
# 3 -0.001490 -0.002888 0.009861 0.000000 0.000000 0.000000
# 4 0.000000 0.000000 0.000000 0.029234 0.000000 0.000000
# 5 0.000000 0.000000 0.000000 0.000000 0.135773 0.000000
# 6 0.000000 0.000000 0.000000 0.000000 0.000000 0.026953
#
#
# Mechanical properties :
#
#
# Convention : Reuss Voigt Hill
#
# Bulk Modulus (GPa) = 45.87225 48.77840 47.32533
# Shear Modulus (GPa) = 20.26952 30.84974 25.55963
#
# Velocity S-wave (km/s) = 3.19139 3.93716 3.58373
# Velocity P-wave (km/s) = 6.05224 6.72148 6.39562
#
# Compressibility (1/GPa) = 0.02179967
#
# Stress axis : x y z
#
# Youngs Moduli (GPa) = 69.89262 95.63738 101.41278
#
# Poissons Ratio (x) = 0.19458 0.15109
# Poissons Ratio (y) = 0.14220 0.29289
# Poissons Ratio (z) = 0.10413 0.27621
#
# Static dielectric constant tensor:
#      x y z
#    x 1.739530 0.000000 0.000000 
#    y 0.000000 1.719450 0.000000 
#    z 0.000000 0.000000 1.701590 
# 
# From -- ./inp_files/3880.got.cif
#   From: 2010.05.17/outbox.cif.g08.bks.cpg/sg38_2_cif.got.tgz:3880.got - 2010.06.03 18:07:57.
