data_PCOD9356304
_publ_section_title
;
Structure prediction by ZEFSAII (Michael W. Deem and Ramdas Pophale) SiO2 
 PCOD9356304
Probable space group: A M M 2
;
_chemical_formula_sum "Si O2"
_cell_formula_units_Z 58
_cell_length_a 15.737717
_cell_length_b 7.548485
_cell_length_c 25.374861
_cell_angle_alpha 90.000000
_cell_angle_beta 90.000000
_cell_angle_gamma 90.000000
_cell_volume 3014.429975
_symmetry_space_group_name_H-M "A M M 2"
_symmetry_group_IT_number 38
_symmetry_cell_setting 'orthorhombic'
loop_
_space_group_symop_operation_xyz
x,y,z
-x,-y,z
-x,y,z
x,-y,z
x,1/2+y,1/2+z
-x,1/2-y,1/2+z
-x,1/2+y,1/2+z
x,1/2-y,1/2+z
loop_
_atom_site_type_symbol
_atom_site_label
_atom_site_fract_x
_atom_site_fract_y
_atom_site_fract_z
Si Si1 0.823561 0.705317 0.453140
Si Si2 0.500000 0.000000 0.472759
Si Si3 0.628658 0.213730 0.933018
Si Si4 0.229021 0.705034 0.267776
Si Si5 0.906686 0.702670 0.850780
Si Si6 0.097334 0.216801 0.681558
Si Si7 0.096325 0.713339 0.061934
Si Si8 0.406156 0.784903 0.810279
O O1 0.831686 0.500000 0.439771
O O2 0.727363 0.757224 0.440995
O O3 0.887880 0.797444 0.412988
O O4 0.844998 0.729586 0.514157
O O5 0.426927 0.157598 0.468622
O O6 0.603791 0.254455 0.872369
O O7 0.616486 0.000000 0.941270
O O8 0.243533 0.500000 0.253394
O O9 0.171318 0.708911 0.320366
O O10 0.168215 0.781153 0.222354
O O11 0.322138 0.781835 0.280148
O O12 0.907185 0.500000 0.832537
O O13 0.000000 0.780683 0.839863
O O14 0.117628 0.269858 0.621449
O O15 0.000000 0.271728 0.693977
O O16 0.096483 0.000000 0.683523
O O17 0.096019 0.500000 0.062527
O O18 0.000000 0.773639 0.050897
O O19 0.500000 0.724207 0.792730
O O20 0.405238 0.000000 0.806671
#
# Coordination Sequence:
#
# PCOD9356304 Si02
#       8
#     8   2   8   8   8   8   8   8
#     4  11  22  35  52  76 106 139 176 223 269 321
#     4  12  22  32  60  78  98 156 182 216 284 330
#     4  10  21  35  50  79 113 137 179 229 271 330
#     4  10  18  31  53  76 100 138 182 218 264 324
#     4  11  23  34  46  70 109 147 175 213 266 327
#     4   8  15  29  50  76 101 132 180 230 270 312
#     4   9  18  33  52  74 103 139 182 231 271 311
#     4   9  16  30  48  70 104 137 167 220 272 313
#
# _framework density 19.240784999999999
#
# number of rings (size 3 to 8) (size 9 to 14) (size 15 to 20)
#    0.000    2.207    2.069    2.690    1.931    3.586 
#    0.000    0.690    0.000    0.828    1.793    0.000 
#    0.000    0.000    0.000    0.000    0.000    0.000 
#
# Total GULP energy -161511.054337 kJ/mol
# GULP energy per Si atom -5569.346701 kJ/mol
# Density = 1.919699 g / cm^3
# Si number density = 19.240785 Si / 1000 Ang^3
#
#
#
# Elastic Constant Matrix: (Units=GPa)
#
#
# Indices 1 2 3 4 5 6 
#
# 1 158.5236 11.9711 59.5061 0.0000 0.0000 0.0000
# 2 11.9711 49.6229 -3.7934 0.0000 0.0000 0.0000
# 3 59.5061 -3.7934 79.7459 0.0000 0.0000 0.0000
# 4 0.0000 0.0000 0.0000 10.0182 0.0000 0.0000
# 5 0.0000 0.0000 0.0000 0.0000 25.1340 0.0000
# 6 0.0000 0.0000 0.0000 0.0000 0.0000 16.6331
#
#
#
# Elastic Compliance Matrix: (Units=1/GPa)
#
#
# Indices 1 2 3 4 5 6 
#
# 1 0.009117 -0.002729 -0.006933 0.000000 0.000000 0.000000
# 2 -0.002729 0.021043 0.003038 0.000000 0.000000 0.000000
# 3 -0.006933 0.003038 0.017857 0.000000 0.000000 0.000000
# 4 0.000000 0.000000 0.000000 0.099819 0.000000 0.000000
# 5 0.000000 0.000000 0.000000 0.000000 0.039787 0.000000
# 6 0.000000 0.000000 0.000000 0.000000 0.000000 0.060121
#
#
# Mechanical properties :
#
#
# Convention : Reuss Voigt Hill
#
# Bulk Modulus (GPa) = 28.76213 47.02889 37.89551
# Shear Modulus (GPa) = 18.34314 25.03761 21.69038
#
# Velocity S-wave (km/s) = 3.09098 3.61124 3.36119
# Velocity P-wave (km/s) = 5.26497 6.47174 5.89929
#
# Compressibility (1/GPa) = 0.03476793
#
# Stress axis : x y z
#
# Youngs Moduli (GPa) = 109.68918 47.52263 55.99905
#
# Poissons Ratio (x) = 0.12970 0.38822
# Poissons Ratio (y) = 0.29937 -0.17010
# Poissons Ratio (z) = 0.76044 -0.14435
#
# Static dielectric constant tensor:
#      x y z
#    x 1.681590 0.000000 0.000000 
#    y 0.000000 1.729130 0.000000 
#    z 0.000000 0.000000 1.659720 
# 
# From -- ./inp_files/22826.got.cif
#   From: 2010.05.17/outbox.cif.g08.bks.cpg/sg38_12_cif.got.tgz:22826.got - 2010.06.03 18:07:57.
