data_PCOD9356015
_publ_section_title
;
Structure prediction by ZEFSAII (Michael W. Deem and Ramdas Pophale) SiO2 
 PCOD9356015
Probable space group: A M M 2
;
_chemical_formula_sum "Si O2"
_cell_formula_units_Z 64
_cell_length_a 14.988908
_cell_length_b 7.796630
_cell_length_c 32.099257
_cell_angle_alpha 90.000000
_cell_angle_beta 90.000000
_cell_angle_gamma 90.000000
_cell_volume 3751.214501
_symmetry_space_group_name_H-M "A M M 2"
_symmetry_group_IT_number 38
_symmetry_cell_setting 'orthorhombic'
loop_
_space_group_symop_operation_xyz
x,y,z
-x,-y,z
-x,y,z
x,-y,z
x,1/2+y,1/2+z
-x,1/2-y,1/2+z
-x,1/2+y,1/2+z
x,1/2-y,1/2+z
loop_
_atom_site_type_symbol
_atom_site_label
_atom_site_fract_x
_atom_site_fract_y
_atom_site_fract_z
Si Si1 0.107984 0.301075 0.356610
Si Si2 0.898049 0.792451 0.105259
Si Si3 0.401745 0.205083 0.053702
Si Si4 0.103633 0.289439 0.265416
Si Si5 0.214495 0.796900 0.026404
Si Si6 0.898736 0.299861 0.948140
Si Si7 0.599604 0.792162 0.650840
Si Si8 0.216388 0.705725 0.186725
O O1 0.134185 0.500000 0.358914
O O2 0.135469 0.231639 0.311361
O O3 0.133537 0.219584 0.400515
O O4 0.000000 0.292880 0.355108
O O5 0.847267 0.728338 0.063914
O O6 0.843214 0.743049 0.146194
O O7 0.000000 0.730372 0.106938
O O8 0.900911 0.000000 0.103577
O O9 0.500000 0.276038 0.043007
O O10 0.314910 0.273999 0.029946
O O11 0.387181 0.236335 0.102944
O O12 0.405976 0.000000 0.047219
O O13 0.103602 0.500000 0.266302
O O14 0.166078 0.229849 0.227886
O O15 0.000000 0.238821 0.258810
O O16 0.222004 0.000000 0.034261
O O17 0.166698 0.775557 0.982382
O O18 0.904871 0.500000 0.957327
O O19 0.000000 0.226014 0.951053
O O20 0.500000 0.735708 0.663749
O O21 0.683409 0.729975 0.677836
O O22 0.600399 0.000000 0.651316
O O23 0.222003 0.500000 0.191089
#
# Coordination Sequence:
#
# PCOD9356015 Si02
#       8
#     8   8   8   8   8   8   8   8
#     4   8  14  27  46  63  81 109 144 181 221 262
#     4  10  20  31  41  58  88 121 150 178 209 251
#     4   9  17  30  48  66  83 108 145 187 222 252
#     4   8  14  25  42  64  86 109 143 183 217 255
#     4  10  19  31  46  63  86 117 149 178 214 261
#     4  10  20  31  44  65  91 115 144 183 220 256
#     4   9  17  28  42  62  88 116 145 181 224 261
#     4  10  18  28  44  64  87 117 151 183 214 253
#
# _framework density 17.061140999999999
#
# number of rings (size 3 to 8) (size 9 to 14) (size 15 to 20)
#    0.000    2.750    1.250    1.875    0.000    3.000 
#    0.000    0.625    0.000    2.250    0.000    0.875 
#    0.000    5.000    0.000    0.000    0.000    0.000 
#
# Total GULP energy -178294.356086 kJ/mol
# GULP energy per Si atom -5571.698628 kJ/mol
# Density = 1.702231 g / cm^3
# Si number density = 17.061141 Si / 1000 Ang^3
#
#
#
# Elastic Constant Matrix: (Units=GPa)
#
#
# Indices 1 2 3 4 5 6 
#
# 1 141.4705 4.6972 78.4488 0.0000 0.0000 0.0000
# 2 4.6972 15.6215 -4.4317 0.0000 0.0000 0.0000
# 3 78.4488 -4.4317 115.2585 0.0000 0.0000 0.0000
# 4 0.0000 0.0000 0.0000 16.6141 0.0000 0.0000
# 5 0.0000 0.0000 0.0000 0.0000 8.0339 0.0000
# 6 0.0000 0.0000 0.0000 0.0000 0.0000 9.9054
#
#
#
# Elastic Compliance Matrix: (Units=1/GPa)
#
#
# Indices 1 2 3 4 5 6 
#
# 1 0.011873 -0.005927 -0.008309 0.000000 0.000000 0.000000
# 2 -0.005927 0.067679 0.006637 0.000000 0.000000 0.000000
# 3 -0.008309 0.006637 0.014587 0.000000 0.000000 0.000000
# 4 0.000000 0.000000 0.000000 0.060190 0.000000 0.000000
# 5 0.000000 0.000000 0.000000 0.000000 0.124472 0.000000
# 6 0.000000 0.000000 0.000000 0.000000 0.000000 0.100955
#
#
# Mechanical properties :
#
#
# Convention : Reuss Voigt Hill
#
# Bulk Modulus (GPa) = 12.66791 47.75321 30.21056
# Shear Modulus (GPa) = 11.86892 19.81977 15.84434
#
# Velocity S-wave (km/s) = 2.64042 3.41206 3.05073
# Velocity P-wave (km/s) = 4.09107 6.60099 5.49135
#
# Compressibility (1/GPa) = 0.07893961
#
# Stress axis : x y z
#
# Youngs Moduli (GPa) = 84.22481 14.77556 68.55538
#
# Poissons Ratio (x) = 0.08758 0.56963
# Poissons Ratio (y) = 0.49922 -0.45498
# Poissons Ratio (z) = 0.69983 -0.09806
#
# Static dielectric constant tensor:
#      x y z
#    x 1.602250 0.000000 0.000000 
#    y 0.000000 1.631070 0.000000 
#    z 0.000000 0.000000 1.564000 
# 
# From -- ./inp_files/25044.got.cif
#   From: 2010.05.17/outbox.cif.g08.bks.cpg/sg38_13_cif.got.tgz:25044.got - 2010.06.03 18:07:57.
