data_PCOD9356353
_publ_section_title
;
Structure prediction by ZEFSAII (Michael W. Deem and Ramdas Pophale) SiO2 
 PCOD9356353
Probable space group: A M M 2
;
_chemical_formula_sum "Si O2"
_cell_formula_units_Z 48
_cell_length_a 7.755323
_cell_length_b 17.117194
_cell_length_c 18.838829
_cell_angle_alpha 90.000000
_cell_angle_beta 90.000000
_cell_angle_gamma 90.000000
_cell_volume 2500.842650
_symmetry_space_group_name_H-M "A M M 2"
_symmetry_group_IT_number 38
_symmetry_cell_setting 'orthorhombic'
loop_
_space_group_symop_operation_xyz
x,y,z
-x,-y,z
-x,y,z
x,-y,z
x,1/2+y,1/2+z
-x,1/2-y,1/2+z
-x,1/2+y,1/2+z
x,1/2-y,1/2+z
loop_
_atom_site_type_symbol
_atom_site_label
_atom_site_fract_x
_atom_site_fract_y
_atom_site_fract_z
Si Si1 0.791708 0.170688 0.365880
Si Si2 0.795397 0.258882 0.224702
Si Si3 0.707188 0.176096 0.946060
Si Si4 0.710841 0.000000 0.192159
Si Si5 0.201288 0.000000 0.356435
Si Si6 0.703624 0.850655 0.103392
Si Si7 0.708089 0.088183 0.805170
O O1 0.727795 0.205095 0.290138
O O2 0.746237 0.235115 0.424030
O O3 0.724519 0.083534 0.379892
O O4 0.000000 0.166780 0.361066
O O5 0.726153 0.226617 0.150714
O O6 0.755712 0.347654 0.246364
O O7 0.000000 0.249652 0.222592
O O8 0.500000 0.167450 0.947329
O O9 0.771294 0.121992 0.881167
O O10 0.775821 0.156037 0.024022
O O11 0.769750 0.923450 0.149356
O O12 0.500000 0.000000 0.197724
O O13 0.784342 0.000000 0.271087
O O14 0.000000 0.000000 0.377257
O O15 0.500000 0.864956 0.095552
O O16 0.500000 0.086217 0.808191
O O17 0.769657 0.000000 0.792729
#
# Coordination Sequence:
#
# PCOD9356353 Si02
#       7
#     8   8   8   4   4   8   8
#     4   9  18  32  50  72  99 132 168 205 246 293
#     4  10  19  32  52  74 100 135 171 207 246 295
#     4   9  19  33  51  74 103 134 165 202 249 301
#     4  10  20  30  48  78 106 131 162 203 246 297
#     4  10  18  32  52  74 102 131 164 205 248 297
#     4  10  20  33  50  75 106 135 165 203 249 299
#     4   9  18  33  54  77 101 131 167 208 252 297
#
# _framework density 19.193531
#
# number of rings (size 3 to 8) (size 9 to 14) (size 15 to 20)
#    0.000    2.500    1.667    0.500    1.167    2.333 
#    0.000    0.000    1.833    0.000    0.000    0.000 
#    0.000    0.000    0.000    0.000    0.000    0.000 
#
# Total GULP energy -133859.021554 kJ/mol
# GULP energy per Si atom -5577.459231 kJ/mol
# Density = 1.914985 g / cm^3
# Si number density = 19.193531 Si / 1000 Ang^3
#
#
#
# Elastic Constant Matrix: (Units=GPa)
#
#
# Indices 1 2 3 4 5 6 
#
# 1 25.3042 -9.1715 -12.3074 0.0000 0.0000 0.0000
# 2 -9.1715 118.8036 13.3847 0.0000 0.0000 0.0000
# 3 -12.3074 13.3847 50.9876 0.0000 0.0000 0.0000
# 4 0.0000 0.0000 0.0000 14.6110 0.0000 0.0000
# 5 0.0000 0.0000 0.0000 0.0000 1.1602 0.0000
# 6 0.0000 0.0000 0.0000 0.0000 0.0000 -1.1490
#
#
#
# Elastic Compliance Matrix: (Units=1/GPa)
#
#
# Indices 1 2 3 4 5 6 
#
# 1 0.045398 0.002339 0.010344 0.000000 0.000000 0.000000
# 2 0.002339 0.008794 -0.001744 0.000000 0.000000 0.000000
# 3 0.010344 -0.001744 0.022567 0.000000 0.000000 0.000000
# 4 0.000000 0.000000 0.000000 0.068442 0.000000 0.000000
# 5 0.000000 0.000000 0.000000 0.000000 0.861923 0.000000
# 6 0.000000 0.000000 0.000000 0.000000 0.000000 -0.870310
#
#
# Mechanical properties :
#
#
# Convention : Reuss Voigt Hill
#
# Bulk Modulus (GPa) = 10.13798 19.87854 15.00826
# Shear Modulus (GPa) = 33.82615 16.47041 25.14828
#
# Velocity S-wave (km/s) = 4.20262 2.93255 3.62366
# Velocity P-wave (km/s) = 5.37055 4.67396 5.03431
#
# Compressibility (1/GPa) = 0.09863894
#
# Stress axis : x y z
#
# Youngs Moduli (GPa) = 22.02730 113.70976 44.31194
#
# Poissons Ratio (x) = -0.26600 -0.45837
# Poissons Ratio (y) = -0.05153 0.07728
# Poissons Ratio (z) = -0.22785 0.19830
#
# Static dielectric constant tensor:
#      x y z
#    x 1.700740 0.000000 0.000000 
#    y 0.000000 1.683610 0.000000 
#    z 0.000000 0.000000 1.649850 
# 
# From -- ./inp_files/16663.got.cif
#   From: 2010.05.17/outbox.cif.g08.bks.cpg/sg38_9_cif.got.tgz:16663.got - 2010.06.03 18:07:57.
