data_PCOD9356354
_publ_section_title
;
Structure prediction by ZEFSAII (Michael W. Deem and Ramdas Pophale) SiO2 
 PCOD9356354
Probable space group: A M M 2
;
_chemical_formula_sum "Si O2"
_cell_formula_units_Z 56
_cell_length_a 7.742338
_cell_length_b 23.381177
_cell_length_c 14.827363
_cell_angle_alpha 90.000000
_cell_angle_beta 90.000000
_cell_angle_gamma 90.000000
_cell_volume 2684.123019
_symmetry_space_group_name_H-M "A M M 2"
_symmetry_group_IT_number 38
_symmetry_cell_setting 'orthorhombic'
loop_
_space_group_symop_operation_xyz
x,y,z
-x,-y,z
-x,y,z
x,-y,z
x,1/2+y,1/2+z
-x,1/2-y,1/2+z
-x,1/2+y,1/2+z
x,1/2-y,1/2+z
loop_
_atom_site_type_symbol
_atom_site_label
_atom_site_fract_x
_atom_site_fract_y
_atom_site_fract_z
Si Si1 0.211419 0.110607 0.267250
Si Si2 0.787437 0.500000 0.445908
Si Si3 0.208351 0.648401 0.956077
Si Si4 0.302763 0.853471 0.660899
Si Si5 0.788771 0.500000 0.654993
Si Si6 0.207602 0.778788 0.157816
Si Si7 0.800082 0.113148 0.847800
Si Si8 0.209159 0.778189 0.950576
O O1 0.264627 0.109925 0.371951
O O2 0.267277 0.170728 0.222930
O O3 0.000000 0.110685 0.264876
O O4 0.267886 0.056731 0.208241
O O5 0.736014 0.500000 0.550612
O O6 0.726272 0.556776 0.394171
O O7 0.000000 0.500000 0.443700
O O8 0.272244 0.713403 0.938128
O O9 0.000000 0.649940 0.955042
O O10 0.257706 0.632357 0.057620
O O11 0.500000 0.867273 0.676308
O O12 0.275114 0.785146 0.672659
O O13 0.203785 0.885743 0.740043
O O14 0.000000 0.500000 0.655282
O O15 0.000000 0.774324 0.167104
O O16 0.244909 0.794829 0.054088
O O17 0.723507 0.172747 0.884854
O O18 0.000000 0.114516 0.876857
O O19 0.000000 0.774352 0.940024
#
# Coordination Sequence:
#
# PCOD9356354 Si02
#       8
#     8   4   8   8   4   8   8   8
#     4   9  16  27  49  77 106 135 163 197 247 299
#     4   9  18  30  50  79 108 132 159 197 246 295
#     4   9  17  31  49  72 100 134 169 203 245 299
#     4  11  22  34  48  71  99 132 171 215 257 291
#     4   9  16  28  49  85 116 126 149 205 254 291
#     4   9  16  30  51  76 104 135 164 197 244 304
#     4  10  18  32  52  75 102 134 167 202 243 296
#     4   8  14  25  47  73  97 126 163 199 238 288
#
# _framework density 20.863424999999999
#
# number of rings (size 3 to 8) (size 9 to 14) (size 15 to 20)
#    0.000    2.714    0.000    3.857    0.000    5.714 
#    0.000    7.500    0.000    2.571    0.000    4.500 
#    0.000    0.000    0.000    0.000    0.000    0.000 
#
# Total GULP energy -156220.517665 kJ/mol
# GULP energy per Si atom -5579.304202 kJ/mol
# Density = 2.081594 g / cm^3
# Si number density = 20.863425 Si / 1000 Ang^3
#
#
#
# Elastic Constant Matrix: (Units=GPa)
#
#
# Indices 1 2 3 4 5 6 
#
# 1 27.0757 -0.2934 -4.9977 0.0000 0.0000 0.0000
# 2 -0.2934 50.5395 62.5502 0.0000 0.0000 0.0000
# 3 -4.9977 62.5502 128.6445 0.0000 0.0000 0.0000
# 4 0.0000 0.0000 0.0000 35.7328 0.0000 0.0000
# 5 0.0000 0.0000 0.0000 0.0000 -21.3462 0.0000
# 6 0.0000 0.0000 0.0000 0.0000 0.0000 -39.7076
#
#
#
# Elastic Compliance Matrix: (Units=1/GPa)
#
#
# Indices 1 2 3 4 5 6 
#
# 1 0.037517 -0.003983 0.003394 0.000000 0.000000 0.000000
# 2 -0.003983 0.050110 -0.024519 0.000000 0.000000 0.000000
# 3 0.003394 -0.024519 0.019827 0.000000 0.000000 0.000000
# 4 0.000000 0.000000 0.000000 0.027986 0.000000 0.000000
# 5 0.000000 0.000000 0.000000 0.000000 -0.046847 0.000000
# 6 0.000000 0.000000 0.000000 0.000000 0.000000 -0.025184
#
#
# Mechanical properties :
#
#
# Convention : Reuss Voigt Hill
#
# Bulk Modulus (GPa) = 17.47111 35.64198 26.55654
# Shear Modulus (GPa) = 37.67795 4.86917 21.27356
#
# Velocity S-wave (km/s) = 4.25424 1.52935 3.19667
# Velocity P-wave (km/s) = 5.70295 4.49879 5.13628
#
# Compressibility (1/GPa) = 0.05723735
#
# Stress axis : x y z
#
# Youngs Moduli (GPa) = 26.65475 19.95623 50.43598
#
# Poissons Ratio (x) = 0.07948 -0.17118
# Poissons Ratio (y) = 0.10616 1.23666
# Poissons Ratio (z) = -0.09047 0.48931
#
# Static dielectric constant tensor:
#      x y z
#    x 1.778480 0.000000 0.000000 
#    y 0.000000 1.733570 0.000000 
#    z 0.000000 0.000000 1.746160 
# 
# From -- ./inp_files/12499.got.cif
#   From: 2010.05.17/outbox.cif.g08.bks.cpg/sg38_7_cif.got.tgz:12499.got - 2010.06.03 18:07:57.
