data_PCOD9356123
_publ_section_title
;
Structure prediction by ZEFSAII (Michael W. Deem and Ramdas Pophale) SiO2 
 PCOD9356123
Probable space group: A M M 2
;
_chemical_formula_sum "Si O2"
_cell_formula_units_Z 56
_cell_length_a 15.812103
_cell_length_b 7.567612
_cell_length_c 21.089943
_cell_angle_alpha 90.000000
_cell_angle_beta 90.000000
_cell_angle_gamma 90.000000
_cell_volume 2523.619635
_symmetry_space_group_name_H-M "A M M 2"
_symmetry_group_IT_number 38
_symmetry_cell_setting 'orthorhombic'
loop_
_space_group_symop_operation_xyz
x,y,z
-x,-y,z
-x,y,z
x,-y,z
x,1/2+y,1/2+z
-x,1/2-y,1/2+z
-x,1/2+y,1/2+z
x,1/2-y,1/2+z
loop_
_atom_site_type_symbol
_atom_site_label
_atom_site_fract_x
_atom_site_fract_y
_atom_site_fract_z
Si Si1 0.274414 0.709137 0.035430
Si Si2 0.093154 0.212296 0.729342
Si Si3 0.849393 0.713538 0.368871
Si Si4 0.659828 0.796777 0.407380
Si Si5 0.273738 0.291432 0.675606
Si Si6 0.406696 0.716553 0.778188
Si Si7 0.909837 0.791430 0.505792
O O1 0.266912 0.500000 0.021516
O O2 0.303629 0.728200 0.106957
O O3 0.331322 0.782023 0.977938
O O4 0.178747 0.784029 0.030908
O O5 0.113424 0.271277 0.801435
O O6 0.174793 0.254700 0.687354
O O7 0.000000 0.276820 0.709352
O O8 0.089075 0.000000 0.730799
O O9 0.844150 0.500000 0.368913
O O10 0.755910 0.789878 0.380462
O O11 0.902990 0.770947 0.429786
O O12 0.605974 0.718339 0.350160
O O13 0.631343 0.000000 0.414338
O O14 0.284097 0.500000 0.676003
O O15 0.331577 0.219621 0.732638
O O16 0.500000 0.763000 0.754542
O O17 0.401812 0.500000 0.780368
O O18 0.000000 0.716664 0.527513
O O19 0.910661 0.000000 0.521743
#
# Coordination Sequence:
#
# PCOD9356123 Si02
#       7
#     8   8   8   8   8   8   8
#     4   9  19  34  53  76 108 147 181 219 274 328
#     4  10  21  35  51  74 109 152 189 223 273 329
#     4  10  18  29  49  77 109 140 174 223 280 325
#     4   9  17  34  58  81 105 138 181 222 265 322
#     4  11  22  36  56  82 112 145 185 230 273 321
#     4   9  18  35  61  88 111 139 179 226 275 328
#     4   9  18  32  50  72 100 140 189 232 269 318
#
# _framework density 22.190349000000001
#
# number of rings (size 3 to 8) (size 9 to 14) (size 15 to 20)
#    0.000    2.429    1.429    2.143    0.000    4.571 
#    0.000    2.143    0.000    4.714    0.000    0.000 
#    0.000    0.000    0.000    0.000    0.000    0.000 
#
# Total GULP energy -156223.419707 kJ/mol
# GULP energy per Si atom -5579.407847 kJ/mol
# Density = 2.213984 g / cm^3
# Si number density = 22.190349 Si / 1000 Ang^3
#
#
#
# Elastic Constant Matrix: (Units=GPa)
#
#
# Indices 1 2 3 4 5 6 
#
# 1 68.2505 -7.7217 41.0949 0.0000 0.0000 0.0000
# 2 -7.7217 51.9284 -4.8152 0.0000 0.0000 0.0000
# 3 41.0949 -4.8152 137.4241 0.0000 0.0000 0.0000
# 4 0.0000 0.0000 0.0000 21.7143 0.0000 0.0000
# 5 0.0000 0.0000 0.0000 0.0000 12.8275 0.0000
# 6 0.0000 0.0000 0.0000 0.0000 0.0000 -11.6861
#
#
#
# Elastic Compliance Matrix: (Units=1/GPa)
#
#
# Indices 1 2 3 4 5 6 
#
# 1 0.018116 0.002199 -0.005340 0.000000 0.000000 0.000000
# 2 0.002199 0.019587 0.000029 0.000000 0.000000 0.000000
# 3 -0.005340 0.000029 0.008875 0.000000 0.000000 0.000000
# 4 0.000000 0.000000 0.000000 0.046053 0.000000 0.000000
# 5 0.000000 0.000000 0.000000 0.000000 0.077958 0.000000
# 6 0.000000 0.000000 0.000000 0.000000 0.000000 -0.085572
#
#
# Mechanical properties :
#
#
# Convention : Reuss Voigt Hill
#
# Bulk Modulus (GPa) = 24.78191 34.96879 29.87535
# Shear Modulus (GPa) = 47.75872 19.84080 33.79976
#
# Velocity S-wave (km/s) = 4.64425 2.99343 3.90702
# Velocity P-wave (km/s) = 6.32067 5.26690 5.81769
#
# Compressibility (1/GPa) = 0.04035201
#
# Stress axis : x y z
#
# Youngs Moduli (GPa) = 55.19919 51.05455 112.67951
#
# Poissons Ratio (x) = -0.11225 0.60175
# Poissons Ratio (y) = -0.12136 -0.00325
# Poissons Ratio (z) = 0.29478 -0.00147
#
# Static dielectric constant tensor:
#      x y z
#    x 1.847220 0.000000 0.000000 
#    y 0.000000 1.905330 0.000000 
#    z 0.000000 0.000000 1.825380 
# 
# From -- ./inp_files/21081.got.cif
#   From: 2010.05.17/outbox.cif.g08.bks.cpg/sg38_11_cif.got.tgz:21081.got - 2010.06.03 18:07:57.
