data_PCOD9356741
_publ_section_title
;
Structure prediction by ZEFSAII (Michael W. Deem and Ramdas Pophale) SiO2 
 PCOD9356741
Probable space group: A M M 2
;
_chemical_formula_sum "Si O2"
_cell_formula_units_Z 32
_cell_length_a 5.372051
_cell_length_b 7.696105
_cell_length_c 36.341373
_cell_angle_alpha 90.000000
_cell_angle_beta 90.000000
_cell_angle_gamma 90.000000
_cell_volume 1502.492949
_symmetry_space_group_name_H-M "A M M 2"
_symmetry_group_IT_number 38
_symmetry_cell_setting 'orthorhombic'
loop_
_space_group_symop_operation_xyz
x,y,z
-x,-y,z
-x,y,z
x,-y,z
x,1/2+y,1/2+z
-x,1/2-y,1/2+z
-x,1/2+y,1/2+z
x,1/2-y,1/2+z
loop_
_atom_site_type_symbol
_atom_site_label
_atom_site_fract_x
_atom_site_fract_y
_atom_site_fract_z
Si Si1 0.500000 0.299358 0.082750
Si Si2 0.000000 0.787288 0.793839
Si Si3 0.500000 0.299759 0.665313
Si Si4 0.000000 0.208029 0.709356
Si Si5 0.500000 0.287499 0.420840
Si Si6 0.500000 0.212380 0.835880
Si Si7 0.000000 0.789563 0.962541
Si Si8 0.000000 0.293129 0.048296
O O1 0.500000 0.500000 0.069996
O O2 0.500000 0.299311 0.126725
O O3 0.249050 0.218698 0.066580
O O4 0.250025 0.732198 0.814866
O O5 0.000000 0.729003 0.751511
O O6 0.000000 0.000000 0.793737
O O7 0.500000 0.500000 0.654945
O O8 0.251223 0.262628 0.688531
O O9 0.000000 0.000000 0.710284
O O10 0.500000 0.500000 0.420892
O O11 0.500000 0.232456 0.378337
O O12 0.749917 0.231144 0.441745
O O13 0.500000 0.000000 0.835743
O O14 0.000000 0.732677 0.004740
O O15 0.000000 0.000000 0.961917
O O16 0.000000 0.500000 0.056281
#
# Coordination Sequence:
#
# PCOD9356741 Si02
#       8
#     4   4   4   4   4   4   4   4
#     4  10  21  38  58  79 105 140 181 225 277 333
#     4   9  17  28  48  77 105 137 180 227 271 319
#     4  12  25  40  60  89 119 150 191 237 289 345
#     4  11  22  39  61  86 118 155 194 237 289 345
#     4   9  17  28  45  72 106 139 170 213 271 325
#     4   9  15  26  44  72 108 137 170 223 275 315
#     4  10  19  31  48  73 104 138 173 211 265 327
#     4  10  21  36  55  78 103 136 179 223 269 323
#
# _framework density 21.297937999999998
#
# number of rings (size 3 to 8) (size 9 to 14) (size 15 to 20)
#    0.000    2.000    0.000    4.500    0.000    7.000 
#    0.000    0.000    0.000    0.000    0.000   17.500 
#    0.000    0.000    0.000    0.000    0.000    0.000 
#
# Total GULP energy -89434.315239 kJ/mol
# GULP energy per Si atom -5589.644702 kJ/mol
# Density = 2.124946 g / cm^3
# Si number density = 21.297938 Si / 1000 Ang^3
#
#
#
# Elastic Constant Matrix: (Units=GPa)
#
#
# Indices 1 2 3 4 5 6 
#
# 1 261.5246 -0.3441 124.6033 0.0000 0.0000 0.0000
# 2 -0.3441 38.0639 -27.1903 0.0000 0.0000 0.0000
# 3 124.6033 -27.1903 165.6552 0.0000 0.0000 0.0000
# 4 0.0000 0.0000 0.0000 18.3293 0.0000 0.0000
# 5 0.0000 0.0000 0.0000 0.0000 51.9350 0.0000
# 6 0.0000 0.0000 0.0000 0.0000 0.0000 5.8677
#
#
#
# Elastic Compliance Matrix: (Units=1/GPa)
#
#
# Indices 1 2 3 4 5 6 
#
# 1 0.006420 -0.003842 -0.005460 0.000000 0.000000 0.000000
# 2 -0.003842 0.032060 0.008152 0.000000 0.000000 0.000000
# 3 -0.005460 0.008152 0.011481 0.000000 0.000000 0.000000
# 4 0.000000 0.000000 0.000000 0.054557 0.000000 0.000000
# 5 0.000000 0.000000 0.000000 0.000000 0.019255 0.000000
# 6 0.000000 0.000000 0.000000 0.000000 0.000000 0.170424
#
#
# Mechanical properties :
#
#
# Convention : Reuss Voigt Hill
#
# Bulk Modulus (GPa) = 20.98075 73.26461 47.12268
# Shear Modulus (GPa) = 16.00593 39.77138 27.88866
#
# Velocity S-wave (km/s) = 2.74437 4.32601 3.62256
# Velocity P-wave (km/s) = 4.46257 7.70889 6.29847
#
# Compressibility (1/GPa) = 0.04766274
#
# Stress axis : x y z
#
# Youngs Moduli (GPa) = 155.76654 31.19131 87.09838
#
# Poissons Ratio (x) = 0.11983 0.47552
# Poissons Ratio (y) = 0.59844 -0.71003
# Poissons Ratio (z) = 0.85041 -0.25427
#
# Static dielectric constant tensor:
#      x y z
#    x 1.579690 0.000000 0.000000 
#    y 0.000000 1.805620 0.000000 
#    z 0.000000 0.000000 1.708140 
# 
# From -- ./inp_files/24048.got.cif
#   From: 2010.05.17/outbox.cif.g08.bks.cpg/sg38_13_cif.got.tgz:24048.got - 2010.06.03 18:07:57.
