data_PCOD9356699
_publ_section_title
;
Structure prediction by ZEFSAII (Michael W. Deem and Ramdas Pophale) SiO2 
 PCOD9356699
Probable space group: A M M 2
;
_chemical_formula_sum "Si O2"
_cell_formula_units_Z 46
_cell_length_a 27.469746
_cell_length_b 17.561034
_cell_length_c 5.026422
_cell_angle_alpha 90.000000
_cell_angle_beta 90.000000
_cell_angle_gamma 90.000000
_cell_volume 2424.731615
_symmetry_space_group_name_H-M "A M M 2"
_symmetry_group_IT_number 38
_symmetry_cell_setting 'orthorhombic'
loop_
_space_group_symop_operation_xyz
x,y,z
-x,-y,z
-x,y,z
x,-y,z
x,1/2+y,1/2+z
-x,1/2-y,1/2+z
-x,1/2+y,1/2+z
x,1/2-y,1/2+z
loop_
_atom_site_type_symbol
_atom_site_label
_atom_site_fract_x
_atom_site_fract_y
_atom_site_fract_z
Si Si1 0.947218 0.696960 0.811390
Si Si2 0.500000 0.000000 0.213907
Si Si3 0.311897 0.590017 0.330102
Si Si4 0.247609 0.909851 0.328467
Si Si5 0.602058 0.701052 0.166317
Si Si6 0.842928 0.196352 0.199556
Si Si7 0.500000 0.382732 0.214361
O O1 0.946368 0.768879 0.607988
O O2 0.895900 0.657735 0.748736
O O3 0.000000 0.658478 0.770419
O O4 0.500000 0.934093 0.978513
O O5 0.500000 0.934322 0.449987
O O6 0.323539 0.500000 0.315544
O O7 0.290899 0.607467 0.620636
O O8 0.358230 0.638570 0.248490
O O9 0.268416 0.605216 0.121326
O O10 0.200990 0.860137 0.257993
O O11 0.236921 0.000000 0.304030
O O12 0.608737 0.772252 0.364240
O O13 0.548490 0.667957 0.209748
O O14 0.840355 0.266587 0.408259
#
# Coordination Sequence:
#
# PCOD9356699 Si02
#       7
#     8   2   8   8   8   8   4
#     4   8  14  25  41  66  99 130 167 216 268 316
#     4  10  24  40  68  96 116 154 202 234 256 324
#     4  10  23  40  58  82 110 149 190 227 267 335
#     4  10  21  38  54  76 111 145 180 227 280 324
#     4  12  25  42  65  92 124 153 183 234 294 338
#     4  10  19  30  51  78 101 136 180 225 268 324
#     4  11  24  45  64  97 123 154 192 232 285 333
#
# _framework density 18.971173
#
# number of rings (size 3 to 8) (size 9 to 14) (size 15 to 20)
#    0.000    1.913    0.000    3.652    2.435    4.174 
#    3.130    0.000    0.000    0.522    0.000    0.000 
#    0.000   18.087    0.000    0.000    0.000    2.783 
#
# Total GULP energy -128106.696169 kJ/mol
# GULP energy per Si atom -5569.856355 kJ/mol
# Density = 1.892799 g / cm^3
# Si number density = 18.971173 Si / 1000 Ang^3
#
#
#
# Elastic Constant Matrix: (Units=GPa)
#
#
# Indices 1 2 3 4 5 6 
#
# 1 115.2444 38.6684 -21.6718 0.0000 0.0000 0.0000
# 2 38.6684 28.7490 1.3739 0.0000 0.0000 0.0000
# 3 -21.6718 1.3739 86.9414 0.0000 0.0000 0.0000
# 4 0.0000 0.0000 0.0000 21.2743 0.0000 0.0000
# 5 0.0000 0.0000 0.0000 0.0000 11.7409 0.0000
# 6 0.0000 0.0000 0.0000 0.0000 0.0000 -45.5943
#
#
#
# Elastic Compliance Matrix: (Units=1/GPa)
#
#
# Indices 1 2 3 4 5 6 
#
# 1 0.017585 -0.023880 0.004761 0.000000 0.000000 0.000000
# 2 -0.023880 0.067238 -0.007015 0.000000 0.000000 0.000000
# 3 0.004761 -0.007015 0.012800 0.000000 0.000000 0.000000
# 4 0.000000 0.000000 0.000000 0.047005 0.000000 0.000000
# 5 0.000000 0.000000 0.000000 0.000000 0.085172 0.000000
# 6 0.000000 0.000000 0.000000 0.000000 0.000000 -0.021933
#
#
# Mechanical properties :
#
#
# Convention : Reuss Voigt Hill
#
# Bulk Modulus (GPa) = 22.04855 29.74174 25.89514
# Shear Modulus (GPa) = 18.16505 11.65514 14.91009
#
# Velocity S-wave (km/s) = 3.09772 2.48132 2.80649
# Velocity P-wave (km/s) = 4.94387 4.89087 4.91744
#
# Compressibility (1/GPa) = 0.04535446
#
# Stress axis : x y z
#
# Youngs Moduli (GPa) = 56.86675 14.87250 78.12767
#
# Poissons Ratio (x) = 0.35515 -0.37195
# Poissons Ratio (y) = 1.35797 0.54807
# Poissons Ratio (z) = -0.27073 0.10433
#
# Static dielectric constant tensor:
#      x y z
#    x 1.685050 0.000000 0.000000 
#    y 0.000000 1.626740 0.000000 
#    z 0.000000 0.000000 1.644600 
# 
# From -- ./inp_files/2197.got.cif
#   From: 2010.05.17/outbox.cif.g08.bks.cpg/sg38_2_cif.got.tgz:2197.got - 2010.06.03 18:07:57.
