data_PCOD9356105
_publ_section_title
;
Structure prediction by ZEFSAII (Michael W. Deem and Ramdas Pophale) SiO2 
 PCOD9356105
Probable space group: A M M 2
;
_chemical_formula_sum "Si O2"
_cell_formula_units_Z 64
_cell_length_a 15.099912
_cell_length_b 7.520453
_cell_length_c 25.898349
_cell_angle_alpha 90.000000
_cell_angle_beta 90.000000
_cell_angle_gamma 90.000000
_cell_volume 2940.969339
_symmetry_space_group_name_H-M "A M M 2"
_symmetry_group_IT_number 38
_symmetry_cell_setting 'orthorhombic'
loop_
_space_group_symop_operation_xyz
x,y,z
-x,-y,z
-x,y,z
x,-y,z
x,1/2+y,1/2+z
-x,1/2-y,1/2+z
-x,1/2+y,1/2+z
x,1/2-y,1/2+z
loop_
_atom_site_type_symbol
_atom_site_label
_atom_site_fract_x
_atom_site_fract_y
_atom_site_fract_z
Si Si1 0.778949 0.287125 0.169960
Si Si2 0.597616 0.787107 0.123592
Si Si3 0.660891 0.788030 0.010770
Si Si4 0.791045 0.285489 0.868851
Si Si5 0.596042 0.786482 0.398730
Si Si6 0.146398 0.299284 0.975660
Si Si7 0.905296 0.216885 0.582435
Si Si8 0.101818 0.712752 0.264719
O O1 0.788462 0.500000 0.170293
O O2 0.675196 0.251929 0.164110
O O3 0.825765 0.218991 0.117762
O O4 0.835363 0.218768 0.218404
O O5 0.500000 0.720337 0.137622
O O6 0.593058 0.000000 0.119863
O O7 0.623086 0.724485 0.065598
O O8 0.602604 0.754914 0.959869
O O9 0.753267 0.695769 0.997197
O O10 0.675975 0.000000 0.014361
O O11 0.787056 0.500000 0.874182
O O12 0.688430 0.222068 0.872879
O O13 0.843872 0.216582 0.919295
O O14 0.845153 0.244724 0.817620
O O15 0.500000 0.720762 0.379461
O O16 0.596107 0.000000 0.393056
O O17 0.111602 0.500000 0.968805
O O18 0.097374 0.214927 0.024043
O O19 0.000000 0.258232 0.607122
O O20 0.899227 0.000000 0.579228
O O21 0.095259 0.500000 0.258184
O O22 0.000000 0.780489 0.265000
#
# Coordination Sequence:
#
# PCOD9356105 Si02
#       8
#     8   8   8   8   8   8   8   8
#     4  10  20  36  58  80 104 136 181 229 268 314
#     4  10  21  35  51  76 112 149 180 213 263 324
#     4  10  18  29  48  75 111 149 182 214 256 314
#     4   9  19  34  54  81 110 140 180 225 266 314
#     4   9  18  33  53  78 109 144 183 224 263 309
#     4   9  17  31  51  77 109 142 179 219 262 313
#     4   9  16  28  51  80 106 134 170 216 269 318
#     4  10  22  40  60  81 105 137 179 226 275 325
#
# _framework density 21.761531999999999
#
# number of rings (size 3 to 8) (size 9 to 14) (size 15 to 20)
#    0.000    2.500    1.250    1.875    0.000    6.250 
#    0.000    1.875    0.000    4.500    0.000    0.000 
#    0.000    0.000    0.000    0.000    0.000    0.000 
#
# Total GULP energy -178463.010980 kJ/mol
# GULP energy per Si atom -5576.969093 kJ/mol
# Density = 2.171200 g / cm^3
# Si number density = 21.761532 Si / 1000 Ang^3
#
#
#
# Elastic Constant Matrix: (Units=GPa)
#
#
# Indices 1 2 3 4 5 6 
#
# 1 172.5156 1.3452 89.2486 0.0000 0.0000 0.0000
# 2 1.3452 61.3751 0.7255 0.0000 0.0000 0.0000
# 3 89.2486 0.7255 139.7414 0.0000 0.0000 0.0000
# 4 0.0000 0.0000 0.0000 16.2415 0.0000 0.0000
# 5 0.0000 0.0000 0.0000 0.0000 17.0694 0.0000
# 6 0.0000 0.0000 0.0000 0.0000 0.0000 92.5832
#
#
#
# Elastic Compliance Matrix: (Units=1/GPa)
#
#
# Indices 1 2 3 4 5 6 
#
# 1 0.008658 -0.000124 -0.005529 0.000000 0.000000 0.000000
# 2 -0.000124 0.016296 -0.000005 0.000000 0.000000 0.000000
# 3 -0.005529 -0.000005 0.010687 0.000000 0.000000 0.000000
# 4 0.000000 0.000000 0.000000 0.061571 0.000000 0.000000
# 5 0.000000 0.000000 0.000000 0.000000 0.058584 0.000000
# 6 0.000000 0.000000 0.000000 0.000000 0.000000 0.010801
#
#
# Mechanical properties :
#
#
# Convention : Reuss Voigt Hill
#
# Bulk Modulus (GPa) = 41.11121 61.80785 51.45953
# Shear Modulus (GPa) = 26.87852 43.99966 35.43909
#
# Velocity S-wave (km/s) = 3.51827 4.50143 4.03987
# Velocity P-wave (km/s) = 5.95290 7.44857 6.74234
#
# Compressibility (1/GPa) = 0.02432427
#
# Stress axis : x y z
#
# Youngs Moduli (GPa) = 115.50260 61.36461 93.56985
#
# Poissons Ratio (x) = 0.00763 0.51733
# Poissons Ratio (y) = 0.01437 0.00048
# Poissons Ratio (z) = 0.63859 0.00032
#
# Static dielectric constant tensor:
#      x y z
#    x 1.848060 0.000000 0.000000 
#    y 0.000000 1.851090 0.000000 
#    z 0.000000 0.000000 1.786150 
# 
# From -- ./inp_files/22955.got.cif
#   From: 2010.05.17/outbox.cif.g08.bks.cpg/sg38_12_cif.got.tgz:22955.got - 2010.06.03 18:07:57.
