data_PCOD9356006
_publ_section_title
;
Structure prediction by ZEFSAII (Michael W. Deem and Ramdas Pophale) SiO2 
 PCOD9356006
Probable space group: A M M 2
;
_chemical_formula_sum "Si O2"
_cell_formula_units_Z 48
_cell_length_a 7.454492
_cell_length_b 14.822947
_cell_length_c 18.506182
_cell_angle_alpha 90.000000
_cell_angle_beta 90.000000
_cell_angle_gamma 90.000000
_cell_volume 2044.887583
_symmetry_space_group_name_H-M "A M M 2"
_symmetry_group_IT_number 38
_symmetry_cell_setting 'orthorhombic'
loop_
_space_group_symop_operation_xyz
x,y,z
-x,-y,z
-x,y,z
x,-y,z
x,1/2+y,1/2+z
-x,1/2-y,1/2+z
-x,1/2+y,1/2+z
x,1/2-y,1/2+z
loop_
_atom_site_type_symbol
_atom_site_label
_atom_site_fract_x
_atom_site_fract_y
_atom_site_fract_z
Si Si1 0.208278 0.403576 0.534960
Si Si2 0.779488 0.701051 0.999295
Si Si3 0.709827 0.163133 0.184861
Si Si4 0.215760 0.202339 0.341349
Si Si5 0.202119 0.636713 0.146668
Si Si6 0.219530 0.403700 0.302173
O O1 0.286952 0.500000 0.511484
O O2 0.279138 0.305908 0.509798
O O3 0.218244 0.400970 0.622389
O O4 0.000000 0.403661 0.512044
O O5 0.726350 0.669027 0.919950
O O6 0.000000 0.701729 0.003723
O O7 0.716388 0.640924 0.066889
O O8 0.500000 0.174510 0.170755
O O9 0.731123 0.146821 0.270109
O O10 0.804950 0.258021 0.169175
O O11 0.277276 0.307317 0.333725
O O12 0.000000 0.204180 0.341412
O O13 0.282964 0.595154 0.218684
O O14 0.000000 0.601326 0.140165
O O15 0.270643 0.500000 0.336070
O O16 0.000000 0.400926 0.301954
#
# Coordination Sequence:
#
# PCOD9356006 Si02
#       6
#     8   8   8   8   8   8
#     4   9  17  30  48  69  92 116 143 179 225 272
#     4   8  14  25  43  65  85 109 140 173 211 256
#     4  10  18  28  43  62  85 115 152 185 211 249
#     4   9  16  27  43  62  87 115 142 175 214 259
#     4   8  14  27  44  60  80 108 143 179 215 256
#     4   8  13  21  37  61  83 103 130 166 206 246
#
# _framework density 23.473174
#
# number of rings (size 3 to 8) (size 9 to 14) (size 15 to 20)
#    0.000    3.333    0.000    3.500    0.000    1.000 
#    0.000    6.667    0.000    9.000    0.000    4.667 
#    0.000    0.000    0.000    0.000    0.000    0.000 
#
# Total GULP energy -133688.119833 kJ/mol
# GULP energy per Si atom -5570.338326 kJ/mol
# Density = 2.341975 g / cm^3
# Si number density = 23.473174 Si / 1000 Ang^3
#
#
#
# Elastic Constant Matrix: (Units=GPa)
#
#
# Indices 1 2 3 4 5 6 
#
# 1 81.9008 -2.2565 -9.4555 0.0000 0.0000 0.0000
# 2 -2.2565 31.8907 -14.9390 0.0000 0.0000 0.0000
# 3 -9.4555 -14.9390 149.1743 0.0000 0.0000 0.0000
# 4 0.0000 0.0000 0.0000 -0.8481 0.0000 0.0000
# 5 0.0000 0.0000 0.0000 0.0000 -29.4273 0.0000
# 6 0.0000 0.0000 0.0000 0.0000 0.0000 2.8819
#
#
#
# Elastic Compliance Matrix: (Units=1/GPa)
#
#
# Indices 1 2 3 4 5 6 
#
# 1 0.012351 0.001302 0.000913 0.000000 0.000000 0.000000
# 2 0.001302 0.033038 0.003391 0.000000 0.000000 0.000000
# 3 0.000913 0.003391 0.007101 0.000000 0.000000 0.000000
# 4 0.000000 0.000000 0.000000 -1.179172 0.000000 0.000000
# 5 0.000000 0.000000 0.000000 0.000000 -0.033982 0.000000
# 6 0.000000 0.000000 0.000000 0.000000 0.000000 0.346989
#
#
# Mechanical properties :
#
#
# Convention : Reuss Voigt Hill
#
# Bulk Modulus (GPa) = 15.69808 23.29598 19.49703
# Shear Modulus (GPa) = -6.22159 13.82910 3.80375
#
# Velocity S-wave (km/s) = -1.62981 2.42986 1.27436
# Velocity P-wave (km/s) = 1.77778 4.22118 3.23874
#
# Compressibility (1/GPa) = 0.06370207
#
# Stress axis : x y z
#
# Youngs Moduli (GPa) = 80.96385 30.26843 140.82425
#
# Poissons Ratio (x) = -0.03940 -0.12861
# Poissons Ratio (y) = -0.10539 -0.47754
# Poissons Ratio (z) = -0.07394 -0.10264
#
# Static dielectric constant tensor:
#      x y z
#    x 1.927940 0.000000 0.000000 
#    y 0.000000 1.889150 0.000000 
#    z 0.000000 0.000000 1.943830 
# 
# From -- ./inp_files/16847.got.cif
#   From: 2010.05.17/outbox.cif.g08.bks.cpg/sg38_9_cif.got.tgz:16847.got - 2010.06.03 18:07:57.
