data_PCOD9356420
_publ_section_title
;
Structure prediction by ZEFSAII (Michael W. Deem and Ramdas Pophale) SiO2 
 PCOD9356420
Probable space group: A M M 2
;
_chemical_formula_sum "Si O2"
_cell_formula_units_Z 48
_cell_length_a 14.647903
_cell_length_b 7.538157
_cell_length_c 20.866096
_cell_angle_alpha 90.000000
_cell_angle_beta 90.000000
_cell_angle_gamma 90.000000
_cell_volume 2303.996606
_symmetry_space_group_name_H-M "A M M 2"
_symmetry_group_IT_number 38
_symmetry_cell_setting 'orthorhombic'
loop_
_space_group_symop_operation_xyz
x,y,z
-x,-y,z
-x,y,z
x,-y,z
x,1/2+y,1/2+z
-x,1/2-y,1/2+z
-x,1/2+y,1/2+z
x,1/2-y,1/2+z
loop_
_atom_site_type_symbol
_atom_site_label
_atom_site_fract_x
_atom_site_fract_y
_atom_site_fract_z
Si Si1 0.305419 0.285017 0.538310
Si Si2 0.500000 0.783256 0.991353
Si Si3 0.701284 0.212690 0.295684
Si Si4 0.000000 0.784208 0.477492
Si Si5 0.500000 0.709544 0.343951
Si Si6 0.200565 0.217505 0.166092
Si Si7 0.000000 0.289679 0.629598
Si Si8 0.185311 0.793492 0.416017
O O1 0.302694 0.500000 0.537206
O O2 0.409376 0.228268 0.528541
O O3 0.256324 0.227016 0.603101
O O4 0.250832 0.218774 0.476932
O O5 0.500000 0.000000 0.989492
O O6 0.500000 0.719013 0.917328
O O7 0.594032 0.245059 0.307833
O O8 0.745858 0.276408 0.229495
O O9 0.760878 0.283496 0.355421
O O10 0.710131 0.000000 0.295332
O O11 0.000000 0.734302 0.552497
O O12 0.089399 0.718078 0.440266
O O13 0.000000 0.000000 0.477291
O O14 0.500000 0.500000 0.350779
O O15 0.095481 0.278441 0.158720
O O16 0.199105 0.000000 0.166345
O O17 0.000000 0.500000 0.641656
O O18 0.167645 0.000000 0.400902
#
# Coordination Sequence:
#
# PCOD9356420 Si02
#       8
#     8   4   8   4   4   8   4   8
#     4  10  18  33  55  79 105 137 179 223 265 311
#     4   9  18  30  51  79 105 134 172 219 265 309
#     4  10  21  37  55  80 112 145 178 220 270 324
#     4  10  20  33  51  79 111 145 178 216 268 322
#     4  11  21  36  57  81 107 142 182 223 273 323
#     4   9  19  33  55  83 109 138 178 225 269 315
#     4  10  18  33  57  83 105 137 182 226 268 314
#     4  10  20  33  52  78 108 142 179 217 264 319
#
# _framework density 20.833362000000001
#
# number of rings (size 3 to 8) (size 9 to 14) (size 15 to 20)
#    0.000    2.167    3.333    0.250    0.000    1.333 
#    0.000    7.917    0.000    0.000    0.000    2.333 
#    0.000    0.000    0.000    0.000    0.000    0.000 
#
# Total GULP energy -133984.750511 kJ/mol
# GULP energy per Si atom -5582.697938 kJ/mol
# Density = 2.078594 g / cm^3
# Si number density = 20.833362 Si / 1000 Ang^3
#
#
#
# Elastic Constant Matrix: (Units=GPa)
#
#
# Indices 1 2 3 4 5 6 
#
# 1 202.6829 -4.6935 80.8139 0.0000 0.0000 0.0000
# 2 -4.6935 50.3352 -5.2267 0.0000 0.0000 0.0000
# 3 80.8139 -5.2267 151.0715 0.0000 0.0000 0.0000
# 4 0.0000 0.0000 0.0000 16.7250 0.0000 0.0000
# 5 0.0000 0.0000 0.0000 0.0000 34.5077 0.0000
# 6 0.0000 0.0000 0.0000 0.0000 0.0000 10.8806
#
#
#
# Elastic Compliance Matrix: (Units=1/GPa)
#
#
# Indices 1 2 3 4 5 6 
#
# 1 0.006274 0.000237 -0.003348 0.000000 0.000000 0.000000
# 2 0.000237 0.019947 0.000563 0.000000 0.000000 0.000000
# 3 -0.003348 0.000563 0.008430 0.000000 0.000000 0.000000
# 4 0.000000 0.000000 0.000000 0.059791 0.000000 0.000000
# 5 0.000000 0.000000 0.000000 0.000000 0.028979 0.000000
# 6 0.000000 0.000000 0.000000 0.000000 0.000000 0.091907
#
#
# Mechanical properties :
#
#
# Convention : Reuss Voigt Hill
#
# Bulk Modulus (GPa) = 33.83364 60.65302 47.24333
# Shear Modulus (GPa) = 21.71311 34.63571 28.17441
#
# Velocity S-wave (km/s) = 3.23186 4.08181 3.68145
# Velocity P-wave (km/s) = 5.49563 7.16879 6.38723
#
# Compressibility (1/GPa) = 0.02955638
#
# Stress axis : x y z
#
# Youngs Moduli (GPa) = 159.38073 50.13179 118.62519
#
# Poissons Ratio (x) = -0.01190 0.39717
# Poissons Ratio (y) = -0.03783 -0.06680
# Poissons Ratio (z) = 0.53363 -0.02823
#
# Static dielectric constant tensor:
#      x y z
#    x 1.748080 0.000000 0.000000 
#    y 0.000000 1.784110 0.000000 
#    z 0.000000 0.000000 1.705670 
# 
# From -- ./inp_files/18250.got.cif
#   From: 2010.05.17/outbox.cif.g08.bks.cpg/sg38_10_cif.got.tgz:18250.got - 2010.06.03 18:07:57.
