data_PCOD9356651
_publ_section_title
;
Structure prediction by ZEFSAII (Michael W. Deem and Ramdas Pophale) SiO2 
 PCOD9356651
Probable space group: A M M 2
;
_chemical_formula_sum "Si O2"
_cell_formula_units_Z 64
_cell_length_a 9.325446
_cell_length_b 21.567570
_cell_length_c 15.823029
_cell_angle_alpha 90.000000
_cell_angle_beta 90.000000
_cell_angle_gamma 90.000000
_cell_volume 3182.441667
_symmetry_space_group_name_H-M "A M M 2"
_symmetry_group_IT_number 38
_symmetry_cell_setting 'orthorhombic'
loop_
_space_group_symop_operation_xyz
x,y,z
-x,-y,z
-x,y,z
x,-y,z
x,1/2+y,1/2+z
-x,1/2-y,1/2+z
-x,1/2+y,1/2+z
x,1/2-y,1/2+z
loop_
_atom_site_type_symbol
_atom_site_label
_atom_site_fract_x
_atom_site_fract_y
_atom_site_fract_z
Si Si1 0.662896 0.255191 0.712080
Si Si2 0.831147 0.074944 0.979743
Si Si3 0.164513 0.424578 0.291759
Si Si4 0.828860 0.295216 0.870909
Si Si5 0.671757 0.570560 0.123014
Si Si6 0.337435 0.395869 0.645606
Si Si7 0.671908 0.691051 0.037425
Si Si8 0.171677 0.933016 0.307780
O O1 0.500000 0.235676 0.734183
O O2 0.763707 0.255611 0.793761
O O3 0.657215 0.325876 0.679580
O O4 0.710244 0.218719 0.628798
O O5 0.787360 0.095621 0.885197
O O6 0.000000 0.089812 0.990205
O O7 0.818824 0.000000 0.983703
O O8 0.737561 0.101709 0.054995
O O9 0.163435 0.500000 0.294680
O O10 0.260638 0.408121 0.211948
O O11 0.000000 0.404437 0.278938
O O12 0.790307 0.368141 0.853006
O O13 0.000000 0.289260 0.873675
O O14 0.756525 0.279644 0.960030
O O15 0.500000 0.571161 0.132249
O O16 0.718776 0.500000 0.106411
O O17 0.707467 0.618276 0.048897
O O18 0.500000 0.419708 0.640599
O O19 0.244657 0.430884 0.715897
O O20 0.500000 0.698411 0.025646
O O21 0.000000 0.931455 0.297990
O O22 0.210055 0.000000 0.348034
#
# Coordination Sequence:
#
# PCOD9356651 Si02
#       8
#     8   8   8   8   8   8   8   8
#     4   9  20  40  59  75 104 148 188 222 268 328
#     4   9  17  29  45  67 100 142 180 214 266 332
#     4   8  15  29  47  67  97 138 176 210 257 318
#     4  10  21  37  59  86 113 141 180 233 277 313
#     4   9  18  33  54  81 109 136 173 222 270 316
#     4  10  19  30  47  73 101 133 181 233 269 306
#     4  10  21  39  61  82 109 149 185 217 270 336
#     4   9  18  33  52  75 108 147 178 209 265 334
#
# _framework density 20.110344000000001
#
# number of rings (size 3 to 8) (size 9 to 14) (size 15 to 20)
#    0.000    2.750    0.000    1.875    0.000    5.000 
#    2.250    1.250    0.000    0.000    0.000    0.000 
#    0.000    0.000    0.000    0.000    0.000    0.000 
#
# Total GULP energy -178469.084678 kJ/mol
# GULP energy per Si atom -5577.158896 kJ/mol
# Density = 2.006457 g / cm^3
# Si number density = 20.110344 Si / 1000 Ang^3
#
#
#
# Elastic Constant Matrix: (Units=GPa)
#
#
# Indices 1 2 3 4 5 6 
#
# 1 33.0431 12.7436 56.9326 0.0000 0.0000 0.0000
# 2 12.7436 30.8706 18.6808 0.0000 0.0000 0.0000
# 3 56.9326 18.6808 134.4974 0.0000 0.0000 0.0000
# 4 0.0000 0.0000 0.0000 17.1019 0.0000 0.0000
# 5 0.0000 0.0000 0.0000 0.0000 32.5266 0.0000
# 6 0.0000 0.0000 0.0000 0.0000 0.0000 14.5715
#
#
#
# Elastic Compliance Matrix: (Units=1/GPa)
#
#
# Indices 1 2 3 4 5 6 
#
# 1 0.123206 -0.021072 -0.049226 0.000000 0.000000 0.000000
# 2 -0.021072 0.038970 0.003507 0.000000 0.000000 0.000000
# 3 -0.049226 0.003507 0.027785 0.000000 0.000000 0.000000
# 4 0.000000 0.000000 0.000000 0.058473 0.000000 0.000000
# 5 0.000000 0.000000 0.000000 0.000000 0.030744 0.000000
# 6 0.000000 0.000000 0.000000 0.000000 0.000000 0.068627
#
#
# Mechanical properties :
#
#
# Convention : Reuss Voigt Hill
#
# Bulk Modulus (GPa) = 17.73714 41.68057 29.70886
# Shear Modulus (GPa) = 9.99638 20.17694 15.08666
#
# Velocity S-wave (km/s) = 2.23194 3.17095 2.74194
# Velocity P-wave (km/s) = 3.93461 5.84615 4.98290
#
# Compressibility (1/GPa) = 0.05637887
#
# Stress axis : x y z
#
# Youngs Moduli (GPa) = 8.11647 25.66097 35.99015
#
# Poissons Ratio (x) = 0.54073 1.77166
# Poissons Ratio (y) = 0.17103 -0.12622
# Poissons Ratio (z) = 0.39954 -0.09000
#
# Static dielectric constant tensor:
#      x y z
#    x 1.684470 0.000000 0.000000 
#    y 0.000000 1.786800 0.000000 
#    z 0.000000 0.000000 1.678360 
# 
# From -- ./inp_files/12826.got.cif
#   From: 2010.05.17/outbox.cif.g08.bks.cpg/sg38_7_cif.got.tgz:12826.got - 2010.06.03 18:07:57.
