data_PCOD9356187
_publ_section_title
;
Structure prediction by ZEFSAII (Michael W. Deem and Ramdas Pophale) SiO2 
 PCOD9356187
Probable space group: A M M 2
;
_chemical_formula_sum "Si O2"
_cell_formula_units_Z 56
_cell_length_a 24.895852
_cell_length_b 7.456037
_cell_length_c 14.771732
_cell_angle_alpha 90.000000
_cell_angle_beta 90.000000
_cell_angle_gamma 90.000000
_cell_volume 2741.993796
_symmetry_space_group_name_H-M "A M M 2"
_symmetry_group_IT_number 38
_symmetry_cell_setting 'orthorhombic'
loop_
_space_group_symop_operation_xyz
x,y,z
-x,-y,z
-x,y,z
x,-y,z
x,1/2+y,1/2+z
-x,1/2-y,1/2+z
-x,1/2+y,1/2+z
x,1/2-y,1/2+z
loop_
_atom_site_type_symbol
_atom_site_label
_atom_site_fract_x
_atom_site_fract_y
_atom_site_fract_z
Si Si1 0.851076 0.213950 0.987610
Si Si2 0.234743 0.280360 0.631499
Si Si3 0.645113 0.791992 0.155330
Si Si4 0.559633 0.718953 0.796283
Si Si5 0.440301 0.783451 0.505851
Si Si6 0.147107 0.713846 0.774962
Si Si7 0.938697 0.219354 0.130532
O O1 0.851955 0.249523 0.881222
O O2 0.851095 0.000000 0.997454
O O3 0.798412 0.278294 0.042425
O O4 0.903286 0.277154 0.043828
O O5 0.235852 0.500000 0.629149
O O6 0.295815 0.215868 0.638307
O O7 0.199205 0.224295 0.718321
O O8 0.607844 0.713146 0.234424
O O9 0.607658 0.784315 0.067246
O O10 0.653776 0.000000 0.179935
O O11 0.500000 0.776866 0.765802
O O12 0.559543 0.500000 0.792417
O O13 0.566013 0.768603 0.901090
O O14 0.500000 0.724055 0.536190
O O15 0.439598 0.000000 0.509598
O O16 0.147011 0.500000 0.765523
O O17 0.094594 0.777020 0.719664
O O18 0.000000 0.280778 0.128849
O O19 0.939943 0.000000 0.130332
#
# Coordination Sequence:
#
# PCOD9356187 Si02
#       7
#     8   8   8   8   8   8   8
#     4   9  17  31  49  67  92 125 156 187 230 278
#     4   8  17  32  46  64  92 123 151 185 231 278
#     4  10  18  30  50  70  87 114 157 196 221 260
#     4   8  15  28  45  64  86 113 143 175 216 267
#     4   9  18  32  47  66  95 123 144 177 232 285
#     4   9  17  31  50  69  91 122 159 193 227 270
#     4   8  15  29  48  69  95 127 158 187 227 281
#
# _framework density 20.423096000000001
#
# number of rings (size 3 to 8) (size 9 to 14) (size 15 to 20)
#    0.000    3.286    0.000    3.000    0.000    2.571 
#    0.000    6.429    0.000    1.714    0.000    0.000 
#    0.000    0.000    0.000    0.000    0.000    0.000 
#
# Total GULP energy -156136.895764 kJ/mol
# GULP energy per Si atom -5576.317706 kJ/mol
# Density = 2.037661 g / cm^3
# Si number density = 20.423096 Si / 1000 Ang^3
#
#
#
# Elastic Constant Matrix: (Units=GPa)
#
#
# Indices 1 2 3 4 5 6 
#
# 1 223.6624 3.9454 107.4727 0.0000 0.0000 0.0000
# 2 3.9454 56.5058 -6.6949 0.0000 0.0000 0.0000
# 3 107.4727 -6.6949 161.5884 0.0000 0.0000 0.0000
# 4 0.0000 0.0000 0.0000 22.3367 0.0000 0.0000
# 5 0.0000 0.0000 0.0000 0.0000 25.2788 0.0000
# 6 0.0000 0.0000 0.0000 0.0000 0.0000 2.7271
#
#
#
# Elastic Compliance Matrix: (Units=1/GPa)
#
#
# Indices 1 2 3 4 5 6 
#
# 1 0.006626 -0.000990 -0.004448 0.000000 0.000000 0.000000
# 2 -0.000990 0.017932 0.001401 0.000000 0.000000 0.000000
# 3 -0.004448 0.001401 0.009205 0.000000 0.000000 0.000000
# 4 0.000000 0.000000 0.000000 0.044769 0.000000 0.000000
# 5 0.000000 0.000000 0.000000 0.000000 0.039559 0.000000
# 6 0.000000 0.000000 0.000000 0.000000 0.000000 0.366689
#
#
# Mechanical properties :
#
#
# Convention : Reuss Voigt Hill
#
# Bulk Modulus (GPa) = 38.92483 72.35587 55.64035
# Shear Modulus (GPa) = 9.97176 32.53742 21.25459
#
# Velocity S-wave (km/s) = 2.21206 3.99578 3.22951
# Velocity P-wave (km/s) = 5.06210 7.53616 6.41945
#
# Compressibility (1/GPa) = 0.02569054
#
# Stress axis : x y z
#
# Youngs Moduli (GPa) = 150.92773 55.76493 108.63861
#
# Poissons Ratio (x) = 0.05519 0.48320
# Poissons Ratio (y) = 0.14936 -0.15222
# Poissons Ratio (z) = 0.67129 -0.07814
#
# Static dielectric constant tensor:
#      x y z
#    x 1.716570 0.000000 0.000000 
#    y 0.000000 1.784040 0.000000 
#    z 0.000000 0.000000 1.710080 
# 
# From -- ./inp_files/10860.got.cif
#   From: 2010.05.17/outbox.cif.g08.bks.cpg/sg38_6_cif.got.tgz:10860.got - 2010.06.03 18:07:57.
