data_PCOD9356535
_publ_section_title
;
Structure prediction by ZEFSAII (Michael W. Deem and Ramdas Pophale) SiO2 
 PCOD9356535
Probable space group: A M M 2
;
_chemical_formula_sum "Si O2"
_cell_formula_units_Z 64
_cell_length_a 14.984674
_cell_length_b 7.931625
_cell_length_c 32.042594
_cell_angle_alpha 90.000000
_cell_angle_beta 90.000000
_cell_angle_gamma 90.000000
_cell_volume 3808.352494
_symmetry_space_group_name_H-M "A M M 2"
_symmetry_group_IT_number 38
_symmetry_cell_setting 'orthorhombic'
loop_
_space_group_symop_operation_xyz
x,y,z
-x,-y,z
-x,y,z
x,-y,z
x,1/2+y,1/2+z
-x,1/2-y,1/2+z
-x,1/2+y,1/2+z
x,1/2-y,1/2+z
loop_
_atom_site_type_symbol
_atom_site_label
_atom_site_fract_x
_atom_site_fract_y
_atom_site_fract_z
Si Si1 0.785570 0.206667 0.156870
Si Si2 0.896494 0.706556 0.737181
Si Si3 0.101925 0.697158 0.419753
Si Si4 0.401357 0.297642 0.026487
Si Si5 0.899337 0.200901 0.077330
Si Si6 0.599125 0.795985 0.123411
Si Si7 0.213729 0.801877 0.497694
Si Si8 0.891903 0.805160 0.328471
O O1 0.834224 0.260697 0.199194
O O2 0.841970 0.264572 0.116542
O O3 0.683299 0.261049 0.150590
O O4 0.786058 0.000000 0.156950
O O5 0.896702 0.500000 0.738391
O O6 0.864476 0.763480 0.783143
O O7 0.000000 0.756897 0.730480
O O8 0.097578 0.500000 0.429408
O O9 0.168019 0.776103 0.453155
O O10 0.132257 0.718482 0.371849
O O11 0.000000 0.766254 0.423245
O O12 0.500000 0.230510 0.015057
O O13 0.404901 0.500000 0.021464
O O14 0.387217 0.259134 0.075471
O O15 0.314579 0.232904 0.002013
O O16 0.848330 0.228508 0.034086
O O17 0.000000 0.270038 0.076205
O O18 0.905939 0.000000 0.083304
O O19 0.500000 0.738387 0.136403
O O20 0.599081 0.000000 0.123710
O O21 0.218526 0.000000 0.506187
O O22 0.000000 0.801798 0.326566
O O23 0.863868 0.000000 0.331636
#
# Coordination Sequence:
#
# PCOD9356535 Si02
#       8
#     8   8   8   8   8   8   8   8
#     4   9  15  24  39  61  88 116 145 178 214 252
#     4   8  13  22  39  63  87 111 142 179 216 254
#     4  10  20  32  46  64  88 117 146 177 216 262
#     4   9  18  32  47  62  82 110 144 182 222 261
#     4  10  19  29  41  59  87 122 154 179 206 247
#     4   9  16  26  42  63  85 111 145 185 222 253
#     4  11  21  31  45  64  86 114 146 180 218 258
#     4   8  14  26  44  64  84 107 141 184 221 253
#
# _framework density 16.805167000000001
#
# number of rings (size 3 to 8) (size 9 to 14) (size 15 to 20)
#    0.000    2.750    1.250    2.250    0.000    4.500 
#    0.000    0.000    0.000    1.500    0.000    2.625 
#    0.000    5.000    0.000    0.000    0.000    0.000 
#
# Total GULP energy -178280.695521 kJ/mol
# GULP energy per Si atom -5571.271735 kJ/mol
# Density = 1.676692 g / cm^3
# Si number density = 16.805167 Si / 1000 Ang^3
#
#
#
# Elastic Constant Matrix: (Units=GPa)
#
#
# Indices 1 2 3 4 5 6 
#
# 1 136.7877 5.4191 70.3330 0.0000 0.0000 0.0000
# 2 5.4191 10.4299 -5.8269 0.0000 0.0000 0.0000
# 3 70.3330 -5.8269 104.8848 0.0000 0.0000 0.0000
# 4 0.0000 0.0000 0.0000 14.0293 0.0000 0.0000
# 5 0.0000 0.0000 0.0000 0.0000 7.1946 0.0000
# 6 0.0000 0.0000 0.0000 0.0000 0.0000 9.2184
#
#
#
# Elastic Compliance Matrix: (Units=1/GPa)
#
#
# Indices 1 2 3 4 5 6 
#
# 1 0.012343 -0.011391 -0.008910 0.000000 0.000000 0.000000
# 2 -0.011391 0.109461 0.013719 0.000000 0.000000 0.000000
# 3 -0.008910 0.013719 0.016271 0.000000 0.000000 0.000000
# 4 0.000000 0.000000 0.000000 0.071280 0.000000 0.000000
# 5 0.000000 0.000000 0.000000 0.000000 0.138993 0.000000
# 6 0.000000 0.000000 0.000000 0.000000 0.000000 0.108479
#
#
# Mechanical properties :
#
#
# Convention : Reuss Voigt Hill
#
# Bulk Modulus (GPa) = 8.00559 43.55031 25.77795
# Shear Modulus (GPa) = 9.77277 18.23360 14.00318
#
# Velocity S-wave (km/s) = 2.41412 3.29751 2.88977
# Velocity P-wave (km/s) = 3.54185 6.36154 5.14849
#
# Compressibility (1/GPa) = 0.12491279
#
# Stress axis : x y z
#
# Youngs Moduli (GPa) = 81.01744 9.13570 61.45878
#
# Poissons Ratio (x) = 0.10406 0.54758
# Poissons Ratio (y) = 0.92284 -0.84317
# Poissons Ratio (z) = 0.72184 -0.12534
#
# Static dielectric constant tensor:
#      x y z
#    x 1.592150 0.000000 0.000000 
#    y 0.000000 1.612090 0.000000 
#    z 0.000000 0.000000 1.550330 
# 
# From -- ./inp_files/25056.got.cif
#   From: 2010.05.17/outbox.cif.g08.bks.cpg/sg38_13_cif.got.tgz:25056.got - 2010.06.03 18:07:57.
