data_PCOD9356792
_publ_section_title
;
Structure prediction by ZEFSAII (Michael W. Deem and Ramdas Pophale) SiO2 
 PCOD9356792
Probable space group: A M M 2
;
_chemical_formula_sum "Si O2"
_cell_formula_units_Z 64
_cell_length_a 8.766793
_cell_length_b 31.173900
_cell_length_c 14.541597
_cell_angle_alpha 90.000000
_cell_angle_beta 90.000000
_cell_angle_gamma 90.000000
_cell_volume 3974.147618
_symmetry_space_group_name_H-M "A M M 2"
_symmetry_group_IT_number 38
_symmetry_cell_setting 'orthorhombic'
loop_
_space_group_symop_operation_xyz
x,y,z
-x,-y,z
-x,y,z
x,-y,z
x,1/2+y,1/2+z
-x,1/2-y,1/2+z
-x,1/2+y,1/2+z
x,1/2-y,1/2+z
loop_
_atom_site_type_symbol
_atom_site_label
_atom_site_fract_x
_atom_site_fract_y
_atom_site_fract_z
Si Si1 0.318580 0.299167 0.153920
Si Si2 0.686078 0.048331 0.222913
Si Si3 0.818507 0.269296 0.336846
Si Si4 0.180631 0.283931 0.550131
Si Si5 0.820870 0.132134 0.520431
Si Si6 0.316951 0.049590 0.437022
Si Si7 0.325729 0.822874 0.349465
Si Si8 0.676470 0.864580 0.149644
O O1 0.500000 0.297332 0.161882
O O2 0.242267 0.298407 0.254381
O O3 0.262817 0.256581 0.098433
O O4 0.266098 0.340970 0.098076
O O5 0.500000 0.049493 0.222629
O O6 0.730485 0.055656 0.329846
O O7 0.737122 0.086735 0.156539
O O8 0.732784 0.000000 0.197341
O O9 0.788496 0.284410 0.440936
O O10 0.731112 0.224409 0.326577
O O11 0.000000 0.262937 0.326877
O O12 0.232849 0.328777 0.593977
O O13 0.000000 0.277826 0.563839
O O14 0.761800 0.084149 0.502014
O O15 0.782509 0.156995 0.425789
O O16 0.000000 0.132926 0.538614
O O17 0.500000 0.056124 0.440068
O O18 0.285711 0.000000 0.460684
O O19 0.500000 0.822372 0.384976
O O20 0.324283 0.849472 0.255786
O O21 0.500000 0.864655 0.117774
#
# Coordination Sequence:
#
# PCOD9356792 Si02
#       8
#     8   8   8   8   8   8   8   8
#     4  12  24  37  55  75 100 135 178 220 257 309
#     4   8  14  27  48  73 101 133 170 212 254 296
#     4  11  23  38  53  72 102 137 174 217 266 308
#     4  11  23  36  52  74 104 138 171 210 261 314
#     4  12  23  34  50  75 108 143 177 216 261 312
#     4   9  17  32  53  75 103 138 175 215 259 311
#     4  11  20  31  50  75 104 139 179 215 251 301
#     4  10  19  31  50  75 102 136 177 212 251 303
#
# _framework density 16.104081000000001
#
# number of rings (size 3 to 8) (size 9 to 14) (size 15 to 20)
#    0.000    1.500    3.750    4.125    0.000    2.250 
#    0.000    0.000    0.000    0.375    0.000    0.875 
#    0.000    3.000    0.000    0.000    0.000    0.000 
#
# Total GULP energy -178607.693006 kJ/mol
# GULP energy per Si atom -5581.490406 kJ/mol
# Density = 1.606743 g / cm^3
# Si number density = 16.104081 Si / 1000 Ang^3
#
#
#
# Elastic Constant Matrix: (Units=GPa)
#
#
# Indices 1 2 3 4 5 6 
#
# 1 48.1625 22.0046 17.8045 0.0000 0.0000 0.0000
# 2 22.0046 90.3738 15.3373 0.0000 0.0000 0.0000
# 3 17.8045 15.3373 45.5985 0.0000 0.0000 0.0000
# 4 0.0000 0.0000 0.0000 19.2158 0.0000 0.0000
# 5 0.0000 0.0000 0.0000 0.0000 32.8781 0.0000
# 6 0.0000 0.0000 0.0000 0.0000 0.0000 8.2008
#
#
#
# Elastic Compliance Matrix: (Units=1/GPa)
#
#
# Indices 1 2 3 4 5 6 
#
# 1 0.026178 -0.004920 -0.008567 0.000000 0.000000 0.000000
# 2 -0.004920 0.012660 -0.002337 0.000000 0.000000 0.000000
# 3 -0.008567 -0.002337 0.026062 0.000000 0.000000 0.000000
# 4 0.000000 0.000000 0.000000 0.052040 0.000000 0.000000
# 5 0.000000 0.000000 0.000000 0.000000 0.030415 0.000000
# 6 0.000000 0.000000 0.000000 0.000000 0.000000 0.121940
#
#
# Mechanical properties :
#
#
# Convention : Reuss Voigt Hill
#
# Bulk Modulus (GPa) = 30.07365 32.71417 31.39391
# Shear Modulus (GPa) = 16.02430 20.65816 18.34123
#
# Velocity S-wave (km/s) = 3.15786 3.58549 3.37845
# Velocity P-wave (km/s) = 5.65784 6.12367 5.89536
#
# Compressibility (1/GPa) = 0.03325170
#
# Stress axis : x y z
#
# Youngs Moduli (GPa) = 38.20030 78.99057 38.37072
#
# Poissons Ratio (x) = 0.38864 0.32871
# Poissons Ratio (y) = 0.18795 0.08967
# Poissons Ratio (z) = 0.32725 0.18461
#
# Static dielectric constant tensor:
#      x y z
#    x 1.540740 0.000000 0.000000 
#    y 0.000000 1.555990 0.000000 
#    z 0.000000 0.000000 1.528480 
# 
# From -- ./inp_files/13134.got.cif
#   From: 2010.05.17/outbox.cif.g08.bks.cpg/sg38_7_cif.got.tgz:13134.got - 2010.06.03 18:07:57.
