data_PCOD9356400
_publ_section_title
;
Structure prediction by ZEFSAII (Michael W. Deem and Ramdas Pophale) SiO2 
 PCOD9356400
Probable space group: A M M 2
;
_chemical_formula_sum "Si O2"
_cell_formula_units_Z 64
_cell_length_a 15.388376
_cell_length_b 7.605012
_cell_length_c 24.954400
_cell_angle_alpha 90.000000
_cell_angle_beta 90.000000
_cell_angle_gamma 90.000000
_cell_volume 2920.383091
_symmetry_space_group_name_H-M "A M M 2"
_symmetry_group_IT_number 38
_symmetry_cell_setting 'orthorhombic'
loop_
_space_group_symop_operation_xyz
x,y,z
-x,-y,z
-x,y,z
x,-y,z
x,1/2+y,1/2+z
-x,1/2-y,1/2+z
-x,1/2+y,1/2+z
x,1/2-y,1/2+z
loop_
_atom_site_type_symbol
_atom_site_label
_atom_site_fract_x
_atom_site_fract_y
_atom_site_fract_z
Si Si1 0.403468 0.785993 0.709590
Si Si2 0.902697 0.793489 0.225527
Si Si3 0.596044 0.786737 0.948212
Si Si4 0.208902 0.209558 0.325857
Si Si5 0.238680 0.211400 0.017096
Si Si6 0.099626 0.786744 0.931659
Si Si7 0.237584 0.206915 0.642004
Si Si8 0.399912 0.242429 0.829489
O O1 0.500000 0.755153 0.686815
O O2 0.325129 0.727762 0.671572
O O3 0.398565 0.694689 0.767649
O O4 0.396857 0.000000 0.719440
O O5 0.844899 0.724273 0.274567
O O6 0.847725 0.777820 0.171408
O O7 0.000000 0.719035 0.222390
O O8 0.910999 0.000000 0.237384
O O9 0.500000 0.760047 0.971792
O O10 0.599626 0.690972 0.890900
O O11 0.604194 0.000000 0.937027
O O12 0.673763 0.731294 0.986575
O O13 0.150278 0.229412 0.378420
O O14 0.298670 0.314732 0.330691
O O15 0.230662 0.000000 0.319917
O O16 0.238089 0.261065 0.078958
O O17 0.238719 0.000000 0.014960
O O18 0.155590 0.272620 0.982964
O O19 0.000000 0.726084 0.932061
O O20 0.098736 0.000000 0.931708
O O21 0.236550 0.000000 0.651219
O O22 0.500000 0.170317 0.829198
#
# Coordination Sequence:
#
# PCOD9356400 Si02
#       8
#     8   8   8   8   8   8   8   8
#     4   9  18  33  55  84 118 154 189 231 286 343
#     4  10  22  41  62  84 114 153 192 232 288 351
#     4   9  17  31  55  85 114 148 193 239 280 335
#     4  11  22  37  60  90 125 155 183 227 288 351
#     4  10  21  38  58  81 114 153 196 240 290 343
#     4  10  22  40  62  87 113 148 196 243 287 341
#     4  11  23  38  59  86 116 149 196 247 288 335
#     4  10  18  32  57  88 120 151 187 230 282 341
#
# _framework density 21.914933000000001
#
# number of rings (size 3 to 8) (size 9 to 14) (size 15 to 20)
#    0.000    2.000    2.500    1.125    0.000    5.250 
#    0.000    1.250    0.000    1.125    0.000    0.000 
#    0.000    0.000    0.000    0.000    0.000    0.000 
#
# Total GULP energy -178228.986362 kJ/mol
# GULP energy per Si atom -5569.655824 kJ/mol
# Density = 2.186505 g / cm^3
# Si number density = 21.914933 Si / 1000 Ang^3
#
#
#
# Elastic Constant Matrix: (Units=GPa)
#
#
# Indices 1 2 3 4 5 6 
#
# 1 243.5049 22.8023 90.1916 0.0000 0.0000 0.0000
# 2 22.8023 65.4505 2.3043 0.0000 0.0000 0.0000
# 3 90.1916 2.3043 140.4804 0.0000 0.0000 0.0000
# 4 0.0000 0.0000 0.0000 -92.1678 0.0000 0.0000
# 5 0.0000 0.0000 0.0000 0.0000 2.9397 0.0000
# 6 0.0000 0.0000 0.0000 0.0000 0.0000 -12.5021
#
#
#
# Elastic Compliance Matrix: (Units=1/GPa)
#
#
# Indices 1 2 3 4 5 6 
#
# 1 0.005598 -0.001825 -0.003564 0.000000 0.000000 0.000000
# 2 -0.001825 0.015882 0.000911 0.000000 0.000000 0.000000
# 3 -0.003564 0.000911 0.009392 0.000000 0.000000 0.000000
# 4 0.000000 0.000000 0.000000 -0.010850 0.000000 0.000000
# 5 0.000000 0.000000 0.000000 0.000000 0.340174 0.000000
# 6 0.000000 0.000000 0.000000 0.000000 0.000000 -0.079987
#
#
# Mechanical properties :
#
#
# Convention : Reuss Voigt Hill
#
# Bulk Modulus (GPa) = 45.62799 75.55912 60.59355
# Shear Modulus (GPa) = 16.86512 1.92981 9.39746
#
# Velocity S-wave (km/s) = 2.77713 0.93942 2.07303
# Velocity P-wave (km/s) = 5.58112 5.97745 5.78268
#
# Compressibility (1/GPa) = 0.02191637
#
# Stress axis : x y z
#
# Youngs Moduli (GPa) = 178.64918 62.96302 106.47877
#
# Poissons Ratio (x) = 0.11489 0.37947
# Poissons Ratio (y) = 0.32597 -0.09700
# Poissons Ratio (z) = 0.63668 -0.05736
#
# Static dielectric constant tensor:
#      x y z
#    x 1.793890 0.000000 0.000000 
#    y 0.000000 2.120180 0.000000 
#    z 0.000000 0.000000 1.741770 
# 
# From -- ./inp_files/22870.got.cif
#   From: 2010.05.17/outbox.cif.g08.bks.cpg/sg38_12_cif.got.tgz:22870.got - 2010.06.03 18:07:57.
