data_PCOD9356439
_publ_section_title
;
Structure prediction by ZEFSAII (Michael W. Deem and Ramdas Pophale) SiO2 
 PCOD9356439
Probable space group: A M M 2
;
_chemical_formula_sum "Si O2"
_cell_formula_units_Z 48
_cell_length_a 8.509441
_cell_length_b 14.935076
_cell_length_c 20.985151
_cell_angle_alpha 90.000000
_cell_angle_beta 90.000000
_cell_angle_gamma 90.000000
_cell_volume 2666.984962
_symmetry_space_group_name_H-M "A M M 2"
_symmetry_group_IT_number 38
_symmetry_cell_setting 'orthorhombic'
loop_
_space_group_symop_operation_xyz
x,y,z
-x,-y,z
-x,y,z
x,-y,z
x,1/2+y,1/2+z
-x,1/2-y,1/2+z
-x,1/2+y,1/2+z
x,1/2-y,1/2+z
loop_
_atom_site_type_symbol
_atom_site_label
_atom_site_fract_x
_atom_site_fract_y
_atom_site_fract_z
Si Si1 0.688292 0.312802 0.457000
Si Si2 0.689929 0.194094 0.200948
Si Si3 0.309861 0.500000 0.653746
Si Si4 0.308575 0.693992 0.075586
Si Si5 0.810006 0.000000 0.761529
Si Si6 0.812004 0.690934 0.317690
Si Si7 0.690242 0.000000 0.616857
Si Si8 0.813040 0.000000 0.009047
O O1 0.500000 0.314601 0.458584
O O2 0.744071 0.244332 0.511899
O O3 0.744469 0.287293 0.386847
O O4 0.749866 0.411072 0.475090
O O5 0.500000 0.197744 0.204518
O O6 0.736427 0.091081 0.189557
O O7 0.738999 0.250471 0.138383
O O8 0.758234 0.240164 0.263489
O O9 0.500000 0.500000 0.648111
O O10 0.243323 0.500000 0.582308
O O11 0.500000 0.694332 0.074949
O O12 0.256775 0.591531 0.083265
O O13 0.758722 0.090950 0.796622
O O14 0.747037 0.000000 0.689675
O O15 0.000000 0.000000 0.759606
O O16 0.000000 0.689939 0.321054
O O17 0.500000 0.000000 0.617514
O O18 0.000000 0.000000 0.006361
#
# Coordination Sequence:
#
# PCOD9356439 Si02
#       8
#     8   8   4   8   4   8   4   4
#     4  11  22  39  59  82 114 156 197 235 283 346
#     4  10  19  36  60  85 111 148 194 238 282 338
#     4  10  20  37  60  85 116 149 194 243 286 343
#     4   9  18  33  58  86 111 140 187 239 279 329
#     4  10  21  35  52  78 115 147 176 220 279 338
#     4  11  23  38  55  83 120 153 187 235 290 346
#     4  10  18  33  58  87 112 137 178 233 282 328
#     4  12  23  35  56  88 121 149 184 240 303 351
#
# _framework density 17.997852000000002
#
# number of rings (size 3 to 8) (size 9 to 14) (size 15 to 20)
#    0.000    1.667    3.333    2.250    0.000    2.000 
#    0.000    2.500    0.000    3.000    0.000    0.000 
#    0.000    0.000    0.000    0.000    0.000    0.000 
#
# Total GULP energy -134059.776791 kJ/mol
# GULP energy per Si atom -5585.824033 kJ/mol
# Density = 1.795689 g / cm^3
# Si number density = 17.997852 Si / 1000 Ang^3
#
#
#
# Elastic Constant Matrix: (Units=GPa)
#
#
# Indices 1 2 3 4 5 6 
#
# 1 27.4234 29.7262 32.5273 0.0000 0.0000 0.0000
# 2 29.7262 159.9780 94.5486 0.0000 0.0000 0.0000
# 3 32.5273 94.5486 177.4847 0.0000 0.0000 0.0000
# 4 0.0000 0.0000 0.0000 17.7987 0.0000 0.0000
# 5 0.0000 0.0000 0.0000 0.0000 -7.7784 0.0000
# 6 0.0000 0.0000 0.0000 0.0000 0.0000 14.7619
#
#
#
# Elastic Compliance Matrix: (Units=1/GPa)
#
#
# Indices 1 2 3 4 5 6 
#
# 1 0.049851 -0.005639 -0.006132 0.000000 0.000000 0.000000
# 2 -0.005639 0.009761 -0.004166 0.000000 0.000000 0.000000
# 3 -0.006132 -0.004166 0.008978 0.000000 0.000000 0.000000
# 4 0.000000 0.000000 0.000000 0.056184 0.000000 0.000000
# 5 0.000000 0.000000 0.000000 0.000000 -0.128561 0.000000
# 6 0.000000 0.000000 0.000000 0.000000 0.000000 0.067742
#
#
# Mechanical properties :
#
#
# Convention : Reuss Voigt Hill
#
# Bulk Modulus (GPa) = 27.23704 75.38779 51.31241
# Shear Modulus (GPa) = 46.26750 18.82872 32.54811
#
# Velocity S-wave (km/s) = 5.07573 3.23796 4.25719
# Velocity P-wave (km/s) = 7.03684 7.48045 7.26203
#
# Compressibility (1/GPa) = 0.03671471
#
# Stress axis : x y z
#
# Youngs Moduli (GPa) = 20.05981 102.44830 111.38790
#
# Poissons Ratio (x) = 0.57769 0.68305
# Poissons Ratio (y) = 0.11311 0.46409
# Poissons Ratio (z) = 0.12301 0.42684
#
# Static dielectric constant tensor:
#      x y z
#    x 1.609760 0.000000 0.000000 
#    y 0.000000 1.615040 0.000000 
#    z 0.000000 0.000000 1.582120 
# 
# From -- ./inp_files/16717.got.cif
#   From: 2010.05.17/outbox.cif.g08.bks.cpg/sg38_9_cif.got.tgz:16717.got - 2010.06.03 18:07:57.
