data_PCOD9356324
_publ_section_title
;
Structure prediction by ZEFSAII (Michael W. Deem and Ramdas Pophale) SiO2 
 PCOD9356324
Probable space group: A M M 2
;
_chemical_formula_sum "Si O2"
_cell_formula_units_Z 64
_cell_length_a 7.634128
_cell_length_b 29.645036
_cell_length_c 12.945627
_cell_angle_alpha 90.000000
_cell_angle_beta 90.000000
_cell_angle_gamma 90.000000
_cell_volume 2929.776621
_symmetry_space_group_name_H-M "A M M 2"
_symmetry_group_IT_number 38
_symmetry_cell_setting 'orthorhombic'
loop_
_space_group_symop_operation_xyz
x,y,z
-x,-y,z
-x,y,z
x,-y,z
x,1/2+y,1/2+z
-x,1/2-y,1/2+z
-x,1/2+y,1/2+z
x,1/2-y,1/2+z
loop_
_atom_site_type_symbol
_atom_site_label
_atom_site_fract_x
_atom_site_fract_y
_atom_site_fract_z
Si Si1 0.205148 0.551103 0.429160
Si Si2 0.296436 0.096770 0.140946
Si Si3 0.709224 0.207048 0.644954
Si Si4 0.213499 0.048239 0.582485
Si Si5 0.802059 0.930575 0.362247
Si Si6 0.712420 0.195963 0.207341
Si Si7 0.711675 0.832199 0.428896
Si Si8 0.788650 0.618175 0.251694
O O1 0.279234 0.500000 0.421628
O O2 0.216094 0.570063 0.545446
O O3 0.275505 0.589451 0.350514
O O4 0.000000 0.547151 0.402459
O O5 0.500000 0.101626 0.115815
O O6 0.281920 0.069969 0.249443
O O7 0.224559 0.147696 0.162063
O O8 0.500000 0.211347 0.634848
O O9 0.778788 0.257500 0.660077
O O10 0.774851 0.186488 0.537360
O O11 0.739538 0.170276 0.734892
O O12 0.279051 0.047822 0.464765
O O13 0.273944 0.089859 0.651297
O O14 0.000000 0.051223 0.576538
O O15 0.255352 0.000000 0.632675
O O16 0.800280 0.878841 0.399182
O O17 0.000000 0.947079 0.349189
O O18 0.500000 0.194331 0.196699
O O19 0.746909 0.198591 0.329759
O O20 0.500000 0.839623 0.433062
O O21 0.000000 0.617468 0.252456
#
# Coordination Sequence:
#
# PCOD9356324 Si02
#       8
#     8   8   8   8   8   8   8   8
#     4  10  22  40  61  83 112 153 195 236 287 348
#     4  10  21  38  59  81 111 147 188 236 284 333
#     4  10  19  32  54  80 108 146 191 236 285 338
#     4   9  17  30  51  78 105 136 174 215 263 323
#     4  10  18  31  54  80 106 139 179 223 274 332
#     4   8  17  33  52  77 107 147 191 231 279 339
#     4   9  17  31  50  72 105 142 178 225 278 329
#     4  10  20  36  56  80 110 143 185 234 281 333
#
# _framework density 21.844667999999999
#
# number of rings (size 3 to 8) (size 9 to 14) (size 15 to 20)
#    0.000    2.500    1.250    1.875    0.000    3.750 
#    0.000    6.875    0.000    3.750    0.000    0.000 
#    0.000    0.000    0.000    0.000    0.000    0.000 
#
# Total GULP energy -178424.094996 kJ/mol
# GULP energy per Si atom -5575.752969 kJ/mol
# Density = 2.179495 g / cm^3
# Si number density = 21.844668 Si / 1000 Ang^3
#
#
#
# Elastic Constant Matrix: (Units=GPa)
#
#
# Indices 1 2 3 4 5 6 
#
# 1 41.7854 3.3922 -0.9767 0.0000 0.0000 0.0000
# 2 3.3922 79.3443 23.8284 0.0000 0.0000 0.0000
# 3 -0.9767 23.8284 88.2189 0.0000 0.0000 0.0000
# 4 0.0000 0.0000 0.0000 23.2290 0.0000 0.0000
# 5 0.0000 0.0000 0.0000 0.0000 13.7746 0.0000
# 6 0.0000 0.0000 0.0000 0.0000 0.0000 12.6313
#
#
#
# Elastic Compliance Matrix: (Units=1/GPa)
#
#
# Indices 1 2 3 4 5 6 
#
# 1 0.024044 -0.001206 0.000592 0.000000 0.000000 0.000000
# 2 -0.001206 0.013776 -0.003734 0.000000 0.000000 0.000000
# 3 0.000592 -0.003734 0.012351 0.000000 0.000000 0.000000
# 4 0.000000 0.000000 0.000000 0.043050 0.000000 0.000000
# 5 0.000000 0.000000 0.000000 0.000000 0.072598 0.000000
# 6 0.000000 0.000000 0.000000 0.000000 0.000000 0.079168
#
#
# Mechanical properties :
#
#
# Convention : Reuss Voigt Hill
#
# Bulk Modulus (GPa) = 24.11144 29.09292 26.60218
# Shear Modulus (GPa) = 18.69109 22.13396 20.41253
#
# Velocity S-wave (km/s) = 2.92830 3.18660 3.06018
# Velocity P-wave (km/s) = 4.74288 5.18519 4.96896
#
# Compressibility (1/GPa) = 0.04147408
#
# Stress axis : x y z
#
# Youngs Moduli (GPa) = 41.59127 72.58819 80.96718
#
# Poissons Ratio (x) = 0.08752 -0.04792
# Poissons Ratio (y) = 0.05015 0.30236
# Poissons Ratio (z) = -0.02462 0.27107
#
# Static dielectric constant tensor:
#      x y z
#    x 1.824500 0.000000 0.000000 
#    y 0.000000 1.823010 0.000000 
#    z 0.000000 0.000000 1.792870 
# 
# From -- ./inp_files/8621.got.cif
#   From: 2010.05.17/outbox.cif.g08.bks.cpg/sg38_5_cif.got.tgz:8621.got - 2010.06.03 18:07:57.
