data_PCOD9356762
_publ_section_title
;
Structure prediction by ZEFSAII (Michael W. Deem and Ramdas Pophale) SiO2 
 PCOD9356762
Probable space group: A M M 2
;
_chemical_formula_sum "Si O2"
_cell_formula_units_Z 56
_cell_length_a 15.018028
_cell_length_b 7.739173
_cell_length_c 26.374128
_cell_angle_alpha 90.000000
_cell_angle_beta 90.000000
_cell_angle_gamma 90.000000
_cell_volume 3065.388856
_symmetry_space_group_name_H-M "A M M 2"
_symmetry_group_IT_number 38
_symmetry_cell_setting 'orthorhombic'
loop_
_space_group_symop_operation_xyz
x,y,z
-x,-y,z
-x,y,z
x,-y,z
x,1/2+y,1/2+z
-x,1/2-y,1/2+z
-x,1/2+y,1/2+z
x,1/2-y,1/2+z
loop_
_atom_site_type_symbol
_atom_site_label
_atom_site_fract_x
_atom_site_fract_y
_atom_site_fract_z
Si Si1 0.102170 0.790768 0.918670
Si Si2 0.100898 0.794095 0.613122
Si Si3 0.400864 0.209383 0.364575
Si Si4 0.598057 0.793697 0.983085
Si Si5 0.786244 0.293686 0.515641
Si Si6 0.898728 0.292794 0.727609
Si Si7 0.218148 0.706616 0.819966
O O1 0.156552 0.738417 0.868906
O O2 0.000000 0.730023 0.917117
O O3 0.100351 0.000000 0.920136
O O4 0.153213 0.727725 0.969058
O O5 0.166238 0.736870 0.568841
O O6 0.128700 0.742963 0.669863
O O7 0.000000 0.725159 0.604824
O O8 0.096562 0.000000 0.611411
O O9 0.500000 0.266474 0.348554
O O10 0.388392 0.264117 0.423018
O O11 0.317162 0.273708 0.332140
O O12 0.400074 0.000000 0.363781
O O13 0.500000 0.722456 0.996367
O O14 0.594385 0.000000 0.991486
O O15 0.685582 0.724444 0.011086
O O16 0.780437 0.500000 0.508384
O O17 0.902960 0.500000 0.733612
O O18 0.831733 0.224317 0.770194
O O19 0.000000 0.225597 0.734422
O O20 0.226658 0.500000 0.813678
#
# Coordination Sequence:
#
# PCOD9356762 Si02
#       7
#     8   8   8   8   8   8   8
#     4  10  20  31  44  68 101 132 159 190 236 290
#     4  10  21  35  51  72  95 123 164 208 244 282
#     4   9  17  29  46  70 100 130 159 195 239 283
#     4   9  17  30  49  72  97 126 162 199 233 279
#     4  10  19  32  50  71  98 130 161 195 239 290
#     4   9  18  33  51  69  91 124 165 204 243 287
#     4  10  19  31  49  72  98 128 163 199 236 285
#
# _framework density 18.268481000000001
#
# number of rings (size 3 to 8) (size 9 to 14) (size 15 to 20)
#    0.000    2.429    1.429    1.286    0.000    4.000 
#    0.000    1.429    0.000    0.857    0.000    4.000 
#    0.000    0.000    0.000    0.000    0.000    0.000 
#
# Total GULP energy -156181.442366 kJ/mol
# GULP energy per Si atom -5577.908656 kJ/mol
# Density = 1.822690 g / cm^3
# Si number density = 18.268481 Si / 1000 Ang^3
#
#
#
# Elastic Constant Matrix: (Units=GPa)
#
#
# Indices 1 2 3 4 5 6 
#
# 1 183.5042 3.4513 107.9878 0.0000 0.0000 0.0000
# 2 3.4513 22.7226 -9.7086 0.0000 0.0000 0.0000
# 3 107.9878 -9.7086 128.3854 0.0000 0.0000 0.0000
# 4 0.0000 0.0000 0.0000 18.0356 0.0000 0.0000
# 5 0.0000 0.0000 0.0000 0.0000 22.6199 0.0000
# 6 0.0000 0.0000 0.0000 0.0000 0.0000 12.2676
#
#
#
# Elastic Compliance Matrix: (Units=1/GPa)
#
#
# Indices 1 2 3 4 5 6 
#
# 1 0.011556 -0.006106 -0.010182 0.000000 0.000000 0.000000
# 2 -0.006106 0.048704 0.008819 0.000000 0.000000 0.000000
# 3 -0.010182 0.008819 0.017020 0.000000 0.000000 0.000000
# 4 0.000000 0.000000 0.000000 0.055446 0.000000 0.000000
# 5 0.000000 0.000000 0.000000 0.000000 0.044209 0.000000
# 6 0.000000 0.000000 0.000000 0.000000 0.000000 0.081515
#
#
# Mechanical properties :
#
#
# Convention : Reuss Voigt Hill
#
# Bulk Modulus (GPa) = 16.04029 59.78589 37.91309
# Shear Modulus (GPa) = 16.99704 26.11007 21.55356
#
# Velocity S-wave (km/s) = 3.05356 3.78463 3.43858
# Velocity P-wave (km/s) = 4.60778 7.20383 6.04677
#
# Compressibility (1/GPa) = 0.06234303
#
# Stress axis : x y z
#
# Youngs Moduli (GPa) = 86.53525 20.53203 58.75448
#
# Poissons Ratio (x) = 0.12536 0.59822
# Poissons Ratio (y) = 0.52834 -0.51813
# Poissons Ratio (z) = 0.88108 -0.18106
#
# Static dielectric constant tensor:
#      x y z
#    x 1.664440 0.000000 0.000000 
#    y 0.000000 1.669030 0.000000 
#    z 0.000000 0.000000 1.589140 
# 
# From -- ./inp_files/21021.got.cif
#   From: 2010.05.17/outbox.cif.g08.bks.cpg/sg38_11_cif.got.tgz:21021.got - 2010.06.03 18:07:57.
