data_PCOD9356794
_publ_section_title
;
Structure prediction by ZEFSAII (Michael W. Deem and Ramdas Pophale) SiO2 
 PCOD9356794
Probable space group: A M M 2
;
_chemical_formula_sum "Si O2"
_cell_formula_units_Z 64
_cell_length_a 40.300630
_cell_length_b 14.750644
_cell_length_c 5.136562
_cell_angle_alpha 90.000000
_cell_angle_beta 90.000000
_cell_angle_gamma 90.000000
_cell_volume 3053.481911
_symmetry_space_group_name_H-M "A M M 2"
_symmetry_group_IT_number 38
_symmetry_cell_setting 'orthorhombic'
loop_
_space_group_symop_operation_xyz
x,y,z
-x,-y,z
-x,y,z
x,-y,z
x,1/2+y,1/2+z
-x,1/2-y,1/2+z
-x,1/2+y,1/2+z
x,1/2-y,1/2+z
loop_
_atom_site_type_symbol
_atom_site_label
_atom_site_fract_x
_atom_site_fract_y
_atom_site_fract_z
Si Si1 0.787774 0.689906 0.074960
Si Si2 0.462359 0.888978 0.200795
Si Si3 0.105478 0.391611 0.724788
Si Si4 0.647621 0.690449 0.072102
Si Si5 0.717589 0.187833 0.692976
Si Si6 0.422918 0.891096 0.703935
Si Si7 0.963381 0.310021 0.569529
Si Si8 0.857558 0.108991 0.724642
O O1 0.787913 0.773803 0.280250
O O2 0.752714 0.640706 0.135127
O O3 0.820892 0.635937 0.138890
O O4 0.500000 0.858827 0.153600
O O5 0.448434 0.861698 0.480226
O O6 0.462881 0.000000 0.195399
O O7 0.436704 0.858305 0.980096
O O8 0.108382 0.500000 0.733855
O O9 0.068443 0.368771 0.637950
O O10 0.131277 0.357007 0.507260
O O11 0.116234 0.357645 0.008102
O O12 0.647784 0.774752 0.275867
O O13 0.682473 0.640551 0.134942
O O14 0.614024 0.638663 0.134949
O O15 0.717598 0.271513 0.483897
O O16 0.423377 0.000000 0.709521
O O17 0.961767 0.272741 0.276205
O O18 0.000000 0.352745 0.606734
O O19 0.859176 0.000000 0.733382
#
# Coordination Sequence:
#
# PCOD9356794 Si02
#       8
#     8   8   8   8   8   8   8   8
#     4  10  19  32  52  76  98 126 168 206 237 282
#     4   9  17  30  49  71  95 125 159 196 240 286
#     4  10  21  36  53  73 101 136 169 199 239 299
#     4  10  19  33  52  71  97 132 162 192 241 295
#     4   8  16  30  48  70  95 125 162 199 232 281
#     4  10  19  31  50  75  97 119 159 207 238 276
#     4  10  21  36  54  77 103 129 163 211 257 291
#     4  10  21  35  50  74 106 134 162 202 250 292
#
# _framework density 20.959679999999999
#
# number of rings (size 3 to 8) (size 9 to 14) (size 15 to 20)
#    0.000    2.375    0.000    2.625    0.000    4.750 
#    0.000    0.625    0.000   12.000    0.000   15.750 
#    0.000    0.000    0.000    0.000    0.000    0.000 
#
# Total GULP energy -178596.899698 kJ/mol
# GULP energy per Si atom -5581.153116 kJ/mol
# Density = 2.091197 g / cm^3
# Si number density = 20.959680 Si / 1000 Ang^3
#
#
#
# Elastic Constant Matrix: (Units=GPa)
#
#
# Indices 1 2 3 4 5 6 
#
# 1 117.3745 -2.1119 -5.0115 0.0000 0.0000 0.0000
# 2 -2.1119 22.2104 -3.8197 0.0000 0.0000 0.0000
# 3 -5.0115 -3.8197 74.3104 0.0000 0.0000 0.0000
# 4 0.0000 0.0000 0.0000 8.9108 0.0000 0.0000
# 5 0.0000 0.0000 0.0000 0.0000 36.3409 0.0000
# 6 0.0000 0.0000 0.0000 0.0000 0.0000 72.4836
#
#
#
# Elastic Compliance Matrix: (Units=1/GPa)
#
#
# Indices 1 2 3 4 5 6 
#
# 1 0.008563 0.000922 0.000625 0.000000 0.000000 0.000000
# 2 0.000922 0.045525 0.002402 0.000000 0.000000 0.000000
# 3 0.000625 0.002402 0.013623 0.000000 0.000000 0.000000
# 4 0.000000 0.000000 0.000000 0.112223 0.000000 0.000000
# 5 0.000000 0.000000 0.000000 0.000000 0.027517 0.000000
# 6 0.000000 0.000000 0.000000 0.000000 0.000000 0.013796
#
#
# Mechanical properties :
#
#
# Convention : Reuss Voigt Hill
#
# Bulk Modulus (GPa) = 13.22612 21.33434 17.28023
# Shear Modulus (GPa) = 20.95982 38.53630 29.74806
#
# Velocity S-wave (km/s) = 3.16572 4.29253 3.77145
# Velocity P-wave (km/s) = 4.43693 5.89649 5.21800
#
# Compressibility (1/GPa) = 0.07560794
#
# Stress axis : x y z
#
# Youngs Moduli (GPa) = 116.78146 21.96611 73.40699
#
# Poissons Ratio (x) = -0.02025 -0.04587
# Poissons Ratio (y) = -0.10764 -0.17634
# Poissons Ratio (z) = -0.07297 -0.05277
#
# Static dielectric constant tensor:
#      x y z
#    x 1.776390 0.000000 0.000000 
#    y 0.000000 1.741220 0.000000 
#    z 0.000000 0.000000 1.735060 
# 
# From -- ./inp_files/2315.got.cif
#   From: 2010.05.17/outbox.cif.g08.bks.cpg/sg38_2_cif.got.tgz:2315.got - 2010.06.03 18:07:57.
