data_PCOD9356965
_publ_section_title
;
Structure prediction by ZEFSAII (Michael W. Deem and Ramdas Pophale) SiO2 
 PCOD9356965
Probable space group: A M M 2
;
_chemical_formula_sum "Si O2"
_cell_formula_units_Z 56
_cell_length_a 19.821210
_cell_length_b 7.481726
_cell_length_c 16.649598
_cell_angle_alpha 90.000000
_cell_angle_beta 90.000000
_cell_angle_gamma 90.000000
_cell_volume 2469.083140
_symmetry_space_group_name_H-M "A M M 2"
_symmetry_group_IT_number 38
_symmetry_cell_setting 'orthorhombic'
loop_
_space_group_symop_operation_xyz
x,y,z
-x,-y,z
-x,y,z
x,-y,z
x,1/2+y,1/2+z
-x,1/2-y,1/2+z
-x,1/2+y,1/2+z
x,1/2-y,1/2+z
loop_
_atom_site_type_symbol
_atom_site_label
_atom_site_fract_x
_atom_site_fract_y
_atom_site_fract_z
Si Si1 0.426879 0.284888 0.176610
Si Si2 0.283274 0.282332 0.431820
Si Si3 0.843320 0.788961 0.199466
Si Si4 0.077939 0.784060 0.535654
Si Si5 0.426216 0.217366 0.863781
Si Si6 0.282029 0.289983 0.610569
Si Si7 0.858515 0.294094 0.869936
O O1 0.500000 0.222962 0.145152
O O2 0.427176 0.500000 0.175154
O O3 0.422019 0.231102 0.270053
O O4 0.360294 0.226588 0.131290
O O5 0.282363 0.500000 0.429574
O O6 0.358257 0.223251 0.407117
O O7 0.268773 0.217289 0.522005
O O8 0.222704 0.215356 0.376791
O O9 0.769209 0.714420 0.176571
O O10 0.874371 0.714306 0.282155
O O11 0.836139 0.000000 0.216421
O O12 0.886094 0.771339 0.118184
O O13 0.112690 0.715977 0.453246
O O14 0.000000 0.729708 0.536237
O O15 0.081259 0.000000 0.535246
O O16 0.500000 0.276127 0.894931
O O17 0.426306 0.000000 0.866603
O O18 0.266812 0.500000 0.605678
O O19 0.882039 0.500000 0.870908
#
# Coordination Sequence:
#
# PCOD9356965 Si02
#       7
#     8   8   8   8   8   8   8
#     4   9  18  32  49  70  98 136 184 232 278 332
#     4  10  19  32  53  79 107 141 185 233 275 327
#     4  10  21  38  59  86 117 150 188 229 280 336
#     4  10  22  40  60  85 115 146 185 228 271 330
#     4   8  15  29  48  70  97 133 180 229 274 323
#     4  10  20  32  49  77 110 140 179 230 279 332
#     4  10  21  37  59  84 114 151 185 225 278 333
#
# _framework density 22.680482999999999
#
# number of rings (size 3 to 8) (size 9 to 14) (size 15 to 20)
#    0.000    2.429    1.429    1.714    0.000    3.429 
#    0.000    2.857    0.000    1.286    0.000    0.000 
#    0.000    0.000    0.000    0.000    0.000    0.000 
#
# Total GULP energy -156289.785846 kJ/mol
# GULP energy per Si atom -5581.778066 kJ/mol
# Density = 2.262886 g / cm^3
# Si number density = 22.680483 Si / 1000 Ang^3
#
#
#
# Elastic Constant Matrix: (Units=GPa)
#
#
# Indices 1 2 3 4 5 6 
#
# 1 99.9562 -12.9031 49.6530 0.0000 0.0000 0.0000
# 2 -12.9031 62.5183 -0.7200 0.0000 0.0000 0.0000
# 3 49.6530 -0.7200 156.2214 0.0000 0.0000 0.0000
# 4 0.0000 0.0000 0.0000 -6.6234 0.0000 0.0000
# 5 0.0000 0.0000 0.0000 0.0000 13.6576 0.0000
# 6 0.0000 0.0000 0.0000 0.0000 0.0000 14.9348
#
#
#
# Elastic Compliance Matrix: (Units=1/GPa)
#
#
# Indices 1 2 3 4 5 6 
#
# 1 0.012254 0.002484 -0.003883 0.000000 0.000000 0.000000
# 2 0.002484 0.016500 -0.000714 0.000000 0.000000 0.000000
# 3 -0.003883 -0.000714 0.007632 0.000000 0.000000 0.000000
# 4 0.000000 0.000000 0.000000 -0.150980 0.000000 0.000000
# 5 0.000000 0.000000 0.000000 0.000000 0.073219 0.000000
# 6 0.000000 0.000000 0.000000 0.000000 0.000000 0.066958
#
#
# Mechanical properties :
#
#
# Convention : Reuss Voigt Hill
#
# Bulk Modulus (GPa) = 31.09354 43.41731 37.25542
# Shear Modulus (GPa) = 123.36944 23.23821 73.30382
#
# Velocity S-wave (km/s) = 7.38327 3.20439 5.69126
# Velocity P-wave (km/s) = 9.29638 5.73371 7.72328
#
# Compressibility (1/GPa) = 0.03216102
#
# Stress axis : x y z
#
# Youngs Moduli (GPa) = 81.60505 60.60664 131.02447
#
# Poissons Ratio (x) = -0.15057 0.50882
# Poissons Ratio (y) = -0.20274 0.09350
# Poissons Ratio (z) = 0.31690 0.04325
#
# Static dielectric constant tensor:
#      x y z
#    x 1.829200 0.000000 0.000000 
#    y 0.000000 1.860310 0.000000 
#    z 0.000000 0.000000 1.858790 
# 
# From -- ./inp_files/15444.got.cif
#   From: 2010.05.17/outbox.cif.g08.bks.cpg/sg38_8_cif.got.tgz:15444.got - 2010.06.03 18:07:57.
