data_PCOD9356706
_publ_section_title
;
Structure prediction by ZEFSAII (Michael W. Deem and Ramdas Pophale) SiO2 
 PCOD9356706
Probable space group: A M M 2
;
_chemical_formula_sum "Si O2"
_cell_formula_units_Z 64
_cell_length_a 8.725049
_cell_length_b 28.903454
_cell_length_c 14.922732
_cell_angle_alpha 90.000000
_cell_angle_beta 90.000000
_cell_angle_gamma 90.000000
_cell_volume 3763.275029
_symmetry_space_group_name_H-M "A M M 2"
_symmetry_group_IT_number 38
_symmetry_cell_setting 'orthorhombic'
loop_
_space_group_symop_operation_xyz
x,y,z
-x,-y,z
-x,y,z
x,-y,z
x,1/2+y,1/2+z
-x,1/2-y,1/2+z
-x,1/2+y,1/2+z
x,1/2-y,1/2+z
loop_
_atom_site_type_symbol
_atom_site_label
_atom_site_fract_x
_atom_site_fract_y
_atom_site_fract_z
Si Si1 0.683798 0.362284 0.444400
Si Si2 0.185871 0.358435 0.021368
Si Si3 0.674090 0.234555 0.582840
Si Si4 0.184624 0.053276 0.836515
Si Si5 0.183349 0.327273 0.825405
Si Si6 0.817064 0.170572 0.131453
Si Si7 0.813476 0.052121 0.629435
Si Si8 0.673887 0.766688 0.875457
O O1 0.500000 0.359865 0.446332
O O2 0.740413 0.409663 0.401645
O O3 0.743867 0.353836 0.545072
O O4 0.736469 0.318805 0.382155
O O5 0.249563 0.315719 0.079760
O O6 0.236227 0.407015 0.063706
O O7 0.000000 0.356282 0.022611
O O8 0.237698 0.350867 0.918006
O O9 0.500000 0.232908 0.617206
O O10 0.770685 0.275318 0.627472
O O11 0.666600 0.250682 0.479125
O O12 0.230219 0.061576 0.732722
O O13 0.000000 0.057426 0.841474
O O14 0.224120 0.000000 0.858094
O O15 0.236068 0.346885 0.729467
O O16 0.229102 0.273291 0.829729
O O17 0.000000 0.330446 0.826108
O O18 0.000000 0.166332 0.124709
O O19 0.000000 0.051657 0.627838
O O20 0.762628 0.000000 0.605662
O O21 0.500000 0.766932 0.839916
#
# Coordination Sequence:
#
# PCOD9356706 Si02
#       8
#     8   8   8   8   8   8   8   8
#     4  10  20  33  49  71  96 125 161 197 237 283
#     4   9  16  29  49  71  95 124 158 194 234 282
#     4   9  17  29  43  63  91 121 156 195 232 271
#     4   9  18  33  52  73  95 120 152 192 240 290
#     4   9  18  29  44  68  96 126 160 195 229 270
#     4  10  19  31  46  66  95 130 164 196 230 271
#     4   8  15  29  50  74  96 119 152 194 239 287
#     4   8  16  29  43  61  88 120 153 189 227 269
#
# _framework density 17.006463
#
# number of rings (size 3 to 8) (size 9 to 14) (size 15 to 20)
#    0.000    3.000    0.000    2.625    0.000    5.750 
#    0.000    4.375    0.000    1.875    0.000    3.500 
#    0.000    0.000    0.000    0.000    0.000    0.000 
#
# Total GULP energy -178193.823657 kJ/mol
# GULP energy per Si atom -5568.556989 kJ/mol
# Density = 1.696776 g / cm^3
# Si number density = 17.006463 Si / 1000 Ang^3
#
#
#
# Elastic Constant Matrix: (Units=GPa)
#
#
# Indices 1 2 3 4 5 6 
#
# 1 19.6566 24.1100 20.2129 0.0000 0.0000 0.0000
# 2 24.1100 128.9551 73.3517 0.0000 0.0000 0.0000
# 3 20.2129 73.3517 102.5787 0.0000 0.0000 0.0000
# 4 0.0000 0.0000 0.0000 20.7334 0.0000 0.0000
# 5 0.0000 0.0000 0.0000 0.0000 0.2216 0.0000
# 6 0.0000 0.0000 0.0000 0.0000 0.0000 10.0660
#
#
#
# Elastic Compliance Matrix: (Units=1/GPa)
#
#
# Indices 1 2 3 4 5 6 
#
# 1 0.069181 -0.008732 -0.007388 0.000000 0.000000 0.000000
# 2 -0.008732 0.014174 -0.008415 0.000000 0.000000 0.000000
# 3 -0.007388 -0.008415 0.017221 0.000000 0.000000 0.000000
# 4 0.000000 0.000000 0.000000 0.048231 0.000000 0.000000
# 5 0.000000 0.000000 0.000000 0.000000 4.512623 0.000000
# 6 0.000000 0.000000 0.000000 0.000000 0.000000 0.099344
#
#
# Mechanical properties :
#
#
# Convention : Reuss Voigt Hill
#
# Bulk Modulus (GPa) = 19.41492 54.05998 36.73745
# Shear Modulus (GPa) = 1.03584 15.10526 8.07055
#
# Velocity S-wave (km/s) = 0.78129 2.98351 2.18080
# Velocity P-wave (km/s) = 3.50069 6.61252 5.29057
#
# Compressibility (1/GPa) = 0.05150679
#
# Stress axis : x y z
#
# Youngs Moduli (GPa) = 14.45492 70.55404 58.06719
#
# Poissons Ratio (x) = 0.61608 0.42899
# Poissons Ratio (y) = 0.12622 0.48861
# Poissons Ratio (z) = 0.10679 0.59368
#
# Static dielectric constant tensor:
#      x y z
#    x 1.575990 0.000000 0.000000 
#    y 0.000000 1.564090 0.000000 
#    z 0.000000 0.000000 1.609250 
# 
# From -- ./inp_files/13122.got.cif
#   From: 2010.05.17/outbox.cif.g08.bks.cpg/sg38_7_cif.got.tgz:13122.got - 2010.06.03 18:07:57.
