data_PCOD9356957
_publ_section_title
;
Structure prediction by ZEFSAII (Michael W. Deem and Ramdas Pophale) SiO2 
 PCOD9356957
Probable space group: A M M 2
;
_chemical_formula_sum "Si O2"
_cell_formula_units_Z 64
_cell_length_a 19.397721
_cell_length_b 7.545330
_cell_length_c 20.195839
_cell_angle_alpha 90.000000
_cell_angle_beta 90.000000
_cell_angle_gamma 90.000000
_cell_volume 2955.907552
_symmetry_space_group_name_H-M "A M M 2"
_symmetry_group_IT_number 38
_symmetry_cell_setting 'orthorhombic'
loop_
_space_group_symop_operation_xyz
x,y,z
-x,-y,z
-x,y,z
x,-y,z
x,1/2+y,1/2+z
-x,1/2-y,1/2+z
-x,1/2+y,1/2+z
x,1/2-y,1/2+z
loop_
_atom_site_type_symbol
_atom_site_label
_atom_site_fract_x
_atom_site_fract_y
_atom_site_fract_z
Si Si1 0.649981 0.716394 0.766760
Si Si2 0.676772 0.201199 0.513199
Si Si3 0.921536 0.787471 0.345769
Si Si4 0.803474 0.291845 0.749497
Si Si5 0.420087 0.714610 0.630073
Si Si6 0.921220 0.211316 0.996263
Si Si7 0.803002 0.295748 0.096259
Si Si8 0.578220 0.282848 0.900781
O O1 0.651279 0.500000 0.766993
O O2 0.728749 0.780306 0.770553
O O3 0.618007 0.769569 0.696966
O O4 0.601501 0.768700 0.827324
O O5 0.617569 0.200210 0.568309
O O6 0.742350 0.285337 0.550381
O O7 0.638189 0.281324 0.450104
O O8 0.697661 0.000000 0.494243
O O9 0.867625 0.718059 0.291425
O O10 0.897932 0.752086 0.421174
O O11 0.000000 0.717762 0.338787
O O12 0.925793 0.000000 0.338318
O O13 0.801385 0.500000 0.765757
O O14 0.810741 0.279233 0.670011
O O15 0.500000 0.760028 0.632784
O O16 0.414387 0.500000 0.624026
O O17 0.871708 0.285155 0.052639
O O18 0.000000 0.276766 0.002182
O O19 0.921668 0.000000 0.003914
O O20 0.783484 0.500000 0.107229
O O21 0.500000 0.225372 0.916495
O O22 0.577776 0.500000 0.904556
#
# Coordination Sequence:
#
# PCOD9356957 Si02
#       8
#     8   8   8   8   8   8   8   8
#     4   9  17  30  50  76 104 136 179 229 277 327
#     4  10  21  35  53  78 109 144 183 228 277 334
#     4   9  19  36  59  87 115 144 182 228 278 334
#     4  10  20  35  57  81 112 152 190 231 283 339
#     4  10  19  32  53  78 105 140 182 228 278 332
#     4  10  22  40  62  87 115 149 187 226 275 337
#     4  11  23  37  56  83 117 152 191 237 283 332
#     4   9  17  30  50  76 104 136 180 232 281 329
#
# _framework density 21.651557
#
# number of rings (size 3 to 8) (size 9 to 14) (size 15 to 20)
#    0.000    2.250    1.250    1.500    1.750    4.500 
#    0.000    1.250    0.000    0.750    0.000    0.000 
#    0.000    0.000    0.000    0.000    0.000    0.000 
#
# Total GULP energy -178673.236770 kJ/mol
# GULP energy per Si atom -5583.538649 kJ/mol
# Density = 2.160228 g / cm^3
# Si number density = 21.651557 Si / 1000 Ang^3
#
#
#
# Elastic Constant Matrix: (Units=GPa)
#
#
# Indices 1 2 3 4 5 6 
#
# 1 84.6996 -4.1276 13.0422 0.0000 0.0000 0.0000
# 2 -4.1276 51.5267 -14.7299 0.0000 0.0000 0.0000
# 3 13.0422 -14.7299 52.9552 0.0000 0.0000 0.0000
# 4 0.0000 0.0000 0.0000 17.2390 0.0000 0.0000
# 5 0.0000 0.0000 0.0000 0.0000 46.0445 0.0000
# 6 0.0000 0.0000 0.0000 0.0000 0.0000 -1.8446
#
#
#
# Elastic Compliance Matrix: (Units=1/GPa)
#
#
# Indices 1 2 3 4 5 6 
#
# 1 0.012273 0.000129 -0.002987 0.000000 0.000000 0.000000
# 2 0.000129 0.021085 0.005833 0.000000 0.000000 0.000000
# 3 -0.002987 0.005833 0.021242 0.000000 0.000000 0.000000
# 4 0.000000 0.000000 0.000000 0.058008 0.000000 0.000000
# 5 0.000000 0.000000 0.000000 0.000000 0.021718 0.000000
# 6 0.000000 0.000000 0.000000 0.000000 0.000000 -0.542111
#
#
# Mechanical properties :
#
#
# Convention : Reuss Voigt Hill
#
# Bulk Modulus (GPa) = 16.51479 19.72787 18.12133
# Shear Modulus (GPa) = -12.70478 25.28757 6.29139
#
# Velocity S-wave (km/s) = -2.42499 3.42121 1.70647
# Velocity P-wave (km/s) = 0.44349 4.97369 3.50292
#
# Compressibility (1/GPa) = 0.06055179
#
# Stress axis : x y z
#
# Youngs Moduli (GPa) = 81.48223 47.42635 47.07650
#
# Poissons Ratio (x) = -0.00613 0.14060
# Poissons Ratio (y) = -0.01054 -0.27461
# Poissons Ratio (z) = 0.24336 -0.27665
#
# Static dielectric constant tensor:
#      x y z
#    x 1.788290 0.000000 0.000000 
#    y 0.000000 1.844090 0.000000 
#    z 0.000000 0.000000 1.733970 
# 
# From -- ./inp_files/18985.got.cif
#   From: 2010.05.17/outbox.cif.g08.bks.cpg/sg38_10_cif.got.tgz:18985.got - 2010.06.03 18:07:57.
