data_PCOD9356809
_publ_section_title
;
Structure prediction by ZEFSAII (Michael W. Deem and Ramdas Pophale) SiO2 
 PCOD9356809
Probable space group: A M M 2
;
_chemical_formula_sum "Si O2"
_cell_formula_units_Z 40
_cell_length_a 7.696303
_cell_length_b 8.207475
_cell_length_c 29.660397
_cell_angle_alpha 90.000000
_cell_angle_beta 90.000000
_cell_angle_gamma 90.000000
_cell_volume 1873.564658
_symmetry_space_group_name_H-M "A M M 2"
_symmetry_group_IT_number 38
_symmetry_cell_setting 'orthorhombic'
loop_
_space_group_symop_operation_xyz
x,y,z
-x,-y,z
-x,y,z
x,-y,z
x,1/2+y,1/2+z
-x,1/2-y,1/2+z
-x,1/2+y,1/2+z
x,1/2-y,1/2+z
loop_
_atom_site_type_symbol
_atom_site_label
_atom_site_fract_x
_atom_site_fract_y
_atom_site_fract_z
Si Si1 0.287639 0.320597 0.006070
Si Si2 0.713205 0.000000 0.951282
Si Si3 0.791210 0.322420 0.792377
Si Si4 0.791203 0.315706 0.198897
Si Si5 0.705594 0.500000 0.348928
Si Si6 0.708704 0.315826 0.600204
O O1 0.500000 0.320425 0.005207
O O2 0.231054 0.500000 0.990477
O O3 0.231956 0.291177 0.057881
O O4 0.231959 0.164837 0.976916
O O5 0.500000 0.000000 0.952057
O O6 0.775749 0.000000 0.899825
O O7 0.727176 0.500000 0.808450
O O8 0.727542 0.289046 0.741292
O O9 0.752116 0.164398 0.822225
O O10 0.000000 0.331011 0.790707
O O11 0.724856 0.500000 0.203401
O O12 0.750749 0.249163 0.149583
O O13 0.000000 0.320580 0.202462
O O14 0.500000 0.500000 0.353024
O O15 0.500000 0.321170 0.596983
O O16 0.774866 0.500000 0.595096
#
# Coordination Sequence:
#
# PCOD9356809 Si02
#       6
#     8   4   8   8   4   8
#     4   9  16  29  50  74 106 146 182 219 266 328
#     4   9  18  33  51  77 111 147 185 223 278 345
#     4  10  21  40  63  82 109 154 201 237 280 351
#     4  10  20  35  55  78 107 145 188 230 273 331
#     4  11  23  37  59  89 121 149 185 249 304 339
#     4  10  19  31  50  79 113 144 179 225 273 326
#
# _framework density 21.349675999999999
#
# number of rings (size 3 to 8) (size 9 to 14) (size 15 to 20)
#    0.000    2.200    2.000    1.500    0.000    4.400 
#    0.000    2.000    0.000    2.400    0.000    2.800 
#    0.000    0.000    0.000    0.000    0.000    0.000 
#
# Total GULP energy -111663.824918 kJ/mol
# GULP energy per Si atom -5583.191246 kJ/mol
# Density = 2.130108 g / cm^3
# Si number density = 21.349676 Si / 1000 Ang^3
#
#
#
# Elastic Constant Matrix: (Units=GPa)
#
#
# Indices 1 2 3 4 5 6 
#
# 1 33.1010 10.2999 2.9634 0.0000 0.0000 0.0000
# 2 10.2999 222.2786 98.8176 0.0000 0.0000 0.0000
# 3 2.9634 98.8176 159.8303 0.0000 0.0000 0.0000
# 4 0.0000 0.0000 0.0000 27.7601 0.0000 0.0000
# 5 0.0000 0.0000 0.0000 0.0000 31.0313 0.0000
# 6 0.0000 0.0000 0.0000 0.0000 0.0000 9.0470
#
#
#
# Elastic Compliance Matrix: (Units=1/GPa)
#
#
# Indices 1 2 3 4 5 6 
#
# 1 0.030674 -0.001611 0.000428 0.000000 0.000000 0.000000
# 2 -0.001611 0.006289 -0.003858 0.000000 0.000000 0.000000
# 3 0.000428 -0.003858 0.008634 0.000000 0.000000 0.000000
# 4 0.000000 0.000000 0.000000 0.036023 0.000000 0.000000
# 5 0.000000 0.000000 0.000000 0.000000 0.032226 0.000000
# 6 0.000000 0.000000 0.000000 0.000000 0.000000 0.110533
#
#
# Mechanical properties :
#
#
# Convention : Reuss Voigt Hill
#
# Bulk Modulus (GPa) = 28.15920 71.04128 49.60024
# Shear Modulus (GPa) = 20.30043 33.77630 27.03837
#
# Velocity S-wave (km/s) = 3.08694 3.98182 3.56259
# Velocity P-wave (km/s) = 5.09154 7.38154 6.34078
#
# Compressibility (1/GPa) = 0.03551237
#
# Stress axis : x y z
#
# Youngs Moduli (GPa) = 32.60124 159.01332 115.81931
#
# Poissons Ratio (x) = 0.25624 -0.04952
# Poissons Ratio (y) = 0.05253 0.44686
# Poissons Ratio (z) = -0.01394 0.61351
#
# Static dielectric constant tensor:
#      x y z
#    x 1.791000 0.000000 0.000000 
#    y 0.000000 1.748750 0.000000 
#    z 0.000000 0.000000 1.752940 
# 
# From -- ./inp_files/23203.got.cif
#   From: 2010.05.17/outbox.cif.g08.bks.cpg/sg38_12_cif.got.tgz:23203.got - 2010.06.03 18:07:57.
