data_PCOD9356251
_publ_section_title
;
Structure prediction by ZEFSAII (Michael W. Deem and Ramdas Pophale) SiO2 
 PCOD9356251
Probable space group: A M M 2
;
_chemical_formula_sum "Si O2"
_cell_formula_units_Z 64
_cell_length_a 19.987375
_cell_length_b 19.949856
_cell_length_c 9.150180
_cell_angle_alpha 90.000000
_cell_angle_beta 90.000000
_cell_angle_gamma 90.000000
_cell_volume 3648.590840
_symmetry_space_group_name_H-M "A M M 2"
_symmetry_group_IT_number 38
_symmetry_cell_setting 'orthorhombic'
loop_
_space_group_symop_operation_xyz
x,y,z
-x,-y,z
-x,y,z
x,-y,z
x,1/2+y,1/2+z
-x,1/2-y,1/2+z
-x,1/2+y,1/2+z
x,1/2-y,1/2+z
loop_
_atom_site_type_symbol
_atom_site_label
_atom_site_fract_x
_atom_site_fract_y
_atom_site_fract_z
Si Si1 0.840128 0.778160 0.719560
Si Si2 0.697988 0.684068 0.203091
Si Si3 0.685226 0.172473 0.050860
Si Si4 0.075991 0.694694 0.487735
Si Si5 0.666617 0.421089 0.976576
Si Si6 0.578306 0.078778 0.198190
Si Si7 0.212415 0.362690 0.784548
Si Si8 0.073673 0.578411 0.717555
O O1 0.777709 0.822645 0.672945
O O2 0.881944 0.745570 0.588742
O O3 0.889341 0.812531 0.832531
O O4 0.805726 0.715321 0.805447
O O5 0.678294 0.755484 0.131399
O O6 0.688868 0.682088 0.377436
O O7 0.660798 0.624328 0.119798
O O8 0.623907 0.125292 0.096708
O O9 0.752497 0.139288 0.122572
O O10 0.075267 0.625023 0.574832
O O11 0.000000 0.718887 0.471230
O O12 0.673858 0.500000 0.007440
O O13 0.605492 0.411897 0.863424
O O14 0.731272 0.393484 0.887919
O O15 0.500000 0.093982 0.186960
O O16 0.588640 0.000000 0.162942
O O17 0.142104 0.401059 0.797944
O O18 0.076270 0.500000 0.684878
O O19 0.000000 0.592028 0.788260
#
# Coordination Sequence:
#
# PCOD9356251 Si02
#       8
#     8   8   8   8   8   8   8   8
#     4  10  18  31  49  69  96 130 164 213 266 305
#     4  11  20  35  53  78 109 138 177 218 262 310
#     4  10  20  34  56  79 106 141 174 214 258 308
#     4  10  19  30  46  68  93 125 168 213 261 316
#     4  10  20  34  55  80 107 139 174 215 260 311
#     4   9  19  38  61  84 111 141 172 208 255 309
#     4   9  17  32  52  73  96 129 172 213 258 312
#     4   9  17  28  43  66  95 126 163 208 254 303
#
# _framework density 17.54102
#
# number of rings (size 3 to 8) (size 9 to 14) (size 15 to 20)
#    0.000    2.250    0.000    6.000    0.000    1.500 
#    0.000    5.000    0.000    1.500    0.000    0.000 
#    0.000    7.000    0.000    0.000    0.000    0.000 
#
# Total GULP energy -178340.511711 kJ/mol
# GULP energy per Si atom -5573.140991 kJ/mol
# Density = 1.750110 g / cm^3
# Si number density = 17.541020 Si / 1000 Ang^3
#
#
#
# Elastic Constant Matrix: (Units=GPa)
#
#
# Indices 1 2 3 4 5 6 
#
# 1 106.1855 30.9502 25.4874 0.0000 0.0000 0.0000
# 2 30.9502 40.6380 29.7949 0.0000 0.0000 0.0000
# 3 25.4874 29.7949 80.9371 0.0000 0.0000 0.0000
# 4 0.0000 0.0000 0.0000 17.4141 0.0000 0.0000
# 5 0.0000 0.0000 0.0000 0.0000 14.4110 0.0000
# 6 0.0000 0.0000 0.0000 0.0000 0.0000 26.4666
#
#
#
# Elastic Compliance Matrix: (Units=1/GPa)
#
#
# Indices 1 2 3 4 5 6 
#
# 1 0.012124 -0.008813 -0.000574 0.000000 0.000000 0.000000
# 2 -0.008813 0.040111 -0.011990 0.000000 0.000000 0.000000
# 3 -0.000574 -0.011990 0.016950 0.000000 0.000000 0.000000
# 4 0.000000 0.000000 0.000000 0.057425 0.000000 0.000000
# 5 0.000000 0.000000 0.000000 0.000000 0.069392 0.000000
# 6 0.000000 0.000000 0.000000 0.000000 0.000000 0.037784
#
#
# Mechanical properties :
#
#
# Convention : Reuss Voigt Hill
#
# Bulk Modulus (GPa) = 37.83538 44.46951 41.15244
# Shear Modulus (GPa) = 17.52239 21.09353 19.30796
#
# Velocity S-wave (km/s) = 3.16403 3.47151 3.32133
# Velocity P-wave (km/s) = 5.91308 6.44013 6.18223
#
# Compressibility (1/GPa) = 0.02643029
#
# Stress axis : x y z
#
# Youngs Moduli (GPa) = 82.48133 24.93089 58.99752
#
# Poissons Ratio (x) = 0.21972 0.03384
# Poissons Ratio (y) = 0.72692 0.70741
# Poissons Ratio (z) = 0.04730 0.29893
#
# Static dielectric constant tensor:
#      x y z
#    x 1.626650 0.000000 0.000000 
#    y 0.000000 1.592910 0.000000 
#    z 0.000000 0.000000 1.604020 
# 
# From -- ./inp_files/6870.got.cif
#   From: 2010.05.17/outbox.cif.g08.bks.cpg/sg38_4_cif.got.tgz:6870.got - 2010.06.03 18:07:57.
