data_PCOD9356646
_publ_section_title
;
Structure prediction by ZEFSAII (Michael W. Deem and Ramdas Pophale) SiO2 
 PCOD9356646
Probable space group: A M M 2
;
_chemical_formula_sum "Si O2"
_cell_formula_units_Z 64
_cell_length_a 13.965806
_cell_length_b 18.149370
_cell_length_c 15.900598
_cell_angle_alpha 90.000000
_cell_angle_beta 90.000000
_cell_angle_gamma 90.000000
_cell_volume 4030.333804
_symmetry_space_group_name_H-M "A M M 2"
_symmetry_group_IT_number 38
_symmetry_cell_setting 'orthorhombic'
loop_
_space_group_symop_operation_xyz
x,y,z
-x,-y,z
-x,y,z
x,-y,z
x,1/2+y,1/2+z
-x,1/2-y,1/2+z
-x,1/2+y,1/2+z
x,1/2-y,1/2+z
loop_
_atom_site_type_symbol
_atom_site_label
_atom_site_fract_x
_atom_site_fract_y
_atom_site_fract_z
Si Si1 0.886968 0.587038 0.250000
Si Si2 0.306534 0.911180 0.017114
Si Si3 0.384103 0.915903 0.333199
Si Si4 0.892868 0.410939 0.447708
Si Si5 0.389022 0.588886 0.020110
Si Si6 0.386068 0.914839 0.833558
Si Si7 0.385335 0.319005 0.671048
Si Si8 0.711977 0.837318 0.676648
O O1 0.862377 0.500000 0.237687
O O2 0.871961 0.604796 0.349279
O O3 0.821382 0.639935 0.194246
O O4 0.000000 0.594684 0.233605
O O5 0.360243 0.870699 0.092110
O O6 0.311718 0.000000 0.028418
O O7 0.195253 0.888013 0.006244
O O8 0.354200 0.893532 0.927121
O O9 0.500000 0.919329 0.336909
O O10 0.354617 0.889937 0.426338
O O11 0.360665 0.862904 0.256522
O O12 0.350270 0.000000 0.318968
O O13 0.895572 0.500000 0.452131
O O14 0.000000 0.383769 0.468413
O O15 0.500000 0.612635 0.031086
O O16 0.388344 0.500000 0.022572
O O17 0.326608 0.620675 0.094751
O O18 0.500000 0.911448 0.828020
O O19 0.341517 0.867325 0.759768
O O20 0.355574 0.000000 0.821416
O O21 0.500000 0.302020 0.671522
O O22 0.320113 0.246684 0.666408
#
# Coordination Sequence:
#
# PCOD9356646 Si02
#       8
#     8   8   8   8   8   8   8   8
#     4   9  17  32  55  79 102 130 167 211 255 306
#     4  10  19  33  52  75 100 132 175 218 257 301
#     4   8  16  33  52  66  85 125 182 225 241 264
#     4   8  14  28  52  79 101 122 157 207 259 307
#     4   9  17  30  49  69  91 126 171 212 242 279
#     4  10  19  30  47  72 102 133 164 203 253 308
#     4  11  23  34  46  69 103 144 176 205 251 303
#     4  12  21  31  46  73 107 134 159 196 256 322
#
# _framework density 15.879578
#
# number of rings (size 3 to 8) (size 9 to 14) (size 15 to 20)
#    0.000    2.375    1.250    4.500    0.000    3.250 
#    0.000    3.125    0.000    0.000    0.000    0.875 
#    0.000    3.000    0.000    0.000    0.000    0.000 
#
# Total GULP energy -178347.776173 kJ/mol
# GULP energy per Si atom -5573.368005 kJ/mol
# Density = 1.584344 g / cm^3
# Si number density = 15.879578 Si / 1000 Ang^3
#
#
#
# Elastic Constant Matrix: (Units=GPa)
#
#
# Indices 1 2 3 4 5 6 
#
# 1 72.7524 24.8420 29.1458 0.0000 0.0000 0.0000
# 2 24.8420 45.9202 39.9929 0.0000 0.0000 0.0000
# 3 29.1458 39.9929 96.3244 0.0000 0.0000 0.0000
# 4 0.0000 0.0000 0.0000 -26.2283 0.0000 0.0000
# 5 0.0000 0.0000 0.0000 0.0000 18.7732 0.0000
# 6 0.0000 0.0000 0.0000 0.0000 0.0000 18.1899
#
#
#
# Elastic Compliance Matrix: (Units=1/GPa)
#
#
# Indices 1 2 3 4 5 6 
#
# 1 0.017124 -0.007442 -0.002091 0.000000 0.000000 0.000000
# 2 -0.007442 0.037346 -0.013254 0.000000 0.000000 0.000000
# 3 -0.002091 -0.013254 0.016517 0.000000 0.000000 0.000000
# 4 0.000000 0.000000 0.000000 -0.038127 0.000000 0.000000
# 5 0.000000 0.000000 0.000000 0.000000 0.053267 0.000000
# 6 0.000000 0.000000 0.000000 0.000000 0.000000 0.054975
#
#
# Mechanical properties :
#
#
# Convention : Reuss Voigt Hill
#
# Bulk Modulus (GPa) = 39.35094 44.77315 42.06205
# Shear Modulus (GPa) = 25.62132 10.21473 17.91803
#
# Velocity S-wave (km/s) = 4.02117 2.53901 3.36277
# Velocity P-wave (km/s) = 6.81134 6.07059 6.45161
#
# Compressibility (1/GPa) = 0.02541235
#
# Stress axis : x y z
#
# Youngs Moduli (GPa) = 58.39610 26.77655 60.54277
#
# Poissons Ratio (x) = 0.19928 0.12662
# Poissons Ratio (y) = 0.43461 0.80242
# Poissons Ratio (z) = 0.12213 0.35489
#
# Static dielectric constant tensor:
#      x y z
#    x 1.549760 0.000000 0.000000 
#    y 0.000000 1.534670 0.000000 
#    z 0.000000 0.000000 1.522640 
# 
# From -- ./inp_files/14771.got.cif
#   From: 2010.05.17/outbox.cif.g08.bks.cpg/sg38_8_cif.got.tgz:14771.got - 2010.06.03 18:07:57.
