data_PCOD9356143
_publ_section_title
;
Structure prediction by ZEFSAII (Michael W. Deem and Ramdas Pophale) SiO2 
 PCOD9356143
Probable space group: A M M 2
;
_chemical_formula_sum "Si O2"
_cell_formula_units_Z 64
_cell_length_a 14.758128
_cell_length_b 19.288581
_cell_length_c 11.937097
_cell_angle_alpha 90.000000
_cell_angle_beta 90.000000
_cell_angle_gamma 90.000000
_cell_volume 3398.053989
_symmetry_space_group_name_H-M "A M M 2"
_symmetry_group_IT_number 38
_symmetry_cell_setting 'orthorhombic'
loop_
_space_group_symop_operation_xyz
x,y,z
-x,-y,z
-x,y,z
x,-y,z
x,1/2+y,1/2+z
-x,1/2-y,1/2+z
-x,1/2+y,1/2+z
x,1/2-y,1/2+z
loop_
_atom_site_type_symbol
_atom_site_label
_atom_site_fract_x
_atom_site_fract_y
_atom_site_fract_z
Si Si1 0.897463 0.653597 0.475110
Si Si2 0.602802 0.669841 0.036196
Si Si3 0.267274 0.420495 0.600553
Si Si4 0.899856 0.676344 0.224617
Si Si5 0.396819 0.330865 0.459683
Si Si6 0.102770 0.678364 0.971500
Si Si7 0.718032 0.637678 0.836083
Si Si8 0.294846 0.714673 0.250964
O O1 0.820537 0.618098 0.548840
O O2 0.892812 0.634154 0.341720
O O3 0.886817 0.737620 0.481120
O O4 0.000000 0.637597 0.513092
O O5 0.500000 0.648335 0.058546
O O6 0.663283 0.675161 0.146403
O O7 0.601519 0.751014 0.999748
O O8 0.649441 0.625280 0.938682
O O9 0.266588 0.500000 0.564987
O O10 0.355047 0.381134 0.551842
O O11 0.269172 0.414762 0.734914
O O12 0.811946 0.723352 0.233210
O O13 0.000000 0.709660 0.229374
O O14 0.892988 0.647082 0.098280
O O15 0.500000 0.349007 0.427648
O O16 0.325979 0.329376 0.357617
O O17 0.185215 0.652667 0.895521
O O18 0.000000 0.665510 0.929496
O O19 0.676410 0.706799 0.775957
#
# Coordination Sequence:
#
# PCOD9356143 Si02
#       8
#     8   8   8   8   8   8   8   8
#     4  10  20  35  55  83 118 150 189 236 284 343
#     4  10  20  34  57  87 114 144 177 235 307 350
#     4  12  25  40  56  78 114 165 202 226 268 335
#     4  10  18  29  52  83 114 144 177 221 285 351
#     4  10  21  36  55  83 114 145 188 238 290 345
#     4  10  19  31  55  89 119 147 179 233 304 349
#     4  11  21  33  53  80 117 151 187 234 276 346
#     4  11  17  32  59  85 116 140 176 238 306 345
#
# _framework density 18.834309999999999
#
# number of rings (size 3 to 8) (size 9 to 14) (size 15 to 20)
#    0.000    1.500    5.000    1.875    0.000    2.000 
#    0.000    0.000    0.000    3.000    0.000    1.750 
#    0.000    0.000    0.000    0.000    0.000    0.000 
#
# Total GULP energy -178196.036728 kJ/mol
# GULP energy per Si atom -5568.626148 kJ/mol
# Density = 1.879144 g / cm^3
# Si number density = 18.834310 Si / 1000 Ang^3
#
#
#
# Elastic Constant Matrix: (Units=GPa)
#
#
# Indices 1 2 3 4 5 6 
#
# 1 98.6305 14.9750 30.4852 0.0000 0.0000 0.0000
# 2 14.9750 25.1709 5.1287 0.0000 0.0000 0.0000
# 3 30.4852 5.1287 95.1494 0.0000 0.0000 0.0000
# 4 0.0000 0.0000 0.0000 10.5608 0.0000 0.0000
# 5 0.0000 0.0000 0.0000 0.0000 15.4494 0.0000
# 6 0.0000 0.0000 0.0000 0.0000 0.0000 5.1606
#
#
#
# Elastic Compliance Matrix: (Units=1/GPa)
#
#
# Indices 1 2 3 4 5 6 
#
# 1 0.012236 -0.006553 -0.003567 0.000000 0.000000 0.000000
# 2 -0.006553 0.043679 -0.000255 0.000000 0.000000 0.000000
# 3 -0.003567 -0.000255 0.011666 0.000000 0.000000 0.000000
# 4 0.000000 0.000000 0.000000 0.094690 0.000000 0.000000
# 5 0.000000 0.000000 0.000000 0.000000 0.064727 0.000000
# 6 0.000000 0.000000 0.000000 0.000000 0.000000 0.193776
#
#
# Mechanical properties :
#
#
# Convention : Reuss Voigt Hill
#
# Bulk Modulus (GPa) = 21.35311 35.56984 28.46147
# Shear Modulus (GPa) = 10.93770 17.45831 14.19800
#
# Velocity S-wave (km/s) = 2.41245 3.04787 2.74859
# Velocity P-wave (km/s) = 4.37286 5.59578 5.02168
#
# Compressibility (1/GPa) = 0.04683159
#
# Stress axis : x y z
#
# Youngs Moduli (GPa) = 81.72366 22.89440 85.71597
#
# Poissons Ratio (x) = 0.15003 0.30577
# Poissons Ratio (y) = 0.53553 0.02184
# Poissons Ratio (z) = 0.29153 0.00583
#
# Static dielectric constant tensor:
#      x y z
#    x 1.678520 0.000000 0.000000 
#    y 0.000000 1.617860 0.000000 
#    z 0.000000 0.000000 1.717700 
# 
# From -- ./inp_files/10248.got.cif
#   From: 2010.05.17/outbox.cif.g08.bks.cpg/sg38_6_cif.got.tgz:10248.got - 2010.06.03 18:07:57.
