data_PCOD9356272
_publ_section_title
;
Structure prediction by ZEFSAII (Michael W. Deem and Ramdas Pophale) SiO2 
 PCOD9356272
Probable space group: A M M 2
;
_chemical_formula_sum "Si O2"
_cell_formula_units_Z 56
_cell_length_a 8.428501
_cell_length_b 19.642789
_cell_length_c 18.350286
_cell_angle_alpha 90.000000
_cell_angle_beta 90.000000
_cell_angle_gamma 90.000000
_cell_volume 3038.059894
_symmetry_space_group_name_H-M "A M M 2"
_symmetry_group_IT_number 38
_symmetry_cell_setting 'orthorhombic'
loop_
_space_group_symop_operation_xyz
x,y,z
-x,-y,z
-x,y,z
x,-y,z
x,1/2+y,1/2+z
-x,1/2-y,1/2+z
-x,1/2+y,1/2+z
x,1/2-y,1/2+z
loop_
_atom_site_type_symbol
_atom_site_label
_atom_site_fract_x
_atom_site_fract_y
_atom_site_fract_z
Si Si1 0.311089 0.073097 0.622720
Si Si2 0.811193 0.214725 0.996048
Si Si3 0.313790 0.278275 0.137861
Si Si4 0.182455 0.654380 0.719938
Si Si5 0.193246 0.577270 0.577934
Si Si6 0.680658 0.196935 0.374605
Si Si7 0.816929 0.923254 0.461542
O O1 0.500000 0.075050 0.605481
O O2 0.277842 0.144497 0.660748
O O3 0.215577 0.074305 0.547483
O O4 0.279446 0.000000 0.659450
O O5 0.720658 0.264639 0.052518
O O6 0.763444 0.137820 0.021044
O O7 0.000000 0.220873 0.007975
O O8 0.773191 0.241602 0.915059
O O9 0.500000 0.263818 0.152291
O O10 0.201063 0.225576 0.177836
O O11 0.245913 0.600776 0.659428
O O12 0.264126 0.669262 0.796406
O O13 0.000000 0.636756 0.734185
O O14 0.245417 0.500000 0.561335
O O15 0.000000 0.577042 0.579480
O O16 0.500000 0.218647 0.369626
O O17 0.704088 0.131377 0.425691
O O18 0.000000 0.903682 0.447939
O O19 0.791933 0.000000 0.433283
#
# Coordination Sequence:
#
# PCOD9356272 Si02
#       7
#     8   8   8   8   8   8   8
#     4   9  17  29  47  72 101 133 166 202 248 297
#     4  10  19  32  54  79 104 137 178 222 266 317
#     4  10  18  31  51  75 103 135 171 215 261 311
#     4  10  21  35  53  76 104 139 177 220 267 324
#     4   8  16  33  57  83 107 134 172 220 273 325
#     4  12  23  35  51  74 107 144 180 222 269 322
#     4  10  20  32  48  72 102 135 171 208 247 299
#
# _framework density 18.432818000000001
#
# number of rings (size 3 to 8) (size 9 to 14) (size 15 to 20)
#    0.000    2.143    1.429    3.857    0.000    2.000 
#    0.000    1.429    0.000   15.857    0.000    0.000 
#    0.000    0.000    0.000    0.000    0.000    0.000 
#
# Total GULP energy -155929.490319 kJ/mol
# GULP energy per Si atom -5568.910369 kJ/mol
# Density = 1.839086 g / cm^3
# Si number density = 18.432818 Si / 1000 Ang^3
#
#
#
# Elastic Constant Matrix: (Units=GPa)
#
#
# Indices 1 2 3 4 5 6 
#
# 1 31.0039 8.4918 4.9111 0.0000 0.0000 0.0000
# 2 8.4918 107.8771 4.4399 0.0000 0.0000 0.0000
# 3 4.9111 4.4399 28.8789 0.0000 0.0000 0.0000
# 4 0.0000 0.0000 0.0000 10.7349 0.0000 0.0000
# 5 0.0000 0.0000 0.0000 0.0000 31.6888 0.0000
# 6 0.0000 0.0000 0.0000 0.0000 0.0000 -0.7506
#
#
#
# Elastic Compliance Matrix: (Units=1/GPa)
#
#
# Indices 1 2 3 4 5 6 
#
# 1 0.033772 -0.002437 -0.005368 0.000000 0.000000 0.000000
# 2 -0.002437 0.009505 -0.001047 0.000000 0.000000 0.000000
# 3 -0.005368 -0.001047 0.035701 0.000000 0.000000 0.000000
# 4 0.000000 0.000000 0.000000 0.093154 0.000000 0.000000
# 5 0.000000 0.000000 0.000000 0.000000 0.031557 0.000000
# 6 0.000000 0.000000 0.000000 0.000000 0.000000 -1.332217
#
#
# Mechanical properties :
#
#
# Convention : Reuss Voigt Hill
#
# Bulk Modulus (GPa) = 16.32052 22.60506 19.46279
# Shear Modulus (GPa) = -4.58548 18.32907 6.87180
#
# Velocity S-wave (km/s) = -1.57895 3.15679 1.93290
# Velocity P-wave (km/s) = 2.35567 5.05739 3.94502
#
# Compressibility (1/GPa) = 0.06127256
#
# Stress axis : x y z
#
# Youngs Moduli (GPa) = 29.61031 105.21040 28.01019
#
# Poissons Ratio (x) = 0.25645 0.15037
# Poissons Ratio (y) = 0.07218 0.02932
# Poissons Ratio (z) = 0.15896 0.11013
#
# Static dielectric constant tensor:
#      x y z
#    x 1.635730 0.000000 0.000000 
#    y 0.000000 1.678900 0.000000 
#    z 0.000000 0.000000 1.673880 
# 
# From -- ./inp_files/17108.got.cif
#   From: 2010.05.17/outbox.cif.g08.bks.cpg/sg38_9_cif.got.tgz:17108.got - 2010.06.03 18:07:57.
