data_PCOD9356751
_publ_section_title
;
Structure prediction by ZEFSAII (Michael W. Deem and Ramdas Pophale) SiO2 
 PCOD9356751
Probable space group: A M M 2
;
_chemical_formula_sum "Si O2"
_cell_formula_units_Z 64
_cell_length_a 21.641020
_cell_length_b 7.605173
_cell_length_c 19.297738
_cell_angle_alpha 90.000000
_cell_angle_beta 90.000000
_cell_angle_gamma 90.000000
_cell_volume 3176.093141
_symmetry_space_group_name_H-M "A M M 2"
_symmetry_group_IT_number 38
_symmetry_cell_setting 'orthorhombic'
loop_
_space_group_symop_operation_xyz
x,y,z
-x,-y,z
-x,y,z
x,-y,z
x,1/2+y,1/2+z
-x,1/2-y,1/2+z
-x,1/2+y,1/2+z
x,1/2-y,1/2+z
loop_
_atom_site_type_symbol
_atom_site_label
_atom_site_fract_x
_atom_site_fract_y
_atom_site_fract_z
Si Si1 0.297454 0.207467 0.955680
Si Si2 0.930838 0.710382 0.619357
Si Si3 0.433153 0.710422 0.963316
Si Si4 0.184722 0.215934 0.207929
Si Si5 0.929965 0.212011 0.459560
Si Si6 0.180571 0.293628 0.864453
Si Si7 0.300286 0.715950 0.615241
Si Si8 0.566302 0.795665 0.125144
O O1 0.367729 0.239515 0.930214
O O2 0.243894 0.279995 0.907243
O O3 0.287670 0.000000 0.958738
O O4 0.293012 0.274570 0.035211
O O5 0.933471 0.500000 0.628129
O O6 0.877817 0.775527 0.670175
O O7 0.914771 0.744289 0.539190
O O8 0.000000 0.780780 0.631798
O O9 0.500000 0.762107 0.931851
O O10 0.433090 0.500000 0.969984
O O11 0.432281 0.788389 0.041073
O O12 0.187287 0.277873 0.287003
O O13 0.243547 0.270708 0.162598
O O14 0.185446 0.000000 0.207273
O O15 0.876788 0.280466 0.408698
O O16 0.000000 0.275479 0.445150
O O17 0.931286 0.000000 0.454762
O O18 0.166892 0.500000 0.855863
O O19 0.302256 0.500000 0.613892
O O20 0.366739 0.777873 0.644375
O O21 0.500000 0.716337 0.146326
O O22 0.565355 0.000000 0.146288
#
# Coordination Sequence:
#
# PCOD9356751 Si02
#       8
#     8   8   8   8   8   8   8   8
#     4  10  19  31  49  70  94 125 159 196 236 281
#     4   9  17  30  50  73  93 117 153 194 233 276
#     4   9  16  26  43  69  98 123 151 192 238 281
#     4   9  17  29  45  66  92 120 152 193 235 272
#     4   9  18  32  49  70  96 124 154 191 238 289
#     4  10  20  32  47  67  93 126 160 196 238 283
#     4   8  14  25  43  65  86 113 149 188 229 270
#     4   8  13  22  38  62  90 117 148 187 231 278
#
# _framework density 20.150542999999999
#
# number of rings (size 3 to 8) (size 9 to 14) (size 15 to 20)
#    0.000    3.000    0.000    2.250    0.000    2.750 
#    0.000    3.125    0.000    4.500    0.000    7.000 
#    0.000    0.000    0.000    0.000    0.000    0.000 
#
# Total GULP energy -178326.340361 kJ/mol
# GULP energy per Si atom -5572.698136 kJ/mol
# Density = 2.010468 g / cm^3
# Si number density = 20.150543 Si / 1000 Ang^3
#
#
#
# Elastic Constant Matrix: (Units=GPa)
#
#
# Indices 1 2 3 4 5 6 
#
# 1 189.3209 -5.5024 109.1073 0.0000 0.0000 0.0000
# 2 -5.5024 41.6833 -0.9525 0.0000 0.0000 0.0000
# 3 109.1073 -0.9525 101.6032 0.0000 0.0000 0.0000
# 4 0.0000 0.0000 0.0000 16.9863 0.0000 0.0000
# 5 0.0000 0.0000 0.0000 0.0000 3.5656 0.0000
# 6 0.0000 0.0000 0.0000 0.0000 0.0000 7.9764
#
#
#
# Elastic Compliance Matrix: (Units=1/GPa)
#
#
# Indices 1 2 3 4 5 6 
#
# 1 0.013952 0.001500 -0.014969 0.000000 0.000000 0.000000
# 2 0.001500 0.024157 -0.001384 0.000000 0.000000 0.000000
# 3 -0.014969 -0.001384 0.025903 0.000000 0.000000 0.000000
# 4 0.000000 0.000000 0.000000 0.058871 0.000000 0.000000
# 5 0.000000 0.000000 0.000000 0.000000 0.280458 0.000000
# 6 0.000000 0.000000 0.000000 0.000000 0.000000 0.125370
#
#
# Mechanical properties :
#
#
# Convention : Reuss Voigt Hill
#
# Bulk Modulus (GPa) = 29.14899 59.76803 44.45851
# Shear Modulus (GPa) = 8.77420 21.03598 14.90509
#
# Velocity S-wave (km/s) = 2.08897 3.23451 2.72267
# Velocity P-wave (km/s) = 4.50726 6.60867 5.65641
#
# Compressibility (1/GPa) = 0.03430651
#
# Stress axis : x y z
#
# Youngs Moduli (GPa) = 71.67370 41.39630 38.60515
#
# Poissons Ratio (x) = -0.06208 0.57786
# Poissons Ratio (y) = -0.10749 0.05343
# Poissons Ratio (z) = 1.07285 0.05729
#
# Static dielectric constant tensor:
#      x y z
#    x 1.724100 0.000000 0.000000 
#    y 0.000000 1.747910 0.000000 
#    z 0.000000 0.000000 1.665390 
# 
# From -- ./inp_files/18980.got.cif
#   From: 2010.05.17/outbox.cif.g08.bks.cpg/sg38_10_cif.got.tgz:18980.got - 2010.06.03 18:07:57.
