data_PCOD9356036
_publ_section_title
;
Structure prediction by ZEFSAII (Michael W. Deem and Ramdas Pophale) SiO2 
 PCOD9356036
Probable space group: A M M 2
;
_chemical_formula_sum "Si O2"
_cell_formula_units_Z 56
_cell_length_a 8.716428
_cell_length_b 14.039575
_cell_length_c 30.021846
_cell_angle_alpha 90.000000
_cell_angle_beta 90.000000
_cell_angle_gamma 90.000000
_cell_volume 3673.921742
_symmetry_space_group_name_H-M "A M M 2"
_symmetry_group_IT_number 38
_symmetry_cell_setting 'orthorhombic'
loop_
_space_group_symop_operation_xyz
x,y,z
-x,-y,z
-x,y,z
x,-y,z
x,1/2+y,1/2+z
-x,1/2-y,1/2+z
-x,1/2+y,1/2+z
x,1/2-y,1/2+z
loop_
_atom_site_type_symbol
_atom_site_label
_atom_site_fract_x
_atom_site_fract_y
_atom_site_fract_z
Si Si1 0.684042 0.109776 0.116890
Si Si2 0.822701 0.615601 0.881611
Si Si3 0.682022 0.112299 0.288065
Si Si4 0.684027 0.389946 0.155915
Si Si5 0.182521 0.212091 0.202975
Si Si6 0.187091 0.889958 0.479421
Si Si7 0.184649 0.212254 0.569541
O O1 0.500000 0.118786 0.117214
O O2 0.746877 0.143908 0.164778
O O3 0.753828 0.183111 0.081361
O O4 0.724618 0.000000 0.108815
O O5 0.822738 0.500000 0.883616
O O6 0.728127 0.642501 0.838025
O O7 0.763733 0.645393 0.930435
O O8 0.000000 0.645686 0.876128
O O9 0.500000 0.120467 0.281864
O O10 0.767167 0.172902 0.250689
O O11 0.723522 0.000000 0.283219
O O12 0.500000 0.380047 0.155008
O O13 0.722878 0.500000 0.164175
O O14 0.752410 0.316684 0.191774
O O15 0.750471 0.355936 0.108374
O O16 0.000000 0.212555 0.198566
O O17 0.233300 0.826611 0.521344
O O18 0.000000 0.891049 0.478084
O O19 0.235997 0.000000 0.485888
O O20 0.000000 0.211569 0.571933
#
# Coordination Sequence:
#
# PCOD9356036 Si02
#       7
#     8   8   8   8   8   8   8
#     4  10  20  33  46  61  87 120 150 184 224 263
#     4   8  14  26  43  62  86 116 148 179 213 258
#     4  10  19  30  44  64  92 121 147 179 220 265
#     4  10  20  33  47  64  90 121 149 180 218 259
#     4  11  21  31  47  68  88 114 149 185 219 260
#     4   8  14  25  42  65  92 119 145 176 216 259
#     4  10  18  28  46  69  91 117 150 185 219 259
#
# _framework density 15.242568
#
# number of rings (size 3 to 8) (size 9 to 14) (size 15 to 20)
#    0.000    2.429    0.000    6.429    0.000    5.429 
#    0.000    1.429    0.000    3.429    0.000    1.000 
#    0.000    5.714    0.000    0.000    0.000    0.000 
#
# Total GULP energy -156108.940860 kJ/mol
# GULP energy per Si atom -5575.319316 kJ/mol
# Density = 1.520788 g / cm^3
# Si number density = 15.242568 Si / 1000 Ang^3
#
#
#
# Elastic Constant Matrix: (Units=GPa)
#
#
# Indices 1 2 3 4 5 6 
#
# 1 53.9867 37.0262 32.9426 0.0000 0.0000 0.0000
# 2 37.0262 98.1028 60.6937 0.0000 0.0000 0.0000
# 3 32.9426 60.6937 123.5780 0.0000 0.0000 0.0000
# 4 0.0000 0.0000 0.0000 22.4604 0.0000 0.0000
# 5 0.0000 0.0000 0.0000 0.0000 -45.9806 0.0000
# 6 0.0000 0.0000 0.0000 0.0000 0.0000 15.3729
#
#
#
# Elastic Compliance Matrix: (Units=1/GPa)
#
#
# Indices 1 2 3 4 5 6 
#
# 1 0.025746 -0.007859 -0.003003 0.000000 0.000000 0.000000
# 2 -0.007859 0.017042 -0.006275 0.000000 0.000000 0.000000
# 3 -0.003003 -0.006275 0.011974 0.000000 0.000000 0.000000
# 4 0.000000 0.000000 0.000000 0.044523 0.000000 0.000000
# 5 0.000000 0.000000 0.000000 0.000000 -0.021748 0.000000
# 6 0.000000 0.000000 0.000000 0.000000 0.000000 0.065049
#
#
# Mechanical properties :
#
#
# Convention : Reuss Voigt Hill
#
# Bulk Modulus (GPa) = 48.80985 59.66583 54.23784
# Shear Modulus (GPa) = 27.21995 8.03753 17.62874
#
# Velocity S-wave (km/s) = 4.23044 2.29881 3.40449
# Velocity P-wave (km/s) = 7.48022 6.80259 7.14944
#
# Compressibility (1/GPa) = 0.02048767
#
# Stress axis : x y z
#
# Youngs Moduli (GPa) = 38.84152 58.68010 83.51141
#
# Poissons Ratio (x) = 0.46116 0.25081
# Poissons Ratio (y) = 0.30525 0.52401
# Poissons Ratio (z) = 0.11665 0.36820
#
# Static dielectric constant tensor:
#      x y z
#    x 1.513120 0.000000 0.000000 
#    y 0.000000 1.491380 0.000000 
#    z 0.000000 0.000000 1.509250 
# 
# From -- ./inp_files/24650.got.cif
#   From: 2010.05.17/outbox.cif.g08.bks.cpg/sg38_13_cif.got.tgz:24650.got - 2010.06.03 18:07:57.
