data_PCOD9356056
_publ_section_title
;
Structure prediction by ZEFSAII (Michael W. Deem and Ramdas Pophale) SiO2 
 PCOD9356056
Probable space group: A M M 2
;
_chemical_formula_sum "Si O2"
_cell_formula_units_Z 60
_cell_length_a 13.643151
_cell_length_b 14.084233
_cell_length_c 13.511489
_cell_angle_alpha 90.000000
_cell_angle_beta 90.000000
_cell_angle_gamma 90.000000
_cell_volume 2596.277436
_symmetry_space_group_name_H-M "A M M 2"
_symmetry_group_IT_number 38
_symmetry_cell_setting 'orthorhombic'
loop_
_space_group_symop_operation_xyz
x,y,z
-x,-y,z
-x,y,z
x,-y,z
x,1/2+y,1/2+z
-x,1/2-y,1/2+z
-x,1/2+y,1/2+z
x,1/2-y,1/2+z
loop_
_atom_site_type_symbol
_atom_site_label
_atom_site_fract_x
_atom_site_fract_y
_atom_site_fract_z
Si Si1 0.611004 0.325973 0.373050
Si Si2 0.608404 0.809315 0.633491
Si Si3 0.111004 0.825973 0.831077
Si Si4 0.108404 0.809314 0.070635
Si Si5 0.807268 0.104265 0.560204
Si Si6 0.250000 0.838173 0.352063
Si Si7 0.750000 0.000000 0.852064
Si Si8 0.692732 0.104265 0.143922
O O1 0.500000 0.330675 0.409008
O O2 0.607046 0.320770 0.252731
O O3 0.669683 0.231425 0.402058
O O4 0.676568 0.416627 0.395265
O O5 0.500000 0.834560 0.596216
O O6 0.696632 0.875862 0.597886
O O7 0.632508 0.698183 0.613680
O O8 0.169683 0.731425 0.802068
O O9 0.176569 0.916627 0.808863
O O10 0.000000 0.830676 0.795118
O O11 0.107046 0.820769 0.951396
O O12 0.132508 0.698183 0.090446
O O13 0.196632 0.875862 0.106240
O O14 0.000000 0.834560 0.107911
O O15 0.800512 0.106840 0.440696
O O16 0.841903 0.000000 0.590415
O O17 0.300511 0.893160 0.263430
O O18 0.658097 0.000000 0.113711
#
# Coordination Sequence:
#
# PCOD9356056 Si02
#       8
#     8   8   8   8   8   8   4   8
#     4   9  18  33  52  74 107 146 181 225 276 323
#     4   9  20  37  55  79 111 144 181 227 275 325
#     4   9  18  33  52  74 107 146 181 225 276 323
#     4   9  20  37  55  79 111 144 181 227 275 325
#     4  10  20  35  58  83 109 144 185 225 274 328
#     4   9  19  35  53  78 112 142 178 226 274 328
#     4  10  18  28  50  78 102 138 188 226 270 324
#     4  10  20  35  58  83 109 144 185 225 274 328
#
# _framework density 23.110009999999999
#
# number of rings (size 3 to 8) (size 9 to 14) (size 15 to 20)
#    0.000    2.667    0.000    0.800    1.867    2.133 
#    0.000    0.000    0.000    6.400    0.000    0.000 
#    0.000    0.000    0.000    0.000    0.000    0.000 
#
# Total GULP energy -167211.057870 kJ/mol
# GULP energy per Si atom -5573.701929 kJ/mol
# Density = 2.305741 g / cm^3
# Si number density = 23.110010 Si / 1000 Ang^3
#
#
#
# Elastic Constant Matrix: (Units=GPa)
#
#
# Indices 1 2 3 4 5 6 
#
# 1 97.9863 1.0276 -9.4405 0.0000 0.0000 0.0000
# 2 1.0276 116.0036 7.3040 0.0000 0.0000 0.0000
# 3 -9.4405 7.3040 66.9108 0.0000 0.0000 0.0000
# 4 0.0000 0.0000 0.0000 18.5821 0.0000 0.0000
# 5 0.0000 0.0000 0.0000 0.0000 27.0411 0.0000
# 6 0.0000 0.0000 0.0000 0.0000 0.0000 1.7227
#
#
#
# Elastic Compliance Matrix: (Units=1/GPa)
#
#
# Indices 1 2 3 4 5 6 
#
# 1 0.010350 -0.000185 0.001480 0.000000 0.000000 0.000000
# 2 -0.000185 0.008683 -0.000974 0.000000 0.000000 0.000000
# 3 0.001480 -0.000974 0.015260 0.000000 0.000000 0.000000
# 4 0.000000 0.000000 0.000000 0.053815 0.000000 0.000000
# 5 0.000000 0.000000 0.000000 0.000000 0.036981 0.000000
# 6 0.000000 0.000000 0.000000 0.000000 0.000000 0.580479
#
#
# Mechanical properties :
#
#
# Convention : Reuss Voigt Hill
#
# Bulk Modulus (GPa) = 28.62281 30.96477 29.79379
# Shear Modulus (GPa) = 6.97767 28.26982 17.62374
#
# Velocity S-wave (km/s) = 1.73951 3.50132 2.76452
# Velocity P-wave (km/s) = 4.05547 5.45652 4.80731
#
# Compressibility (1/GPa) = 0.03493717
#
# Stress axis : x y z
#
# Youngs Moduli (GPa) = 96.61757 115.16252 65.52880
#
# Poissons Ratio (x) = 0.02129 -0.09701
# Poissons Ratio (y) = 0.01786 0.06382
# Poissons Ratio (z) = -0.14304 0.11216
#
# Static dielectric constant tensor:
#      x y z
#    x 1.849240 0.000000 0.000000 
#    y 0.000000 1.793180 0.000000 
#    z 0.000000 0.000000 1.989880 
# 
# From -- ./inp_files/14716.got.cif
#   From: 2010.05.17/outbox.cif.g08.bks.cpg/sg38_8_cif.got.tgz:14716.got - 2010.06.03 18:07:57.
