data_PCOD9356094
_publ_section_title
;
Structure prediction by ZEFSAII (Michael W. Deem and Ramdas Pophale) SiO2 
 PCOD9356094
Probable space group: A M M 2
;
_chemical_formula_sum "Si O2"
_cell_formula_units_Z 64
_cell_length_a 14.530836
_cell_length_b 8.921925
_cell_length_c 31.925710
_cell_angle_alpha 90.000000
_cell_angle_beta 90.000000
_cell_angle_gamma 90.000000
_cell_volume 4138.945747
_symmetry_space_group_name_H-M "A M M 2"
_symmetry_group_IT_number 38
_symmetry_cell_setting 'orthorhombic'
loop_
_space_group_symop_operation_xyz
x,y,z
-x,-y,z
-x,y,z
x,-y,z
x,1/2+y,1/2+z
-x,1/2-y,1/2+z
-x,1/2+y,1/2+z
x,1/2-y,1/2+z
loop_
_atom_site_type_symbol
_atom_site_label
_atom_site_fract_x
_atom_site_fract_y
_atom_site_fract_z
Si Si1 0.891684 0.320231 0.529580
Si Si2 0.784631 0.821606 0.607791
Si Si3 0.779957 0.819384 0.945061
Si Si4 0.111719 0.672963 0.271519
Si Si5 0.893846 0.182855 0.863923
Si Si6 0.605539 0.678262 0.983034
Si Si7 0.394152 0.178807 0.074974
Si Si8 0.109435 0.177578 0.184896
O O1 0.882846 0.500000 0.535879
O O2 0.841232 0.238327 0.567606
O O3 0.843092 0.283567 0.485515
O O4 0.000000 0.284433 0.528419
O O5 0.682411 0.754164 0.603717
O O6 0.835131 0.763278 0.649230
O O7 0.781453 0.000000 0.607029
O O8 0.830858 0.770992 0.902624
O O9 0.681724 0.743685 0.952208
O O10 0.769664 0.000000 0.944085
O O11 0.141170 0.500000 0.265903
O O12 0.139981 0.728858 0.317651
O O13 0.138094 0.769233 0.231294
O O14 0.000000 0.671990 0.273137
O O15 0.000000 0.230993 0.870041
O O16 0.895284 0.000000 0.863283
O O17 0.500000 0.707160 0.969881
O O18 0.617195 0.500000 0.988080
O O19 0.618836 0.756836 0.028110
O O20 0.500000 0.210249 0.087200
O O21 0.380947 0.000000 0.073983
O O22 0.000000 0.209555 0.180321
O O23 0.122117 0.000000 0.180208
#
# Coordination Sequence:
#
# PCOD9356094 Si02
#       8
#     8   8   8   8   8   8   8   8
#     4  10  20  32  45  64  95 133 168 198 229 271
#     4  12  23  33  48  70  97 128 161 197 239 285
#     4  10  18  29  48  71  95 127 164 198 234 281
#     4   8  14  27  47  69  94 123 157 198 241 283
#     4   8  14  26  46  72  99 127 159 194 234 283
#     4  10  20  33  48  67  93 124 158 200 247 287
#     4  10  20  35  54  72  91 119 157 200 243 287
#     4  10  20  33  49  69  96 129 165 202 239 283
#
# _framework density 15.462875
#
# number of rings (size 3 to 8) (size 9 to 14) (size 15 to 20)
#    0.000    2.250    1.250    3.750    0.000    5.500 
#    0.000    0.625    0.000    1.875    0.000    0.875 
#    0.000    5.000    0.000    0.000    0.000    0.000 
#
# Total GULP energy -178491.120825 kJ/mol
# GULP energy per Si atom -5577.847526 kJ/mol
# Density = 1.542768 g / cm^3
# Si number density = 15.462875 Si / 1000 Ang^3
#
#
#
# Elastic Constant Matrix: (Units=GPa)
#
#
# Indices 1 2 3 4 5 6 
#
# 1 97.8233 51.1814 64.7809 0.0000 0.0000 0.0000
# 2 51.1814 53.0471 50.9528 0.0000 0.0000 0.0000
# 3 64.7809 50.9528 126.1278 0.0000 0.0000 0.0000
# 4 0.0000 0.0000 0.0000 19.6223 0.0000 0.0000
# 5 0.0000 0.0000 0.0000 0.0000 8.0942 0.0000
# 6 0.0000 0.0000 0.0000 0.0000 0.0000 18.8341
#
#
#
# Elastic Compliance Matrix: (Units=1/GPa)
#
#
# Indices 1 2 3 4 5 6 
#
# 1 0.022084 -0.017015 -0.004469 0.000000 0.000000 0.000000
# 2 -0.017015 0.043913 -0.009001 0.000000 0.000000 0.000000
# 3 -0.004469 -0.009001 0.013860 0.000000 0.000000 0.000000
# 4 0.000000 0.000000 0.000000 0.050963 0.000000 0.000000
# 5 0.000000 0.000000 0.000000 0.000000 0.123545 0.000000
# 6 0.000000 0.000000 0.000000 0.000000 0.000000 0.053095
#
#
# Mechanical properties :
#
#
# Convention : Reuss Voigt Hill
#
# Bulk Modulus (GPa) = 52.94456 67.86984 60.40720
# Shear Modulus (GPa) = 13.34309 16.64899 14.99604
#
# Velocity S-wave (km/s) = 2.94072 3.28488 3.11755
# Velocity P-wave (km/s) = 6.77086 7.64033 7.21870
#
# Compressibility (1/GPa) = 0.01888768
#
# Stress axis : x y z
#
# Youngs Moduli (GPa) = 45.28092 22.77223 72.14992
#
# Poissons Ratio (x) = 0.38747 0.32245
# Poissons Ratio (y) = 0.77045 0.64941
# Poissons Ratio (z) = 0.20237 0.20497
#
# Static dielectric constant tensor:
#      x y z
#    x 1.508560 0.000000 0.000000 
#    y 0.000000 1.517810 0.000000 
#    z 0.000000 0.000000 1.507230 
# 
# From -- ./inp_files/25083.got.cif
#   From: 2010.05.17/outbox.cif.g08.bks.cpg/sg38_13_cif.got.tgz:25083.got - 2010.06.03 18:07:57.
