data_PCOD9356004
_publ_section_title
;
Structure prediction by ZEFSAII (Michael W. Deem and Ramdas Pophale) SiO2 
 PCOD9356004
Probable space group: A M M 2
;
_chemical_formula_sum "Si O2"
_cell_formula_units_Z 56
_cell_length_a 8.487747
_cell_length_b 19.111530
_cell_length_c 21.655341
_cell_angle_alpha 90.000000
_cell_angle_beta 90.000000
_cell_angle_gamma 90.000000
_cell_volume 3512.795834
_symmetry_space_group_name_H-M "A M M 2"
_symmetry_group_IT_number 38
_symmetry_cell_setting 'orthorhombic'
loop_
_space_group_symop_operation_xyz
x,y,z
-x,-y,z
-x,y,z
x,-y,z
x,1/2+y,1/2+z
-x,1/2-y,1/2+z
-x,1/2+y,1/2+z
x,1/2-y,1/2+z
loop_
_atom_site_type_symbol
_atom_site_label
_atom_site_fract_x
_atom_site_fract_y
_atom_site_fract_z
Si Si1 0.690706 0.654633 0.378570
Si Si2 0.811671 0.920077 0.253723
Si Si3 0.688807 0.344111 0.630201
Si Si4 0.687947 0.208366 0.316629
Si Si5 0.809754 0.920824 0.754842
Si Si6 0.307559 0.919177 0.004512
Si Si7 0.810982 0.283978 0.192814
O O1 0.500000 0.652633 0.376826
O O2 0.738097 0.735962 0.368873
O O3 0.750807 0.610013 0.320120
O O4 0.743975 0.620780 0.442666
O O5 0.746733 0.888542 0.189381
O O6 0.759874 0.868393 0.308894
O O7 0.000000 0.918798 0.249980
O O8 0.758109 0.000000 0.261576
O O9 0.500000 0.343529 0.631642
O O10 0.742685 0.380382 0.567002
O O11 0.749030 0.264587 0.637918
O O12 0.500000 0.201793 0.318108
O O13 0.739739 0.247430 0.253759
O O14 0.765576 0.865160 0.701338
O O15 0.000000 0.921785 0.757150
O O16 0.753131 0.000000 0.745598
O O17 0.500000 0.919074 0.004383
O O18 0.256905 0.000000 0.003924
O O19 0.000000 0.278656 0.194797
#
# Coordination Sequence:
#
# PCOD9356004 Si02
#       7
#     8   8   8   8   8   8   8
#     4   9  17  29  44  62  84 111 141 169 199 241
#     4  10  19  29  42  61  85 111 137 169 210 249
#     4  10  18  28  43  61  83 112 144 173 200 238
#     4   9  16  26  42  62  82 105 136 171 205 244
#     4   9  17  28  42  62  86 110 136 168 208 249
#     4   9  17  28  42  61  85 113 141 167 198 236
#     4   9  16  27  42  58  81 110 137 169 209 248
#
# _framework density 15.941718
#
# number of rings (size 3 to 8) (size 9 to 14) (size 15 to 20)
#    0.000    2.714    0.000    4.286    0.000    3.714 
#    0.000    1.429    0.000    3.429    0.000    1.000 
#    0.000    5.714    0.000    0.000    0.000    0.000 
#
# Total GULP energy -155897.717578 kJ/mol
# GULP energy per Si atom -5567.775628 kJ/mol
# Density = 1.590543 g / cm^3
# Si number density = 15.941718 Si / 1000 Ang^3
#
#
#
# Elastic Constant Matrix: (Units=GPa)
#
#
# Indices 1 2 3 4 5 6 
#
# 1 36.6319 29.5376 16.6058 0.0000 0.0000 0.0000
# 2 29.5376 176.4961 74.5954 0.0000 0.0000 0.0000
# 3 16.6058 74.5954 81.4363 0.0000 0.0000 0.0000
# 4 0.0000 0.0000 0.0000 30.4406 0.0000 0.0000
# 5 0.0000 0.0000 0.0000 0.0000 -34.1970 0.0000
# 6 0.0000 0.0000 0.0000 0.0000 0.0000 16.7436
#
#
#
# Elastic Compliance Matrix: (Units=1/GPa)
#
#
# Indices 1 2 3 4 5 6 
#
# 1 0.031900 -0.004225 -0.002634 0.000000 0.000000 0.000000
# 2 -0.004225 0.009805 -0.008119 0.000000 0.000000 0.000000
# 3 -0.002634 -0.008119 0.020254 0.000000 0.000000 0.000000
# 4 0.000000 0.000000 0.000000 0.032851 0.000000 0.000000
# 5 0.000000 0.000000 0.000000 0.000000 -0.029242 0.000000
# 6 0.000000 0.000000 0.000000 0.000000 0.000000 0.059724
#
#
# Mechanical properties :
#
#
# Convention : Reuss Voigt Hill
#
# Bulk Modulus (GPa) = 31.24966 59.56021 45.40494
# Shear Modulus (GPa) = 30.13568 14.18580 22.16074
#
# Velocity S-wave (km/s) = 4.35255 2.98628 3.73246
# Velocity P-wave (km/s) = 6.70109 7.02373 6.86431
#
# Compressibility (1/GPa) = 0.03200034
#
# Stress axis : x y z
#
# Youngs Moduli (GPa) = 31.34817 101.99296 49.37268
#
# Poissons Ratio (x) = 0.43094 0.13007
# Poissons Ratio (y) = 0.13245 0.40088
# Poissons Ratio (z) = 0.08259 0.82812
#
# Static dielectric constant tensor:
#      x y z
#    x 1.544660 0.000000 0.000000 
#    y 0.000000 1.578450 0.000000 
#    z 0.000000 0.000000 1.508180 
# 
# From -- ./inp_files/22242.got.cif
#   From: 2010.05.17/outbox.cif.g08.bks.cpg/sg38_12_cif.got.tgz:22242.got - 2010.06.03 18:07:57.
