data_PCOD9356490
_publ_section_title
;
Structure prediction by ZEFSAII (Michael W. Deem and Ramdas Pophale) SiO2 
 PCOD9356490
Probable space group: A M M 2
;
_chemical_formula_sum "Si O2"
_cell_formula_units_Z 52
_cell_length_a 11.015105
_cell_length_b 28.830716
_cell_length_c 9.390140
_cell_angle_alpha 90.000000
_cell_angle_beta 90.000000
_cell_angle_gamma 90.000000
_cell_volume 2982.058348
_symmetry_space_group_name_H-M "A M M 2"
_symmetry_group_IT_number 38
_symmetry_cell_setting 'orthorhombic'
loop_
_space_group_symop_operation_xyz
x,y,z
-x,-y,z
-x,y,z
x,-y,z
x,1/2+y,1/2+z
-x,1/2-y,1/2+z
-x,1/2+y,1/2+z
x,1/2-y,1/2+z
loop_
_atom_site_type_symbol
_atom_site_label
_atom_site_fract_x
_atom_site_fract_y
_atom_site_fract_z
Si Si1 0.743298 0.856176 0.711860
Si Si2 0.000000 0.354696 0.850718
Si Si3 0.361301 0.794023 0.245801
Si Si4 0.000000 0.788202 0.085725
Si Si5 0.739735 0.283085 0.438538
Si Si6 0.644208 0.553453 0.112962
Si Si7 0.000000 0.185476 0.652137
Si Si8 0.728487 0.877120 0.402995
O O1 0.692407 0.824740 0.837221
O O2 0.713528 0.910769 0.718144
O O3 0.702746 0.846653 0.548050
O O4 0.883427 0.841537 0.708084
O O5 0.000000 0.329809 0.699114
O O6 0.872531 0.381097 0.874698
O O7 0.000000 0.318099 0.980322
O O8 0.500000 0.784569 0.284486
O O9 0.274122 0.762664 0.343224
O O10 0.330179 0.847773 0.277122
O O11 0.336672 0.781307 0.082925
O O12 0.000000 0.740252 0.175823
O O13 0.877929 0.789761 0.992128
O O14 0.500000 0.557854 0.135534
O O15 0.679102 0.500000 0.127617
O O16 0.675161 0.574034 0.955740
#
# Coordination Sequence:
#
# PCOD9356490 Si02
#       8
#     8   4   8   4   8   8   4   8
#     4   9  21  35  55  82 112 144 192 242 290 338
#     4  10  18  36  54  83 114 150 193 232 288 339
#     4  12  24  37  52  78 119 162 197 236 287 345
#     4  12  23  32  56  80 120 160 203 234 278 342
#     4  12  24  37  54  83 115 162 200 238 286 347
#     4   9  19  37  63  88 111 145 192 246 300 349
#     4  10  19  34  52  79 118 152 192 240 278 343
#     4   9  19  37  58  82 114 144 188 244 285 347
#
# _framework density 17.437621
#
# number of rings (size 3 to 8) (size 9 to 14) (size 15 to 20)
#    0.923    0.769    1.538    5.077    2.154    1.231 
#    0.000    1.538    0.000    0.923    0.000    2.154 
#    0.000    0.000    0.000    0.000    0.000    0.000 
#
# Total GULP energy -144770.997565 kJ/mol
# GULP energy per Si atom -5568.115291 kJ/mol
# Density = 1.739793 g / cm^3
# Si number density = 17.437621 Si / 1000 Ang^3
#
#
#
# Elastic Constant Matrix: (Units=GPa)
#
#
# Indices 1 2 3 4 5 6 
#
# 1 47.4654 15.1966 19.9904 0.0000 0.0000 0.0000
# 2 15.1966 109.3524 24.2857 0.0000 0.0000 0.0000
# 3 19.9904 24.2857 62.1577 0.0000 0.0000 0.0000
# 4 0.0000 0.0000 0.0000 21.2481 0.0000 0.0000
# 5 0.0000 0.0000 0.0000 0.0000 15.8873 0.0000
# 6 0.0000 0.0000 0.0000 0.0000 0.0000 21.6955
#
#
#
# Elastic Compliance Matrix: (Units=1/GPa)
#
#
# Indices 1 2 3 4 5 6 
#
# 1 0.024697 -0.001827 -0.007229 0.000000 0.000000 0.000000
# 2 -0.001827 0.010149 -0.003378 0.000000 0.000000 0.000000
# 3 -0.007229 -0.003378 0.019733 0.000000 0.000000 0.000000
# 4 0.000000 0.000000 0.000000 0.047063 0.000000 0.000000
# 5 0.000000 0.000000 0.000000 0.000000 0.062943 0.000000
# 6 0.000000 0.000000 0.000000 0.000000 0.000000 0.046092
#
#
# Mechanical properties :
#
#
# Convention : Reuss Voigt Hill
#
# Bulk Modulus (GPa) = 33.65673 37.54678 35.60175
# Shear Modulus (GPa) = 20.37083 22.39971 21.38527
#
# Velocity S-wave (km/s) = 3.42162 3.58797 3.50578
# Velocity P-wave (km/s) = 5.91211 6.22443 6.07028
#
# Compressibility (1/GPa) = 0.02971174
#
# Stress axis : x y z
#
# Youngs Moduli (GPa) = 40.49003 98.53426 50.67709
#
# Poissons Ratio (x) = 0.17999 0.36635
# Poissons Ratio (y) = 0.07396 0.17117
# Poissons Ratio (z) = 0.29271 0.33282
#
# Static dielectric constant tensor:
#      x y z
#    x 1.622020 0.000000 0.000000 
#    y 0.000000 1.594300 0.000000 
#    z 0.000000 0.000000 1.624600 
# 
# From -- ./inp_files/4878.got.cif
#   From: 2010.05.17/outbox.cif.g08.bks.cpg/sg38_3_cif.got.tgz:4878.got - 2010.06.03 18:07:57.
