data_PCOD9356013
_publ_section_title
;
Structure prediction by ZEFSAII (Michael W. Deem and Ramdas Pophale) SiO2 
 PCOD9356013
Probable space group: A M M 2
;
_chemical_formula_sum "Si O2"
_cell_formula_units_Z 64
_cell_length_a 7.559808
_cell_length_b 19.448788
_cell_length_c 22.179188
_cell_angle_alpha 90.000000
_cell_angle_beta 90.000000
_cell_angle_gamma 90.000000
_cell_volume 3260.986119
_symmetry_space_group_name_H-M "A M M 2"
_symmetry_group_IT_number 38
_symmetry_cell_setting 'orthorhombic'
loop_
_space_group_symop_operation_xyz
x,y,z
-x,-y,z
-x,y,z
x,-y,z
x,1/2+y,1/2+z
-x,1/2-y,1/2+z
-x,1/2+y,1/2+z
x,1/2-y,1/2+z
loop_
_atom_site_type_symbol
_atom_site_label
_atom_site_fract_x
_atom_site_fract_y
_atom_site_fract_z
Si Si1 0.788102 0.827344 0.076030
Si Si2 0.790701 0.076098 0.971846
Si Si3 0.294227 0.925223 0.445388
Si Si4 0.783518 0.921881 0.183998
Si Si5 0.287864 0.220376 0.484971
Si Si6 0.298161 0.075642 0.834446
Si Si7 0.713662 0.277528 0.356360
Si Si8 0.209435 0.625795 0.815044
O O1 0.724214 0.862699 0.137304
O O2 0.000000 0.835235 0.076992
O O3 0.716990 0.872261 0.020409
O O4 0.752579 0.751620 0.050423
O O5 0.699714 0.076268 0.907402
O O6 0.000000 0.088756 0.960954
O O7 0.777023 0.000000 0.998387
O O8 0.500000 0.928024 0.463356
O O9 0.217270 0.856801 0.475790
O O10 0.289027 0.910112 0.373848
O O11 0.214499 0.000000 0.457771
O O12 0.725429 0.903436 0.251597
O O13 0.000000 0.921231 0.184051
O O14 0.730900 0.000000 0.167577
O O15 0.500000 0.218470 0.478599
O O16 0.224342 0.264518 0.426031
O O17 0.500000 0.075466 0.811597
O O18 0.218927 0.152069 0.824929
O O19 0.219509 0.000000 0.817997
O O20 0.500000 0.283489 0.358178
O O21 0.758818 0.207509 0.321575
O O22 0.000000 0.613353 0.818058
#
# Coordination Sequence:
#
# PCOD9356013 Si02
#       8
#     8   8   8   8   8   8   8   8
#     4  10  18  28  44  63  87 121 155 184 217 262
#     4   9  16  24  36  57  84 114 147 179 209 247
#     4   9  18  33  51  69  92 122 150 183 235 288
#     4   9  18  32  47  65  92 125 159 192 226 264
#     4   9  17  29  44  65  91 117 145 182 227 274
#     4   9  16  26  41  60  84 116 149 179 217 267
#     4   9  17  30  45  63  91 123 151 186 236 284
#     4  10  19  30  48  70  91 119 158 199 232 267
#
# _framework density 19.625964
#
# number of rings (size 3 to 8) (size 9 to 14) (size 15 to 20)
#    0.000    2.750    1.250    1.875    0.000    4.750 
#    0.000    1.250    0.000    2.625    0.000    0.875 
#    0.000    7.000    0.000    0.000    0.000    0.000 
#
# Total GULP energy -178192.134499 kJ/mol
# GULP energy per Si atom -5568.504203 kJ/mol
# Density = 1.958129 g / cm^3
# Si number density = 19.625964 Si / 1000 Ang^3
#
#
#
# Elastic Constant Matrix: (Units=GPa)
#
#
# Indices 1 2 3 4 5 6 
#
# 1 48.1845 1.4966 -4.1752 0.0000 0.0000 0.0000
# 2 1.4966 136.0631 33.4065 0.0000 0.0000 0.0000
# 3 -4.1752 33.4065 62.8193 0.0000 0.0000 0.0000
# 4 0.0000 0.0000 0.0000 23.9808 0.0000 0.0000
# 5 0.0000 0.0000 0.0000 0.0000 18.2198 0.0000
# 6 0.0000 0.0000 0.0000 0.0000 0.0000 12.2288
#
#
#
# Elastic Compliance Matrix: (Units=1/GPa)
#
#
# Indices 1 2 3 4 5 6 
#
# 1 0.020925 -0.000657 0.001740 0.000000 0.000000 0.000000
# 2 -0.000657 0.008474 -0.004550 0.000000 0.000000 0.000000
# 3 0.001740 -0.004550 0.018454 0.000000 0.000000 0.000000
# 4 0.000000 0.000000 0.000000 0.041700 0.000000 0.000000
# 5 0.000000 0.000000 0.000000 0.000000 0.054885 0.000000
# 6 0.000000 0.000000 0.000000 0.000000 0.000000 0.081774
#
#
# Mechanical properties :
#
#
# Convention : Reuss Voigt Hill
#
# Bulk Modulus (GPa) = 24.43885 34.28031 29.35958
# Shear Modulus (GPa) = 20.26045 25.30847 22.78446
#
# Velocity S-wave (km/s) = 3.21647 3.59491 3.41095
# Velocity P-wave (km/s) = 5.12578 5.89372 5.52311
#
# Compressibility (1/GPa) = 0.04091846
#
# Stress axis : x y z
#
# Youngs Moduli (GPa) = 47.79019 118.00954 54.18887
#
# Poissons Ratio (x) = 0.07759 -0.09431
# Poissons Ratio (y) = 0.03142 0.24656
# Poissons Ratio (z) = -0.08317 0.53694
#
# Static dielectric constant tensor:
#      x y z
#    x 1.730430 0.000000 0.000000 
#    y 0.000000 1.804470 0.000000 
#    z 0.000000 0.000000 1.651930 
# 
# From -- ./inp_files/22297.got.cif
#   From: 2010.05.17/outbox.cif.g08.bks.cpg/sg38_12_cif.got.tgz:22297.got - 2010.06.03 18:07:57.
