data_PCOD9356435
_publ_section_title
;
Structure prediction by ZEFSAII (Michael W. Deem and Ramdas Pophale) SiO2 
 PCOD9356435
Probable space group: A M M 2
;
_chemical_formula_sum "Si O2"
_cell_formula_units_Z 64
_cell_length_a 24.214963
_cell_length_b 7.582763
_cell_length_c 15.954898
_cell_angle_alpha 90.000000
_cell_angle_beta 90.000000
_cell_angle_gamma 90.000000
_cell_volume 2929.579744
_symmetry_space_group_name_H-M "A M M 2"
_symmetry_group_IT_number 38
_symmetry_cell_setting 'orthorhombic'
loop_
_space_group_symop_operation_xyz
x,y,z
-x,-y,z
-x,y,z
x,-y,z
x,1/2+y,1/2+z
-x,1/2-y,1/2+z
-x,1/2+y,1/2+z
x,1/2-y,1/2+z
loop_
_atom_site_type_symbol
_atom_site_label
_atom_site_fract_x
_atom_site_fract_y
_atom_site_fract_z
Si Si1 0.437422 0.213351 0.255240
Si Si2 0.641862 0.789818 0.600398
Si Si3 0.258946 0.786735 0.864767
Si Si4 0.757486 0.213851 0.669584
Si Si5 0.619398 0.203643 0.422108
Si Si6 0.120787 0.797100 0.110355
Si Si7 0.140705 0.216611 0.927550
Si Si8 0.061612 0.206744 0.779627
O O1 0.500000 0.273023 0.240758
O O2 0.396585 0.262995 0.180459
O O3 0.413995 0.281371 0.344015
O O4 0.437428 0.000000 0.258305
O O5 0.703500 0.722972 0.619699
O O6 0.615851 0.716542 0.514853
O O7 0.647983 0.000000 0.588410
O O8 0.250278 0.739736 0.767266
O O9 0.315950 0.710204 0.898235
O O10 0.204397 0.730067 0.914908
O O11 0.263281 0.000000 0.869235
O O12 0.814719 0.285148 0.634661
O O13 0.760449 0.000000 0.665597
O O14 0.601019 0.000000 0.428023
O O15 0.086478 0.717393 0.186580
O O16 0.103553 0.000000 0.106485
O O17 0.116522 0.722943 0.016454
O O18 0.104432 0.277953 0.848565
O O19 0.141554 0.000000 0.928173
O O20 0.000000 0.283210 0.783719
O O21 0.057307 0.000000 0.799685
#
# Coordination Sequence:
#
# PCOD9356435 Si02
#       8
#     8   8   8   8   8   8   8   8
#     4  10  22  39  56  77 109 148 187 229 275 325
#     4  10  21  37  58  85 112 145 184 227 277 328
#     4  10  18  33  58  82 111 146 183 224 267 326
#     4  10  19  34  57  83 115 148 182 222 271 332
#     4  10  21  36  56  83 114 143 178 224 280 336
#     4  11  22  35  57  87 115 142 180 230 279 323
#     4   9  19  36  56  81 110 146 184 218 268 333
#     4  10  21  40  62  79 105 150 193 226 272 332
#
# _framework density 21.846136999999999
#
# number of rings (size 3 to 8) (size 9 to 14) (size 15 to 20)
#    0.000    2.000    2.500    1.125    0.000    3.000 
#    0.000    4.375    0.000    0.000    0.000    0.000 
#    0.000    0.000    0.000    0.000    0.000    0.000 
#
# Total GULP energy -178792.136972 kJ/mol
# GULP energy per Si atom -5587.254280 kJ/mol
# Density = 2.179641 g / cm^3
# Si number density = 21.846137 Si / 1000 Ang^3
#
#
#
# Elastic Constant Matrix: (Units=GPa)
#
#
# Indices 1 2 3 4 5 6 
#
# 1 70.3838 -15.5408 -9.8585 0.0000 0.0000 0.0000
# 2 -15.5408 43.8181 -8.0664 0.0000 0.0000 0.0000
# 3 -9.8585 -8.0664 91.2814 0.0000 0.0000 0.0000
# 4 0.0000 0.0000 0.0000 -27.8570 0.0000 0.0000
# 5 0.0000 0.0000 0.0000 0.0000 2.9752 0.0000
# 6 0.0000 0.0000 0.0000 0.0000 0.0000 18.5496
#
#
#
# Elastic Compliance Matrix: (Units=1/GPa)
#
#
# Indices 1 2 3 4 5 6 
#
# 1 0.015855 0.006037 0.002246 0.000000 0.000000 0.000000
# 2 0.006037 0.025497 0.002905 0.000000 0.000000 0.000000
# 3 0.002246 0.002905 0.011454 0.000000 0.000000 0.000000
# 4 0.000000 0.000000 0.000000 -0.035898 0.000000 0.000000
# 5 0.000000 0.000000 0.000000 0.000000 0.336112 0.000000
# 6 0.000000 0.000000 0.000000 0.000000 0.000000 0.053910
#
#
# Mechanical properties :
#
#
# Convention : Reuss Voigt Hill
#
# Bulk Modulus (GPa) = 13.30093 15.39467 14.34780
# Shear Modulus (GPa) = 12.20653 14.66348 13.43500
#
# Velocity S-wave (km/s) = 2.36635 2.59359 2.48258
# Velocity P-wave (km/s) = 3.68346 4.00389 3.84701
#
# Compressibility (1/GPa) = 0.07518269
#
# Stress axis : x y z
#
# Youngs Moduli (GPa) = 63.07035 39.21958 87.30261
#
# Poissons Ratio (x) = -0.23676 -0.19607
# Poissons Ratio (y) = -0.38074 -0.25363
# Poissons Ratio (z) = -0.14165 -0.11394
#
# Static dielectric constant tensor:
#      x y z
#    x 1.752680 0.000000 0.000000 
#    y 0.000000 1.825210 0.000000 
#    z 0.000000 0.000000 1.799460 
# 
# From -- ./inp_files/15732.got.cif
#   From: 2010.05.17/outbox.cif.g08.bks.cpg/sg38_8_cif.got.tgz:15732.got - 2010.06.03 18:07:57.
