data_PCOD9356221
_publ_section_title
;
Structure prediction by ZEFSAII (Michael W. Deem and Ramdas Pophale) SiO2 
 PCOD9356221
Probable space group: A M M 2
;
_chemical_formula_sum "Si O2"
_cell_formula_units_Z 56
_cell_length_a 7.889634
_cell_length_b 15.936843
_cell_length_c 20.373299
_cell_angle_alpha 90.000000
_cell_angle_beta 90.000000
_cell_angle_gamma 90.000000
_cell_volume 2561.654238
_symmetry_space_group_name_H-M "A M M 2"
_symmetry_group_IT_number 38
_symmetry_cell_setting 'orthorhombic'
loop_
_space_group_symop_operation_xyz
x,y,z
-x,-y,z
-x,y,z
x,-y,z
x,1/2+y,1/2+z
-x,1/2-y,1/2+z
-x,1/2+y,1/2+z
x,1/2-y,1/2+z
loop_
_atom_site_type_symbol
_atom_site_label
_atom_site_fract_x
_atom_site_fract_y
_atom_site_fract_z
Si Si1 0.196236 0.273152 0.252190
Si Si2 0.704618 0.374612 0.901024
Si Si3 0.305785 0.747352 0.114303
Si Si4 0.700815 0.678038 0.390016
Si Si5 0.197868 0.910063 0.543228
Si Si6 0.707838 0.403335 0.526276
Si Si7 0.802577 0.911918 0.258445
O O1 0.215894 0.296700 0.176595
O O2 0.258831 0.331176 0.311951
O O3 0.277678 0.179284 0.246300
O O4 0.000000 0.260856 0.268024
O O5 0.500000 0.384590 0.898113
O O6 0.745090 0.275281 0.901854
O O7 0.787577 0.412709 0.836688
O O8 0.779801 0.413398 0.965607
O O9 0.500000 0.763690 0.131751
O O10 0.298433 0.672996 0.061889
O O11 0.236372 0.832886 0.080025
O O12 0.500000 0.669135 0.394094
O O13 0.766203 0.624010 0.452244
O O14 0.000000 0.899329 0.559506
O O15 0.256942 0.000000 0.571164
O O16 0.500000 0.400433 0.526782
O O17 0.757531 0.500000 0.539912
O O18 0.000000 0.909895 0.237748
O O19 0.728241 0.000000 0.232514
#
# Coordination Sequence:
#
# PCOD9356221 Si02
#       7
#     8   8   8   8   8   8   8
#     4  10  21  36  55  79 110 155 197 240 296 350
#     4  10  18  30  51  81 112 142 179 226 278 332
#     4  11  22  39  60  86 117 153 195 243 297 356
#     4   9  17  34  57  83 112 148 192 239 288 342
#     4  11  23  37  55  80 111 147 184 227 285 348
#     4   9  18  35  61  91 121 154 196 248 302 353
#     4   9  18  32  49  73 108 148 188 228 277 338
#
# _framework density 21.860873999999999
#
# number of rings (size 3 to 8) (size 9 to 14) (size 15 to 20)
#    0.000    2.143    1.429    2.143    0.000    4.857 
#    0.000    0.714    0.000    6.000    0.000    0.000 
#    0.000    0.000    0.000    0.000    0.000    0.000 
#
# Total GULP energy -155882.205306 kJ/mol
# GULP energy per Si atom -5567.221618 kJ/mol
# Density = 2.181112 g / cm^3
# Si number density = 21.860874 Si / 1000 Ang^3
#
#
#
# Elastic Constant Matrix: (Units=GPa)
#
#
# Indices 1 2 3 4 5 6 
#
# 1 28.8946 22.1483 3.3373 0.0000 0.0000 0.0000
# 2 22.1483 64.7624 3.3394 0.0000 0.0000 0.0000
# 3 3.3373 3.3394 71.1933 0.0000 0.0000 0.0000
# 4 0.0000 0.0000 0.0000 9.5082 0.0000 0.0000
# 5 0.0000 0.0000 0.0000 0.0000 16.1828 0.0000
# 6 0.0000 0.0000 0.0000 0.0000 0.0000 43.9267
#
#
#
# Elastic Compliance Matrix: (Units=1/GPa)
#
#
# Indices 1 2 3 4 5 6 
#
# 1 0.047054 -0.016017 -0.001454 0.000000 0.000000 0.000000
# 2 -0.016017 0.020931 -0.000231 0.000000 0.000000 0.000000
# 3 -0.001454 -0.000231 0.014125 0.000000 0.000000 0.000000
# 4 0.000000 0.000000 0.000000 0.105173 0.000000 0.000000
# 5 0.000000 0.000000 0.000000 0.000000 0.061794 0.000000
# 6 0.000000 0.000000 0.000000 0.000000 0.000000 0.022765
#
#
# Mechanical properties :
#
#
# Convention : Reuss Voigt Hill
#
# Bulk Modulus (GPa) = 21.41102 24.72227 23.06664
# Shear Modulus (GPa) = 15.48875 22.99189 19.24032
#
# Velocity S-wave (km/s) = 2.66468 3.24657 2.96991
# Velocity P-wave (km/s) = 4.39122 5.03856 4.72599
#
# Compressibility (1/GPa) = 0.04670491
#
# Stress axis : x y z
#
# Youngs Moduli (GPa) = 21.25220 47.77669 70.79509
#
# Poissons Ratio (x) = 0.76524 0.10297
# Poissons Ratio (y) = 0.34040 0.01635
# Poissons Ratio (z) = 0.03091 0.01103
#
# Static dielectric constant tensor:
#      x y z
#    x 1.805380 0.000000 0.000000 
#    y 0.000000 1.947580 0.000000 
#    z 0.000000 0.000000 1.858130 
# 
# From -- ./inp_files/19801.got.cif
#   From: 2010.05.17/outbox.cif.g08.bks.cpg/sg38_10_cif.got.tgz:19801.got - 2010.06.03 18:07:57.
