data_PCOD9356425
_publ_section_title
;
Structure prediction by ZEFSAII (Michael W. Deem and Ramdas Pophale) SiO2 
 PCOD9356425
Probable space group: A M M 2
;
_chemical_formula_sum "Si O2"
_cell_formula_units_Z 64
_cell_length_a 7.863159
_cell_length_b 20.143073
_cell_length_c 21.119662
_cell_angle_alpha 90.000000
_cell_angle_beta 90.000000
_cell_angle_gamma 90.000000
_cell_volume 3345.104948
_symmetry_space_group_name_H-M "A M M 2"
_symmetry_group_IT_number 38
_symmetry_cell_setting 'orthorhombic'
loop_
_space_group_symop_operation_xyz
x,y,z
-x,-y,z
-x,y,z
x,-y,z
x,1/2+y,1/2+z
-x,1/2-y,1/2+z
-x,1/2+y,1/2+z
x,1/2-y,1/2+z
loop_
_atom_site_type_symbol
_atom_site_label
_atom_site_fract_x
_atom_site_fract_y
_atom_site_fract_z
Si Si1 0.800218 0.573677 0.636810
Si Si2 0.303573 0.282329 0.606809
Si Si3 0.695896 0.703334 0.850382
Si Si4 0.707014 0.926942 0.917919
Si Si5 0.293758 0.573836 0.783671
Si Si6 0.294821 0.573751 0.269512
Si Si7 0.191220 0.215040 0.734609
Si Si8 0.290506 0.213051 0.968760
O O1 0.736532 0.500000 0.618324
O O2 0.708463 0.637636 0.609044
O O3 0.778416 0.579037 0.712817
O O4 0.000000 0.577711 0.621746
O O5 0.500000 0.262587 0.612028
O O6 0.214708 0.251071 0.667678
O O7 0.236356 0.262610 0.537828
O O8 0.500000 0.689275 0.867200
O O9 0.771083 0.633725 0.826867
O O10 0.696935 0.751517 0.789369
O O11 0.769140 0.741350 0.910768
O O12 0.500000 0.927406 0.919957
O O13 0.753181 0.918867 0.843740
O O14 0.765678 0.862635 0.955749
O O15 0.765437 0.000000 0.939463
O O16 0.500000 0.579610 0.777638
O O17 0.255103 0.500000 0.807886
O O18 0.500000 0.575392 0.267086
O O19 0.239386 0.500000 0.248842
O O20 0.227534 0.636795 0.231767
O O21 0.000000 0.225609 0.756793
O O22 0.500000 0.211945 0.968593
#
# Coordination Sequence:
#
# PCOD9356425 Si02
#       8
#     8   8   8   8   8   8   8   8
#     4  10  20  33  49  72 106 142 174 213 263 317
#     4  11  22  35  52  75 104 142 185 225 258 305
#     4  10  18  33  56  78 103 134 173 224 270 314
#     4   8  13  24  46  76 105 130 161 204 254 307
#     4   9  17  29  50  79 105 132 169 212 261 317
#     4   9  17  32  57  83 106 134 170 216 266 311
#     4  12  23  34  52  78 108 142 177 217 264 314
#     4   9  18  31  50  76 103 134 175 220 267 306
#
# _framework density 19.132435000000001
#
# number of rings (size 3 to 8) (size 9 to 14) (size 15 to 20)
#    0.000    2.250    2.500    2.625    0.000    1.500 
#    0.000    2.500    0.000    0.750    0.000    3.500 
#    0.000    0.000    0.000    0.000    0.000    0.000 
#
# Total GULP energy -178537.448573 kJ/mol
# GULP energy per Si atom -5579.295268 kJ/mol
# Density = 1.908889 g / cm^3
# Si number density = 19.132435 Si / 1000 Ang^3
#
#
#
# Elastic Constant Matrix: (Units=GPa)
#
#
# Indices 1 2 3 4 5 6 
#
# 1 27.7479 -2.9754 -4.8816 0.0000 0.0000 0.0000
# 2 -2.9754 94.7452 34.2469 0.0000 0.0000 0.0000
# 3 -4.8816 34.2469 80.9230 0.0000 0.0000 0.0000
# 4 0.0000 0.0000 0.0000 19.6811 0.0000 0.0000
# 5 0.0000 0.0000 0.0000 0.0000 -153.1607 0.0000
# 6 0.0000 0.0000 0.0000 0.0000 0.0000 2.5689
#
#
#
# Elastic Compliance Matrix: (Units=1/GPa)
#
#
# Indices 1 2 3 4 5 6 
#
# 1 0.036439 0.000413 0.002023 0.000000 0.000000 0.000000
# 2 0.000413 0.012465 -0.005251 0.000000 0.000000 0.000000
# 3 0.002023 -0.005251 0.014702 0.000000 0.000000 0.000000
# 4 0.000000 0.000000 0.000000 0.050810 0.000000 0.000000
# 5 0.000000 0.000000 0.000000 0.000000 -0.006529 0.000000
# 6 0.000000 0.000000 0.000000 0.000000 0.000000 0.389269
#
#
# Mechanical properties :
#
#
# Convention : Reuss Voigt Hill
#
# Bulk Modulus (GPa) = 17.24806 28.46623 22.85715
# Shear Modulus (GPa) = 9.57652 -14.38038 -2.40193
#
# Velocity S-wave (km/s) = 2.23970 -2.74455 -1.12167
# Velocity P-wave (km/s) = 3.96522 2.20622 3.20861
#
# Compressibility (1/GPa) = 0.05797755
#
# Stress axis : x y z
#
# Youngs Moduli (GPa) = 27.44316 80.22166 68.02019
#
# Poissons Ratio (x) = -0.03313 -0.13763
# Poissons Ratio (y) = -0.01133 0.35714
# Poissons Ratio (z) = -0.05553 0.42121
#
# Static dielectric constant tensor:
#      x y z
#    x 1.723010 0.000000 0.000000 
#    y 0.000000 1.689460 0.000000 
#    z 0.000000 0.000000 1.650950 
# 
# From -- ./inp_files/20245.got.cif
#   From: 2010.05.17/outbox.cif.g08.bks.cpg/sg38_11_cif.got.tgz:20245.got - 2010.06.03 18:07:57.
