data_PCOD9356683
_publ_section_title
;
Structure prediction by ZEFSAII (Michael W. Deem and Ramdas Pophale) SiO2 
 PCOD9356683
Probable space group: A M M 2
;
_chemical_formula_sum "Si O2"
_cell_formula_units_Z 64
_cell_length_a 8.986378
_cell_length_b 34.330180
_cell_length_c 11.957249
_cell_angle_alpha 90.000000
_cell_angle_beta 90.000000
_cell_angle_gamma 90.000000
_cell_volume 3688.858838
_symmetry_space_group_name_H-M "A M M 2"
_symmetry_group_IT_number 38
_symmetry_cell_setting 'orthorhombic'
loop_
_space_group_symop_operation_xyz
x,y,z
-x,-y,z
-x,y,z
x,-y,z
x,1/2+y,1/2+z
-x,1/2-y,1/2+z
-x,1/2+y,1/2+z
x,1/2-y,1/2+z
loop_
_atom_site_type_symbol
_atom_site_label
_atom_site_fract_x
_atom_site_fract_y
_atom_site_fract_z
Si Si1 0.822185 0.267284 0.428720
Si Si2 0.328100 0.545337 0.384472
Si Si3 0.321246 0.622395 0.059554
Si Si4 0.825318 0.180360 0.145008
Si Si5 0.678088 0.667556 0.287654
Si Si6 0.825161 0.113884 0.976094
Si Si7 0.322971 0.186525 0.382178
Si Si8 0.178345 0.455299 0.141056
O O1 0.787548 0.289992 0.544182
O O2 0.751575 0.291743 0.325828
O O3 0.757588 0.224212 0.432713
O O4 0.000000 0.267244 0.415691
O O5 0.500000 0.557711 0.373264
O O6 0.324469 0.500000 0.413250
O O7 0.242836 0.571251 0.474085
O O8 0.247496 0.549857 0.264892
O O9 0.500000 0.616514 0.062769
O O10 0.282646 0.649613 0.166932
O O11 0.243232 0.580482 0.069805
O O12 0.282285 0.647515 0.950260
O O13 0.727003 0.184602 0.253929
O O14 0.000000 0.186205 0.173037
O O15 0.807362 0.137894 0.089631
O O16 0.500000 0.671191 0.293594
O O17 0.738151 0.637127 0.379418
O O18 0.000000 0.113722 0.948391
O O19 0.500000 0.191519 0.391851
O O20 0.215691 0.500000 0.105209
O O21 0.000000 0.452425 0.146828
#
# Coordination Sequence:
#
# PCOD9356683 Si02
#       8
#     8   8   8   8   8   8   8   8
#     4  10  22  39  58  81 109 142 183 228 276 326
#     4  10  19  30  48  78 114 147 178 217 270 329
#     4  10  22  37  54  82 115 147 185 229 279 333
#     4   9  21  40  57  78 106 141 183 224 272 326
#     4  10  19  33  54  80 109 142 180 220 269 328
#     4  10  19  33  54  79 107 140 180 223 268 322
#     4  11  24  39  57  82 110 143 186 231 275 327
#     4  10  20  33  53  82 114 148 186 229 279 335
#
# _framework density 17.349537999999999
#
# number of rings (size 3 to 8) (size 9 to 14) (size 15 to 20)
#    0.000    2.000    1.250    3.000    1.750    6.000 
#    0.000    0.000    0.000    0.750    0.000    0.000 
#    0.000    0.000    0.000    0.000    0.000    0.000 
#
# Total GULP energy -178576.945827 kJ/mol
# GULP energy per Si atom -5580.529557 kJ/mol
# Density = 1.731005 g / cm^3
# Si number density = 17.349538 Si / 1000 Ang^3
#
#
#
# Elastic Constant Matrix: (Units=GPa)
#
#
# Indices 1 2 3 4 5 6 
#
# 1 71.8429 58.5051 42.1833 0.0000 0.0000 0.0000
# 2 58.5051 129.2321 42.9576 0.0000 0.0000 0.0000
# 3 42.1833 42.9576 63.3453 0.0000 0.0000 0.0000
# 4 0.0000 0.0000 0.0000 19.8808 0.0000 0.0000
# 5 0.0000 0.0000 0.0000 0.0000 81.2751 0.0000
# 6 0.0000 0.0000 0.0000 0.0000 0.0000 34.8766
#
#
#
# Elastic Compliance Matrix: (Units=1/GPa)
#
#
# Indices 1 2 3 4 5 6 
#
# 1 0.028718 -0.008578 -0.013307 0.000000 0.000000 0.000000
# 2 -0.008578 0.012552 -0.002800 0.000000 0.000000 0.000000
# 3 -0.013307 -0.002800 0.026547 0.000000 0.000000 0.000000
# 4 0.000000 0.000000 0.000000 0.050300 0.000000 0.000000
# 5 0.000000 0.000000 0.000000 0.000000 0.012304 0.000000
# 6 0.000000 0.000000 0.000000 0.000000 0.000000 0.028672
#
#
# Mechanical properties :
#
#
# Convention : Reuss Voigt Hill
#
# Bulk Modulus (GPa) = 54.20873 61.30137 57.75505
# Shear Modulus (GPa) = 23.29796 35.25814 29.27805
#
# Velocity S-wave (km/s) = 3.66848 4.51291 4.11243
# Velocity P-wave (km/s) = 7.01830 7.90980 7.47735
#
# Compressibility (1/GPa) = 0.01844721
#
# Stress axis : x y z
#
# Youngs Moduli (GPa) = 34.82174 79.66893 37.66928
#
# Poissons Ratio (x) = 0.68336 0.50127
# Poissons Ratio (y) = 0.29869 0.10548
# Poissons Ratio (z) = 0.46337 0.22308
#
# Static dielectric constant tensor:
#      x y z
#    x 1.566340 0.000000 0.000000 
#    y 0.000000 1.618800 0.000000 
#    z 0.000000 0.000000 1.565520 
# 
# From -- ./inp_files/8542.got.cif
#   From: 2010.05.17/outbox.cif.g08.bks.cpg/sg38_5_cif.got.tgz:8542.got - 2010.06.03 18:07:57.
