data_PCOD9356078
_publ_section_title
;
Structure prediction by ZEFSAII (Michael W. Deem and Ramdas Pophale) SiO2 
 PCOD9356078
Probable space group: A M M 2
;
_chemical_formula_sum "Si O2"
_cell_formula_units_Z 56
_cell_length_a 8.768374
_cell_length_b 18.864694
_cell_length_c 21.210911
_cell_angle_alpha 90.000000
_cell_angle_beta 90.000000
_cell_angle_gamma 90.000000
_cell_volume 3508.553897
_symmetry_space_group_name_H-M "A M M 2"
_symmetry_group_IT_number 38
_symmetry_cell_setting 'orthorhombic'
loop_
_space_group_symop_operation_xyz
x,y,z
-x,-y,z
-x,y,z
x,-y,z
x,1/2+y,1/2+z
-x,1/2-y,1/2+z
-x,1/2+y,1/2+z
x,1/2-y,1/2+z
loop_
_atom_site_type_symbol
_atom_site_label
_atom_site_fract_x
_atom_site_fract_y
_atom_site_fract_z
Si Si1 0.682668 0.082726 0.531830
Si Si2 0.182339 0.348935 0.404572
Si Si3 0.817608 0.288108 0.974606
Si Si4 0.816666 0.917848 0.040035
Si Si5 0.318604 0.916602 0.780210
Si Si6 0.818451 0.344772 0.157199
Si Si7 0.318734 0.713821 0.599111
O O1 0.500000 0.091345 0.532934
O O2 0.753532 0.132633 0.477491
O O3 0.748715 0.110904 0.598455
O O4 0.718671 0.000000 0.524024
O O5 0.213516 0.265521 0.417258
O O6 0.222770 0.390391 0.469398
O O7 0.268938 0.380307 0.345290
O O8 0.000000 0.357328 0.395564
O O9 0.000000 0.288700 0.984433
O O10 0.738173 0.250759 0.034412
O O11 0.000000 0.910787 0.045389
O O12 0.775244 0.000000 0.046840
O O13 0.740081 0.866136 0.090961
O O14 0.500000 0.909836 0.771034
O O15 0.233837 0.880448 0.721779
O O16 0.280605 0.000000 0.782690
O O17 0.755567 0.264458 0.151479
O O18 0.000000 0.344323 0.151197
O O19 0.500000 0.716248 0.603706
#
# Coordination Sequence:
#
# PCOD9356078 Si02
#       7
#     8   8   8   8   8   8   8
#     4  10  19  30  46  70  98 123 150 190 237 279
#     4   9  18  32  48  67  92 124 160 193 225 266
#     4   9  17  30  47  66  90 121 157 192 228 274
#     4   9  17  30  48  70  97 126 156 192 231 272
#     4  11  23  35  47  67  95 125 157 192 229 271
#     4  11  21  33  49  66  89 124 162 194 228 275
#     4  10  18  29  46  67  93 121 152 192 235 278
#
# _framework density 15.960991999999999
#
# number of rings (size 3 to 8) (size 9 to 14) (size 15 to 20)
#    0.000    2.143    0.000    7.286    0.000    7.714 
#    0.000    0.000    0.000    0.000    0.000    1.000 
#    0.000    3.429    0.000    0.000    0.000    0.000 
#
# Total GULP energy -156123.974117 kJ/mol
# GULP energy per Si atom -5575.856218 kJ/mol
# Density = 1.592466 g / cm^3
# Si number density = 15.960992 Si / 1000 Ang^3
#
#
#
# Elastic Constant Matrix: (Units=GPa)
#
#
# Indices 1 2 3 4 5 6 
#
# 1 79.8271 64.4199 34.0717 0.0000 0.0000 0.0000
# 2 64.4199 151.3916 51.9893 0.0000 0.0000 0.0000
# 3 34.0717 51.9893 53.9696 0.0000 0.0000 0.0000
# 4 0.0000 0.0000 0.0000 25.7111 0.0000 0.0000
# 5 0.0000 0.0000 0.0000 0.0000 26.7233 0.0000
# 6 0.0000 0.0000 0.0000 0.0000 0.0000 28.4511
#
#
#
# Elastic Compliance Matrix: (Units=1/GPa)
#
#
# Indices 1 2 3 4 5 6 
#
# 1 0.020635 -0.006436 -0.006827 0.000000 0.000000 0.000000
# 2 -0.006436 0.011878 -0.007379 0.000000 0.000000 0.000000
# 3 -0.006827 -0.007379 0.029947 0.000000 0.000000 0.000000
# 4 0.000000 0.000000 0.000000 0.038894 0.000000 0.000000
# 5 0.000000 0.000000 0.000000 0.000000 0.037421 0.000000
# 6 0.000000 0.000000 0.000000 0.000000 0.000000 0.035148
#
#
# Mechanical properties :
#
#
# Convention : Reuss Voigt Hill
#
# Bulk Modulus (GPa) = 47.22398 65.12781 56.17589
# Shear Modulus (GPa) = 22.49559 25.15758 23.82659
#
# Velocity S-wave (km/s) = 3.75828 3.97444 3.86787
# Velocity P-wave (km/s) = 6.96307 7.87112 7.43097
#
# Compressibility (1/GPa) = 0.02117568
#
# Stress axis : x y z
#
# Youngs Moduli (GPa) = 48.46175 84.18889 33.39189
#
# Poissons Ratio (x) = 0.54184 0.22797
# Poissons Ratio (y) = 0.31190 0.24640
# Poissons Ratio (z) = 0.33086 0.62124
#
# Static dielectric constant tensor:
#      x y z
#    x 1.532430 0.000000 0.000000 
#    y 0.000000 1.575090 0.000000 
#    z 0.000000 0.000000 1.512280 
# 
# From -- ./inp_files/17069.got.cif
#   From: 2010.05.17/outbox.cif.g08.bks.cpg/sg38_9_cif.got.tgz:17069.got - 2010.06.03 18:07:57.
