data_PCOD9356814
_publ_section_title
;
Structure prediction by ZEFSAII (Michael W. Deem and Ramdas Pophale) SiO2 
 PCOD9356814
Probable space group: A M M 2
;
_chemical_formula_sum "Si O2"
_cell_formula_units_Z 56
_cell_length_a 7.436780
_cell_length_b 24.687418
_cell_length_c 14.307867
_cell_angle_alpha 90.000000
_cell_angle_beta 90.000000
_cell_angle_gamma 90.000000
_cell_volume 2626.851360
_symmetry_space_group_name_H-M "A M M 2"
_symmetry_group_IT_number 38
_symmetry_cell_setting 'orthorhombic'
loop_
_space_group_symop_operation_xyz
x,y,z
-x,-y,z
-x,y,z
x,-y,z
x,1/2+y,1/2+z
-x,1/2-y,1/2+z
-x,1/2+y,1/2+z
x,1/2-y,1/2+z
loop_
_atom_site_type_symbol
_atom_site_label
_atom_site_fract_x
_atom_site_fract_y
_atom_site_fract_z
Si Si1 0.290760 0.830020 0.930420
Si Si2 0.718730 0.623970 0.933680
Si Si3 0.281140 0.439473 0.749936
Si Si4 0.720218 0.834222 0.139037
Si Si5 0.719398 0.771148 0.319975
Si Si6 0.283125 0.938258 0.613379
Si Si7 0.789213 0.060824 0.829622
O O1 0.500000 0.815403 0.939935
O O2 0.217109 0.787000 0.855784
O O3 0.283442 0.890964 0.892609
O O4 0.214061 0.824847 0.034396
O O5 0.500000 0.624929 0.936177
O O6 0.770411 0.581172 0.853139
O O7 0.773135 0.682705 0.895093
O O8 0.781058 0.603342 0.034420
O O9 0.500000 0.440197 0.748789
O O10 0.218249 0.500000 0.730448
O O11 0.225236 0.393310 0.677282
O O12 0.500000 0.834072 0.137864
O O13 0.777538 0.791025 0.217537
O O14 0.500000 0.771578 0.315636
O O15 0.500000 0.938683 0.609095
O O16 0.234636 0.925471 0.720028
O O17 0.222070 0.000000 0.593675
O O18 0.000000 0.058305 0.848841
O O19 0.713764 0.000000 0.844135
#
# Coordination Sequence:
#
# PCOD9356814 Si02
#       7
#     8   8   8   8   8   8   8
#     4  10  19  31  51  74  93 120 159 199 233 270
#     4   8  13  22  39  66  99 130 157 188 230 277
#     4   8  12  19  33  57  93 130 156 185 231 278
#     4   8  15  26  40  65  99 127 153 189 233 277
#     4   8  15  27  43  68 102 132 156 188 233 280
#     4   9  16  27  47  75 101 125 159 200 233 266
#     4  10  22  38  51  65  91 125 156 190 239 294
#
# _framework density 21.318297999999999
#
# number of rings (size 3 to 8) (size 9 to 14) (size 15 to 20)
#    0.000    3.286    0.000    2.571    0.000    4.286 
#    0.000    5.714    0.000    3.429    0.000    3.000 
#    0.000   10.286    0.000    0.000    0.000    0.000 
#
# Total GULP energy -156175.544469 kJ/mol
# GULP energy per Si atom -5577.698017 kJ/mol
# Density = 2.126978 g / cm^3
# Si number density = 21.318298 Si / 1000 Ang^3
#
#
#
# Elastic Constant Matrix: (Units=GPa)
#
#
# Indices 1 2 3 4 5 6 
#
# 1 61.4334 0.3948 -3.0606 0.0000 0.0000 0.0000
# 2 0.3948 130.1142 94.2427 0.0000 0.0000 0.0000
# 3 -3.0606 94.2427 138.3477 0.0000 0.0000 0.0000
# 4 0.0000 0.0000 0.0000 18.2616 0.0000 0.0000
# 5 0.0000 0.0000 0.0000 0.0000 -96.7259 0.0000
# 6 0.0000 0.0000 0.0000 0.0000 0.0000 -18.0706
#
#
#
# Elastic Compliance Matrix: (Units=1/GPa)
#
#
# Indices 1 2 3 4 5 6 
#
# 1 0.016321 -0.000614 0.000779 0.000000 0.000000 0.000000
# 2 -0.000614 0.015194 -0.010364 0.000000 0.000000 0.000000
# 3 0.000779 -0.010364 0.014305 0.000000 0.000000 0.000000
# 4 0.000000 0.000000 0.000000 0.054760 0.000000 0.000000
# 5 0.000000 0.000000 0.000000 0.000000 -0.010338 0.000000
# 6 0.000000 0.000000 0.000000 0.000000 0.000000 -0.055338
#
#
# Mechanical properties :
#
#
# Convention : Reuss Voigt Hill
#
# Bulk Modulus (GPa) = 39.33461 57.00545 48.17003
# Shear Modulus (GPa) = 78.40232 -3.41909 37.49162
#
# Velocity S-wave (km/s) = 6.07098 -1.26780 4.19819
# Velocity P-wave (km/s) = 8.22397 4.96539 6.79296
#
# Compressibility (1/GPa) = 0.02542290
#
# Stress axis : x y z
#
# Youngs Moduli (GPa) = 61.27237 65.81561 69.90460
#
# Poissons Ratio (x) = 0.04041 -0.05448
# Poissons Ratio (y) = 0.03762 0.72447
# Poissons Ratio (z) = -0.04775 0.68210
#
# Static dielectric constant tensor:
#      x y z
#    x 1.835230 0.000000 0.000000 
#    y 0.000000 1.757630 0.000000 
#    z 0.000000 0.000000 1.742460 
# 
# From -- ./inp_files/12440.got.cif
#   From: 2010.05.17/outbox.cif.g08.bks.cpg/sg38_7_cif.got.tgz:12440.got - 2010.06.03 18:07:57.
