data_PCOD9356292
_publ_section_title
;
Structure prediction by ZEFSAII (Michael W. Deem and Ramdas Pophale) SiO2 
 PCOD9356292
Probable space group: A M M 2
;
_chemical_formula_sum "Si O2"
_cell_formula_units_Z 64
_cell_length_a 15.238045
_cell_length_b 8.133912
_cell_length_c 25.578774
_cell_angle_alpha 90.000000
_cell_angle_beta 90.000000
_cell_angle_gamma 90.000000
_cell_volume 3170.359022
_symmetry_space_group_name_H-M "A M M 2"
_symmetry_group_IT_number 38
_symmetry_cell_setting 'orthorhombic'
loop_
_space_group_symop_operation_xyz
x,y,z
-x,-y,z
-x,y,z
x,-y,z
x,1/2+y,1/2+z
-x,1/2-y,1/2+z
-x,1/2+y,1/2+z
x,1/2-y,1/2+z
loop_
_atom_site_type_symbol
_atom_site_label
_atom_site_fract_x
_atom_site_fract_y
_atom_site_fract_z
Si Si1 0.286454 0.697387 0.450370
Si Si2 0.595051 0.197094 0.239115
Si Si3 0.095807 0.301382 0.918475
Si Si4 0.866203 0.809470 0.301220
Si Si5 0.602392 0.298335 0.550122
Si Si6 0.317434 0.693254 0.334160
Si Si7 0.718639 0.197316 0.148848
Si Si8 0.904267 0.694165 0.185082
O O1 0.288939 0.500000 0.452782
O O2 0.183473 0.745634 0.448324
O O3 0.346075 0.757625 0.498006
O O4 0.325376 0.747789 0.393988
O O5 0.500000 0.229850 0.214940
O O6 0.602448 0.275486 0.296009
O O7 0.670152 0.261219 0.200797
O O8 0.603302 0.000000 0.244594
O O9 0.098779 0.500000 0.916954
O O10 0.100778 0.244538 0.857529
O O11 0.000000 0.251386 0.939647
O O12 0.761941 0.792870 0.307939
O O13 0.893386 0.725330 0.247411
O O14 0.891791 0.000000 0.296914
O O15 0.500000 0.246995 0.552623
O O16 0.601120 0.500000 0.550142
O O17 0.662856 0.245345 0.598960
O O18 0.294539 0.500000 0.334136
O O19 0.821007 0.236943 0.153956
O O20 0.710777 0.000000 0.149431
O O21 0.904277 0.500000 0.176770
O O22 0.000000 0.761823 0.169621
#
# Coordination Sequence:
#
# PCOD9356292 Si02
#       8
#     8   8   8   8   8   8   8   8
#     4   9  19  34  54  81 110 141 181 227 274 322
#     4  10  20  33  51  78 109 141 178 222 275 332
#     4   9  18  32  51  77 110 148 186 222 266 320
#     4  10  18  31  52  77 107 145 188 228 265 314
#     4   9  18  36  62  86 106 135 181 234 280 322
#     4  10  19  31  49  77 114 150 180 216 271 330
#     4  10  20  36  59  82 105 139 184 231 274 320
#     4  11  23  36  52  78 113 149 181 219 272 329
#
# _framework density 20.186987999999999
#
# number of rings (size 3 to 8) (size 9 to 14) (size 15 to 20)
#    0.000    2.250    1.250    1.875    0.000    5.000 
#    0.000    2.500    0.000    6.000    0.000    0.000 
#    0.000    0.000    0.000    0.000    0.000    0.000 
#
# Total GULP energy -178439.459996 kJ/mol
# GULP energy per Si atom -5576.233125 kJ/mol
# Density = 2.014104 g / cm^3
# Si number density = 20.186988 Si / 1000 Ang^3
#
#
#
# Elastic Constant Matrix: (Units=GPa)
#
#
# Indices 1 2 3 4 5 6 
#
# 1 165.6169 8.2475 85.3735 0.0000 0.0000 0.0000
# 2 8.2475 11.7345 10.6691 0.0000 0.0000 0.0000
# 3 85.3735 10.6691 119.4566 0.0000 0.0000 0.0000
# 4 0.0000 0.0000 0.0000 15.5805 0.0000 0.0000
# 5 0.0000 0.0000 0.0000 0.0000 15.4630 0.0000
# 6 0.0000 0.0000 0.0000 0.0000 0.0000 18.6408
#
#
#
# Elastic Compliance Matrix: (Units=1/GPa)
#
#
# Indices 1 2 3 4 5 6 
#
# 1 0.009563 -0.000552 -0.006785 0.000000 0.000000 0.000000
# 2 -0.000552 0.092782 -0.007892 0.000000 0.000000 0.000000
# 3 -0.006785 -0.007892 0.013926 0.000000 0.000000 0.000000
# 4 0.000000 0.000000 0.000000 0.064183 0.000000 0.000000
# 5 0.000000 0.000000 0.000000 0.000000 0.064670 0.000000
# 6 0.000000 0.000000 0.000000 0.000000 0.000000 0.053646
#
#
# Mechanical properties :
#
#
# Convention : Reuss Voigt Hill
#
# Bulk Modulus (GPa) = 11.65340 56.15423 33.90381
# Shear Modulus (GPa) = 13.97298 22.77141 18.37219
#
# Velocity S-wave (km/s) = 2.63378 3.36225 3.02006
# Velocity P-wave (km/s) = 3.87741 6.55366 5.38446
#
# Compressibility (1/GPa) = 0.08581190
#
# Stress axis : x y z
#
# Youngs Moduli (GPa) = 104.56607 10.77790 71.81050
#
# Poissons Ratio (x) = 0.00595 0.48727
# Poissons Ratio (y) = 0.05773 0.56674
# Poissons Ratio (z) = 0.70953 0.08506
#
# Static dielectric constant tensor:
#      x y z
#    x 1.767880 0.000000 0.000000 
#    y 0.000000 1.723720 0.000000 
#    z 0.000000 0.000000 1.716230 
# 
# From -- ./inp_files/22918.got.cif
#   From: 2010.05.17/outbox.cif.g08.bks.cpg/sg38_12_cif.got.tgz:22918.got - 2010.06.03 18:07:57.
