data_PCOD9356451
_publ_section_title
;
Structure prediction by ZEFSAII (Michael W. Deem and Ramdas Pophale) SiO2 
 PCOD9356451
Probable space group: A M M 2
;
_chemical_formula_sum "Si O2"
_cell_formula_units_Z 34
_cell_length_a 10.204421
_cell_length_b 16.291754
_cell_length_c 10.259445
_cell_angle_alpha 90.000000
_cell_angle_beta 90.000000
_cell_angle_gamma 90.000000
_cell_volume 1705.611357
_symmetry_space_group_name_H-M "A M M 2"
_symmetry_group_IT_number 38
_symmetry_cell_setting 'orthorhombic'
loop_
_space_group_symop_operation_xyz
x,y,z
-x,-y,z
-x,y,z
x,-y,z
x,1/2+y,1/2+z
-x,1/2-y,1/2+z
-x,1/2+y,1/2+z
x,1/2-y,1/2+z
loop_
_atom_site_type_symbol
_atom_site_label
_atom_site_fract_x
_atom_site_fract_y
_atom_site_fract_z
Si Si1 0.219499 0.142190 0.000000
Si Si2 0.151563 0.671614 0.959173
Si Si3 0.351153 0.901792 0.253542
Si Si4 0.849986 0.597278 0.233969
Si Si5 0.000000 0.000000 0.039289
O O1 0.332391 0.127700 0.104783
O O2 0.113085 0.072636 0.035122
O O3 0.166730 0.234681 0.005246
O O4 0.244889 0.129882 0.845863
O O5 0.246673 0.645948 0.842523
O O6 0.000000 0.656035 0.922331
O O7 0.184602 0.618611 0.087132
O O8 0.500000 0.886374 0.296865
O O9 0.327083 0.000000 0.261386
O O10 0.857726 0.500000 0.249723
O O11 0.000000 0.629576 0.257183
#
# Coordination Sequence:
#
# PCOD9356451 Si02
#       5
#     8   8   8   8   2
#     4  12  21  39  65  94 129 164 210 262 324 377
#     4  11  24  37  64  97 126 161 214 269 325 376
#     4  11  26  45  63  90 132 178 218 258 313 383
#     4  10  18  34  55  88 123 155 196 259 320 369
#     4  12  20  36  66 102 130 164 202 278 320 380
#
# _framework density 19.934201999999999
#
# number of rings (size 3 to 8) (size 9 to 14) (size 15 to 20)
#    0.000    0.941    4.706    2.118    1.647    4.235 
#    0.000    1.176    0.000    4.235    0.000    0.000 
#    0.000    0.000    0.000    0.000    0.000    0.000 
#
# Total GULP energy -94644.471543 kJ/mol
# GULP energy per Si atom -5567.321855 kJ/mol
# Density = 1.988883 g / cm^3
# Si number density = 19.934202 Si / 1000 Ang^3
#
#
#
# Elastic Constant Matrix: (Units=GPa)
#
#
# Indices 1 2 3 4 5 6 
#
# 1 87.8147 35.9957 42.8884 0.0000 0.0000 0.0000
# 2 35.9957 57.8565 23.5117 0.0000 0.0000 0.0000
# 3 42.8884 23.5117 93.5546 0.0000 0.0000 0.0000
# 4 0.0000 0.0000 0.0000 21.5948 0.0000 0.0000
# 5 0.0000 0.0000 0.0000 0.0000 20.3838 0.0000
# 6 0.0000 0.0000 0.0000 0.0000 0.0000 18.8828
#
#
#
# Elastic Compliance Matrix: (Units=1/GPa)
#
#
# Indices 1 2 3 4 5 6 
#
# 1 0.017885 -0.008682 -0.006017 0.000000 0.000000 0.000000
# 2 -0.008682 0.023465 -0.001917 0.000000 0.000000 0.000000
# 3 -0.006017 -0.001917 0.013929 0.000000 0.000000 0.000000
# 4 0.000000 0.000000 0.000000 0.046307 0.000000 0.000000
# 5 0.000000 0.000000 0.000000 0.000000 0.049059 0.000000
# 6 0.000000 0.000000 0.000000 0.000000 0.000000 0.052958
#
#
# Mechanical properties :
#
#
# Convention : Reuss Voigt Hill
#
# Bulk Modulus (GPa) = 45.35822 49.33526 47.34674
# Shear Modulus (GPa) = 20.47629 21.29428 20.88529
#
# Velocity S-wave (km/s) = 3.20846 3.27192 3.24035
# Velocity P-wave (km/s) = 6.04392 6.25114 6.14840
#
# Compressibility (1/GPa) = 0.02204672
#
# Stress axis : x y z
#
# Youngs Moduli (GPa) = 55.91194 42.61707 71.79186
#
# Poissons Ratio (x) = 0.37001 0.43199
# Poissons Ratio (y) = 0.48544 0.13762
# Poissons Ratio (z) = 0.33643 0.08169
#
# Static dielectric constant tensor:
#      x y z
#    x 1.660740 0.000000 0.000000 
#    y 0.000000 1.703410 0.000000 
#    z 0.000000 0.000000 1.750400 
# 
# From -- ./inp_files/7623.got.cif
#   From: 2010.05.17/outbox.cif.g08.bks.cpg/sg38_4_cif.got.tgz:7623.got - 2010.06.03 18:07:57.
