data_PCOD9356486
_publ_section_title
;
Structure prediction by ZEFSAII (Michael W. Deem and Ramdas Pophale) SiO2 
 PCOD9356486
Probable space group: A M M 2
;
_chemical_formula_sum "Si O2"
_cell_formula_units_Z 64
_cell_length_a 17.703743
_cell_length_b 14.983570
_cell_length_c 12.565980
_cell_angle_alpha 90.000000
_cell_angle_beta 90.000000
_cell_angle_gamma 90.000000
_cell_volume 3333.318109
_symmetry_space_group_name_H-M "A M M 2"
_symmetry_group_IT_number 38
_symmetry_cell_setting 'orthorhombic'
loop_
_space_group_symop_operation_xyz
x,y,z
-x,-y,z
-x,y,z
x,-y,z
x,1/2+y,1/2+z
-x,1/2-y,1/2+z
-x,1/2+y,1/2+z
x,1/2-y,1/2+z
loop_
_atom_site_type_symbol
_atom_site_label
_atom_site_fract_x
_atom_site_fract_y
_atom_site_fract_z
Si Si1 0.663038 0.600534 0.399280
Si Si2 0.584763 0.252038 0.301873
Si Si3 0.799751 0.604007 0.250307
Si Si4 0.416926 0.603814 0.109674
Si Si5 0.777239 0.147680 0.069068
Si Si6 0.914918 0.107557 0.920705
Si Si7 0.283245 0.895990 0.294243
Si Si8 0.744556 0.647501 0.023995
O O1 0.634952 0.500000 0.376384
O O2 0.602732 0.679869 0.399356
O O3 0.723059 0.634373 0.308844
O O4 0.712845 0.595021 0.504885
O O5 0.500000 0.215931 0.309270
O O6 0.586139 0.321790 0.202234
O O7 0.646454 0.173680 0.293239
O O8 0.799788 0.500000 0.276231
O O9 0.871608 0.641606 0.313823
O O10 0.792079 0.611039 0.124221
O O11 0.500000 0.612525 0.058015
O O12 0.412144 0.500000 0.147275
O O13 0.342814 0.619547 0.040117
O O14 0.768213 0.127869 0.192753
O O15 0.755654 0.248220 0.039921
O O16 0.858549 0.127964 0.018006
O O17 0.000000 0.142759 0.930959
O O18 0.920440 0.000000 0.914519
O O19 0.238088 0.881722 0.404598
O O20 0.306604 0.000000 0.288013
#
# Coordination Sequence:
#
# PCOD9356486 Si02
#       8
#     8   8   8   8   8   8   8   8
#     4  10  18  35  61  86 113 150 200 262 317 363
#     4  11  22  37  57  87 120 157 206 267 324 373
#     4   9  17  32  59  91 115 144 191 247 304 361
#     4  10  20  36  60  88 118 156 209 273 331 375
#     4  11  22  39  62  89 124 164 209 252 304 372
#     4   9  19  38  67  98 123 153 196 250 311 372
#     4  12  25  41  59  87 124 170 215 256 308 374
#     4  12  22  37  61  86 124 164 212 259 311 366
#
# _framework density 19.200088000000001
#
# number of rings (size 3 to 8) (size 9 to 14) (size 15 to 20)
#    0.000    1.500    3.750    3.375    1.750    1.500 
#    0.000    1.250    0.000    2.250    0.000    1.750 
#    0.000    0.000    0.000    0.000    0.000    0.000 
#
# Total GULP energy -178371.260388 kJ/mol
# GULP energy per Si atom -5574.101887 kJ/mol
# Density = 1.915639 g / cm^3
# Si number density = 19.200088 Si / 1000 Ang^3
#
#
#
# Elastic Constant Matrix: (Units=GPa)
#
#
# Indices 1 2 3 4 5 6 
#
# 1 106.1780 24.7521 54.2247 0.0000 0.0000 0.0000
# 2 24.7521 96.0937 4.8326 0.0000 0.0000 0.0000
# 3 54.2247 4.8326 140.7195 0.0000 0.0000 0.0000
# 4 0.0000 0.0000 0.0000 27.5535 0.0000 0.0000
# 5 0.0000 0.0000 0.0000 0.0000 9.2544 0.0000
# 6 0.0000 0.0000 0.0000 0.0000 0.0000 12.0715
#
#
#
# Elastic Compliance Matrix: (Units=1/GPa)
#
#
# Indices 1 2 3 4 5 6 
#
# 1 0.012528 -0.002989 -0.004725 0.000000 0.000000 0.000000
# 2 -0.002989 0.011138 0.000769 0.000000 0.000000 0.000000
# 3 -0.004725 0.000769 0.008901 0.000000 0.000000 0.000000
# 4 0.000000 0.000000 0.000000 0.036293 0.000000 0.000000
# 5 0.000000 0.000000 0.000000 0.000000 0.108057 0.000000
# 6 0.000000 0.000000 0.000000 0.000000 0.000000 0.082840
#
#
# Mechanical properties :
#
#
# Convention : Reuss Voigt Hill
#
# Bulk Modulus (GPa) = 53.54241 56.73443 55.13842
# Shear Modulus (GPa) = 17.86536 27.05467 22.46002
#
# Velocity S-wave (km/s) = 3.05369 3.75786 3.42393
# Velocity P-wave (km/s) = 6.35456 6.96002 6.66417
#
# Compressibility (1/GPa) = 0.01867678
#
# Stress axis : x y z
#
# Youngs Moduli (GPa) = 79.82121 89.78413 112.35219
#
# Poissons Ratio (x) = 0.26840 0.53085
# Poissons Ratio (y) = 0.23862 -0.08645
# Poissons Ratio (z) = 0.37714 -0.06908
#
# Static dielectric constant tensor:
#      x y z
#    x 1.697370 0.000000 0.000000 
#    y 0.000000 1.710080 0.000000 
#    z 0.000000 0.000000 1.734620 
# 
# From -- ./inp_files/10612.got.cif
#   From: 2010.05.17/outbox.cif.g08.bks.cpg/sg38_6_cif.got.tgz:10612.got - 2010.06.03 18:07:57.
