data_PCOD9356460
_publ_section_title
;
Structure prediction by ZEFSAII (Michael W. Deem and Ramdas Pophale) SiO2 
 PCOD9356460
Probable space group: A M M 2
;
_chemical_formula_sum "Si O2"
_cell_formula_units_Z 64
_cell_length_a 8.521217
_cell_length_b 21.247850
_cell_length_c 20.302254
_cell_angle_alpha 90.000000
_cell_angle_beta 90.000000
_cell_angle_gamma 90.000000
_cell_volume 3675.876179
_symmetry_space_group_name_H-M "A M M 2"
_symmetry_group_IT_number 38
_symmetry_cell_setting 'orthorhombic'
loop_
_space_group_symop_operation_xyz
x,y,z
-x,-y,z
-x,y,z
x,-y,z
x,1/2+y,1/2+z
-x,1/2-y,1/2+z
-x,1/2+y,1/2+z
x,1/2-y,1/2+z
loop_
_atom_site_type_symbol
_atom_site_label
_atom_site_fract_x
_atom_site_fract_y
_atom_site_fract_z
Si Si1 0.689777 0.811219 0.830050
Si Si2 0.311892 0.233485 0.544727
Si Si3 0.185830 0.690070 0.908527
Si Si4 0.690369 0.733531 0.190786
Si Si5 0.689626 0.569956 0.415124
Si Si6 0.689003 0.880935 0.188414
Si Si7 0.186051 0.624171 0.548062
Si Si8 0.689752 0.429573 0.830492
O O1 0.500000 0.812440 0.829130
O O2 0.739692 0.749249 0.869913
O O3 0.745776 0.804052 0.754699
O O4 0.744298 0.873818 0.867507
O O5 0.500000 0.228850 0.540485
O O6 0.237407 0.196453 0.484332
O O7 0.258956 0.212658 0.617935
O O8 0.265943 0.307157 0.539639
O O9 0.242761 0.625665 0.875297
O O10 0.000000 0.694939 0.903532
O O11 0.500000 0.731249 0.190643
O O12 0.731848 0.807279 0.198497
O O13 0.500000 0.573362 0.418799
O O14 0.732688 0.500000 0.392103
O O15 0.756378 0.582191 0.487697
O O16 0.500000 0.884420 0.181654
O O17 0.763772 0.901432 0.119566
O O18 0.735243 0.917491 0.254247
O O19 0.000000 0.632102 0.545574
O O20 0.500000 0.425392 0.832847
O O21 0.736610 0.500000 0.850476
#
# Coordination Sequence:
#
# PCOD9356460 Si02
#       8
#     8   8   8   8   8   8   8   8
#     4  10  18  34  58  79 104 139 180 227 270 319
#     4  10  19  34  55  78 106 142 182 226 266 318
#     4  12  23  34  53  83 113 142 178 224 278 329
#     4   8  15  29  53  80 102 131 175 221 268 310
#     4  10  21  35  53  77 106 145 186 221 265 322
#     4   9  17  32  52  76 106 142 183 221 260 317
#     4  11  21  32  49  77 111 145 180 222 272 322
#     4  10  21  38  59  80 105 144 190 229 268 321
#
# _framework density 17.410814999999999
#
# number of rings (size 3 to 8) (size 9 to 14) (size 15 to 20)
#    0.000    2.000    2.500    3.375    0.000    1.500 
#    0.000    1.875    0.000    0.750    0.000    3.500 
#    0.000    0.000    0.000    0.000    0.000    0.000 
#
# Total GULP energy -178580.854877 kJ/mol
# GULP energy per Si atom -5580.651715 kJ/mol
# Density = 1.737119 g / cm^3
# Si number density = 17.410815 Si / 1000 Ang^3
#
#
#
# Elastic Constant Matrix: (Units=GPa)
#
#
# Indices 1 2 3 4 5 6 
#
# 1 17.2099 14.9359 11.7615 0.0000 0.0000 0.0000
# 2 14.9359 102.4215 64.1660 0.0000 0.0000 0.0000
# 3 11.7615 64.1660 126.1877 0.0000 0.0000 0.0000
# 4 0.0000 0.0000 0.0000 22.9828 0.0000 0.0000
# 5 0.0000 0.0000 0.0000 0.0000 -5.4295 0.0000
# 6 0.0000 0.0000 0.0000 0.0000 0.0000 0.9698
#
#
#
# Elastic Compliance Matrix: (Units=1/GPa)
#
#
# Indices 1 2 3 4 5 6 
#
# 1 0.066824 -0.008574 -0.001868 0.000000 0.000000 0.000000
# 2 -0.008574 0.015428 -0.007046 0.000000 0.000000 0.000000
# 3 -0.001868 -0.007046 0.011682 0.000000 0.000000 0.000000
# 4 0.000000 0.000000 0.000000 0.043511 0.000000 0.000000
# 5 0.000000 0.000000 0.000000 0.000000 -0.184178 0.000000
# 6 0.000000 0.000000 0.000000 0.000000 0.000000 1.031132
#
#
# Mechanical properties :
#
#
# Convention : Reuss Voigt Hill
#
# Bulk Modulus (GPa) = 16.96162 47.50508 32.23335
# Shear Modulus (GPa) = 4.81219 14.03502 9.42360
#
# Velocity S-wave (km/s) = 1.66430 2.84229 2.32900
# Velocity P-wave (km/s) = 3.66829 6.17377 5.07798
#
# Compressibility (1/GPa) = 0.05895664
#
# Stress axis : x y z
#
# Youngs Moduli (GPa) = 14.96466 64.81650 85.60383
#
# Poissons Ratio (x) = 0.55575 0.15995
# Poissons Ratio (y) = 0.12831 0.60316
# Poissons Ratio (z) = 0.02796 0.45670
#
# Static dielectric constant tensor:
#      x y z
#    x 1.582690 0.000000 0.000000 
#    y 0.000000 1.579870 0.000000 
#    z 0.000000 0.000000 1.606540 
# 
# From -- ./inp_files/20021.got.cif
#   From: 2010.05.17/outbox.cif.g08.bks.cpg/sg38_11_cif.got.tgz:20021.got - 2010.06.03 18:07:57.
