data_PCOD9356418
_publ_section_title
;
Structure prediction by ZEFSAII (Michael W. Deem and Ramdas Pophale) SiO2 
 PCOD9356418
Probable space group: A M M 2
;
_chemical_formula_sum "Si O2"
_cell_formula_units_Z 64
_cell_length_a 8.351266
_cell_length_b 20.321903
_cell_length_c 21.356367
_cell_angle_alpha 90.000000
_cell_angle_beta 90.000000
_cell_angle_gamma 90.000000
_cell_volume 3624.466302
_symmetry_space_group_name_H-M "A M M 2"
_symmetry_group_IT_number 38
_symmetry_cell_setting 'orthorhombic'
loop_
_space_group_symop_operation_xyz
x,y,z
-x,-y,z
-x,y,z
x,-y,z
x,1/2+y,1/2+z
-x,1/2-y,1/2+z
-x,1/2+y,1/2+z
x,1/2-y,1/2+z
loop_
_atom_site_type_symbol
_atom_site_label
_atom_site_fract_x
_atom_site_fract_y
_atom_site_fract_z
Si Si1 0.693309 0.572835 0.619690
Si Si2 0.309029 0.710853 0.568216
Si Si3 0.195432 0.210760 0.312316
Si Si4 0.809497 0.209900 0.933570
Si Si5 0.691320 0.426568 0.385211
Si Si6 0.806384 0.073400 0.742476
Si Si7 0.806290 0.072998 0.262874
Si Si8 0.193450 0.209414 0.687743
O O1 0.500000 0.572547 0.616376
O O2 0.749460 0.500000 0.599042
O O3 0.752423 0.636497 0.582328
O O4 0.743066 0.581179 0.692149
O O5 0.500000 0.708008 0.566608
O O6 0.248719 0.733663 0.500879
O O7 0.257406 0.756957 0.625392
O O8 0.252822 0.247425 0.374704
O O9 0.245948 0.135025 0.304145
O O10 0.243848 0.249859 0.249581
O O11 0.000000 0.212120 0.313504
O O12 0.758544 0.134333 0.923608
O O13 0.000000 0.213099 0.931814
O O14 0.500000 0.425526 0.390108
O O15 0.747354 0.500000 0.404059
O O16 0.740768 0.417218 0.312665
O O17 0.755900 0.133963 0.699130
O O18 0.000000 0.075483 0.746839
O O19 0.759397 0.000000 0.721319
O O20 0.000000 0.074413 0.259944
O O21 0.757403 0.000000 0.284812
O O22 0.000000 0.211475 0.685362
#
# Coordination Sequence:
#
# PCOD9356418 Si02
#       8
#     8   8   8   8   8   8   8   8
#     4   9  18  32  48  68  99 135 166 198 241 294
#     4  11  23  36  50  75 106 139 176 215 260 315
#     4   9  17  31  52  78 103 128 167 214 260 300
#     4  11  22  37  54  73 101 141 180 220 263 309
#     4  10  20  33  50  75 108 141 172 211 260 314
#     4   9  17  31  53  79 105 135 174 216 258 310
#     4   9  16  28  50  77 102 127 160 204 250 299
#     4  10  18  33  55  78 104 135 171 217 262 306
#
# _framework density 17.657772999999999
#
# number of rings (size 3 to 8) (size 9 to 14) (size 15 to 20)
#    0.000    2.250    2.500    1.125    0.000    2.250 
#    0.000    2.500    0.000    0.750    0.000    3.500 
#    0.000    0.000    0.000    0.000    0.000    0.000 
#
# Total GULP energy -178490.660531 kJ/mol
# GULP energy per Si atom -5577.833142 kJ/mol
# Density = 1.761758 g / cm^3
# Si number density = 17.657773 Si / 1000 Ang^3
#
#
#
# Elastic Constant Matrix: (Units=GPa)
#
#
# Indices 1 2 3 4 5 6 
#
# 1 10.2608 19.1977 15.4717 0.0000 0.0000 0.0000
# 2 19.1977 118.9863 67.7105 0.0000 0.0000 0.0000
# 3 15.4717 67.7105 116.9332 0.0000 0.0000 0.0000
# 4 0.0000 0.0000 0.0000 22.0724 0.0000 0.0000
# 5 0.0000 0.0000 0.0000 0.0000 8545.3302 0.0000
# 6 0.0000 0.0000 0.0000 0.0000 0.0000 17.2350
#
#
#
# Elastic Compliance Matrix: (Units=1/GPa)
#
#
# Indices 1 2 3 4 5 6 
#
# 1 0.144934 -0.018601 -0.008406 0.000000 0.000000 0.000000
# 2 -0.018601 0.014922 -0.006179 0.000000 0.000000 0.000000
# 3 -0.008406 -0.006179 0.013242 0.000000 0.000000 0.000000
# 4 0.000000 0.000000 0.000000 0.045305 0.000000 0.000000
# 5 0.000000 0.000000 0.000000 0.000000 0.000117 0.000000
# 6 0.000000 0.000000 0.000000 0.000000 0.000000 0.058021
#
#
# Mechanical properties :
#
#
# Convention : Reuss Voigt Hill
#
# Bulk Modulus (GPa) = 9.36975 50.10448 29.73711
# Shear Modulus (GPa) = 13.21038 1726.51423 869.86230
#
# Velocity S-wave (km/s) = 2.73817 31.30315 22.21919
# Velocity P-wave (km/s) = 3.91339 36.53701 25.98334
#
# Compressibility (1/GPa) = 0.10672647
#
# Stress axis : x y z
#
# Youngs Moduli (GPa) = 6.89967 67.01525 75.51549
#
# Poissons Ratio (x) = 1.24655 0.63476
# Poissons Ratio (y) = 0.12834 0.46665
# Poissons Ratio (z) = 0.05800 0.41412
#
# Static dielectric constant tensor:
#      x y z
#    x 1.289810 0.000000 0.000000 
#    y 0.000000 1.640490 0.000000 
#    z 0.000000 0.000000 1.574080 
# 
# From -- ./inp_files/17190.got.cif
#   From: 2010.05.17/outbox.cif.g08.bks.cpg/sg38_9_cif.got.tgz:17190.got - 2010.06.03 18:07:57.
