data_PCOD9356739
_publ_section_title
;
Structure prediction by ZEFSAII (Michael W. Deem and Ramdas Pophale) SiO2 
 PCOD9356739
Probable space group: A M M 2
;
_chemical_formula_sum "Si O2"
_cell_formula_units_Z 64
_cell_length_a 29.502755
_cell_length_b 7.578335
_cell_length_c 14.615530
_cell_angle_alpha 90.000000
_cell_angle_beta 90.000000
_cell_angle_gamma 90.000000
_cell_volume 3267.765933
_symmetry_space_group_name_H-M "A M M 2"
_symmetry_group_IT_number 38
_symmetry_cell_setting 'orthorhombic'
loop_
_space_group_symop_operation_xyz
x,y,z
-x,-y,z
-x,y,z
x,-y,z
x,1/2+y,1/2+z
-x,1/2-y,1/2+z
-x,1/2+y,1/2+z
x,1/2-y,1/2+z
loop_
_atom_site_type_symbol
_atom_site_label
_atom_site_fract_x
_atom_site_fract_y
_atom_site_fract_z
Si Si1 0.873663 0.789188 0.563000
Si Si2 0.199447 0.783683 0.419433
Si Si3 0.875250 0.789222 0.276303
Si Si4 0.626842 0.791090 0.048555
Si Si5 0.300909 0.205988 0.397460
Si Si6 0.375335 0.716648 0.756885
Si Si7 0.051682 0.784021 0.420490
Si Si8 0.448656 0.287398 0.903161
O O1 0.828933 0.725904 0.508795
O O2 0.874430 0.750783 0.669745
O O3 0.917991 0.726876 0.507304
O O4 0.873670 0.000000 0.553199
O O5 0.168981 0.728452 0.332520
O O6 0.250908 0.719131 0.412866
O O7 0.200635 0.000000 0.421537
O O8 0.919848 0.727138 0.331060
O O9 0.875339 0.000000 0.285360
O O10 0.624780 0.724055 0.152234
O O11 0.634054 0.000000 0.052727
O O12 0.667784 0.717257 0.987421
O O13 0.580688 0.757983 0.992594
O O14 0.331495 0.278249 0.314446
O O15 0.294488 0.000000 0.375817
O O16 0.375350 0.500000 0.757331
O O17 0.419218 0.772220 0.815613
O O18 0.000000 0.722825 0.422245
O O19 0.050469 0.000000 0.420727
O O20 0.500000 0.220628 0.905008
O O21 0.450376 0.500000 0.898716
#
# Coordination Sequence:
#
# PCOD9356739 Si02
#       8
#     8   8   8   8   8   8   8   8
#     4   9  17  30  47  68  93 120 152 190 235 281
#     4   8  16  31  49  66  88 122 157 186 223 278
#     4   9  17  30  48  69  91 119 157 195 230 272
#     4  10  19  31  48  73 100 120 146 190 240 276
#     4   9  17  33  52  66  87 123 161 188 218 271
#     4   8  16  30  48  68  90 119 151 183 221 268
#     4   8  15  29  47  65  90 126 161 189 225 281
#     4   9  18  34  53  70  91 125 165 193 218 267
#
# _framework density 19.585246000000001
#
# number of rings (size 3 to 8) (size 9 to 14) (size 15 to 20)
#    0.000    3.250    0.000    2.625    0.000    2.250 
#    0.000   11.250    0.000    0.750    0.000    0.000 
#    0.000    0.000    0.000    0.000    0.000    0.000 
#
# Total GULP energy -178381.855954 kJ/mol
# GULP energy per Si atom -5574.432999 kJ/mol
# Density = 1.954067 g / cm^3
# Si number density = 19.585246 Si / 1000 Ang^3
#
#
#
# Elastic Constant Matrix: (Units=GPa)
#
#
# Indices 1 2 3 4 5 6 
#
# 1 196.3982 -3.1441 95.6965 0.0000 0.0000 0.0000
# 2 -3.1441 37.2477 -10.9614 0.0000 0.0000 0.0000
# 3 95.6965 -10.9614 188.6575 0.0000 0.0000 0.0000
# 4 0.0000 0.0000 0.0000 24.6427 0.0000 0.0000
# 5 0.0000 0.0000 0.0000 0.0000 6.2069 0.0000
# 6 0.0000 0.0000 0.0000 0.0000 0.0000 3.3538
#
#
#
# Elastic Compliance Matrix: (Units=1/GPa)
#
#
# Indices 1 2 3 4 5 6 
#
# 1 0.006771 -0.000447 -0.003460 0.000000 0.000000 0.000000
# 2 -0.000447 0.027344 0.001815 0.000000 0.000000 0.000000
# 3 -0.003460 0.001815 0.007161 0.000000 0.000000 0.000000
# 4 0.000000 0.000000 0.000000 0.040580 0.000000 0.000000
# 5 0.000000 0.000000 0.000000 0.000000 0.161110 0.000000
# 6 0.000000 0.000000 0.000000 0.000000 0.000000 0.298171
#
#
# Mechanical properties :
#
#
# Convention : Reuss Voigt Hill
#
# Bulk Modulus (GPa) = 26.95984 65.05394 46.00689
# Shear Modulus (GPa) = 8.96565 29.55485 19.26025
#
# Velocity S-wave (km/s) = 2.14189 3.88885 3.13933
# Velocity P-wave (km/s) = 4.46231 7.31109 6.05658
#
# Compressibility (1/GPa) = 0.03709220
#
# Stress axis : x y z
#
# Youngs Moduli (GPa) = 147.69674 36.57136 139.63834
#
# Poissons Ratio (x) = 0.01634 0.48320
# Poissons Ratio (y) = 0.06599 -0.25350
# Poissons Ratio (z) = 0.51108 -0.06639
#
# Static dielectric constant tensor:
#      x y z
#    x 1.680580 0.000000 0.000000 
#    y 0.000000 1.742890 0.000000 
#    z 0.000000 0.000000 1.668260 
# 
# From -- ./inp_files/10935.got.cif
#   From: 2010.05.17/outbox.cif.g08.bks.cpg/sg38_6_cif.got.tgz:10935.got - 2010.06.03 18:07:57.
