data_PCOD9356475
_publ_section_title
;
Structure prediction by ZEFSAII (Michael W. Deem and Ramdas Pophale) SiO2 
 PCOD9356475
Probable space group: A M M 2
;
_chemical_formula_sum "Si O2"
_cell_formula_units_Z 48
_cell_length_a 7.749641
_cell_length_b 18.539020
_cell_length_c 15.788401
_cell_angle_alpha 90.000000
_cell_angle_beta 90.000000
_cell_angle_gamma 90.000000
_cell_volume 2268.331405
_symmetry_space_group_name_H-M "A M M 2"
_symmetry_group_IT_number 38
_symmetry_cell_setting 'orthorhombic'
loop_
_space_group_symop_operation_xyz
x,y,z
-x,-y,z
-x,y,z
x,-y,z
x,1/2+y,1/2+z
-x,1/2-y,1/2+z
-x,1/2+y,1/2+z
x,1/2-y,1/2+z
loop_
_atom_site_type_symbol
_atom_site_label
_atom_site_fract_x
_atom_site_fract_y
_atom_site_fract_z
Si Si1 0.196759 0.500000 0.164611
Si Si2 0.704112 0.610372 0.498629
Si Si3 0.703747 0.158164 0.610818
Si Si4 0.291540 0.500000 0.356780
Si Si5 0.706076 0.726487 0.943737
Si Si6 0.299368 0.232060 0.253849
Si Si7 0.198942 0.920785 0.184894
O O1 0.278687 0.425183 0.134315
O O2 0.207544 0.500000 0.266048
O O3 0.000000 0.500000 0.135975
O O4 0.500000 0.595786 0.510916
O O5 0.756312 0.568281 0.414270
O O6 0.726403 0.694626 0.484071
O O7 0.794802 0.584051 0.583109
O O8 0.500000 0.176304 0.605796
O O9 0.775937 0.173935 0.516862
O O10 0.775097 0.211253 0.684905
O O11 0.500000 0.500000 0.344358
O O12 0.500000 0.711215 0.933875
O O13 0.778196 0.729153 0.848416
O O14 0.500000 0.254314 0.264373
O O15 0.291267 0.150894 0.217943
O O16 0.000000 0.916741 0.212581
O O17 0.268622 0.000000 0.209871
#
# Coordination Sequence:
#
# PCOD9356475 Si02
#       7
#     4   8   8   4   8   8   8
#     4  12  26  40  56  83 122 161 200 237 286 358
#     4  10  18  34  61  89 114 144 191 242 292 348
#     4  10  20  39  64  86 117 152 192 249 300 343
#     4  10  20  34  60  91 118 149 190 245 298 346
#     4   9  18  34  60  91 112 140 191 247 299 341
#     4  10  20  38  65  90 113 146 196 251 294 347
#     4  11  23  37  54  82 125 163 189 229 289 353
#
# _framework density 21.16093
#
# number of rings (size 3 to 8) (size 9 to 14) (size 15 to 20)
#    0.000    1.833    2.500    2.250    0.000    5.000 
#    1.500    1.667    0.000    0.000    0.000    0.000 
#    0.000    0.000    0.000    0.000    0.000    0.000 
#
# Total GULP energy -133952.219296 kJ/mol
# GULP energy per Si atom -5581.342471 kJ/mol
# Density = 2.111277 g / cm^3
# Si number density = 21.160930 Si / 1000 Ang^3
#
#
#
# Elastic Constant Matrix: (Units=GPa)
#
#
# Indices 1 2 3 4 5 6 
#
# 1 26.9811 -4.4446 6.3787 0.0000 0.0000 0.0000
# 2 -4.4446 93.0613 51.4193 0.0000 0.0000 0.0000
# 3 6.3787 51.4193 128.7218 0.0000 0.0000 0.0000
# 4 0.0000 0.0000 0.0000 -1.9870 0.0000 0.0000
# 5 0.0000 0.0000 0.0000 0.0000 247.8074 0.0000
# 6 0.0000 0.0000 0.0000 0.0000 0.0000 6.1951
#
#
#
# Elastic Compliance Matrix: (Units=1/GPa)
#
#
# Indices 1 2 3 4 5 6 
#
# 1 0.038475 0.003710 -0.003389 0.000000 0.000000 0.000000
# 2 0.003710 0.014147 -0.005835 0.000000 0.000000 0.000000
# 3 -0.003389 -0.005835 0.010267 0.000000 0.000000 0.000000
# 4 0.000000 0.000000 0.000000 -0.503264 0.000000 0.000000
# 5 0.000000 0.000000 0.000000 0.000000 0.004035 0.000000
# 6 0.000000 0.000000 0.000000 0.000000 0.000000 0.161418
#
#
# Mechanical properties :
#
#
# Convention : Reuss Voigt Hill
#
# Bulk Modulus (GPa) = 19.28188 39.49677 29.38933
# Shear Modulus (GPa) = -20.27525 63.43048 21.57762
#
# Velocity S-wave (km/s) = -3.09875 5.48091 3.19672
# Velocity P-wave (km/s) = 1.91604 7.66546 5.24824
#
# Compressibility (1/GPa) = 0.05186215
#
# Stress axis : x y z
#
# Youngs Moduli (GPa) = 25.99078 70.68755 97.39540
#
# Poissons Ratio (x) = -0.26224 0.33003
# Poissons Ratio (y) = -0.09642 0.56829
# Poissons Ratio (z) = 0.08807 0.41246
#
# Static dielectric constant tensor:
#      x y z
#    x 1.518630 0.000000 0.000000 
#    y 0.000000 1.783210 0.000000 
#    z 0.000000 0.000000 1.769850 
# 
# From -- ./inp_files/12105.got.cif
#   From: 2010.05.17/outbox.cif.g08.bks.cpg/sg38_7_cif.got.tgz:12105.got - 2010.06.03 18:07:57.
