data_PCOD9356478
_publ_section_title
;
Structure prediction by ZEFSAII (Michael W. Deem and Ramdas Pophale) SiO2 
 PCOD9356478
Probable space group: A M M 2
;
_chemical_formula_sum "Si O2"
_cell_formula_units_Z 32
_cell_length_a 11.676668
_cell_length_b 19.128630
_cell_length_c 7.549687
_cell_angle_alpha 90.000000
_cell_angle_beta 90.000000
_cell_angle_gamma 90.000000
_cell_volume 1686.287985
_symmetry_space_group_name_H-M "A M M 2"
_symmetry_group_IT_number 38
_symmetry_cell_setting 'orthorhombic'
loop_
_space_group_symop_operation_xyz
x,y,z
-x,-y,z
-x,y,z
x,-y,z
x,1/2+y,1/2+z
-x,1/2-y,1/2+z
-x,1/2+y,1/2+z
x,1/2-y,1/2+z
loop_
_atom_site_type_symbol
_atom_site_label
_atom_site_fract_x
_atom_site_fract_y
_atom_site_fract_z
Si Si1 0.500000 0.778064 0.755720
Si Si2 0.136154 0.678649 0.683890
Si Si3 0.249829 0.323389 0.312397
Si Si4 0.746951 0.081321 0.469090
Si Si5 0.500000 0.864964 0.391347
O O1 0.381869 0.802273 0.844746
O O2 0.500000 0.815996 0.566363
O O3 0.500000 0.694156 0.740772
O O4 0.189242 0.657265 0.495233
O O5 0.188936 0.753944 0.735445
O O6 0.173570 0.624482 0.835090
O O7 0.000000 0.684153 0.671767
O O8 0.245620 0.382575 0.161936
O O9 0.616393 0.091625 0.399619
O O10 0.775626 0.000000 0.476261
#
# Coordination Sequence:
#
# PCOD9356478 Si02
#       5
#     4   8   8   8   4
#     4  10  18  34  63  99 119 154 214 263 315 367
#     4  12  24  40  65  95 123 169 224 264 308 380
#     4  11  22  40  67  96 126 165 213 271 316 381
#     4  11  25  42  63  96 134 168 205 265 331 381
#     4  10  19  36  65  95 128 158 206 263 326 385
#
# _framework density 18.976590999999999
#
# number of rings (size 3 to 8) (size 9 to 14) (size 15 to 20)
#    0.000    1.000    5.000    2.625    0.000    2.500 
#    0.000    0.000    0.000    3.000    0.000    0.000 
#    0.000    0.000    0.000    0.000    0.000    0.000 
#
# Total GULP energy -89451.339175 kJ/mol
# GULP energy per Si atom -5590.708698 kJ/mol
# Density = 1.893340 g / cm^3
# Si number density = 18.976591 Si / 1000 Ang^3
#
#
#
# Elastic Constant Matrix: (Units=GPa)
#
#
# Indices 1 2 3 4 5 6 
#
# 1 149.8646 20.5741 44.2026 0.0000 0.0000 0.0000
# 2 20.5741 114.5005 20.4035 0.0000 0.0000 0.0000
# 3 44.2026 20.4035 81.6193 0.0000 0.0000 0.0000
# 4 0.0000 0.0000 0.0000 24.9570 0.0000 0.0000
# 5 0.0000 0.0000 0.0000 0.0000 16.8876 0.0000
# 6 0.0000 0.0000 0.0000 0.0000 0.0000 0.8999
#
#
#
# Elastic Compliance Matrix: (Units=1/GPa)
#
#
# Indices 1 2 3 4 5 6 
#
# 1 0.007994 -0.000696 -0.004155 0.000000 0.000000 0.000000
# 2 -0.000696 0.009201 -0.001923 0.000000 0.000000 0.000000
# 3 -0.004155 -0.001923 0.014983 0.000000 0.000000 0.000000
# 4 0.000000 0.000000 0.000000 0.040069 0.000000 0.000000
# 5 0.000000 0.000000 0.000000 0.000000 0.059215 0.000000
# 6 0.000000 0.000000 0.000000 0.000000 0.000000 1.111186
#
#
# Mechanical properties :
#
#
# Convention : Reuss Voigt Hill
#
# Bulk Modulus (GPa) = 53.67862 57.37165 55.52513
# Shear Modulus (GPa) = 3.96069 25.93585 14.94827
#
# Velocity S-wave (km/s) = 1.44626 3.70094 2.80968
# Velocity P-wave (km/s) = 5.58006 6.96858 6.31261
#
# Compressibility (1/GPa) = 0.01862939
#
# Stress axis : x y z
#
# Youngs Moduli (GPa) = 125.09654 108.67960 66.74162
#
# Poissons Ratio (x) = 0.07563 0.27733
# Poissons Ratio (y) = 0.08706 0.12836
# Poissons Ratio (z) = 0.51981 0.20902
#
# Static dielectric constant tensor:
#      x y z
#    x 1.654700 0.000000 0.000000 
#    y 0.000000 1.629010 0.000000 
#    z 0.000000 0.000000 1.684520 
# 
# From -- ./inp_files/4248.got.cif
#   From: 2010.05.17/outbox.cif.g08.bks.cpg/sg38_3_cif.got.tgz:4248.got - 2010.06.03 18:07:57.
