data_PCOD9356462
_publ_section_title
;
Structure prediction by ZEFSAII (Michael W. Deem and Ramdas Pophale) SiO2 
 PCOD9356462
Probable space group: A M M 2
;
_chemical_formula_sum "Si O2"
_cell_formula_units_Z 48
_cell_length_a 8.824081
_cell_length_b 16.980673
_cell_length_c 18.882516
_cell_angle_alpha 90.000000
_cell_angle_beta 90.000000
_cell_angle_gamma 90.000000
_cell_volume 2829.334180
_symmetry_space_group_name_H-M "A M M 2"
_symmetry_group_IT_number 38
_symmetry_cell_setting 'orthorhombic'
loop_
_space_group_symop_operation_xyz
x,y,z
-x,-y,z
-x,y,z
x,-y,z
x,1/2+y,1/2+z
-x,1/2-y,1/2+z
-x,1/2+y,1/2+z
x,1/2-y,1/2+z
loop_
_atom_site_type_symbol
_atom_site_label
_atom_site_fract_x
_atom_site_fract_y
_atom_site_fract_z
Si Si1 0.819546 0.172792 0.361480
Si Si2 0.819406 0.269179 0.218934
Si Si3 0.680751 0.185973 0.942001
Si Si4 0.680866 0.000000 0.165417
Si Si5 0.182284 0.000000 0.321795
Si Si6 0.182171 0.844147 0.094928
Si Si7 0.682587 0.090066 0.801918
O O1 0.789384 0.206898 0.282550
O O2 0.728455 0.227682 0.414906
O O3 0.781151 0.080763 0.362091
O O4 0.000000 0.181831 0.374476
O O5 0.771455 0.228876 0.145638
O O6 0.742730 0.350372 0.242352
O O7 0.000000 0.281350 0.216671
O O8 0.500000 0.180409 0.950487
O O9 0.727484 0.126835 0.878207
O O10 0.761630 0.166869 0.015275
O O11 0.735626 0.000000 0.246482
O O12 0.747098 0.077143 0.127614
O O13 0.500000 0.000000 0.161452
O O14 0.000000 0.000000 0.308724
O O15 0.000000 0.849772 0.097569
O O16 0.500000 0.090787 0.799875
O O17 0.734565 0.000000 0.794429
#
# Coordination Sequence:
#
# PCOD9356462 Si02
#       7
#     8   8   8   4   4   8   8
#     4   9  17  33  55  78 106 142 180 218 264 314
#     4   9  18  33  55  78 103 136 179 223 260 310
#     4  10  21  35  53  79 111 143 177 218 270 326
#     4  12  24  34  52  84 116 143 174 217 274 326
#     4  10  18  34  58  82 110 141 180 225 264 318
#     4  11  22  38  56  78 110 145 181 220 268 323
#     4   9  19  35  54  77 108 140 172 216 268 317
#
# _framework density 16.965121
#
# number of rings (size 3 to 8) (size 9 to 14) (size 15 to 20)
#    0.000    2.167    1.667    1.750    1.167    3.000 
#    0.000    0.000    1.833    0.000    0.000    0.000 
#    0.000    0.000    0.000    0.000    0.000    0.000 
#
# Total GULP energy -133916.535119 kJ/mol
# GULP energy per Si atom -5579.855630 kJ/mol
# Density = 1.692651 g / cm^3
# Si number density = 16.965121 Si / 1000 Ang^3
#
#
#
# Elastic Constant Matrix: (Units=GPa)
#
#
# Indices 1 2 3 4 5 6 
#
# 1 42.4176 43.8422 34.3797 0.0000 0.0000 0.0000
# 2 43.8422 160.1685 56.0457 0.0000 0.0000 0.0000
# 3 34.3797 56.0457 82.9730 0.0000 0.0000 0.0000
# 4 0.0000 0.0000 0.0000 15.5007 0.0000 0.0000
# 5 0.0000 0.0000 0.0000 0.0000 25.5765 0.0000
# 6 0.0000 0.0000 0.0000 0.0000 0.0000 15.3019
#
#
#
# Elastic Compliance Matrix: (Units=1/GPa)
#
#
# Indices 1 2 3 4 5 6 
#
# 1 0.040492 -0.006826 -0.012167 0.000000 0.000000 0.000000
# 2 -0.006826 0.009327 -0.003471 0.000000 0.000000 0.000000
# 3 -0.012167 -0.003471 0.019438 0.000000 0.000000 0.000000
# 4 0.000000 0.000000 0.000000 0.064513 0.000000 0.000000
# 5 0.000000 0.000000 0.000000 0.000000 0.039098 0.000000
# 6 0.000000 0.000000 0.000000 0.000000 0.000000 0.065351
#
#
# Mechanical properties :
#
#
# Convention : Reuss Voigt Hill
#
# Bulk Modulus (GPa) = 41.10518 61.56603 51.33561
# Shear Modulus (GPa) = 17.16691 21.36192 19.26442
#
# Velocity S-wave (km/s) = 3.18448 3.55232 3.37342
# Velocity P-wave (km/s) = 6.14842 7.29341 6.74526
#
# Compressibility (1/GPa) = 0.02432783
#
# Stress axis : x y z
#
# Youngs Moduli (GPa) = 24.69624 107.21943 51.44505
#
# Poissons Ratio (x) = 0.73192 0.62592
# Poissons Ratio (y) = 0.16858 0.17859
# Poissons Ratio (z) = 0.30047 0.37220
#
# Static dielectric constant tensor:
#      x y z
#    x 1.573200 0.000000 0.000000 
#    y 0.000000 1.571240 0.000000 
#    z 0.000000 0.000000 1.547990 
# 
# From -- ./inp_files/12072.got.cif
#   From: 2010.05.17/outbox.cif.g08.bks.cpg/sg38_7_cif.got.tgz:12072.got - 2010.06.03 18:07:57.
