data_PCOD9356980
_publ_section_title
;
Structure prediction by ZEFSAII (Michael W. Deem and Ramdas Pophale) SiO2 
 PCOD9356980
Probable space group: A M M 2
;
_chemical_formula_sum "Si O2"
_cell_formula_units_Z 64
_cell_length_a 33.646846
_cell_length_b 17.589730
_cell_length_c 5.143206
_cell_angle_alpha 90.000000
_cell_angle_beta 90.000000
_cell_angle_gamma 90.000000
_cell_volume 3043.949569
_symmetry_space_group_name_H-M "A M M 2"
_symmetry_group_IT_number 38
_symmetry_cell_setting 'orthorhombic'
loop_
_space_group_symop_operation_xyz
x,y,z
-x,-y,z
-x,y,z
x,-y,z
x,1/2+y,1/2+z
-x,1/2-y,1/2+z
-x,1/2+y,1/2+z
x,1/2-y,1/2+z
loop_
_atom_site_type_symbol
_atom_site_label
_atom_site_fract_x
_atom_site_fract_y
_atom_site_fract_z
Si Si1 0.301507 0.907586 0.483950
Si Si2 0.410388 0.196811 0.808396
Si Si3 0.954105 0.801330 0.447908
Si Si4 0.254559 0.907282 0.979450
Si Si5 0.833219 0.407677 0.323524
Si Si6 0.622891 0.588574 0.663481
Si Si7 0.543920 0.086685 0.511026
Si Si8 0.881957 0.408337 0.823602
O O1 0.268181 0.887279 0.268868
O O2 0.342832 0.882012 0.354690
O O3 0.304074 0.000000 0.498192
O O4 0.286577 0.881312 0.764518
O O5 0.407969 0.248743 0.555945
O O6 0.448963 0.145947 0.742824
O O7 0.378823 0.132743 0.892249
O O8 0.948354 0.736341 0.229558
O O9 0.922825 0.867318 0.392252
O O10 0.000000 0.827296 0.427441
O O11 0.210785 0.880800 0.898161
O O12 0.254219 0.000000 0.972423
O O13 0.831387 0.500000 0.327665
O O14 0.849351 0.386464 0.041234
O O15 0.864807 0.385301 0.543748
O O16 0.630299 0.500000 0.610914
O O17 0.580163 0.595385 0.807775
O O18 0.500000 0.097511 0.396366
O O19 0.546518 0.000000 0.610014
O O20 0.886414 0.500000 0.828920
#
# Coordination Sequence:
#
# PCOD9356980 Si02
#       8
#     8   8   8   8   8   8   8   8
#     4   9  18  29  51  83 117 150 187 235 287 337
#     4  12  25  44  64  91 123 159 198 240 288 343
#     4  10  21  37  55  77 109 149 192 239 290 344
#     4   9  16  28  46  78 117 151 181 227 293 347
#     4   9  17  29  48  77 117 149 181 232 293 351
#     4  10  22  41  67  96 127 159 202 252 296 353
#     4  10  23  44  68  93 125 163 199 243 300 353
#     4  10  19  32  53  81 110 147 189 237 290 342
#
# _framework density 21.025314999999999
#
# number of rings (size 3 to 8) (size 9 to 14) (size 15 to 20)
#    0.000    2.125    1.250    1.875    1.750    4.250 
#    0.000    1.250    0.000    4.500    0.000   17.500 
#    0.000    0.000    0.000    0.000    0.000    0.000 
#
# Total GULP energy -178597.427827 kJ/mol
# GULP energy per Si atom -5581.169620 kJ/mol
# Density = 2.097746 g / cm^3
# Si number density = 21.025315 Si / 1000 Ang^3
#
#
#
# Elastic Constant Matrix: (Units=GPa)
#
#
# Indices 1 2 3 4 5 6 
#
# 1 84.0835 14.9372 -12.3505 0.0000 0.0000 0.0000
# 2 14.9372 40.1812 13.4669 0.0000 0.0000 0.0000
# 3 -12.3505 13.4669 78.8991 0.0000 0.0000 0.0000
# 4 0.0000 0.0000 0.0000 18.2708 0.0000 0.0000
# 5 0.0000 0.0000 0.0000 0.0000 30.3419 0.0000
# 6 0.0000 0.0000 0.0000 0.0000 0.0000 1.7216
#
#
#
# Elastic Compliance Matrix: (Units=1/GPa)
#
#
# Indices 1 2 3 4 5 6 
#
# 1 0.013426 -0.006041 0.003133 0.000000 0.000000 0.000000
# 2 -0.006041 0.029116 -0.005915 0.000000 0.000000 0.000000
# 3 0.003133 -0.005915 0.014174 0.000000 0.000000 0.000000
# 4 0.000000 0.000000 0.000000 0.054732 0.000000 0.000000
# 5 0.000000 0.000000 0.000000 0.000000 0.032958 0.000000
# 6 0.000000 0.000000 0.000000 0.000000 0.000000 0.580851
#
#
# Mechanical properties :
#
#
# Convention : Reuss Voigt Hill
#
# Bulk Modulus (GPa) = 25.59565 26.14123 25.86844
# Shear Modulus (GPa) = 6.61439 22.54088 14.57763
#
# Velocity S-wave (km/s) = 1.77560 3.27782 2.63599
# Velocity P-wave (km/s) = 4.05016 5.17549 4.64701
#
# Compressibility (1/GPa) = 0.03906914
#
# Stress axis : x y z
#
# Youngs Moduli (GPa) = 74.48065 34.34588 70.54936
#
# Poissons Ratio (x) = 0.20749 -0.22102
# Poissons Ratio (y) = 0.44995 0.41732
# Poissons Ratio (z) = -0.23334 0.20317
#
# Static dielectric constant tensor:
#      x y z
#    x 1.766070 0.000000 0.000000 
#    y 0.000000 1.775870 0.000000 
#    z 0.000000 0.000000 1.776980 
# 
# From -- ./inp_files/2319.got.cif
#   From: 2010.05.17/outbox.cif.g08.bks.cpg/sg38_2_cif.got.tgz:2319.got - 2010.06.03 18:07:57.
