data_PCOD9356149
_publ_section_title
;
Structure prediction by ZEFSAII (Michael W. Deem and Ramdas Pophale) SiO2 
 PCOD9356149
Probable space group: A M M 2
;
_chemical_formula_sum "Si O2"
_cell_formula_units_Z 60
_cell_length_a 21.663223
_cell_length_b 25.619775
_cell_length_c 5.377515
_cell_angle_alpha 90.000000
_cell_angle_beta 90.000000
_cell_angle_gamma 90.000000
_cell_volume 2984.557925
_symmetry_space_group_name_H-M "A M M 2"
_symmetry_group_IT_number 38
_symmetry_cell_setting 'orthorhombic'
loop_
_space_group_symop_operation_xyz
x,y,z
-x,-y,z
-x,y,z
x,-y,z
x,1/2+y,1/2+z
-x,1/2-y,1/2+z
-x,1/2+y,1/2+z
x,1/2-y,1/2+z
loop_
_atom_site_type_symbol
_atom_site_label
_atom_site_fract_x
_atom_site_fract_y
_atom_site_fract_z
Si Si1 0.000000 0.220450 0.954710
Si Si2 0.139443 0.101549 0.878149
Si Si3 0.875404 0.561873 0.879226
Si Si4 0.736783 0.393856 0.876485
Si Si5 0.274886 0.559892 0.374875
Si Si6 0.566349 0.215564 0.346986
Si Si7 0.703512 0.283778 0.795487
Si Si8 0.138106 0.716006 0.374459
O O1 0.933757 0.197504 0.888213
O O2 0.000000 0.268238 0.750781
O O3 0.101329 0.087211 0.633733
O O4 0.199738 0.063868 0.885123
O O5 0.169100 0.159445 0.866314
O O6 0.102683 0.090019 0.129540
O O7 0.884262 0.500000 0.871806
O O8 0.802444 0.576624 0.886771
O O9 0.703172 0.416399 0.634742
O O10 0.747534 0.332652 0.838517
O O11 0.705105 0.406624 0.137259
O O12 0.292306 0.500000 0.345233
O O13 0.500000 0.186966 0.325856
O O14 0.566274 0.243096 0.617618
O O15 0.634305 0.191748 0.317791
O O16 0.710401 0.256601 0.526022
O O17 0.148432 0.750227 0.624181
#
# Coordination Sequence:
#
# PCOD9356149 Si02
#       8
#     4   8   8   8   8   8   8   8
#     4   8  16  30  48  64  87 120 147 174 208 242
#     4  10  18  30  48  69  87 114 148 181 220 255
#     4  10  19  33  48  65  86 112 150 192 222 251
#     4  10  18  30  46  64  86 116 150 179 216 262
#     4  10  19  33  48  64  85 111 149 193 223 250
#     4   8  14  25  41  58  79 111 146 176 207 244
#     4  10  19  30  42  62  93 122 145 173 210 259
#     4  10  19  32  47  69  96 119 145 176 208 256
#
# _framework density 20.103480000000001
#
# number of rings (size 3 to 8) (size 9 to 14) (size 15 to 20)
#    0.000    2.400    0.000    5.600    0.000    0.000 
#    0.000   16.000    0.000    0.000    0.000    5.133 
#    0.000    5.867    0.000    0.000    0.000    0.000 
#
# Total GULP energy -167065.782071 kJ/mol
# GULP energy per Si atom -5568.859402 kJ/mol
# Density = 2.005772 g / cm^3
# Si number density = 20.103480 Si / 1000 Ang^3
#
#
#
# Elastic Constant Matrix: (Units=GPa)
#
#
# Indices 1 2 3 4 5 6 
#
# 1 32.6269 -6.4212 -7.5624 0.0000 0.0000 0.0000
# 2 -6.4212 93.0403 19.1457 0.0000 0.0000 0.0000
# 3 -7.5624 19.1457 142.9189 0.0000 0.0000 0.0000
# 4 0.0000 0.0000 0.0000 31.6129 0.0000 0.0000
# 5 0.0000 0.0000 0.0000 0.0000 9.7562 0.0000
# 6 0.0000 0.0000 0.0000 0.0000 0.0000 -10.8372
#
#
#
# Elastic Compliance Matrix: (Units=1/GPa)
#
#
# Indices 1 2 3 4 5 6 
#
# 1 0.031345 0.001874 0.001408 0.000000 0.000000 0.000000
# 2 0.001874 0.011165 -0.001397 0.000000 0.000000 0.000000
# 3 0.001408 -0.001397 0.007259 0.000000 0.000000 0.000000
# 4 0.000000 0.000000 0.000000 0.031633 0.000000 0.000000
# 5 0.000000 0.000000 0.000000 0.000000 0.102499 0.000000
# 6 0.000000 0.000000 0.000000 0.000000 0.000000 -0.092274
#
#
# Mechanical properties :
#
#
# Convention : Reuss Voigt Hill
#
# Bulk Modulus (GPa) = 18.67862 30.99003 24.83433
# Shear Modulus (GPa) = 47.30324 23.66798 35.48561
#
# Velocity S-wave (km/s) = 4.85602 3.43491 4.20592
# Velocity P-wave (km/s) = 6.38378 5.58393 5.99720
#
# Compressibility (1/GPa) = 0.05353714
#
# Stress axis : x y z
#
# Youngs Moduli (GPa) = 31.90347 89.56797 137.76882
#
# Poissons Ratio (x) = -0.16782 -0.19392
# Poissons Ratio (y) = -0.05977 0.19240
# Poissons Ratio (z) = -0.04491 0.12508
#
# Static dielectric constant tensor:
#      x y z
#    x 1.810400 0.000000 0.000000 
#    y 0.000000 1.697180 0.000000 
#    z 0.000000 0.000000 1.920580 
# 
# From -- ./inp_files/2134.got.cif
#   From: 2010.05.17/outbox.cif.g08.bks.cpg/sg38_2_cif.got.tgz:2134.got - 2010.06.03 18:07:57.
