data_PCOD9356774
_publ_section_title
;
Structure prediction by ZEFSAII (Michael W. Deem and Ramdas Pophale) SiO2 
 PCOD9356774
Probable space group: A M M 2
;
_chemical_formula_sum "Si O2"
_cell_formula_units_Z 64
_cell_length_a 9.586140
_cell_length_b 25.945200
_cell_length_c 14.179656
_cell_angle_alpha 90.000000
_cell_angle_beta 90.000000
_cell_angle_gamma 90.000000
_cell_volume 3526.683493
_symmetry_space_group_name_H-M "A M M 2"
_symmetry_group_IT_number 38
_symmetry_cell_setting 'orthorhombic'
loop_
_space_group_symop_operation_xyz
x,y,z
-x,-y,z
-x,y,z
x,-y,z
x,1/2+y,1/2+z
-x,1/2-y,1/2+z
-x,1/2+y,1/2+z
x,1/2-y,1/2+z
loop_
_atom_site_type_symbol
_atom_site_label
_atom_site_fract_x
_atom_site_fract_y
_atom_site_fract_z
Si Si1 0.342676 0.772913 0.488150
Si Si2 0.664328 0.844928 0.316416
Si Si3 0.659265 0.237254 0.713235
Si Si4 0.167178 0.558610 0.736786
Si Si5 0.664837 0.089729 0.057293
Si Si6 0.153184 0.145201 0.784977
Si Si7 0.154326 0.679124 0.495868
Si Si8 0.657788 0.940135 0.838923
O O1 0.500000 0.753975 0.463063
O O2 0.321364 0.823296 0.423645
O O3 0.339642 0.773573 0.601364
O O4 0.219507 0.733372 0.467231
O O5 0.500000 0.857640 0.301407
O O6 0.696046 0.794990 0.249366
O O7 0.759486 0.894359 0.293377
O O8 0.500000 0.228733 0.745866
O O9 0.762714 0.195173 0.754313
O O10 0.187417 0.500000 0.774675
O O11 0.243727 0.560827 0.635045
O O12 0.000000 0.567061 0.728062
O O13 0.500000 0.090456 0.080026
O O14 0.731321 0.147030 0.053753
O O15 0.679457 0.066567 0.952061
O O16 0.139417 0.149521 0.897725
O O17 0.240868 0.093439 0.774804
O O18 0.000000 0.143661 0.741710
O O19 0.000000 0.682866 0.540244
O O20 0.500000 0.921694 0.822249
O O21 0.669268 0.000000 0.817315
#
# Coordination Sequence:
#
# PCOD9356774 Si02
#       8
#     8   8   8   8   8   8   8   8
#     4  10  20  34  55  82 109 141 186 229 272 328
#     4  10  21  37  58  84 113 147 188 232 280 337
#     4  10  20  35  56  81 110 143 180 227 278 328
#     4  11  24  39  55  78 110 147 187 234 288 344
#     4  10  19  32  53  79 109 145 187 229 273 330
#     4  10  20  32  49  75 108 143 178 216 265 325
#     4  10  19  31  49  77 111 147 180 217 270 325
#     4   9  18  32  51  75 104 142 185 227 274 327
#
# _framework density 18.147361
#
# number of rings (size 3 to 8) (size 9 to 14) (size 15 to 20)
#    0.000    2.000    1.250    2.625    0.000    5.750 
#    0.000    0.000    0.000    0.750    0.000    1.750 
#    0.000    0.000    0.000    0.000    0.000    0.000 
#
# Total GULP energy -178234.822264 kJ/mol
# GULP energy per Si atom -5569.838196 kJ/mol
# Density = 1.810606 g / cm^3
# Si number density = 18.147361 Si / 1000 Ang^3
#
#
#
# Elastic Constant Matrix: (Units=GPa)
#
#
# Indices 1 2 3 4 5 6 
#
# 1 117.7537 73.3190 28.0659 0.0000 0.0000 0.0000
# 2 73.3190 105.2268 30.3205 0.0000 0.0000 0.0000
# 3 28.0659 30.3205 63.0443 0.0000 0.0000 0.0000
# 4 0.0000 0.0000 0.0000 24.4239 0.0000 0.0000
# 5 0.0000 0.0000 0.0000 0.0000 16.8094 0.0000
# 6 0.0000 0.0000 0.0000 0.0000 0.0000 -10.4815
#
#
#
# Elastic Compliance Matrix: (Units=1/GPa)
#
#
# Indices 1 2 3 4 5 6 
#
# 1 0.015202 -0.010033 -0.001943 0.000000 0.000000 0.000000
# 2 -0.010033 0.017653 -0.004024 0.000000 0.000000 0.000000
# 3 -0.001943 -0.004024 0.018662 0.000000 0.000000 0.000000
# 4 0.000000 0.000000 0.000000 0.040943 0.000000 0.000000
# 5 0.000000 0.000000 0.000000 0.000000 0.059491 0.000000
# 6 0.000000 0.000000 0.000000 0.000000 0.000000 -0.095407
#
#
# Mechanical properties :
#
#
# Convention : Reuss Voigt Hill
#
# Bulk Modulus (GPa) = 51.23175 61.04839 56.14007
# Shear Modulus (GPa) = 52.60456 16.43833 34.52145
#
# Velocity S-wave (km/s) = 5.38984 3.01296 4.36625
# Velocity P-wave (km/s) = 8.18695 6.76885 7.51144
#
# Compressibility (1/GPa) = 0.01951915
#
# Stress axis : x y z
#
# Youngs Moduli (GPa) = 65.78040 56.64702 53.58526
#
# Poissons Ratio (x) = 0.56832 0.10409
# Poissons Ratio (y) = 0.65995 0.21562
# Poissons Ratio (z) = 0.12778 0.22794
#
# Static dielectric constant tensor:
#      x y z
#    x 1.659480 0.000000 0.000000 
#    y 0.000000 1.624950 0.000000 
#    z 0.000000 0.000000 1.658310 
# 
# From -- ./inp_files/12841.got.cif
#   From: 2010.05.17/outbox.cif.g08.bks.cpg/sg38_7_cif.got.tgz:12841.got - 2010.06.03 18:07:57.
