data_PCOD9356300
_publ_section_title
;
Structure prediction by ZEFSAII (Michael W. Deem and Ramdas Pophale) SiO2 
 PCOD9356300
Probable space group: A M M 2
;
_chemical_formula_sum "Si O2"
_cell_formula_units_Z 64
_cell_length_a 8.355345
_cell_length_b 29.351993
_cell_length_c 12.701033
_cell_angle_alpha 90.000000
_cell_angle_beta 90.000000
_cell_angle_gamma 90.000000
_cell_volume 3114.877894
_symmetry_space_group_name_H-M "A M M 2"
_symmetry_group_IT_number 38
_symmetry_cell_setting 'orthorhombic'
loop_
_space_group_symop_operation_xyz
x,y,z
-x,-y,z
-x,y,z
x,-y,z
x,1/2+y,1/2+z
-x,1/2-y,1/2+z
-x,1/2+y,1/2+z
x,1/2-y,1/2+z
loop_
_atom_site_type_symbol
_atom_site_label
_atom_site_fract_x
_atom_site_fract_y
_atom_site_fract_z
Si Si1 0.314873 0.725110 0.243700
Si Si2 0.188804 0.185127 0.341837
Si Si3 0.808260 0.551531 0.113027
Si Si4 0.811808 0.670675 0.427283
Si Si5 0.313677 0.921195 0.838324
Si Si6 0.310340 0.346273 0.063419
Si Si7 0.185165 0.638351 0.648323
Si Si8 0.318360 0.950017 0.070685
O O1 0.500000 0.735219 0.218824
O O2 0.219180 0.771467 0.265467
O O3 0.297392 0.703064 0.358843
O O4 0.253423 0.687742 0.158450
O O5 0.272924 0.179540 0.454033
O O6 0.252177 0.145803 0.263840
O O7 0.000000 0.181992 0.364873
O O8 0.756994 0.500000 0.073804
O O9 0.747355 0.555292 0.233414
O O10 0.000000 0.551717 0.109516
O O11 0.754932 0.601264 0.065424
O O12 0.792716 0.622298 0.368868
O O13 0.750023 0.665184 0.546597
O O14 0.000000 0.684133 0.426466
O O15 0.500000 0.907200 0.822922
O O16 0.307130 0.950554 0.944275
O O17 0.500000 0.350540 0.078076
O O18 0.198968 0.586283 0.616122
O O19 0.000000 0.651714 0.654480
O O20 0.500000 0.934636 0.094476
O O21 0.293416 0.000000 0.113320
#
# Coordination Sequence:
#
# PCOD9356300 Si02
#       8
#     8   8   8   8   8   8   8   8
#     4  11  24  41  63  94 125 158 202 252 311 373
#     4  11  25  44  66  90 122 164 209 258 314 375
#     4  11  23  38  60  91 126 167 214 263 319 382
#     4  10  19  34  58  88 122 159 199 245 299 361
#     4  10  18  31  52  83 123 163 200 247 306 366
#     4  11  25  45  67  94 129 166 212 267 319 378
#     4   9  21  39  58  86 119 154 200 248 298 355
#     4   9  18  32  53  83 118 159 204 249 302 361
#
# _framework density 20.546552999999999
#
# number of rings (size 3 to 8) (size 9 to 14) (size 15 to 20)
#    0.000    1.750    1.250    2.625    1.750    5.250 
#    0.000    0.625    0.000    0.750    0.000    0.000 
#    0.000    0.000    0.000    0.000    0.000    0.000 
#
# Total GULP energy -178233.802941 kJ/mol
# GULP energy per Si atom -5569.806342 kJ/mol
# Density = 2.049979 g / cm^3
# Si number density = 20.546553 Si / 1000 Ang^3
#
#
#
# Elastic Constant Matrix: (Units=GPa)
#
#
# Indices 1 2 3 4 5 6 
#
# 1 32.1232 20.3606 16.4808 0.0000 0.0000 0.0000
# 2 20.3606 68.7676 22.7199 0.0000 0.0000 0.0000
# 3 16.4808 22.7199 88.0617 0.0000 0.0000 0.0000
# 4 0.0000 0.0000 0.0000 2.1460 0.0000 0.0000
# 5 0.0000 0.0000 0.0000 0.0000 -5.9779 0.0000
# 6 0.0000 0.0000 0.0000 0.0000 0.0000 26.7798
#
#
#
# Elastic Compliance Matrix: (Units=1/GPa)
#
#
# Indices 1 2 3 4 5 6 
#
# 1 0.040138 -0.010278 -0.004860 0.000000 0.000000 0.000000
# 2 -0.010278 0.018529 -0.002857 0.000000 0.000000 0.000000
# 3 -0.004860 -0.002857 0.013002 0.000000 0.000000 0.000000
# 4 0.000000 0.000000 0.000000 0.465984 0.000000 0.000000
# 5 0.000000 0.000000 0.000000 0.000000 -0.167283 0.000000
# 6 0.000000 0.000000 0.000000 0.000000 0.000000 0.037342
#
#
# Mechanical properties :
#
#
# Convention : Reuss Voigt Hill
#
# Bulk Modulus (GPa) = 28.02783 34.23058 31.12921
# Shear Modulus (GPa) = 10.97465 13.21565 12.09515
#
# Velocity S-wave (km/s) = 2.31364 2.53890 2.42889
# Velocity P-wave (km/s) = 4.56158 5.02900 4.80098
#
# Compressibility (1/GPa) = 0.03567882
#
# Stress axis : x y z
#
# Youngs Moduli (GPa) = 24.91383 53.97003 76.90942
#
# Poissons Ratio (x) = 0.55472 0.37379
# Poissons Ratio (y) = 0.25607 0.21972
# Poissons Ratio (z) = 0.12108 0.15418
#
# Static dielectric constant tensor:
#      x y z
#    x 1.745360 0.000000 0.000000 
#    y 0.000000 1.829480 0.000000 
#    z 0.000000 0.000000 1.736310 
# 
# From -- ./inp_files/8680.got.cif
#   From: 2010.05.17/outbox.cif.g08.bks.cpg/sg38_5_cif.got.tgz:8680.got - 2010.06.03 18:07:57.
