data_PCOD9356573
_publ_section_title
;
Structure prediction by ZEFSAII (Michael W. Deem and Ramdas Pophale) SiO2 
 PCOD9356573
Probable space group: A M M 2
;
_chemical_formula_sum "Si O2"
_cell_formula_units_Z 40
_cell_length_a 9.033496
_cell_length_b 21.386236
_cell_length_c 13.005995
_cell_angle_alpha 90.000000
_cell_angle_beta 90.000000
_cell_angle_gamma 90.000000
_cell_volume 2512.660395
_symmetry_space_group_name_H-M "A M M 2"
_symmetry_group_IT_number 38
_symmetry_cell_setting 'orthorhombic'
loop_
_space_group_symop_operation_xyz
x,y,z
-x,-y,z
-x,y,z
x,-y,z
x,1/2+y,1/2+z
-x,1/2-y,1/2+z
-x,1/2+y,1/2+z
x,1/2-y,1/2+z
loop_
_atom_site_type_symbol
_atom_site_label
_atom_site_fract_x
_atom_site_fract_y
_atom_site_fract_z
Si Si1 0.678412 0.071775 0.398290
Si Si2 0.176125 0.159459 0.231870
Si Si3 0.821676 0.203352 0.012979
Si Si4 0.176539 0.304712 0.283611
Si Si5 0.677321 0.834246 0.577025
O O1 0.500000 0.072329 0.393448
O O2 0.740637 0.109822 0.301475
O O3 0.721189 0.109504 0.501372
O O4 0.728685 0.000000 0.399593
O O5 0.207357 0.230327 0.270339
O O6 0.000000 0.149721 0.241690
O O7 0.215368 0.160316 0.110847
O O8 0.783185 0.178080 0.900301
O O9 0.000000 0.213377 0.015134
O O10 0.745077 0.270096 0.031768
O O11 0.260860 0.339535 0.192472
O O12 0.000000 0.312683 0.269571
O O13 0.500000 0.829616 0.578980
#
# Coordination Sequence:
#
# PCOD9356573 Si02
#       5
#     8   8   8   8   8
#     4  10  21  35  48  65  96 133 163 196 235 275
#     4   9  17  29  48  72  94 121 159 194 234 283
#     4   9  17  31  49  70  98 126 150 190 244 291
#     4   9  17  30  49  70  98 127 150 188 243 293
#     4  10  19  29  45  70  97 124 160 198 234 279
#
# _framework density 15.919382000000001
#
# number of rings (size 3 to 8) (size 9 to 14) (size 15 to 20)
#    0.000    2.600    2.000    1.800    0.000    5.200 
#    0.000    0.000    0.000    1.200    0.000    5.600 
#    0.000    0.000    0.000    0.000    0.000    0.000 
#
# Total GULP energy -111448.657248 kJ/mol
# GULP energy per Si atom -5572.432862 kJ/mol
# Density = 1.588315 g / cm^3
# Si number density = 15.919382 Si / 1000 Ang^3
#
#
#
# Elastic Constant Matrix: (Units=GPa)
#
#
# Indices 1 2 3 4 5 6 
#
# 1 20.1118 30.2953 44.3696 0.0000 0.0000 0.0000
# 2 30.2953 85.7274 66.2296 0.0000 0.0000 0.0000
# 3 44.3696 66.2296 178.9656 0.0000 0.0000 0.0000
# 4 0.0000 0.0000 0.0000 17.2893 0.0000 0.0000
# 5 0.0000 0.0000 0.0000 0.0000 27.8167 0.0000
# 6 0.0000 0.0000 0.0000 0.0000 0.0000 13.1887
#
#
#
# Elastic Compliance Matrix: (Units=1/GPa)
#
#
# Indices 1 2 3 4 5 6 
#
# 1 0.167600 -0.037988 -0.027494 0.000000 0.000000 0.000000
# 2 -0.037988 0.024945 0.000187 0.000000 0.000000 0.000000
# 3 -0.027494 0.000187 0.012335 0.000000 0.000000 0.000000
# 4 0.000000 0.000000 0.000000 0.057839 0.000000 0.000000
# 5 0.000000 0.000000 0.000000 0.000000 0.035950 0.000000
# 6 0.000000 0.000000 0.000000 0.000000 0.000000 0.075822
#
#
# Mechanical properties :
#
#
# Convention : Reuss Voigt Hill
#
# Bulk Modulus (GPa) = 13.46069 62.95484 38.20776
# Shear Modulus (GPa) = 9.43673 21.25297 15.34485
#
# Velocity S-wave (km/s) = 2.43735 3.65778 3.10806
# Velocity P-wave (km/s) = 4.04905 7.58096 6.07725
#
# Compressibility (1/GPa) = 0.07429042
#
# Stress axis : x y z
#
# Youngs Moduli (GPa) = 5.96659 40.08773 81.07046
#
# Poissons Ratio (x) = 1.52284 2.22893
# Poissons Ratio (y) = 0.22666 -0.01512
# Poissons Ratio (z) = 0.16404 -0.00748
#
# Static dielectric constant tensor:
#      x y z
#    x 1.532120 0.000000 0.000000 
#    y 0.000000 1.497000 0.000000 
#    z 0.000000 0.000000 1.562860 
# 
# From -- ./inp_files/7777.got.cif
#   From: 2010.05.17/outbox.cif.g08.bks.cpg/sg38_4_cif.got.tgz:7777.got - 2010.06.03 18:07:57.
