data_PCOD9356940
_publ_section_title
;
Structure prediction by ZEFSAII (Michael W. Deem and Ramdas Pophale) SiO2 
 PCOD9356940
Probable space group: A M M 2
;
_chemical_formula_sum "Si O2"
_cell_formula_units_Z 42
_cell_length_a 16.325422
_cell_length_b 7.749526
_cell_length_c 13.872788
_cell_angle_alpha 90.000000
_cell_angle_beta 90.000000
_cell_angle_gamma 90.000000
_cell_volume 1755.105817
_symmetry_space_group_name_H-M "A M M 2"
_symmetry_group_IT_number 38
_symmetry_cell_setting 'orthorhombic'
loop_
_space_group_symop_operation_xyz
x,y,z
-x,-y,z
-x,y,z
x,-y,z
x,1/2+y,1/2+z
-x,1/2-y,1/2+z
-x,1/2+y,1/2+z
x,1/2-y,1/2+z
loop_
_atom_site_type_symbol
_atom_site_label
_atom_site_fract_x
_atom_site_fract_y
_atom_site_fract_z
Si Si1 0.000000 0.000000 0.267470
Si Si2 0.881002 0.698844 0.332041
Si Si3 0.591240 0.200884 0.747704
Si Si4 0.287283 0.197147 0.397010
Si Si5 0.265201 0.802356 0.110017
Si Si6 0.089709 0.291658 0.562309
O O1 0.929449 0.846672 0.276912
O O2 0.901835 0.500000 0.309692
O O3 0.783390 0.725504 0.328650
O O4 0.901260 0.728488 0.446516
O O5 0.500000 0.260107 0.720525
O O6 0.628083 0.294867 0.840516
O O7 0.658848 0.220217 0.664571
O O8 0.587356 0.000000 0.772535
O O9 0.286443 0.298713 0.496562
O O10 0.265107 0.000000 0.418755
O O11 0.172853 0.724516 0.111235
O O12 0.259550 0.000000 0.144303
O O13 0.086438 0.500000 0.578443
O O14 0.000000 0.221566 0.588654
#
# Coordination Sequence:
#
# PCOD9356940 Si02
#       6
#     2   8   8   8   8   8
#     4  12  18  28  52  90 122 172 222 266 316 386
#     4  10  19  32  52  86 128 167 217 270 315 378
#     4  11  25  45  67  91 123 166 215 274 339 397
#     4  11  22  40  66  96 127 168 216 266 329 398
#     4  10  21  38  64  96 129 167 209 261 320 383
#     4   8  14  28  53  82 120 166 204 248 308 365
#
# _framework density 23.930181000000001
#
# number of rings (size 3 to 8) (size 9 to 14) (size 15 to 20)
#    0.000    1.905    1.905    4.286    0.000    2.286 
#    0.000    0.000    2.095    0.000    0.000    0.000 
#    0.000    0.000    0.000    0.000    0.000    0.000 
#
# Total GULP energy -117263.420203 kJ/mol
# GULP energy per Si atom -5583.972391 kJ/mol
# Density = 2.387571 g / cm^3
# Si number density = 23.930181 Si / 1000 Ang^3
#
#
#
# Elastic Constant Matrix: (Units=GPa)
#
#
# Indices 1 2 3 4 5 6 
#
# 1 211.2324 29.6784 49.8549 0.0000 0.0000 0.0000
# 2 29.6784 124.6001 5.4128 0.0000 0.0000 0.0000
# 3 49.8549 5.4128 74.6885 0.0000 0.0000 0.0000
# 4 0.0000 0.0000 0.0000 26.9677 0.0000 0.0000
# 5 0.0000 0.0000 0.0000 0.0000 -24.0105 0.0000
# 6 0.0000 0.0000 0.0000 0.0000 0.0000 15.5219
#
#
#
# Elastic Compliance Matrix: (Units=1/GPa)
#
#
# Indices 1 2 3 4 5 6 
#
# 1 0.005798 -0.001217 -0.003782 0.000000 0.000000 0.000000
# 2 -0.001217 0.008306 0.000210 0.000000 0.000000 0.000000
# 3 -0.003782 0.000210 0.015898 0.000000 0.000000 0.000000
# 4 0.000000 0.000000 0.000000 0.037081 0.000000 0.000000
# 5 0.000000 0.000000 0.000000 0.000000 -0.041648 0.000000
# 6 0.000000 0.000000 0.000000 0.000000 0.000000 0.064425
#
#
# Mechanical properties :
#
#
# Convention : Reuss Voigt Hill
#
# Bulk Modulus (GPa) = 48.95848 64.49036 56.72442
# Shear Modulus (GPa) = 47.06095 25.40081 36.23088
#
# Velocity S-wave (km/s) = 4.43944 3.26153 3.89527
# Velocity P-wave (km/s) = 6.83970 6.41805 6.63223
#
# Compressibility (1/GPa) = 0.02042547
#
# Stress axis : x y z
#
# Youngs Moduli (GPa) = 172.48422 120.38995 62.90078
#
# Poissons Ratio (x) = 0.14647 0.23788
# Poissons Ratio (y) = 0.20985 -0.01322
# Poissons Ratio (z) = 0.65230 -0.02530
#
# Static dielectric constant tensor:
#      x y z
#    x 2.290790 0.000000 0.000000 
#    y 0.000000 1.853110 0.000000 
#    z 0.000000 0.000000 1.989230 
# 
# From -- ./inp_files/14322.got.cif
#   From: 2010.05.17/outbox.cif.g08.bks.cpg/sg38_8_cif.got.tgz:14322.got - 2010.06.03 18:07:57.
