data_PCOD9356330
_publ_section_title
;
Structure prediction by ZEFSAII (Michael W. Deem and Ramdas Pophale) SiO2 
 PCOD9356330
Probable space group: A M M 2
;
_chemical_formula_sum "Si O2"
_cell_formula_units_Z 56
_cell_length_a 8.698960
_cell_length_b 16.206426
_cell_length_c 20.446331
_cell_angle_alpha 90.000000
_cell_angle_beta 90.000000
_cell_angle_gamma 90.000000
_cell_volume 2882.504351
_symmetry_space_group_name_H-M "A M M 2"
_symmetry_group_IT_number 38
_symmetry_cell_setting 'orthorhombic'
loop_
_space_group_symop_operation_xyz
x,y,z
-x,-y,z
-x,y,z
x,-y,z
x,1/2+y,1/2+z
-x,1/2-y,1/2+z
-x,1/2+y,1/2+z
x,1/2-y,1/2+z
loop_
_atom_site_type_symbol
_atom_site_label
_atom_site_fract_x
_atom_site_fract_y
_atom_site_fract_z
Si Si1 0.185891 0.306997 0.252210
Si Si2 0.681524 0.746532 0.037902
Si Si3 0.821163 0.411600 0.593248
Si Si4 0.324951 0.091169 0.366855
Si Si5 0.177474 0.741470 0.396192
Si Si6 0.686405 0.404119 0.131833
Si Si7 0.325684 0.869160 0.217601
O O1 0.226016 0.308391 0.330295
O O2 0.241686 0.377412 0.202022
O O3 0.270879 0.224771 0.226944
O O4 0.000000 0.298669 0.248492
O O5 0.500000 0.739327 0.038499
O O6 0.734877 0.828948 0.073960
O O7 0.737867 0.663643 0.076649
O O8 0.734128 0.764868 0.964033
O O9 0.764983 0.500000 0.566208
O O10 0.793774 0.412521 0.670614
O O11 0.000000 0.403625 0.576935
O O12 0.500000 0.113652 0.389168
O O13 0.203612 0.161710 0.381614
O O14 0.330427 0.090652 0.288610
O O15 0.289788 0.000000 0.392392
O O16 0.000000 0.721924 0.407398
O O17 0.500000 0.398852 0.136865
O O18 0.724652 0.500000 0.116340
O O19 0.500000 0.872574 0.190839
#
# Coordination Sequence:
#
# PCOD9356330 Si02
#       7
#     8   8   8   8   8   8   8
#     4  10  20  36  59  87 118 155 199 246 300 358
#     4  11  23  40  62  88 119 160 203 251 306 366
#     4  11  23  37  56  84 118 153 188 236 296 353
#     4   9  18  32  51  78 112 149 191 237 285 345
#     4  10  22  38  57  82 116 158 199 248 308 366
#     4  10  22  40  63  92 124 160 205 259 315 368
#     4  10  18  31  54  83 115 150 187 232 285 340
#
# _framework density 19.42755
#
# number of rings (size 3 to 8) (size 9 to 14) (size 15 to 20)
#    0.000    1.857    1.429    2.571    0.000    5.714 
#    0.000    2.143    0.000    0.857    0.000    0.000 
#    0.000    0.000    0.000    0.000    0.000    0.000 
#
# Total GULP energy -155969.228269 kJ/mol
# GULP energy per Si atom -5570.329581 kJ/mol
# Density = 1.938333 g / cm^3
# Si number density = 19.427550 Si / 1000 Ang^3
#
#
#
# Elastic Constant Matrix: (Units=GPa)
#
#
# Indices 1 2 3 4 5 6 
#
# 1 31.9911 14.8116 22.3649 0.0000 0.0000 0.0000
# 2 14.8116 85.8462 34.8520 0.0000 0.0000 0.0000
# 3 22.3649 34.8520 80.6901 0.0000 0.0000 0.0000
# 4 0.0000 0.0000 0.0000 3.3858 0.0000 0.0000
# 5 0.0000 0.0000 0.0000 0.0000 32.5639 0.0000
# 6 0.0000 0.0000 0.0000 0.0000 0.0000 18.5296
#
#
#
# Elastic Compliance Matrix: (Units=1/GPa)
#
#
# Indices 1 2 3 4 5 6 
#
# 1 0.039343 -0.002863 -0.009668 0.000000 0.000000 0.000000
# 2 -0.002863 0.014334 -0.005398 0.000000 0.000000 0.000000
# 3 -0.009668 -0.005398 0.017404 0.000000 0.000000 0.000000
# 4 0.000000 0.000000 0.000000 0.295353 0.000000 0.000000
# 5 0.000000 0.000000 0.000000 0.000000 0.030709 0.000000
# 6 0.000000 0.000000 0.000000 0.000000 0.000000 0.053968
#
#
# Mechanical properties :
#
#
# Convention : Reuss Voigt Hill
#
# Bulk Modulus (GPa) = 28.38993 38.06495 33.22744
# Shear Modulus (GPa) = 10.02586 19.32910 14.67748
#
# Velocity S-wave (km/s) = 2.27417 3.15768 2.75161
# Velocity P-wave (km/s) = 4.64120 5.73850 5.21877
#
# Compressibility (1/GPa) = 0.03522375
#
# Stress axis : x y z
#
# Youngs Moduli (GPa) = 25.41727 69.76379 57.45736
#
# Poissons Ratio (x) = 0.19974 0.55551
# Poissons Ratio (y) = 0.07277 0.31014
# Poissons Ratio (z) = 0.24574 0.37656
#
# Static dielectric constant tensor:
#      x y z
#    x 1.677960 0.000000 0.000000 
#    y 0.000000 1.731860 0.000000 
#    z 0.000000 0.000000 1.753400 
# 
# From -- ./inp_files/19736.got.cif
#   From: 2010.05.17/outbox.cif.g08.bks.cpg/sg38_10_cif.got.tgz:19736.got - 2010.06.03 18:07:57.
