data_PCOD9356893
_publ_section_title
;
Structure prediction by ZEFSAII (Michael W. Deem and Ramdas Pophale) SiO2 
 PCOD9356893
Probable space group: A M M 2
;
_chemical_formula_sum "Si O2"
_cell_formula_units_Z 64
_cell_length_a 32.222635
_cell_length_b 18.553557
_cell_length_c 5.218725
_cell_angle_alpha 90.000000
_cell_angle_beta 90.000000
_cell_angle_gamma 90.000000
_cell_volume 3119.986013
_symmetry_space_group_name_H-M "A M M 2"
_symmetry_group_IT_number 38
_symmetry_cell_setting 'orthorhombic'
loop_
_space_group_symop_operation_xyz
x,y,z
-x,-y,z
-x,y,z
x,-y,z
x,1/2+y,1/2+z
-x,1/2-y,1/2+z
-x,1/2+y,1/2+z
x,1/2-y,1/2+z
loop_
_atom_site_type_symbol
_atom_site_label
_atom_site_fract_x
_atom_site_fract_y
_atom_site_fract_z
Si Si1 0.455556 0.672076 0.251960
Si Si2 0.955223 0.201103 0.730565
Si Si3 0.362720 0.710675 0.231749
Si Si4 0.739703 0.413438 0.850682
Si Si5 0.210175 0.412650 0.343636
Si Si6 0.563355 0.416265 0.754398
Si Si7 0.863606 0.698674 0.285507
Si Si8 0.343896 0.083829 0.075473
O O1 0.500000 0.710505 0.233976
O O2 0.413091 0.716478 0.232558
O O3 0.453456 0.628335 0.515364
O O4 0.452149 0.616294 0.018258
O O5 0.955112 0.236569 0.448606
O O6 0.910391 0.165785 0.772123
O O7 0.000000 0.162563 0.761024
O O8 0.347590 0.760871 0.462890
O O9 0.350508 0.631111 0.321680
O O10 0.737169 0.500000 0.866884
O O11 0.772791 0.396388 0.627575
O O12 0.695293 0.391172 0.739738
O O13 0.755623 0.390374 0.129225
O O14 0.203756 0.500000 0.324912
O O15 0.169744 0.365109 0.289857
O O16 0.552813 0.500000 0.731067
O O17 0.613402 0.409548 0.733854
O O18 0.859180 0.748564 0.539245
O O19 0.338179 0.000000 0.005674
#
# Coordination Sequence:
#
# PCOD9356893 Si02
#       8
#     8   8   8   8   8   8   8   8
#     4  11  23  38  57  82 112 149 184 211 250 314
#     4   8  14  25  43  68  97 132 176 223 270 321
#     4  11  24  42  60  84 116 143 173 217 266 309
#     4   9  19  35  58  82 106 141 186 226 261 320
#     4  10  20  35  53  77 108 144 182 221 271 326
#     4  10  21  36  58  87 115 141 174 223 273 308
#     4  10  19  32  51  76 107 141 180 229 278 324
#     4   9  20  41  65  87 111 145 187 225 266 320
#
# _framework density 20.512913999999999
#
# number of rings (size 3 to 8) (size 9 to 14) (size 15 to 20)
#    0.000    2.250    0.000    3.000    0.000    5.500 
#    0.000   11.875    0.000    0.375    0.000    0.000 
#    0.000   13.000    0.000    0.000    0.000    2.000 
#
# Total GULP energy -178729.606872 kJ/mol
# GULP energy per Si atom -5585.300215 kJ/mol
# Density = 2.046623 g / cm^3
# Si number density = 20.512914 Si / 1000 Ang^3
#
#
#
# Elastic Constant Matrix: (Units=GPa)
#
#
# Indices 1 2 3 4 5 6 
#
# 1 92.7246 24.3801 -0.7614 0.0000 0.0000 0.0000
# 2 24.3801 65.8768 33.5131 0.0000 0.0000 0.0000
# 3 -0.7614 33.5131 77.9862 0.0000 0.0000 0.0000
# 4 0.0000 0.0000 0.0000 26.5884 0.0000 0.0000
# 5 0.0000 0.0000 0.0000 0.0000 26.9596 0.0000
# 6 0.0000 0.0000 0.0000 0.0000 0.0000 22.2963
#
#
#
# Elastic Compliance Matrix: (Units=1/GPa)
#
#
# Indices 1 2 3 4 5 6 
#
# 1 0.012367 -0.005936 0.002672 0.000000 0.000000 0.000000
# 2 -0.005936 0.022276 -0.009631 0.000000 0.000000 0.000000
# 3 0.002672 -0.009631 0.016987 0.000000 0.000000 0.000000
# 4 0.000000 0.000000 0.000000 0.037610 0.000000 0.000000
# 5 0.000000 0.000000 0.000000 0.000000 0.037093 0.000000
# 6 0.000000 0.000000 0.000000 0.000000 0.000000 0.044850
#
#
# Mechanical properties :
#
#
# Convention : Reuss Voigt Hill
#
# Bulk Modulus (GPa) = 38.69874 38.98348 38.84111
# Shear Modulus (GPa) = 24.32045 27.13257 25.72651
#
# Velocity S-wave (km/s) = 3.44701 3.64085 3.54526
# Velocity P-wave (km/s) = 5.89483 6.05970 5.97784
#
# Compressibility (1/GPa) = 0.02584064
#
# Stress axis : x y z
#
# Youngs Moduli (GPa) = 80.85803 44.89115 58.86689
#
# Poissons Ratio (x) = 0.26648 -0.15727
# Poissons Ratio (y) = 0.47999 0.56693
# Poissons Ratio (z) = -0.21603 0.43233
#
# Static dielectric constant tensor:
#      x y z
#    x 1.773770 0.000000 0.000000 
#    y 0.000000 1.717750 0.000000 
#    z 0.000000 0.000000 1.738460 
# 
# From -- ./inp_files/2314.got.cif
#   From: 2010.05.17/outbox.cif.g08.bks.cpg/sg38_2_cif.got.tgz:2314.got - 2010.06.03 18:07:57.
