data_PCOD9356018
_publ_section_title
;
Structure prediction by ZEFSAII (Michael W. Deem and Ramdas Pophale) SiO2 
 PCOD9356018
Probable space group: A M M 2
;
_chemical_formula_sum "Si O2"
_cell_formula_units_Z 56
_cell_length_a 13.930826
_cell_length_b 24.089485
_cell_length_c 8.287937
_cell_angle_alpha 90.000000
_cell_angle_beta 90.000000
_cell_angle_gamma 90.000000
_cell_volume 2781.319140
_symmetry_space_group_name_H-M "A M M 2"
_symmetry_group_IT_number 38
_symmetry_cell_setting 'orthorhombic'
loop_
_space_group_symop_operation_xyz
x,y,z
-x,-y,z
-x,y,z
x,-y,z
x,1/2+y,1/2+z
-x,1/2-y,1/2+z
-x,1/2+y,1/2+z
x,1/2-y,1/2+z
loop_
_atom_site_type_symbol
_atom_site_label
_atom_site_fract_x
_atom_site_fract_y
_atom_site_fract_z
Si Si1 0.387492 0.432442 0.932860
Si Si2 0.882423 0.326987 0.965149
Si Si3 0.883317 0.560572 0.795133
Si Si4 0.115524 0.785776 0.813228
Si Si5 0.716866 0.934039 0.753088
Si Si6 0.385959 0.566815 0.575656
Si Si7 0.113654 0.399729 0.440953
O O1 0.500000 0.417939 0.952411
O O2 0.384106 0.500000 0.930063
O O3 0.355028 0.413511 0.754134
O O4 0.328294 0.412376 0.087669
O O5 0.853261 0.386772 0.899297
O O6 0.849897 0.275427 0.854839
O O7 0.850340 0.310626 0.144245
O O8 0.000000 0.327482 0.965490
O O9 0.847106 0.500000 0.848812
O O10 0.858590 0.570753 0.607520
O O11 0.000000 0.559295 0.800486
O O12 0.133026 0.833560 0.946005
O O13 0.000000 0.781158 0.801053
O O14 0.828301 0.924110 0.790809
O O15 0.700045 0.000000 0.750000
O O16 0.665833 0.911124 0.915685
O O17 0.500000 0.576505 0.562314
O O18 0.372231 0.500000 0.575512
O O19 0.000000 0.407006 0.417497
#
# Coordination Sequence:
#
# PCOD9356018 Si02
#       7
#     8   8   8   8   8   8   8
#     4   8  14  26  45  68  91 116 155 211 269 323
#     4   9  16  29  51  72  87 111 160 224 277 317
#     4   9  17  30  46  64  90 126 167 210 260 314
#     4   9  17  30  49  70  88 115 166 223 268 304
#     4  10  18  28  44  64  91 133 177 213 257 312
#     4   8  14  26  45  68  90 115 156 210 267 325
#     4  10  20  33  45  61  94 139 182 219 250 288
#
# _framework density 20.134332000000001
#
# number of rings (size 3 to 8) (size 9 to 14) (size 15 to 20)
#    0.000    3.000    0.000    2.571    0.000    6.000 
#    2.571    1.429    0.000    6.857    0.000    0.000 
#    0.000    0.000    0.000   20.571    0.000    8.000 
#
# Total GULP energy -156206.194814 kJ/mol
# GULP energy per Si atom -5578.792672 kJ/mol
# Density = 2.008851 g / cm^3
# Si number density = 20.134332 Si / 1000 Ang^3
#
#
#
# Elastic Constant Matrix: (Units=GPa)
#
#
# Indices 1 2 3 4 5 6 
#
# 1 65.1877 1.4456 44.3083 0.0000 0.0000 0.0000
# 2 1.4456 92.1033 45.3031 0.0000 0.0000 0.0000
# 3 44.3083 45.3031 117.9838 0.0000 0.0000 0.0000
# 4 0.0000 0.0000 0.0000 22.6297 0.0000 0.0000
# 5 0.0000 0.0000 0.0000 0.0000 29.2638 0.0000
# 6 0.0000 0.0000 0.0000 0.0000 0.0000 4.7242
#
#
#
# Elastic Compliance Matrix: (Units=1/GPa)
#
#
# Indices 1 2 3 4 5 6 
#
# 1 0.022073 0.004600 -0.010056 0.000000 0.000000 0.000000
# 2 0.004600 0.014344 -0.007235 0.000000 0.000000 0.000000
# 3 -0.010056 -0.007235 0.015030 0.000000 0.000000 0.000000
# 4 0.000000 0.000000 0.000000 0.044190 0.000000 0.000000
# 5 0.000000 0.000000 0.000000 0.000000 0.034172 0.000000
# 6 0.000000 0.000000 0.000000 0.000000 0.000000 0.211678
#
#
# Mechanical properties :
#
#
# Convention : Reuss Voigt Hill
#
# Bulk Modulus (GPa) = 38.36550 50.82099 44.59324
# Shear Modulus (GPa) = 13.31354 23.60471 18.45913
#
# Velocity S-wave (km/s) = 2.57424 3.42769 3.03115
# Velocity P-wave (km/s) = 5.28505 6.40009 5.86911
#
# Compressibility (1/GPa) = 0.02606508
#
# Stress axis : x y z
#
# Youngs Moduli (GPa) = 45.30383 69.71585 66.53260
#
# Poissons Ratio (x) = -0.32067 0.66903
# Poissons Ratio (y) = -0.20838 0.48137
# Poissons Ratio (z) = 0.45556 0.50440
#
# Static dielectric constant tensor:
#      x y z
#    x 1.736500 0.000000 0.000000 
#    y 0.000000 1.704310 0.000000 
#    z 0.000000 0.000000 1.762050 
# 
# From -- ./inp_files/6539.got.cif
#   From: 2010.05.17/outbox.cif.g08.bks.cpg/sg38_4_cif.got.tgz:6539.got - 2010.06.03 18:07:57.
