data_PCOD9356320
_publ_section_title
;
Structure prediction by ZEFSAII (Michael W. Deem and Ramdas Pophale) SiO2 
 PCOD9356320
Probable space group: A M M 2
;
_chemical_formula_sum "Si O2"
_cell_formula_units_Z 64
_cell_length_a 7.574907
_cell_length_b 20.452834
_cell_length_c 21.178463
_cell_angle_alpha 90.000000
_cell_angle_beta 90.000000
_cell_angle_gamma 90.000000
_cell_volume 3281.143596
_symmetry_space_group_name_H-M "A M M 2"
_symmetry_group_IT_number 38
_symmetry_cell_setting 'orthorhombic'
loop_
_space_group_symop_operation_xyz
x,y,z
-x,-y,z
-x,y,z
x,-y,z
x,1/2+y,1/2+z
-x,1/2-y,1/2+z
-x,1/2+y,1/2+z
x,1/2-y,1/2+z
loop_
_atom_site_type_symbol
_atom_site_label
_atom_site_fract_x
_atom_site_fract_y
_atom_site_fract_z
Si Si1 0.786876 0.072278 0.845520
Si Si2 0.792407 0.428464 0.565144
Si Si3 0.293930 0.715656 0.389176
Si Si4 0.215518 0.428052 0.198388
Si Si5 0.209140 0.295716 0.141455
Si Si6 0.206835 0.290071 0.528184
Si Si7 0.713828 0.572744 0.713192
Si Si8 0.713889 0.209985 0.264754
O O1 0.728047 0.137753 0.879874
O O2 0.733251 0.078863 0.771953
O O3 0.000000 0.072092 0.847997
O O4 0.728306 0.000000 0.868057
O O5 0.715590 0.500000 0.549664
O O6 0.715766 0.363248 0.534132
O O7 0.776652 0.419605 0.640846
O O8 0.000000 0.431795 0.548331
O O9 0.500000 0.730426 0.391973
O O10 0.217721 0.734169 0.456914
O O11 0.220959 0.753910 0.328057
O O12 0.270343 0.500000 0.176425
O O13 0.281920 0.367066 0.158377
O O14 0.000000 0.426825 0.198426
O O15 0.283579 0.258412 0.080656
O O16 0.231591 0.250840 0.203178
O O17 0.000000 0.304916 0.130858
O O18 0.000000 0.297358 0.544629
O O19 0.500000 0.573673 0.711484
O O20 0.768961 0.500000 0.734714
O O21 0.771666 0.634977 0.754152
O O22 0.500000 0.210631 0.266293
#
# Coordination Sequence:
#
# PCOD9356320 Si02
#       8
#     8   8   8   8   8   8   8   8
#     4   9  17  31  52  75 100 132 167 203 245 294
#     4   9  17  30  48  71  99 127 157 196 241 289
#     4  11  23  35  48  70 102 139 171 205 250 296
#     4   8  14  26  48  77 102 124 156 200 248 295
#     4  10  18  31  54  78  98 126 167 207 247 295
#     4  10  21  34  48  71 100 133 171 206 244 294
#     4   9  17  30  50  74  98 125 159 199 244 295
#     4  10  20  33  50  74 101 128 163 206 253 294
#
# _framework density 19.505395
#
# number of rings (size 3 to 8) (size 9 to 14) (size 15 to 20)
#    0.000    2.500    2.500    1.125    0.000    2.250 
#    0.000    1.250    0.000    1.125    0.000    0.000 
#    0.000    0.000    0.000    0.000    0.000    0.000 
#
# Total GULP energy -178497.951840 kJ/mol
# GULP energy per Si atom -5578.060995 kJ/mol
# Density = 1.946100 g / cm^3
# Si number density = 19.505395 Si / 1000 Ang^3
#
#
#
# Elastic Constant Matrix: (Units=GPa)
#
#
# Indices 1 2 3 4 5 6 
#
# 1 38.9788 -5.3050 -12.8904 0.0000 0.0000 0.0000
# 2 -5.3050 136.2421 62.7353 0.0000 0.0000 0.0000
# 3 -12.8904 62.7353 100.1317 0.0000 0.0000 0.0000
# 4 0.0000 0.0000 0.0000 21.0509 0.0000 0.0000
# 5 0.0000 0.0000 0.0000 0.0000 17.3802 0.0000
# 6 0.0000 0.0000 0.0000 0.0000 0.0000 7.2431
#
#
#
# Elastic Compliance Matrix: (Units=1/GPa)
#
#
# Indices 1 2 3 4 5 6 
#
# 1 0.026853 -0.000768 0.003938 0.000000 0.000000 0.000000
# 2 -0.000768 0.010338 -0.006576 0.000000 0.000000 0.000000
# 3 0.003938 -0.006576 0.014614 0.000000 0.000000 0.000000
# 4 0.000000 0.000000 0.000000 0.047504 0.000000 0.000000
# 5 0.000000 0.000000 0.000000 0.000000 0.057537 0.000000
# 6 0.000000 0.000000 0.000000 0.000000 0.000000 0.138062
#
#
# Mechanical properties :
#
#
# Convention : Reuss Voigt Hill
#
# Bulk Modulus (GPa) = 22.22562 40.49247 31.35905
# Shear Modulus (GPa) = 15.78700 24.52236 20.15468
#
# Velocity S-wave (km/s) = 2.84802 3.54956 3.21797
# Velocity P-wave (km/s) = 4.71533 6.13220 5.46983
#
# Compressibility (1/GPa) = 0.04499311
#
# Stress axis : x y z
#
# Youngs Moduli (GPa) = 37.24015 96.73088 68.42881
#
# Poissons Ratio (x) = 0.07426 -0.26946
# Poissons Ratio (y) = 0.02859 0.44998
# Poissons Ratio (z) = -0.14665 0.63609
#
# Static dielectric constant tensor:
#      x y z
#    x 1.757520 0.000000 0.000000 
#    y 0.000000 1.724410 0.000000 
#    z 0.000000 0.000000 1.662030 
# 
# From -- ./inp_files/17228.got.cif
#   From: 2010.05.17/outbox.cif.g08.bks.cpg/sg38_9_cif.got.tgz:17228.got - 2010.06.03 18:07:57.
