data_PCOD9356719
_publ_section_title
;
Structure prediction by ZEFSAII (Michael W. Deem and Ramdas Pophale) SiO2 
 PCOD9356719
Probable space group: A M M 2
;
_chemical_formula_sum "Si O2"
_cell_formula_units_Z 44
_cell_length_a 26.291508
_cell_length_b 13.845265
_cell_length_c 5.092091
_cell_angle_alpha 90.000000
_cell_angle_beta 90.000000
_cell_angle_gamma 90.000000
_cell_volume 1853.586789
_symmetry_space_group_name_H-M "A M M 2"
_symmetry_group_IT_number 38
_symmetry_cell_setting 'orthorhombic'
loop_
_space_group_symop_operation_xyz
x,y,z
-x,-y,z
-x,y,z
x,-y,z
x,1/2+y,1/2+z
-x,1/2-y,1/2+z
-x,1/2+y,1/2+z
x,1/2-y,1/2+z
loop_
_atom_site_type_symbol
_atom_site_label
_atom_site_fract_x
_atom_site_fract_y
_atom_site_fract_z
Si Si1 0.000000 0.317260 0.668260
Si Si2 0.106433 0.187331 0.039458
Si Si3 0.618656 0.382882 0.988179
Si Si4 0.784594 0.885114 0.209356
Si Si5 0.273236 0.882004 0.707692
Si Si6 0.556901 0.117364 0.995214
O O1 0.053888 0.367474 0.609855
O O2 0.000000 0.227570 0.459317
O O3 0.105173 0.279331 0.238106
O O4 0.159329 0.138345 0.110042
O O5 0.623297 0.500000 0.972462
O O6 0.672872 0.348445 0.094892
O O7 0.575556 0.361828 0.202905
O O8 0.598827 0.349927 0.705786
O O9 0.770825 0.852869 0.502512
O O10 0.780299 0.000000 0.216271
O O11 0.742545 0.851519 0.998725
O O12 0.275468 0.000000 0.714870
O O13 0.500000 0.152863 0.049518
O O14 0.555310 0.000000 0.015758
#
# Coordination Sequence:
#
# PCOD9356719 Si02
#       6
#     4   8   8   8   8   8
#     4   8  16  30  49  70  93 122 156 190 224 276
#     4  10  19  33  52  73  96 125 159 192 232 280
#     4   9  15  23  34  48  70 104 145 183 220 266
#     4  10  19  31  47  69  95 122 157 199 235 270
#     4   9  17  28  42  60  85 118 155 192 229 275
#     4   9  15  21  30  46  69  99 141 189 225 257
#
# _framework density 23.737759
#
# number of rings (size 3 to 8) (size 9 to 14) (size 15 to 20)
#    0.000    2.727    0.000    2.727    0.000    6.545 
#    0.000    0.455    0.000    0.000    0.000   11.455 
#    0.000    0.000    0.000    0.000    0.000  229.091 
#
# Total GULP energy -122967.046330 kJ/mol
# GULP energy per Si atom -5589.411197 kJ/mol
# Density = 2.368373 g / cm^3
# Si number density = 23.737759 Si / 1000 Ang^3
#
#
#
# Elastic Constant Matrix: (Units=GPa)
#
#
# Indices 1 2 3 4 5 6 
#
# 1 97.8790 -5.3368 -13.0860 0.0000 0.0000 0.0000
# 2 -5.3368 67.5002 -20.8738 0.0000 0.0000 0.0000
# 3 -13.0860 -20.8738 79.7733 0.0000 0.0000 0.0000
# 4 0.0000 0.0000 0.0000 -7.1883 0.0000 0.0000
# 5 0.0000 0.0000 0.0000 0.0000 33.5199 0.0000
# 6 0.0000 0.0000 0.0000 0.0000 0.0000 16.6610
#
#
#
# Elastic Compliance Matrix: (Units=1/GPa)
#
#
# Indices 1 2 3 4 5 6 
#
# 1 0.010583 0.001494 0.002127 0.000000 0.000000 0.000000
# 2 0.001494 0.016330 0.004518 0.000000 0.000000 0.000000
# 3 0.002127 0.004518 0.014067 0.000000 0.000000 0.000000
# 4 0.000000 0.000000 0.000000 -0.139115 0.000000 0.000000
# 5 0.000000 0.000000 0.000000 0.000000 0.029833 0.000000
# 6 0.000000 0.000000 0.000000 0.000000 0.000000 0.060021
#
#
# Mechanical properties :
#
#
# Convention : Reuss Voigt Hill
#
# Bulk Modulus (GPa) = 17.46463 18.50658 17.98560
# Shear Modulus (GPa) = -913.29327 27.56177 -442.86575
#
# Velocity S-wave (km/s) = -19.63614 3.41118 -13.67373
# Velocity P-wave (km/s) = 22.51068 4.82991 15.54675
#
# Compressibility (1/GPa) = 0.05725860
#
# Stress axis : x y z
#
# Youngs Moduli (GPa) = 94.49516 61.23650 71.09000
#
# Poissons Ratio (x) = -0.09152 -0.15121
# Poissons Ratio (y) = -0.14122 -0.32120
# Poissons Ratio (z) = -0.20099 -0.27668
#
# Static dielectric constant tensor:
#      x y z
#    x 1.908950 0.000000 0.000000 
#    y 0.000000 1.937110 0.000000 
#    z 0.000000 0.000000 1.842860 
# 
# From -- ./inp_files/2077.got.cif
#   From: 2010.05.17/outbox.cif.g08.bks.cpg/sg38_2_cif.got.tgz:2077.got - 2010.06.03 18:07:57.
