data_PCOD9356658
_publ_section_title
;
Structure prediction by ZEFSAII (Michael W. Deem and Ramdas Pophale) SiO2 
 PCOD9356658
Probable space group: A M M 2
;
_chemical_formula_sum "Si O2"
_cell_formula_units_Z 64
_cell_length_a 8.968968
_cell_length_b 22.221761
_cell_length_c 15.804543
_cell_angle_alpha 90.000000
_cell_angle_beta 90.000000
_cell_angle_gamma 90.000000
_cell_volume 3149.944409
_symmetry_space_group_name_H-M "A M M 2"
_symmetry_group_IT_number 38
_symmetry_cell_setting 'orthorhombic'
loop_
_space_group_symop_operation_xyz
x,y,z
-x,-y,z
-x,y,z
x,-y,z
x,1/2+y,1/2+z
-x,1/2-y,1/2+z
-x,1/2+y,1/2+z
x,1/2-y,1/2+z
loop_
_atom_site_type_symbol
_atom_site_label
_atom_site_fract_x
_atom_site_fract_y
_atom_site_fract_z
Si Si1 0.676872 0.264036 0.713460
Si Si2 0.669776 0.072647 0.978876
Si Si3 0.169900 0.573186 0.308723
Si Si4 0.821596 0.300631 0.880199
Si Si5 0.679495 0.568255 0.130484
Si Si6 0.176045 0.385252 0.648241
Si Si7 0.678090 0.686830 0.050379
Si Si8 0.178308 0.934972 0.328916
O O1 0.500000 0.263935 0.727225
O O2 0.757823 0.260690 0.803793
O O3 0.731536 0.326369 0.672564
O O4 0.712338 0.215428 0.641540
O O5 0.500000 0.094456 0.988459
O O6 0.741155 0.094668 0.891031
O O7 0.665541 0.000000 0.974963
O O8 0.767652 0.090269 0.059312
O O9 0.165755 0.500000 0.313953
O O10 0.251245 0.585991 0.220694
O O11 0.000000 0.595036 0.308809
O O12 0.768222 0.370317 0.864009
O O13 0.000000 0.299752 0.876711
O O14 0.762440 0.283376 0.972362
O O15 0.500000 0.569619 0.138931
O O16 0.725681 0.500000 0.110549
O O17 0.721464 0.616803 0.060255
O O18 0.198825 0.430059 0.727368
O O19 0.000000 0.371309 0.645481
O O20 0.500000 0.691690 0.036849
O O21 0.000000 0.935450 0.344521
O O22 0.239210 0.000000 0.358682
#
# Coordination Sequence:
#
# PCOD9356658 Si02
#       8
#     8   8   8   8   8   8   8   8
#     4  10  21  40  61  80 110 152 195 240 289 345
#     4  10  19  30  47  74 109 150 194 237 286 347
#     4   9  17  30  48  72 105 144 185 231 282 333
#     4  10  21  37  60  88 117 150 189 239 288 337
#     4   9  18  35  58  83 113 147 184 230 285 347
#     4  10  19  32  52  78 109 146 191 242 293 338
#     4  10  22  40  62  87 114 152 193 232 287 351
#     4   8  15  29  50  78 112 147 180 218 274 338
#
# _framework density 20.317819
#
# number of rings (size 3 to 8) (size 9 to 14) (size 15 to 20)
#    0.000    2.500    0.000    3.000    0.000    4.750 
#    2.250    0.000    0.000    7.125    0.000    0.000 
#    0.000    0.000    0.000    0.000    0.000    0.000 
#
# Total GULP energy -178539.477060 kJ/mol
# GULP energy per Si atom -5579.358658 kJ/mol
# Density = 2.027157 g / cm^3
# Si number density = 20.317819 Si / 1000 Ang^3
#
#
#
# Elastic Constant Matrix: (Units=GPa)
#
#
# Indices 1 2 3 4 5 6 
#
# 1 35.4135 22.9093 50.4514 0.0000 0.0000 0.0000
# 2 22.9093 37.1102 19.4022 0.0000 0.0000 0.0000
# 3 50.4514 19.4022 127.2212 0.0000 0.0000 0.0000
# 4 0.0000 0.0000 0.0000 16.7726 0.0000 0.0000
# 5 0.0000 0.0000 0.0000 0.0000 25.2975 0.0000
# 6 0.0000 0.0000 0.0000 0.0000 0.0000 16.1248
#
#
#
# Elastic Compliance Matrix: (Units=1/GPa)
#
#
# Indices 1 2 3 4 5 6 
#
# 1 0.115907 -0.051639 -0.038089 0.000000 0.000000 0.000000
# 2 -0.051639 0.052288 0.012504 0.000000 0.000000 0.000000
# 3 -0.038089 0.012504 0.021058 0.000000 0.000000 0.000000
# 4 0.000000 0.000000 0.000000 0.059621 0.000000 0.000000
# 5 0.000000 0.000000 0.000000 0.000000 0.039530 0.000000
# 6 0.000000 0.000000 0.000000 0.000000 0.000000 0.062016
#
#
# Mechanical properties :
#
#
# Convention : Reuss Voigt Hill
#
# Bulk Modulus (GPa) = 28.73210 42.80785 35.76997
# Shear Modulus (GPa) = 9.68110 18.77112 14.22611
#
# Velocity S-wave (km/s) = 2.18522 3.04283 2.64896
# Velocity P-wave (km/s) = 4.53199 5.78446 5.19610
#
# Compressibility (1/GPa) = 0.03480428
#
# Stress axis : x y z
#
# Youngs Moduli (GPa) = 8.62761 19.12487 47.48734
#
# Poissons Ratio (x) = 0.98759 1.80876
# Poissons Ratio (y) = 0.44552 -0.59378
# Poissons Ratio (z) = 0.32862 -0.23914
#
# Static dielectric constant tensor:
#      x y z
#    x 1.690670 0.000000 0.000000 
#    y 0.000000 1.771040 0.000000 
#    z 0.000000 0.000000 1.698440 
# 
# From -- ./inp_files/12829.got.cif
#   From: 2010.05.17/outbox.cif.g08.bks.cpg/sg38_7_cif.got.tgz:12829.got - 2010.06.03 18:07:57.
