data_PCOD9356086
_publ_section_title
;
Structure prediction by ZEFSAII (Michael W. Deem and Ramdas Pophale) SiO2 
 PCOD9356086
Probable space group: A M M 2
;
_chemical_formula_sum "Si O2"
_cell_formula_units_Z 64
_cell_length_a 7.710288
_cell_length_b 21.373390
_cell_length_c 20.476230
_cell_angle_alpha 90.000000
_cell_angle_beta 90.000000
_cell_angle_gamma 90.000000
_cell_volume 3374.380168
_symmetry_space_group_name_H-M "A M M 2"
_symmetry_group_IT_number 38
_symmetry_cell_setting 'orthorhombic'
loop_
_space_group_symop_operation_xyz
x,y,z
-x,-y,z
-x,y,z
x,-y,z
x,1/2+y,1/2+z
-x,1/2-y,1/2+z
-x,1/2+y,1/2+z
x,1/2-y,1/2+z
loop_
_atom_site_type_symbol
_atom_site_label
_atom_site_fract_x
_atom_site_fract_y
_atom_site_fract_z
Si Si1 0.205533 0.685668 0.710730
Si Si2 0.202481 0.227265 0.348828
Si Si3 0.295647 0.628544 0.345066
Si Si4 0.209885 0.734303 0.991406
Si Si5 0.790901 0.379135 0.488778
Si Si6 0.712126 0.069606 0.710134
Si Si7 0.295412 0.309775 0.131872
Si Si8 0.787487 0.430738 0.626102
O O1 0.279846 0.698111 0.783020
O O2 0.222934 0.748437 0.667862
O O3 0.275028 0.625865 0.671653
O O4 0.000000 0.674994 0.718249
O O5 0.211206 0.302714 0.343026
O O6 0.275151 0.211622 0.420563
O O7 0.000000 0.209738 0.350602
O O8 0.500000 0.639256 0.336762
O O9 0.265993 0.600367 0.416793
O O10 0.236495 0.587101 0.284242
O O11 0.263957 0.696255 0.054842
O O12 0.000000 0.734964 0.989793
O O13 0.266011 0.806862 0.998441
O O14 0.732712 0.417995 0.551379
O O15 0.000000 0.379374 0.488430
O O16 0.500000 0.068746 0.708213
O O17 0.771866 0.126055 0.663673
O O18 0.771360 0.000000 0.692483
O O19 0.500000 0.308081 0.144069
O O20 0.734802 0.500000 0.647305
O O21 0.000000 0.428907 0.626006
#
# Coordination Sequence:
#
# PCOD9356086 Si02
#       8
#     8   8   8   8   8   8   8   8
#     4  10  18  32  53  74  97 128 162 201 244 285
#     4   9  18  31  50  72  98 129 159 195 245 293
#     4  10  18  29  47  70  96 128 164 201 237 280
#     4   9  17  31  48  70  98 129 160 197 244 289
#     4   9  17  30  46  68  99 133 163 194 235 283
#     4   9  19  34  48  66  97 132 163 199 245 292
#     4  11  20  31  51  76  96 124 164 204 243 286
#     4   9  17  30  49  72  98 130 166 199 235 286
#
# _framework density 18.966446000000001
#
# number of rings (size 3 to 8) (size 9 to 14) (size 15 to 20)
#    0.000    2.500    2.500    1.500    0.000    2.500 
#    0.000    0.000    0.000    7.500    0.000    1.750 
#    0.000    0.000    0.000    0.000    0.000    0.000 
#
# Total GULP energy -178470.622650 kJ/mol
# GULP energy per Si atom -5577.206958 kJ/mol
# Density = 1.892328 g / cm^3
# Si number density = 18.966446 Si / 1000 Ang^3
#
#
#
# Elastic Constant Matrix: (Units=GPa)
#
#
# Indices 1 2 3 4 5 6 
#
# 1 28.6544 -0.5143 0.9966 0.0000 0.0000 0.0000
# 2 -0.5143 124.6776 79.2788 0.0000 0.0000 0.0000
# 3 0.9966 79.2788 138.4373 0.0000 0.0000 0.0000
# 4 0.0000 0.0000 0.0000 23.2118 0.0000 0.0000
# 5 0.0000 0.0000 0.0000 0.0000 253.8193 0.0000
# 6 0.0000 0.0000 0.0000 0.0000 0.0000 15.1973
#
#
#
# Elastic Compliance Matrix: (Units=1/GPa)
#
#
# Indices 1 2 3 4 5 6 
#
# 1 0.034925 0.000478 -0.000525 0.000000 0.000000 0.000000
# 2 0.000478 0.012621 -0.007231 0.000000 0.000000 0.000000
# 3 -0.000525 -0.007231 0.011368 0.000000 0.000000 0.000000
# 4 0.000000 0.000000 0.000000 0.043081 0.000000 0.000000
# 5 0.000000 0.000000 0.000000 0.000000 0.003940 0.000000
# 6 0.000000 0.000000 0.000000 0.000000 0.000000 0.065801
#
#
# Mechanical properties :
#
#
# Convention : Reuss Voigt Hill
#
# Bulk Modulus (GPa) = 22.54378 50.14351 36.34364
# Shear Modulus (GPa) = 24.86592 72.57958 48.72275
#
# Velocity S-wave (km/s) = 3.62477 6.19277 5.07392
# Velocity P-wave (km/s) = 5.42499 8.81075 7.31641
#
# Compressibility (1/GPa) = 0.04435814
#
# Stress axis : x y z
#
# Youngs Moduli (GPa) = 28.63240 79.23601 87.96512
#
# Poissons Ratio (x) = -0.03788 0.04620
# Poissons Ratio (y) = -0.01369 0.63606
# Poissons Ratio (z) = 0.01504 0.57294
#
# Static dielectric constant tensor:
#      x y z
#    x 1.609800 0.000000 0.000000 
#    y 0.000000 1.639080 0.000000 
#    z 0.000000 0.000000 1.684770 
# 
# From -- ./inp_files/20040.got.cif
#   From: 2010.05.17/outbox.cif.g08.bks.cpg/sg38_11_cif.got.tgz:20040.got - 2010.06.03 18:07:57.
