data_PCOD9356154
_publ_section_title
;
Structure prediction by ZEFSAII (Michael W. Deem and Ramdas Pophale) SiO2 
 PCOD9356154
Probable space group: A M M 2
;
_chemical_formula_sum "Si O2"
_cell_formula_units_Z 64
_cell_length_a 14.647332
_cell_length_b 8.904484
_cell_length_c 31.980665
_cell_angle_alpha 90.000000
_cell_angle_beta 90.000000
_cell_angle_gamma 90.000000
_cell_volume 4171.140065
_symmetry_space_group_name_H-M "A M M 2"
_symmetry_group_IT_number 38
_symmetry_cell_setting 'orthorhombic'
loop_
_space_group_symop_operation_xyz
x,y,z
-x,-y,z
-x,y,z
x,-y,z
x,1/2+y,1/2+z
-x,1/2-y,1/2+z
-x,1/2+y,1/2+z
x,1/2-y,1/2+z
loop_
_atom_site_type_symbol
_atom_site_label
_atom_site_fract_x
_atom_site_fract_y
_atom_site_fract_z
Si Si1 0.606398 0.320995 0.363440
Si Si2 0.103455 0.820050 0.481759
Si Si3 0.607068 0.818241 0.183828
Si Si4 0.610714 0.672812 0.777000
Si Si5 0.289431 0.819038 0.440950
Si Si6 0.282169 0.319598 0.107573
Si Si7 0.104801 0.679311 0.573415
Si Si8 0.604764 0.317392 0.025169
O O1 0.500000 0.272658 0.369051
O O2 0.608947 0.500000 0.365472
O O3 0.637193 0.267022 0.317500
O O4 0.667274 0.251816 0.399924
O O5 0.184085 0.778927 0.450103
O O6 0.117951 0.739538 0.526131
O O7 0.000000 0.787593 0.467505
O O8 0.110527 0.000000 0.489097
O O9 0.500000 0.777354 0.178368
O O10 0.637983 0.773436 0.230744
O O11 0.667200 0.744969 0.147952
O O12 0.612186 0.000000 0.181885
O O13 0.500000 0.672446 0.775711
O O14 0.640172 0.500000 0.782414
O O15 0.346213 0.771509 0.482239
O O16 0.295682 0.000000 0.437753
O O17 0.280969 0.500000 0.108784
O O18 0.180507 0.256547 0.101990
O O19 0.338698 0.271439 0.066049
O O20 0.115772 0.500000 0.574078
O O21 0.000000 0.715324 0.585143
O O22 0.500000 0.265966 0.026893
O O23 0.604155 0.500000 0.025181
#
# Coordination Sequence:
#
# PCOD9356154 Si02
#       8
#     8   8   8   8   8   8   8   8
#     4  10  20  31  44  67  97 124 155 197 238 274
#     4   9  17  31  50  70  91 116 153 200 242 281
#     4   9  18  32  49  71  99 128 159 195 235 281
#     4   8  15  30  50  68  89 122 160 194 231 277
#     4  10  18  30  47  66  90 125 160 189 229 280
#     4  11  20  31  47  69  96 128 163 197 235 279
#     4  10  20  33  49  68  91 121 157 200 247 288
#     4   9  17  28  41  61  91 125 160 190 216 261
#
# _framework density 15.343527
#
# number of rings (size 3 to 8) (size 9 to 14) (size 15 to 20)
#    0.000    2.500    1.250    2.625    0.000    3.750 
#    0.000    1.250    0.000    2.250    0.000    0.875 
#    0.000    3.000    0.000    0.000    0.000    0.000 
#
# Total GULP energy -178384.318749 kJ/mol
# GULP energy per Si atom -5574.509961 kJ/mol
# Density = 1.530860 g / cm^3
# Si number density = 15.343527 Si / 1000 Ang^3
#
#
#
# Elastic Constant Matrix: (Units=GPa)
#
#
# Indices 1 2 3 4 5 6 
#
# 1 110.0948 40.5241 75.4666 0.0000 0.0000 0.0000
# 2 40.5241 29.6358 44.0583 0.0000 0.0000 0.0000
# 3 75.4666 44.0583 140.7073 0.0000 0.0000 0.0000
# 4 0.0000 0.0000 0.0000 26.2058 0.0000 0.0000
# 5 0.0000 0.0000 0.0000 0.0000 9.1253 0.0000
# 6 0.0000 0.0000 0.0000 0.0000 0.0000 18.4967
#
#
#
# Elastic Compliance Matrix: (Units=1/GPa)
#
#
# Indices 1 2 3 4 5 6 
#
# 1 0.019379 -0.020668 -0.003922 0.000000 0.000000 0.000000
# 2 -0.020668 0.085174 -0.015584 0.000000 0.000000 0.000000
# 3 -0.003922 -0.015584 0.014090 0.000000 0.000000 0.000000
# 4 0.000000 0.000000 0.000000 0.038160 0.000000 0.000000
# 5 0.000000 0.000000 0.000000 0.000000 0.109586 0.000000
# 6 0.000000 0.000000 0.000000 0.000000 0.000000 0.054064
#
#
# Mechanical properties :
#
#
# Convention : Reuss Voigt Hill
#
# Bulk Modulus (GPa) = 26.11415 66.72622 46.42018
# Shear Modulus (GPa) = 12.08997 18.79149 15.44073
#
# Velocity S-wave (km/s) = 2.81009 3.50339 3.17572
# Velocity P-wave (km/s) = 5.25218 7.74258 6.61563
#
# Compressibility (1/GPa) = 0.03829342
#
# Stress axis : x y z
#
# Youngs Moduli (GPa) = 51.60151 11.74073 70.97080
#
# Poissons Ratio (x) = 0.24266 0.27836
# Poissons Ratio (y) = 1.06652 1.10603
# Poissons Ratio (z) = 0.20239 0.18297
#
# Static dielectric constant tensor:
#      x y z
#    x 1.510910 0.000000 0.000000 
#    y 0.000000 1.514570 0.000000 
#    z 0.000000 0.000000 1.493100 
# 
# From -- ./inp_files/25054.got.cif
#   From: 2010.05.17/outbox.cif.g08.bks.cpg/sg38_13_cif.got.tgz:25054.got - 2010.06.03 18:07:57.
