data_PCOD9356144
_publ_section_title
;
Structure prediction by ZEFSAII (Michael W. Deem and Ramdas Pophale) SiO2 
 PCOD9356144
Probable space group: A M M 2
;
_chemical_formula_sum "Si O2"
_cell_formula_units_Z 56
_cell_length_a 22.460928
_cell_length_b 8.804871
_cell_length_c 15.250283
_cell_angle_alpha 90.000000
_cell_angle_beta 90.000000
_cell_angle_gamma 90.000000
_cell_volume 3015.980965
_symmetry_space_group_name_H-M "A M M 2"
_symmetry_group_IT_number 38
_symmetry_cell_setting 'orthorhombic'
loop_
_space_group_symop_operation_xyz
x,y,z
-x,-y,z
-x,y,z
x,-y,z
x,1/2+y,1/2+z
-x,1/2-y,1/2+z
-x,1/2+y,1/2+z
x,1/2-y,1/2+z
loop_
_atom_site_type_symbol
_atom_site_label
_atom_site_fract_x
_atom_site_fract_y
_atom_site_fract_z
Si Si1 0.368655 0.318522 0.090190
Si Si2 0.714923 0.317168 0.444496
Si Si3 0.930981 0.318423 0.095105
Si Si4 0.931080 0.181606 0.287744
Si Si5 0.147786 0.817391 0.941496
Si Si6 0.500000 0.679259 0.796243
Si Si7 0.624378 0.316959 0.295127
Si Si8 0.500000 0.817850 0.602933
O O1 0.360380 0.500000 0.086022
O O2 0.365478 0.273372 0.193100
O O3 0.436623 0.285440 0.058873
O O4 0.320449 0.240480 0.029251
O O5 0.714778 0.500000 0.445498
O O6 0.783358 0.267182 0.442491
O O7 0.677853 0.268800 0.358445
O O8 0.923566 0.500000 0.095752
O O9 0.921240 0.252011 0.191907
O O10 0.000000 0.285909 0.070799
O O11 0.886703 0.243700 0.026298
O O12 0.886538 0.252515 0.357529
O O13 0.000000 0.214249 0.312769
O O14 0.924274 0.000000 0.284503
O O15 0.145876 0.000000 0.939944
O O16 0.500000 0.500000 0.809168
O O17 0.561928 0.749543 0.828828
O O18 0.500000 0.725225 0.693345
O O19 0.619526 0.500000 0.296253
O O20 0.500000 0.000000 0.624023
#
# Coordination Sequence:
#
# PCOD9356144 Si02
#       8
#     8   8   8   8   8   4   8   4
#     4   9  18  34  57  80 105 139 179 224 273 325
#     4  10  23  39  54  77 109 146 188 225 264 320
#     4  10  21  38  61  88 115 146 186 230 278 332
#     4  10  21  38  61  89 117 145 182 230 282 333
#     4  11  23  38  56  82 117 154 191 231 274 326
#     4  10  18  29  52  85 108 128 172 229 275 317
#     4   9  19  38  57  74 105 146 179 215 272 333
#     4   8  16  33  54  77 106 140 174 213 273 337
#
# _framework density 18.567757
#
# number of rings (size 3 to 8) (size 9 to 14) (size 15 to 20)
#    0.000    2.286    0.000    3.214    0.000    9.143 
#    0.000    2.857    0.000    0.000    0.000    0.000 
#    0.000    0.000    0.000    0.000    0.000    0.000 
#
# Total GULP energy -156298.064141 kJ/mol
# GULP energy per Si atom -5582.073719 kJ/mol
# Density = 1.852550 g / cm^3
# Si number density = 18.567757 Si / 1000 Ang^3
#
#
#
# Elastic Constant Matrix: (Units=GPa)
#
#
# Indices 1 2 3 4 5 6 
#
# 1 195.3245 60.4568 107.6028 0.0000 0.0000 0.0000
# 2 60.4568 40.4810 36.1968 0.0000 0.0000 0.0000
# 3 107.6028 36.1968 109.3715 0.0000 0.0000 0.0000
# 4 0.0000 0.0000 0.0000 30.6700 0.0000 0.0000
# 5 0.0000 0.0000 0.0000 0.0000 -16.9466 0.0000
# 6 0.0000 0.0000 0.0000 0.0000 0.0000 25.3206
#
#
#
# Elastic Compliance Matrix: (Units=1/GPa)
#
#
# Indices 1 2 3 4 5 6 
#
# 1 0.014748 -0.012857 -0.010255 0.000000 0.000000 0.000000
# 2 -0.012857 0.046293 -0.002672 0.000000 0.000000 0.000000
# 3 -0.010255 -0.002672 0.020117 0.000000 0.000000 0.000000
# 4 0.000000 0.000000 0.000000 0.032605 0.000000 0.000000
# 5 0.000000 0.000000 0.000000 0.000000 -0.059009 0.000000
# 6 0.000000 0.000000 0.000000 0.000000 0.000000 0.039494
#
#
# Mechanical properties :
#
#
# Convention : Reuss Voigt Hill
#
# Bulk Modulus (GPa) = 33.79442 83.74331 58.76886
# Shear Modulus (GPa) = 32.11731 17.20350 24.66041
#
# Velocity S-wave (km/s) = 4.16352 3.04719 3.64831
# Velocity P-wave (km/s) = 6.43065 7.58814 7.03325
#
# Compressibility (1/GPa) = 0.02959069
#
# Stress axis : x y z
#
# Youngs Moduli (GPa) = 67.80358 21.60152 49.70984
#
# Poissons Ratio (x) = 0.27772 0.50978
# Poissons Ratio (y) = 0.87172 0.13283
# Poissons Ratio (z) = 0.69533 0.05772
#
# Static dielectric constant tensor:
#      x y z
#    x 1.638810 0.000000 0.000000 
#    y 0.000000 1.620410 0.000000 
#    z 0.000000 0.000000 1.640000 
# 
# From -- ./inp_files/15570.got.cif
#   From: 2010.05.17/outbox.cif.g08.bks.cpg/sg38_8_cif.got.tgz:15570.got - 2010.06.03 18:07:57.
