data_PCOD9356378
_publ_section_title
;
Structure prediction by ZEFSAII (Michael W. Deem and Ramdas Pophale) SiO2 
 PCOD9356378
Probable space group: A M M 2
;
_chemical_formula_sum "Si O2"
_cell_formula_units_Z 64
_cell_length_a 24.516948
_cell_length_b 7.479559
_cell_length_c 16.015314
_cell_angle_alpha 90.000000
_cell_angle_beta 90.000000
_cell_angle_gamma 90.000000
_cell_volume 2936.823564
_symmetry_space_group_name_H-M "A M M 2"
_symmetry_group_IT_number 38
_symmetry_cell_setting 'orthorhombic'
loop_
_space_group_symop_operation_xyz
x,y,z
-x,-y,z
-x,y,z
x,-y,z
x,1/2+y,1/2+z
-x,1/2-y,1/2+z
-x,1/2+y,1/2+z
x,1/2-y,1/2+z
loop_
_atom_site_type_symbol
_atom_site_label
_atom_site_fract_x
_atom_site_fract_y
_atom_site_fract_z
Si Si1 0.244945 0.283546 0.234080
Si Si2 0.437450 0.719055 0.331026
Si Si3 0.062230 0.215965 0.342067
Si Si4 0.123933 0.206679 0.179333
Si Si5 0.362062 0.712521 0.178560
Si Si6 0.369462 0.285601 0.490704
Si Si7 0.137872 0.212614 0.999837
Si Si8 0.252097 0.218037 0.929122
O O1 0.242005 0.500000 0.229653
O O2 0.188538 0.213134 0.197568
O O3 0.299860 0.220416 0.187972
O O4 0.249897 0.233262 0.331539
O O5 0.500000 0.775882 0.323929
O O6 0.437271 0.500000 0.330446
O O7 0.400658 0.779691 0.252893
O O8 0.410068 0.776972 0.418124
O O9 0.092341 0.284834 0.258667
O O10 0.097263 0.262924 0.423123
O O11 0.000000 0.278395 0.347077
O O12 0.061614 0.000000 0.338735
O O13 0.106076 0.000000 0.175444
O O14 0.116106 0.286732 0.087491
O O15 0.358426 0.500000 0.191346
O O16 0.384043 0.743208 0.085796
O O17 0.368019 0.500000 0.483999
O O18 0.308303 0.219993 0.470396
O O19 0.197670 0.282739 0.975014
O O20 0.144877 0.000000 0.012061
O O21 0.252055 0.000000 0.931238
#
# Coordination Sequence:
#
# PCOD9356378 Si02
#       8
#     8   8   8   8   8   8   8   8
#     4  10  18  32  55  79 107 141 175 212 259 318
#     4   9  18  34  55  76 102 142 186 220 258 315
#     4  10  22  39  55  75 108 143 173 213 264 310
#     4  10  21  36  56  83 110 137 171 215 267 313
#     4  10  20  34  53  79 108 139 175 217 267 317
#     4  10  19  34  56  79 105 139 178 219 263 315
#     4  10  20  35  57  81 104 135 177 217 256 311
#     4   9  16  30  53  78 104 135 171 213 258 307
#
# _framework density 21.792255000000001
#
# number of rings (size 3 to 8) (size 9 to 14) (size 15 to 20)
#    0.000    2.250    2.500    0.750    0.000    3.250 
#    0.000    3.125    0.000    0.750    0.000    0.000 
#    0.000    0.000    0.000    0.000    0.000    0.000 
#
# Total GULP energy -178797.329580 kJ/mol
# GULP energy per Si atom -5587.416549 kJ/mol
# Density = 2.174265 g / cm^3
# Si number density = 21.792255 Si / 1000 Ang^3
#
#
#
# Elastic Constant Matrix: (Units=GPa)
#
#
# Indices 1 2 3 4 5 6 
#
# 1 111.1754 -11.7253 42.6244 0.0000 0.0000 0.0000
# 2 -11.7253 58.6181 -10.3144 0.0000 0.0000 0.0000
# 3 42.6244 -10.3144 155.2434 0.0000 0.0000 0.0000
# 4 0.0000 0.0000 0.0000 4.8784 0.0000 0.0000
# 5 0.0000 0.0000 0.0000 0.0000 1.4444 0.0000
# 6 0.0000 0.0000 0.0000 0.0000 0.0000 20.2287
#
#
#
# Elastic Compliance Matrix: (Units=1/GPa)
#
#
# Indices 1 2 3 4 5 6 
#
# 1 0.010193 0.001565 -0.002695 0.000000 0.000000 0.000000
# 2 0.001565 0.017502 0.000733 0.000000 0.000000 0.000000
# 3 -0.002695 0.000733 0.007230 0.000000 0.000000 0.000000
# 4 0.000000 0.000000 0.000000 0.204987 0.000000 0.000000
# 5 0.000000 0.000000 0.000000 0.000000 0.692339 0.000000
# 6 0.000000 0.000000 0.000000 0.000000 0.000000 0.049435
#
#
# Mechanical properties :
#
#
# Convention : Reuss Voigt Hill
#
# Bulk Modulus (GPa) = 29.29878 40.68959 34.99419
# Shear Modulus (GPa) = 5.03091 25.60710 15.31900
#
# Velocity S-wave (km/s) = 1.52105 3.43163 2.65421
# Velocity P-wave (km/s) = 4.06922 5.86630 5.04837
#
# Compressibility (1/GPa) = 0.03413111
#
# Stress axis : x y z
#
# Youngs Moduli (GPa) = 98.10702 57.13768 138.31119
#
# Poissons Ratio (x) = -0.08940 0.37270
# Poissons Ratio (y) = -0.15351 -0.10141
# Poissons Ratio (z) = 0.26437 -0.04189
#
# Static dielectric constant tensor:
#      x y z
#    x 1.752590 0.000000 0.000000 
#    y 0.000000 1.846750 0.000000 
#    z 0.000000 0.000000 1.783580 
# 
# From -- ./inp_files/15731.got.cif
#   From: 2010.05.17/outbox.cif.g08.bks.cpg/sg38_8_cif.got.tgz:15731.got - 2010.06.03 18:07:57.
