data_PCOD9356220
_publ_section_title
;
Structure prediction by ZEFSAII (Michael W. Deem and Ramdas Pophale) SiO2 
 PCOD9356220
Probable space group: A M M 2
;
_chemical_formula_sum "Si O2"
_cell_formula_units_Z 64
_cell_length_a 7.727592
_cell_length_b 25.730357
_cell_length_c 15.212728
_cell_angle_alpha 90.000000
_cell_angle_beta 90.000000
_cell_angle_gamma 90.000000
_cell_volume 3024.803009
_symmetry_space_group_name_H-M "A M M 2"
_symmetry_group_IT_number 38
_symmetry_cell_setting 'orthorhombic'
loop_
_space_group_symop_operation_xyz
x,y,z
-x,-y,z
-x,y,z
x,-y,z
x,1/2+y,1/2+z
-x,1/2-y,1/2+z
-x,1/2+y,1/2+z
x,1/2-y,1/2+z
loop_
_atom_site_type_symbol
_atom_site_label
_atom_site_fract_x
_atom_site_fract_y
_atom_site_fract_z
Si Si1 0.198617 0.658710 0.192840
Si Si2 0.301810 0.726759 0.688970
Si Si3 0.207273 0.865003 0.508086
Si Si4 0.699138 0.657013 0.391176
Si Si5 0.711437 0.442028 0.497590
Si Si6 0.711329 0.387024 0.674599
Si Si7 0.291329 0.059245 0.353083
Si Si8 0.798372 0.228104 0.388092
O O1 0.203450 0.720167 0.169146
O O2 0.292361 0.652256 0.285522
O O3 0.000000 0.643318 0.208420
O O4 0.274082 0.630413 0.107410
O O5 0.500000 0.733287 0.659687
O O6 0.230808 0.671880 0.655258
O O7 0.297976 0.721956 0.795343
O O8 0.244222 0.912143 0.442976
O O9 0.269743 0.812706 0.459120
O O10 0.000000 0.859712 0.517556
O O11 0.500000 0.662097 0.419062
O O12 0.770840 0.605009 0.435484
O O13 0.785576 0.711758 0.415364
O O14 0.500000 0.442979 0.493234
O O15 0.771915 0.500000 0.475500
O O16 0.758475 0.425968 0.596804
O O17 0.500000 0.384440 0.677346
O O18 0.771409 0.407796 0.769018
O O19 0.500000 0.058135 0.347279
O O20 0.228911 0.000000 0.349476
O O21 0.000000 0.216217 0.370920
#
# Coordination Sequence:
#
# PCOD9356220 Si02
#       8
#     8   8   8   8   8   8   8   8
#     4  10  21  37  54  74 107 147 182 221 269 323
#     4  10  18  30  51  81 111 140 173 214 263 314
#     4  10  22  37  54  77 107 147 187 220 267 323
#     4  10  20  34  55  82 107 137 179 227 274 315
#     4   9  18  33  53  78 109 142 177 218 267 324
#     4   9  17  30  50  80 113 143 172 208 262 323
#     4  10  20  35  57  83 111 143 179 223 271 317
#     4  10  19  33  52  75 106 143 177 214 264 321
#
# _framework density 21.158401999999999
#
# number of rings (size 3 to 8) (size 9 to 14) (size 15 to 20)
#    0.000    2.250    1.250    3.375    1.750    3.250 
#    0.000    0.625    0.000    5.250    0.000    0.000 
#    0.000    0.000    0.000    0.000    0.000    0.000 
#
# Total GULP energy -178692.177904 kJ/mol
# GULP energy per Si atom -5584.130560 kJ/mol
# Density = 2.111024 g / cm^3
# Si number density = 21.158402 Si / 1000 Ang^3
#
#
#
# Elastic Constant Matrix: (Units=GPa)
#
#
# Indices 1 2 3 4 5 6 
#
# 1 38.6757 -8.7842 -7.9157 0.0000 0.0000 0.0000
# 2 -8.7842 104.0961 27.6881 0.0000 0.0000 0.0000
# 3 -7.9157 27.6881 52.9418 0.0000 0.0000 0.0000
# 4 0.0000 0.0000 0.0000 31.1677 0.0000 0.0000
# 5 0.0000 0.0000 0.0000 0.0000 44.1908 0.0000
# 6 0.0000 0.0000 0.0000 0.0000 0.0000 36.3556
#
#
#
# Elastic Compliance Matrix: (Units=1/GPa)
#
#
# Indices 1 2 3 4 5 6 
#
# 1 0.026845 0.001391 0.003286 0.000000 0.000000 0.000000
# 2 0.001391 0.011231 -0.005666 0.000000 0.000000 0.000000
# 3 0.003286 -0.005666 0.022343 0.000000 0.000000 0.000000
# 4 0.000000 0.000000 0.000000 0.032085 0.000000 0.000000
# 5 0.000000 0.000000 0.000000 0.000000 0.022629 0.000000
# 6 0.000000 0.000000 0.000000 0.000000 0.000000 0.027506
#
#
# Mechanical properties :
#
#
# Convention : Reuss Voigt Hill
#
# Bulk Modulus (GPa) = 17.11097 24.18775 20.64936
# Shear Modulus (GPa) = 30.47004 34.65783 32.56394
#
# Velocity S-wave (km/s) = 3.79897 4.05163 3.92733
# Velocity P-wave (km/s) = 5.22949 5.77444 5.50871
#
# Compressibility (1/GPa) = 0.05844204
#
# Stress axis : x y z
#
# Youngs Moduli (GPa) = 37.25142 89.04016 44.75659
#
# Poissons Ratio (x) = -0.12388 -0.14708
# Poissons Ratio (y) = -0.05183 0.25357
# Poissons Ratio (z) = -0.12241 0.50447
#
# Static dielectric constant tensor:
#      x y z
#    x 1.763210 0.000000 0.000000 
#    y 0.000000 1.748320 0.000000 
#    z 0.000000 0.000000 1.767620 
# 
# From -- ./inp_files/17304.got.cif
#   From: 2010.05.17/outbox.cif.g08.bks.cpg/sg38_9_cif.got.tgz:17304.got - 2010.06.03 18:07:57.
