data_PCOD9356717
_publ_section_title
;
Structure prediction by ZEFSAII (Michael W. Deem and Ramdas Pophale) SiO2 
 PCOD9356717
Probable space group: A M M 2
;
_chemical_formula_sum "Si O2"
_cell_formula_units_Z 64
_cell_length_a 14.615133
_cell_length_b 9.050099
_cell_length_c 31.676520
_cell_angle_alpha 90.000000
_cell_angle_beta 90.000000
_cell_angle_gamma 90.000000
_cell_volume 4189.802635
_symmetry_space_group_name_H-M "A M M 2"
_symmetry_group_IT_number 38
_symmetry_cell_setting 'orthorhombic'
loop_
_space_group_symop_operation_xyz
x,y,z
-x,-y,z
-x,y,z
x,-y,z
x,1/2+y,1/2+z
-x,1/2-y,1/2+z
-x,1/2+y,1/2+z
x,1/2-y,1/2+z
loop_
_atom_site_type_symbol
_atom_site_label
_atom_site_fract_x
_atom_site_fract_y
_atom_site_fract_z
Si Si1 0.397065 0.177549 0.988800
Si Si2 0.111084 0.170097 0.784171
Si Si3 0.891141 0.823886 0.196859
Si Si4 0.602682 0.322638 0.080353
Si Si5 0.891631 0.323829 0.871371
Si Si6 0.792994 0.323039 0.117589
Si Si7 0.791502 0.322646 0.449892
Si Si8 0.891373 0.824415 0.038285
O O1 0.500000 0.216817 0.974567
O O2 0.314086 0.219489 0.958256
O O3 0.392875 0.000000 0.993749
O O4 0.382591 0.249050 0.034699
O O5 0.138312 0.254413 0.741570
O O6 0.138897 0.250749 0.827262
O O7 0.000000 0.171102 0.784284
O O8 0.141274 0.000000 0.783556
O O9 0.836794 0.752412 0.158326
O O10 0.000000 0.793840 0.191247
O O11 0.879451 0.000000 0.197501
O O12 0.500000 0.282087 0.094804
O O13 0.605337 0.500000 0.074961
O O14 0.686352 0.282655 0.110690
O O15 0.882044 0.500000 0.868953
O O16 0.836399 0.258487 0.910554
O O17 0.000000 0.290355 0.877159
O O18 0.800827 0.500000 0.120864
O O19 0.845773 0.266435 0.075973
O O20 0.797097 0.500000 0.443480
O O21 0.845811 0.288796 0.493251
O O22 0.000000 0.798559 0.036734
O O23 0.876430 0.000000 0.045992
#
# Coordination Sequence:
#
# PCOD9356717 Si02
#       8
#     8   8   8   8   8   8   8   8
#     4   9  17  30  49  70  90 116 154 200 243 281
#     4   9  17  31  51  72  94 121 155 195 236 276
#     4  10  20  33  49  69  96 128 159 192 231 276
#     4   9  18  32  48  66  90 120 154 196 243 284
#     4  10  20  32  47  69  97 127 160 196 232 274
#     4  11  21  31  46  68  93 123 160 197 233 278
#     4  10  19  31  47  67  93 125 160 195 234 282
#     4  10  20  32  44  61  91 129 163 193 229 274
#
# _framework density 15.275183
#
# number of rings (size 3 to 8) (size 9 to 14) (size 15 to 20)
#    0.000    2.250    1.250    2.250    0.000    6.750 
#    0.000    0.000    0.000    0.000    0.000    0.875 
#    0.000    7.000    0.000    0.000    0.000    0.000 
#
# Total GULP energy -178473.116880 kJ/mol
# GULP energy per Si atom -5577.284902 kJ/mol
# Density = 1.524042 g / cm^3
# Si number density = 15.275183 Si / 1000 Ang^3
#
#
#
# Elastic Constant Matrix: (Units=GPa)
#
#
# Indices 1 2 3 4 5 6 
#
# 1 100.4373 53.7571 75.4403 0.0000 0.0000 0.0000
# 2 53.7571 55.1401 64.9740 0.0000 0.0000 0.0000
# 3 75.4403 64.9740 142.4726 0.0000 0.0000 0.0000
# 4 0.0000 0.0000 0.0000 31.6758 0.0000 0.0000
# 5 0.0000 0.0000 0.0000 0.0000 6.9508 0.0000
# 6 0.0000 0.0000 0.0000 0.0000 0.0000 17.8508
#
#
#
# Elastic Compliance Matrix: (Units=1/GPa)
#
#
# Indices 1 2 3 4 5 6 
#
# 1 0.021830 -0.016562 -0.004006 0.000000 0.000000 0.000000
# 2 -0.016562 0.051767 -0.014838 0.000000 0.000000 0.000000
# 3 -0.004006 -0.014838 0.015907 0.000000 0.000000 0.000000
# 4 0.000000 0.000000 0.000000 0.031570 0.000000 0.000000
# 5 0.000000 0.000000 0.000000 0.000000 0.143868 0.000000
# 6 0.000000 0.000000 0.000000 0.000000 0.000000 0.056020
#
#
# Mechanical properties :
#
#
# Convention : Reuss Voigt Hill
#
# Bulk Modulus (GPa) = 53.50131 76.26590 64.88360
# Shear Modulus (GPa) = 12.56266 18.22071 15.39169
#
# Velocity S-wave (km/s) = 2.87090 3.45749 3.17776
# Velocity P-wave (km/s) = 6.78900 8.12252 7.48551
#
# Compressibility (1/GPa) = 0.01869113
#
# Stress axis : x y z
#
# Youngs Moduli (GPa) = 45.80869 19.31746 62.86455
#
# Poissons Ratio (x) = 0.31993 0.25185
# Poissons Ratio (y) = 0.75867 0.93281
# Poissons Ratio (z) = 0.18352 0.28664
#
# Static dielectric constant tensor:
#      x y z
#    x 1.515650 0.000000 0.000000 
#    y 0.000000 1.510780 0.000000 
#    z 0.000000 0.000000 1.472970 
# 
# From -- ./inp_files/25049.got.cif
#   From: 2010.05.17/outbox.cif.g08.bks.cpg/sg38_13_cif.got.tgz:25049.got - 2010.06.03 18:07:57.
