data_PCOD9356656
_publ_section_title
;
Structure prediction by ZEFSAII (Michael W. Deem and Ramdas Pophale) SiO2 
 PCOD9356656
Probable space group: A M M 2
;
_chemical_formula_sum "Si O2"
_cell_formula_units_Z 64
_cell_length_a 8.701301
_cell_length_b 21.247765
_cell_length_c 17.378126
_cell_angle_alpha 90.000000
_cell_angle_beta 90.000000
_cell_angle_gamma 90.000000
_cell_volume 3212.923525
_symmetry_space_group_name_H-M "A M M 2"
_symmetry_group_IT_number 38
_symmetry_cell_setting 'orthorhombic'
loop_
_space_group_symop_operation_xyz
x,y,z
-x,-y,z
-x,y,z
x,-y,z
x,1/2+y,1/2+z
-x,1/2-y,1/2+z
-x,1/2+y,1/2+z
x,1/2-y,1/2+z
loop_
_atom_site_type_symbol
_atom_site_label
_atom_site_fract_x
_atom_site_fract_y
_atom_site_fract_z
Si Si1 0.823033 0.337292 0.148390
Si Si2 0.814700 0.758673 0.788523
Si Si3 0.678515 0.924560 0.039232
Si Si4 0.814110 0.375261 0.856636
Si Si5 0.329100 0.929627 0.753777
Si Si6 0.180023 0.619595 0.389945
Si Si7 0.316009 0.426290 0.016957
Si Si8 0.171393 0.925743 0.193969
O O1 0.761599 0.278693 0.201629
O O2 0.804661 0.391703 0.212527
O O3 0.000000 0.324989 0.127939
O O4 0.741917 0.372194 0.076723
O O5 0.763601 0.694192 0.828310
O O6 0.781671 0.813971 0.849707
O O7 0.000000 0.744784 0.281401
O O8 0.500000 0.914180 0.023635
O O9 0.720058 0.903644 0.125672
O O10 0.708519 0.000000 0.031404
O O11 0.780076 0.886729 0.978695
O O12 0.738732 0.403355 0.932853
O O13 0.777528 0.415576 0.780904
O O14 0.000000 0.375003 0.868168
O O15 0.500000 0.902199 0.740321
O O16 0.288164 0.928163 0.843287
O O17 0.331580 0.000000 0.723939
O O18 0.000000 0.606515 0.378411
O O19 0.500000 0.427313 0.021424
O O20 0.263884 0.500000 0.030605
O O21 0.000000 0.897071 0.186171
O O22 0.158203 0.000000 0.182828
#
# Coordination Sequence:
#
# PCOD9356656 Si02
#       8
#     8   8   8   8   8   8   8   8
#     4  10  20  36  58  83 113 151 195 239 284 341
#     4   8  18  37  58  82 112 146 189 236 283 334
#     4  10  20  33  50  75 109 145 181 225 279 333
#     4  10  20  39  64  86 110 146 192 239 287 345
#     4  10  19  30  47  74 109 146 183 229 288 344
#     4  10  19  32  51  75 106 145 189 231 273 329
#     4  11  24  40  59  88 125 158 192 242 302 354
#     4   9  18  33  55  82 107 134 175 227 280 335
#
# _framework density 19.919553000000001
#
# number of rings (size 3 to 8) (size 9 to 14) (size 15 to 20)
#    0.000    2.250    0.000    3.750    0.000    6.750 
#    2.250    5.000    0.000    0.000    0.000    0.000 
#    0.000    0.000    0.000    0.000    0.000    0.000 
#
# Total GULP energy -178150.517312 kJ/mol
# GULP energy per Si atom -5567.203666 kJ/mol
# Density = 1.987422 g / cm^3
# Si number density = 19.919553 Si / 1000 Ang^3
#
#
#
# Elastic Constant Matrix: (Units=GPa)
#
#
# Indices 1 2 3 4 5 6 
#
# 1 42.4574 18.9846 31.2434 0.0000 0.0000 0.0000
# 2 18.9846 47.0715 14.9324 0.0000 0.0000 0.0000
# 3 31.2434 14.9324 120.4205 0.0000 0.0000 0.0000
# 4 0.0000 0.0000 0.0000 -143.6350 0.0000 0.0000
# 5 0.0000 0.0000 0.0000 0.0000 11.0250 0.0000
# 6 0.0000 0.0000 0.0000 0.0000 0.0000 9.7511
#
#
#
# Elastic Compliance Matrix: (Units=1/GPa)
#
#
# Indices 1 2 3 4 5 6 
#
# 1 0.034127 -0.011404 -0.007440 0.000000 0.000000 0.000000
# 2 -0.011404 0.025925 -0.000256 0.000000 0.000000 0.000000
# 3 -0.007440 -0.000256 0.010266 0.000000 0.000000 0.000000
# 4 0.000000 0.000000 0.000000 -0.006962 0.000000 0.000000
# 5 0.000000 0.000000 0.000000 0.000000 0.090703 0.000000
# 6 0.000000 0.000000 0.000000 0.000000 0.000000 0.102553
#
#
# Mechanical properties :
#
#
# Convention : Reuss Voigt Hill
#
# Bulk Modulus (GPa) = 31.13486 37.80779 34.47133
# Shear Modulus (GPa) = 16.36563 -14.91918 0.72322
#
# Velocity S-wave (km/s) = 2.86944 -2.73970 0.60321
# Velocity P-wave (km/s) = 5.16164 3.00225 4.22232
#
# Compressibility (1/GPa) = 0.03211834
#
# Stress axis : x y z
#
# Youngs Moduli (GPa) = 29.30202 38.57312 97.40528
#
# Poissons Ratio (x) = 0.43988 0.72473
# Poissons Ratio (y) = 0.33415 0.02494
# Poissons Ratio (z) = 0.21802 0.00987
#
# Static dielectric constant tensor:
#      x y z
#    x 1.705550 0.000000 0.000000 
#    y 0.000000 2.100900 0.000000 
#    z 0.000000 0.000000 1.720790 
# 
# From -- ./inp_files/12737.got.cif
#   From: 2010.05.17/outbox.cif.g08.bks.cpg/sg38_7_cif.got.tgz:12737.got - 2010.06.03 18:07:57.
