data_PCOD9356040
_publ_section_title
;
Structure prediction by ZEFSAII (Michael W. Deem and Ramdas Pophale) SiO2 
 PCOD9356040
Probable space group: A M M 2
;
_chemical_formula_sum "Si O2"
_cell_formula_units_Z 48
_cell_length_a 7.459228
_cell_length_b 17.205856
_cell_length_c 19.293162
_cell_angle_alpha 90.000000
_cell_angle_beta 90.000000
_cell_angle_gamma 90.000000
_cell_volume 2476.130769
_symmetry_space_group_name_H-M "A M M 2"
_symmetry_group_IT_number 38
_symmetry_cell_setting 'orthorhombic'
loop_
_space_group_symop_operation_xyz
x,y,z
-x,-y,z
-x,y,z
x,-y,z
x,1/2+y,1/2+z
-x,1/2-y,1/2+z
-x,1/2+y,1/2+z
x,1/2-y,1/2+z
loop_
_atom_site_type_symbol
_atom_site_label
_atom_site_fract_x
_atom_site_fract_y
_atom_site_fract_z
Si Si1 0.784545 0.332706 0.044590
Si Si2 0.218326 0.266513 0.411643
Si Si3 0.796682 0.500000 0.849038
Si Si4 0.299553 0.500000 0.003912
Si Si5 0.781421 0.811778 0.131314
Si Si6 0.781179 0.411552 0.498642
Si Si7 0.219914 0.837755 0.288121
O O1 0.729640 0.421832 0.046972
O O2 0.724554 0.273153 0.103920
O O3 0.000000 0.331577 0.044720
O O4 0.727518 0.294802 0.971393
O O5 0.275587 0.351135 0.438736
O O6 0.276870 0.232877 0.338063
O O7 0.000000 0.267565 0.411442
O O8 0.718520 0.580744 0.821379
O O9 0.000000 0.500000 0.821408
O O10 0.808323 0.500000 0.932242
O O11 0.500000 0.500000 0.977258
O O12 0.727391 0.873662 0.072328
O O13 0.722151 0.829761 0.208814
O O14 0.000000 0.812517 0.131760
O O15 0.720669 0.500000 0.490658
O O16 0.000000 0.412229 0.498340
O O17 0.000000 0.836989 0.289017
#
# Coordination Sequence:
#
# PCOD9356040 Si02
#       7
#     8   8   4   4   8   8   8
#     4   9  16  30  47  64  89 123 152 180 230 278
#     4   8  13  22  38  57  82 118 150 172 209 268
#     4  10  18  28  46  70  98 127 146 176 233 284
#     4  12  22  30  46  70  92 113 156 206 229 260
#     4   8  15  24  39  63  89 114 145 184 220 267
#     4   8  13  20  31  51  82 115 141 173 217 256
#     4   9  15  23  39  64  90 116 148 179 213 268
#
# _framework density 19.385082000000001
#
# number of rings (size 3 to 8) (size 9 to 14) (size 15 to 20)
#    0.000    3.167    1.667    2.750    1.167    0.000 
#    0.000    0.000    1.833    1.000    0.000    0.000 
#    0.000    6.500    0.000    0.000    0.000    0.000 
#
# Total GULP energy -133793.340743 kJ/mol
# GULP energy per Si atom -5574.722531 kJ/mol
# Density = 1.934096 g / cm^3
# Si number density = 19.385082 Si / 1000 Ang^3
#
#
#
# Elastic Constant Matrix: (Units=GPa)
#
#
# Indices 1 2 3 4 5 6 
#
# 1 55.4987 4.6885 3.7662 0.0000 0.0000 0.0000
# 2 4.6885 199.6015 78.9215 0.0000 0.0000 0.0000
# 3 3.7662 78.9215 111.1838 0.0000 0.0000 0.0000
# 4 0.0000 0.0000 0.0000 18.9990 0.0000 0.0000
# 5 0.0000 0.0000 0.0000 0.0000 -20.4701 0.0000
# 6 0.0000 0.0000 0.0000 0.0000 0.0000 -912.1619
#
#
#
# Elastic Compliance Matrix: (Units=1/GPa)
#
#
# Indices 1 2 3 4 5 6 
#
# 1 0.018069 -0.000254 -0.000432 0.000000 0.000000 0.000000
# 2 -0.000254 0.006968 -0.004938 0.000000 0.000000 0.000000
# 3 -0.000432 -0.004938 0.012514 0.000000 0.000000 0.000000
# 4 0.000000 0.000000 0.000000 0.052634 0.000000 0.000000
# 5 0.000000 0.000000 0.000000 0.000000 -0.048852 0.000000
# 6 0.000000 0.000000 0.000000 0.000000 0.000000 -0.001096
#
#
# Mechanical properties :
#
#
# Convention : Reuss Voigt Hill
#
# Bulk Modulus (GPa) = 38.01638 60.11514 49.06576
# Shear Modulus (GPa) = 82.98429 -164.13276 -40.57423
#
# Velocity S-wave (km/s) = 6.54991 -9.21159 -4.57997
# Velocity P-wave (km/s) = 8.76672 9.05867 1.61309
#
# Compressibility (1/GPa) = 0.02630445
#
# Stress axis : x y z
#
# Youngs Moduli (GPa) = 55.34280 143.50740 79.91262
#
# Poissons Ratio (x) = 0.03639 0.03453
# Poissons Ratio (y) = 0.01403 0.39458
# Poissons Ratio (z) = 0.02391 0.70860
#
# Static dielectric constant tensor:
#      x y z
#    x 1.726920 0.000000 0.000000 
#    y 0.000000 1.674040 0.000000 
#    z 0.000000 0.000000 1.640210 
# 
# From -- ./inp_files/19930.got.cif
#   From: 2010.05.17/outbox.cif.g08.bks.cpg/sg38_10_cif.got.tgz:19930.got - 2010.06.03 18:07:57.
