data_PCOD9356582
_publ_section_title
;
Structure prediction by ZEFSAII (Michael W. Deem and Ramdas Pophale) SiO2 
 PCOD9356582
Probable space group: A M M 2
;
_chemical_formula_sum "Si O2"
_cell_formula_units_Z 48
_cell_length_a 8.713544
_cell_length_b 14.214824
_cell_length_c 24.389562
_cell_angle_alpha 90.000000
_cell_angle_beta 90.000000
_cell_angle_gamma 90.000000
_cell_volume 3020.927597
_symmetry_space_group_name_H-M "A M M 2"
_symmetry_group_IT_number 38
_symmetry_cell_setting 'orthorhombic'
loop_
_space_group_symop_operation_xyz
x,y,z
-x,-y,z
-x,y,z
x,-y,z
x,1/2+y,1/2+z
-x,1/2-y,1/2+z
-x,1/2+y,1/2+z
x,1/2-y,1/2+z
loop_
_atom_site_type_symbol
_atom_site_label
_atom_site_fract_x
_atom_site_fract_y
_atom_site_fract_z
Si Si1 0.184814 0.609245 0.460560
Si Si2 0.686403 0.105725 0.624910
Si Si3 0.184079 0.608159 0.671007
Si Si4 0.684048 0.290827 0.564673
Si Si5 0.814927 0.891077 0.834744
Si Si6 0.316183 0.281294 0.233399
O O1 0.226638 0.500000 0.471274
O O2 0.258892 0.674979 0.505993
O O3 0.228374 0.630915 0.397688
O O4 0.000000 0.615395 0.464293
O O5 0.500000 0.102539 0.624146
O O6 0.732715 0.184632 0.580856
O O7 0.730278 0.146705 0.684477
O O8 0.743590 0.000000 0.616139
O O9 0.228298 0.500000 0.681020
O O10 0.248332 0.642718 0.612384
O O11 0.248383 0.680778 0.715853
O O12 0.000000 0.614108 0.669810
O O13 0.500000 0.295494 0.567473
O O14 0.742853 0.822191 0.790426
O O15 0.000000 0.886569 0.831370
O O16 0.770183 0.000000 0.823721
O O17 0.500000 0.275438 0.233373
#
# Coordination Sequence:
#
# PCOD9356582 Si02
#       6
#     8   8   8   8   8   8
#     4   9  18  32  48  66  92 127 160 190 230 279
#     4   8  15  28  44  64  92 122 148 178 223 277
#     4  10  20  33  49  68  93 127 160 189 230 285
#     4  10  19  29  46  72  96 120 154 197 240 278
#     4   9  18  32  49  69  94 125 160 195 232 280
#     4  10  19  30  48  73  97 121 152 193 239 283
#
# _framework density 15.889158999999999
#
# number of rings (size 3 to 8) (size 9 to 14) (size 15 to 20)
#    0.000    2.667    0.000    4.500    0.000    5.333 
#    0.000    1.667    0.000   11.000    0.000    4.667 
#    0.000    0.000    0.000    0.000    0.000    0.000 
#
# Total GULP energy -133807.118551 kJ/mol
# GULP energy per Si atom -5575.296606 kJ/mol
# Density = 1.585299 g / cm^3
# Si number density = 15.889159 Si / 1000 Ang^3
#
#
#
# Elastic Constant Matrix: (Units=GPa)
#
#
# Indices 1 2 3 4 5 6 
#
# 1 33.9112 42.4347 37.3881 0.0000 0.0000 0.0000
# 2 42.4347 155.2602 94.6468 0.0000 0.0000 0.0000
# 3 37.3881 94.6468 123.8278 0.0000 0.0000 0.0000
# 4 0.0000 0.0000 0.0000 23.1036 0.0000 0.0000
# 5 0.0000 0.0000 0.0000 0.0000 19.9356 0.0000
# 6 0.0000 0.0000 0.0000 0.0000 0.0000 22.0440
#
#
#
# Elastic Compliance Matrix: (Units=1/GPa)
#
#
# Indices 1 2 3 4 5 6 
#
# 1 0.049245 -0.008230 -0.008578 0.000000 0.000000 0.000000
# 2 -0.008230 0.013436 -0.007784 0.000000 0.000000 0.000000
# 3 -0.008578 -0.007784 0.016616 0.000000 0.000000 0.000000
# 4 0.000000 0.000000 0.000000 0.043283 0.000000 0.000000
# 5 0.000000 0.000000 0.000000 0.000000 0.050162 0.000000
# 6 0.000000 0.000000 0.000000 0.000000 0.000000 0.045364
#
#
# Mechanical properties :
#
#
# Convention : Reuss Voigt Hill
#
# Bulk Modulus (GPa) = 33.21039 73.54870 53.37955
# Shear Modulus (GPa) = 18.02918 22.25195 20.14056
#
# Velocity S-wave (km/s) = 3.37216 3.74632 3.56415
# Velocity P-wave (km/s) = 6.00905 8.06860 7.11375
#
# Compressibility (1/GPa) = 0.03011106
#
# Stress axis : x y z
#
# Youngs Moduli (GPa) = 20.30648 74.42934 60.18358
#
# Poissons Ratio (x) = 0.61255 0.51628
# Poissons Ratio (y) = 0.16712 0.46849
# Poissons Ratio (z) = 0.17420 0.57939
#
# Static dielectric constant tensor:
#      x y z
#    x 1.536140 0.000000 0.000000 
#    y 0.000000 1.529470 0.000000 
#    z 0.000000 0.000000 1.510610 
# 
# From -- ./inp_files/19620.got.cif
#   From: 2010.05.17/outbox.cif.g08.bks.cpg/sg38_10_cif.got.tgz:19620.got - 2010.06.03 18:07:57.
