data_PCOD9356419
_publ_section_title
;
Structure prediction by ZEFSAII (Michael W. Deem and Ramdas Pophale) SiO2 
 PCOD9356419
Probable space group: A M M 2
;
_chemical_formula_sum "Si O2"
_cell_formula_units_Z 64
_cell_length_a 20.402641
_cell_length_b 8.452499
_cell_length_c 20.772189
_cell_angle_alpha 90.000000
_cell_angle_beta 90.000000
_cell_angle_gamma 90.000000
_cell_volume 3582.232596
_symmetry_space_group_name_H-M "A M M 2"
_symmetry_group_IT_number 38
_symmetry_cell_setting 'orthorhombic'
loop_
_space_group_symop_operation_xyz
x,y,z
-x,-y,z
-x,y,z
x,-y,z
x,1/2+y,1/2+z
-x,1/2-y,1/2+z
-x,1/2+y,1/2+z
x,1/2-y,1/2+z
loop_
_atom_site_type_symbol
_atom_site_label
_atom_site_fract_x
_atom_site_fract_y
_atom_site_fract_z
Si Si1 0.802549 0.692121 0.358650
Si Si2 0.179892 0.808151 0.715485
Si Si3 0.074551 0.309123 0.110659
Si Si4 0.692118 0.188049 0.531454
Si Si5 0.574636 0.191163 0.278655
Si Si6 0.655119 0.689533 0.396608
Si Si7 0.677971 0.310143 0.670242
Si Si8 0.837109 0.689712 0.497837
O O1 0.803849 0.500000 0.358386
O O2 0.827943 0.745704 0.289421
O O3 0.726436 0.738597 0.368073
O O4 0.840039 0.743174 0.423230
O O5 0.122376 0.753488 0.668025
O O6 0.250380 0.751858 0.690334
O O7 0.180306 0.000000 0.714791
O O8 0.073630 0.500000 0.113171
O O9 0.107763 0.258787 0.043896
O O10 0.000000 0.252052 0.116664
O O11 0.652289 0.241155 0.468344
O O12 0.663588 0.249949 0.598496
O O13 0.765401 0.258920 0.523217
O O14 0.697511 0.000000 0.533278
O O15 0.500000 0.241911 0.266878
O O16 0.600912 0.252236 0.346964
O O17 0.624509 0.244149 0.222645
O O18 0.576111 0.000000 0.279707
O O19 0.654510 0.500000 0.400764
O O20 0.679284 0.500000 0.669967
O O21 0.840156 0.500000 0.499646
#
# Coordination Sequence:
#
# PCOD9356419 Si02
#       8
#     8   8   8   8   8   8   8   8
#     4   8  16  30  51  79 107 132 171 225 276 321
#     4  10  18  33  55  78 107 145 183 229 280 333
#     4  10  21  35  52  77 110 150 190 229 281 344
#     4  11  21  34  55  82 112 146 182 230 286 334
#     4  10  22  39  57  81 116 153 186 226 284 347
#     4  10  19  34  56  83 112 143 183 232 276 329
#     4  11  21  34  55  84 113 145 188 238 279 328
#     4  10  19  33  53  80 109 140 179 231 282 330
#
# _framework density 17.865953000000001
#
# number of rings (size 3 to 8) (size 9 to 14) (size 15 to 20)
#    0.000    2.000    2.500    3.000    0.000    1.000 
#    0.000    1.875    0.000    4.500    0.000    0.000 
#    0.000    0.000    0.000    0.000    0.000    0.000 
#
# Total GULP energy -178584.151723 kJ/mol
# GULP energy per Si atom -5580.754741 kJ/mol
# Density = 1.782529 g / cm^3
# Si number density = 17.865953 Si / 1000 Ang^3
#
#
#
# Elastic Constant Matrix: (Units=GPa)
#
#
# Indices 1 2 3 4 5 6 
#
# 1 114.6196 16.9790 78.3416 0.0000 0.0000 0.0000
# 2 16.9790 18.4321 17.4861 0.0000 0.0000 0.0000
# 3 78.3416 17.4861 167.7247 0.0000 0.0000 0.0000
# 4 0.0000 0.0000 0.0000 25.7810 0.0000 0.0000
# 5 0.0000 0.0000 0.0000 0.0000 25.3955 0.0000
# 6 0.0000 0.0000 0.0000 0.0000 0.0000 18.6427
#
#
#
# Elastic Compliance Matrix: (Units=1/GPa)
#
#
# Indices 1 2 3 4 5 6 
#
# 1 0.013633 -0.007232 -0.005614 0.000000 0.000000 0.000000
# 2 -0.007232 0.064045 -0.003299 0.000000 0.000000 0.000000
# 3 -0.005614 -0.003299 0.008928 0.000000 0.000000 0.000000
# 4 0.000000 0.000000 0.000000 0.038788 0.000000 0.000000
# 5 0.000000 0.000000 0.000000 0.000000 0.039377 0.000000
# 6 0.000000 0.000000 0.000000 0.000000 0.000000 0.053640
#
#
# Mechanical properties :
#
#
# Convention : Reuss Voigt Hill
#
# Bulk Modulus (GPa) = 18.41080 58.48776 38.44928
# Shear Modulus (GPa) = 18.60074 26.49516 22.54795
#
# Velocity S-wave (km/s) = 3.23015 3.85515 3.55641
# Velocity P-wave (km/s) = 4.92333 7.25426 6.19933
#
# Compressibility (1/GPa) = 0.05431594
#
# Stress axis : x y z
#
# Youngs Moduli (GPa) = 73.35269 15.61404 112.00576
#
# Poissons Ratio (x) = 0.11293 0.62876
# Poissons Ratio (y) = 0.53052 0.36949
# Poissons Ratio (z) = 0.41178 0.05151
#
# Static dielectric constant tensor:
#      x y z
#    x 1.587440 0.000000 0.000000 
#    y 0.000000 1.612400 0.000000 
#    z 0.000000 0.000000 1.624780 
# 
# From -- ./inp_files/21402.got.cif
#   From: 2010.05.17/outbox.cif.g08.bks.cpg/sg38_11_cif.got.tgz:21402.got - 2010.06.03 18:07:57.
