data_PCOD9356122
_publ_section_title
;
Structure prediction by ZEFSAII (Michael W. Deem and Ramdas Pophale) SiO2 
 PCOD9356122
Probable space group: A M M 2
;
_chemical_formula_sum "Si O2"
_cell_formula_units_Z 56
_cell_length_a 16.397196
_cell_length_b 7.527603
_cell_length_c 20.410693
_cell_angle_alpha 90.000000
_cell_angle_beta 90.000000
_cell_angle_gamma 90.000000
_cell_volume 2519.324123
_symmetry_space_group_name_H-M "A M M 2"
_symmetry_group_IT_number 38
_symmetry_cell_setting 'orthorhombic'
loop_
_space_group_symop_operation_xyz
x,y,z
-x,-y,z
-x,y,z
x,-y,z
x,1/2+y,1/2+z
-x,1/2-y,1/2+z
-x,1/2+y,1/2+z
x,1/2-y,1/2+z
loop_
_atom_site_type_symbol
_atom_site_label
_atom_site_fract_x
_atom_site_fract_y
_atom_site_fract_z
Si Si1 0.732738 0.294989 0.315120
Si Si2 0.087921 0.215195 0.355782
Si Si3 0.124657 0.706696 0.002287
Si Si4 0.733684 0.204182 0.171702
Si Si5 0.408791 0.717180 0.577607
Si Si6 0.304531 0.285122 0.458971
Si Si7 0.911470 0.703089 0.646317
O O1 0.708512 0.500000 0.310213
O O2 0.830955 0.283575 0.321830
O O3 0.708808 0.205443 0.247486
O O4 0.698654 0.221161 0.383934
O O5 0.092396 0.271125 0.432104
O O6 0.000000 0.267785 0.328312
O O7 0.092796 0.000000 0.354765
O O8 0.102525 0.500000 0.008701
O O9 0.093892 0.799980 0.067268
O O10 0.222166 0.723997 0.995205
O O11 0.661693 0.280233 0.127150
O O12 0.824494 0.286381 0.166312
O O13 0.744221 0.000000 0.149014
O O14 0.500000 0.778354 0.592485
O O15 0.409778 0.500000 0.580859
O O16 0.380032 0.765414 0.504332
O O17 0.300353 0.500000 0.456355
O O18 0.911979 0.500000 0.672248
O O19 0.000000 0.781840 0.663923
#
# Coordination Sequence:
#
# PCOD9356122 Si02
#       7
#     8   8   8   8   8   8   8
#     4  10  21  34  52  77 108 144 178 219 272 321
#     4   9  18  32  49  71 102 141 185 227 268 319
#     4  10  18  29  49  77 108 139 174 221 275 320
#     4  10  20  36  55  77 109 145 183 222 264 320
#     4   9  17  33  61  88 105 132 180 228 266 315
#     4   9  17  34  56  79 107 137 176 221 266 320
#     4  10  20  33  50  73 103 143 186 224 265 314
#
# _framework density 22.228183000000001
#
# number of rings (size 3 to 8) (size 9 to 14) (size 15 to 20)
#    0.000    2.429    1.429    1.286    0.000    3.429 
#    0.000    2.143    0.000    2.571    0.000    0.000 
#    0.000    0.000    0.000    0.000    0.000    0.000 
#
# Total GULP energy -156319.781619 kJ/mol
# GULP energy per Si atom -5582.849344 kJ/mol
# Density = 2.217759 g / cm^3
# Si number density = 22.228183 Si / 1000 Ang^3
#
#
#
# Elastic Constant Matrix: (Units=GPa)
#
#
# Indices 1 2 3 4 5 6 
#
# 1 154.0715 5.2269 63.2599 0.0000 0.0000 0.0000
# 2 5.2269 59.1868 -1.2493 0.0000 0.0000 0.0000
# 3 63.2599 -1.2493 124.1791 0.0000 0.0000 0.0000
# 4 0.0000 0.0000 0.0000 17.1187 0.0000 0.0000
# 5 0.0000 0.0000 0.0000 0.0000 -7.2385 0.0000
# 6 0.0000 0.0000 0.0000 0.0000 0.0000 -0.2567
#
#
#
# Elastic Compliance Matrix: (Units=1/GPa)
#
#
# Indices 1 2 3 4 5 6 
#
# 1 0.008246 -0.000817 -0.004209 0.000000 0.000000 0.000000
# 2 -0.000817 0.016980 0.000587 0.000000 0.000000 0.000000
# 3 -0.004209 0.000587 0.010203 0.000000 0.000000 0.000000
# 4 0.000000 0.000000 0.000000 0.058416 0.000000 0.000000
# 5 0.000000 0.000000 0.000000 0.000000 -0.138150 0.000000
# 6 0.000000 0.000000 0.000000 0.000000 0.000000 -3.895707
#
#
# Mechanical properties :
#
#
# Convention : Reuss Voigt Hill
#
# Bulk Modulus (GPa) = 37.66288 52.43469 45.04878
# Shear Modulus (GPa) = -1.27477 19.93802 9.33162
#
# Velocity S-wave (km/s) = -0.75811 2.99820 2.05115
# Velocity P-wave (km/s) = 4.02669 5.96876 5.09118
#
# Compressibility (1/GPa) = 0.02655134
#
# Stress axis : x y z
#
# Youngs Moduli (GPa) = 121.26435 58.89204 98.00999
#
# Poissons Ratio (x) = 0.04812 0.41254
# Poissons Ratio (y) = 0.09909 -0.05754
# Poissons Ratio (z) = 0.51042 -0.03457
#
# Static dielectric constant tensor:
#      x y z
#    x 1.816510 0.000000 0.000000 
#    y 0.000000 1.859230 0.000000 
#    z 0.000000 0.000000 1.813240 
# 
# From -- ./inp_files/21016.got.cif
#   From: 2010.05.17/outbox.cif.g08.bks.cpg/sg38_11_cif.got.tgz:21016.got - 2010.06.03 18:07:57.
