data_PCOD9356752
_publ_section_title
;
Structure prediction by ZEFSAII (Michael W. Deem and Ramdas Pophale) SiO2 
 PCOD9356752
Probable space group: A M M 2
;
_chemical_formula_sum "Si O2"
_cell_formula_units_Z 64
_cell_length_a 20.920260
_cell_length_b 7.602518
_cell_length_c 20.545449
_cell_angle_alpha 90.000000
_cell_angle_beta 90.000000
_cell_angle_gamma 90.000000
_cell_volume 3267.684902
_symmetry_space_group_name_H-M "A M M 2"
_symmetry_group_IT_number 38
_symmetry_cell_setting 'orthorhombic'
loop_
_space_group_symop_operation_xyz
x,y,z
-x,-y,z
-x,y,z
x,-y,z
x,1/2+y,1/2+z
-x,1/2-y,1/2+z
-x,1/2+y,1/2+z
x,1/2-y,1/2+z
loop_
_atom_site_type_symbol
_atom_site_label
_atom_site_fract_x
_atom_site_fract_y
_atom_site_fract_z
Si Si1 0.826919 0.204078 0.744940
Si Si2 0.073093 0.714598 0.138529
Si Si3 0.427872 0.211979 0.639797
Si Si4 0.316565 0.292843 0.740636
Si Si5 0.323719 0.284251 0.887549
Si Si6 0.927493 0.784774 0.489788
Si Si7 0.180918 0.294951 0.893823
Si Si8 0.427478 0.285311 0.991459
O O1 0.875335 0.277246 0.691008
O O2 0.752834 0.215901 0.723263
O O3 0.832369 0.285020 0.816759
O O4 0.842884 0.000000 0.753644
O O5 0.074558 0.500000 0.138618
O O6 0.000000 0.766587 0.153937
O O7 0.087384 0.767859 0.064162
O O8 0.500000 0.272441 0.657303
O O9 0.372668 0.263467 0.689430
O O10 0.414030 0.270351 0.565724
O O11 0.429591 0.000000 0.638849
O O12 0.305028 0.500000 0.746217
O O13 0.336027 0.229567 0.812933
O O14 0.324114 0.500000 0.888631
O O15 0.252135 0.222129 0.904406
O O16 0.376165 0.224332 0.939013
O O17 0.875316 0.720268 0.438323
O O18 0.000000 0.728992 0.474468
O O19 0.928049 0.000000 0.488578
O O20 0.185170 0.500000 0.911462
O O21 0.500000 0.232620 0.975195
O O22 0.426311 0.500000 0.991333
#
# Coordination Sequence:
#
# PCOD9356752 Si02
#       8
#     8   8   8   8   8   8   8   8
#     4  10  19  31  49  70  94 126 159 195 239 283
#     4   8  15  28  46  70  96 121 157 202 239 275
#     4   9  18  32  50  73  99 124 152 190 235 282
#     4  10  20  33  49  70  97 127 159 197 236 278
#     4   8  15  27  43  64  89 117 152 192 226 259
#     4   8  14  26  45  68  92 118 152 195 237 276
#     4   9  17  29  45  67  94 120 149 189 234 280
#     4   8  14  26  45  68  91 114 146 189 228 264
#
# _framework density 19.585732
#
# number of rings (size 3 to 8) (size 9 to 14) (size 15 to 20)
#    0.000    3.250    0.000    3.000    0.000    2.250 
#    0.000    5.000    0.000    9.375    0.000    3.500 
#    0.000    0.000    0.000    0.000    0.000    0.000 
#
# Total GULP energy -178381.348199 kJ/mol
# GULP energy per Si atom -5574.417131 kJ/mol
# Density = 1.954115 g / cm^3
# Si number density = 19.585732 Si / 1000 Ang^3
#
#
#
# Elastic Constant Matrix: (Units=GPa)
#
#
# Indices 1 2 3 4 5 6 
#
# 1 176.6043 -3.0709 142.1243 0.0000 0.0000 0.0000
# 2 -3.0709 37.8490 -3.4512 0.0000 0.0000 0.0000
# 3 142.1243 -3.4512 137.5029 0.0000 0.0000 0.0000
# 4 0.0000 0.0000 0.0000 15.9439 0.0000 0.0000
# 5 0.0000 0.0000 0.0000 0.0000 48.1049 0.0000
# 6 0.0000 0.0000 0.0000 0.0000 0.0000 7.4945
#
#
#
# Elastic Compliance Matrix: (Units=1/GPa)
#
#
# Indices 1 2 3 4 5 6 
#
# 1 0.033674 -0.000443 -0.034817 0.000000 0.000000 0.000000
# 2 -0.000443 0.026487 0.001122 0.000000 0.000000 0.000000
# 3 -0.034817 0.001122 0.043288 0.000000 0.000000 0.000000
# 4 0.000000 0.000000 0.000000 0.062720 0.000000 0.000000
# 5 0.000000 0.000000 0.000000 0.000000 0.020788 0.000000
# 6 0.000000 0.000000 0.000000 0.000000 0.000000 0.133432
#
#
# Mechanical properties :
#
#
# Convention : Reuss Voigt Hill
#
# Bulk Modulus (GPa) = 28.42958 69.24007 48.83482
# Shear Modulus (GPa) = 12.48793 28.73225 20.61009
#
# Velocity S-wave (km/s) = 2.52782 3.83430 3.24744
# Velocity P-wave (km/s) = 4.80279 7.41832 6.24893
#
# Compressibility (1/GPa) = 0.03517463
#
# Stress axis : x y z
#
# Youngs Moduli (GPa) = 29.69673 37.75404 23.10134
#
# Poissons Ratio (x) = 0.01671 0.80431
# Poissons Ratio (y) = 0.01314 -0.02592
# Poissons Ratio (z) = 1.03394 -0.04237
#
# Static dielectric constant tensor:
#      x y z
#    x 1.665300 0.000000 0.000000 
#    y 0.000000 1.763650 0.000000 
#    z 0.000000 0.000000 1.663820 
# 
# From -- ./inp_files/21555.got.cif
#   From: 2010.05.17/outbox.cif.g08.bks.cpg/sg38_11_cif.got.tgz:21555.got - 2010.06.03 18:07:57.
