data_PCOD9356257
_publ_section_title
;
Structure prediction by ZEFSAII (Michael W. Deem and Ramdas Pophale) SiO2 
 PCOD9356257
Probable space group: A M M 2
;
_chemical_formula_sum "Si O2"
_cell_formula_units_Z 48
_cell_length_a 7.428797
_cell_length_b 14.146961
_cell_length_c 19.710360
_cell_angle_alpha 90.000000
_cell_angle_beta 90.000000
_cell_angle_gamma 90.000000
_cell_volume 2071.458341
_symmetry_space_group_name_H-M "A M M 2"
_symmetry_group_IT_number 38
_symmetry_cell_setting 'orthorhombic'
loop_
_space_group_symop_operation_xyz
x,y,z
-x,-y,z
-x,y,z
x,-y,z
x,1/2+y,1/2+z
-x,1/2-y,1/2+z
-x,1/2+y,1/2+z
x,1/2-y,1/2+z
loop_
_atom_site_type_symbol
_atom_site_label
_atom_site_fract_x
_atom_site_fract_y
_atom_site_fract_z
Si Si1 0.781406 0.750651 0.968510
Si Si2 0.780214 0.108691 0.361941
Si Si3 0.208218 0.814425 0.218337
Si Si4 0.701649 0.396435 0.199973
Si Si5 0.220940 0.394710 0.581149
Si Si6 0.210204 0.396003 0.353470
O O1 0.722097 0.652087 0.934714
O O2 0.731476 0.821495 0.907753
O O3 0.000000 0.746748 0.974288
O O4 0.718939 0.805630 0.035428
O O5 0.720021 0.167356 0.294537
O O6 0.000000 0.112964 0.363308
O O7 0.727385 0.000000 0.353878
O O8 0.214102 0.706598 0.190283
O O9 0.283926 0.878237 0.158150
O O10 0.000000 0.840899 0.224232
O O11 0.500000 0.393740 0.171976
O O12 0.782254 0.500000 0.180667
O O13 0.694379 0.397976 0.281840
O O14 0.273284 0.500000 0.557411
O O15 0.000000 0.393209 0.580210
O O16 0.220073 0.500000 0.384351
O O17 0.000000 0.376226 0.337025
#
# Coordination Sequence:
#
# PCOD9356257 Si02
#       6
#     8   8   8   8   8   8
#     4   9  15  25  42  70 102 130 159 197 245 291
#     4   9  16  26  43  68  97 130 166 202 241 286
#     4  10  18  31  50  73  99 128 166 207 245 289
#     4  10  20  32  47  70  99 129 162 202 250 297
#     4   9  17  28  45  72 104 134 162 198 247 296
#     4   9  15  25  45  71  97 124 158 200 242 287
#
# _framework density 23.172080000000001
#
# number of rings (size 3 to 8) (size 9 to 14) (size 15 to 20)
#    0.000    2.667    1.667    1.500    0.000    5.000 
#    0.000    0.833    0.000    6.000    0.000    0.000 
#    0.000    0.000    0.000    0.000    0.000    0.000 
#
# Total GULP energy -133669.827874 kJ/mol
# GULP energy per Si atom -5569.576161 kJ/mol
# Density = 2.311934 g / cm^3
# Si number density = 23.172080 Si / 1000 Ang^3
#
#
#
# Elastic Constant Matrix: (Units=GPa)
#
#
# Indices 1 2 3 4 5 6 
#
# 1 62.3678 -0.2982 3.0894 0.0000 0.0000 0.0000
# 2 -0.2982 116.6153 44.5208 0.0000 0.0000 0.0000
# 3 3.0894 44.5208 93.5927 0.0000 0.0000 0.0000
# 4 0.0000 0.0000 0.0000 30.7502 0.0000 0.0000
# 5 0.0000 0.0000 0.0000 0.0000 21.9586 0.0000
# 6 0.0000 0.0000 0.0000 0.0000 0.0000 -30.4065
#
#
#
# Elastic Compliance Matrix: (Units=1/GPa)
#
#
# Indices 1 2 3 4 5 6 
#
# 1 0.016069 0.000298 -0.000672 0.000000 0.000000 0.000000
# 2 0.000298 0.010484 -0.004997 0.000000 0.000000 0.000000
# 3 -0.000672 -0.004997 0.013084 0.000000 0.000000 0.000000
# 4 0.000000 0.000000 0.000000 0.032520 0.000000 0.000000
# 5 0.000000 0.000000 0.000000 0.000000 0.045540 0.000000
# 6 0.000000 0.000000 0.000000 0.000000 0.000000 -0.032888
#
#
# Mechanical properties :
#
#
# Convention : Reuss Voigt Hill
#
# Bulk Modulus (GPa) = 34.60962 40.79998 37.70480
# Shear Modulus (GPa) = 47.53673 19.47806 33.50740
#
# Velocity S-wave (km/s) = 4.53422 2.90243 3.80679
# Velocity P-wave (km/s) = 6.51004 5.37380 5.96902
#
# Compressibility (1/GPa) = 0.02889370
#
# Stress axis : x y z
#
# Youngs Moduli (GPa) = 62.23313 95.38715 76.43123
#
# Poissons Ratio (x) = -0.02839 0.05136
# Poissons Ratio (y) = -0.01852 0.38191
# Poissons Ratio (z) = 0.04182 0.47662
#
# Static dielectric constant tensor:
#      x y z
#    x 1.887600 0.000000 0.000000 
#    y 0.000000 1.925610 0.000000 
#    z 0.000000 0.000000 1.847880 
# 
# From -- ./inp_files/19616.got.cif
#   From: 2010.05.17/outbox.cif.g08.bks.cpg/sg38_10_cif.got.tgz:19616.got - 2010.06.03 18:07:57.
