data_PCOD9356379
_publ_section_title
;
Structure prediction by ZEFSAII (Michael W. Deem and Ramdas Pophale) SiO2 
 PCOD9356379
Probable space group: A M M 2
;
_chemical_formula_sum "Si O2"
_cell_formula_units_Z 40
_cell_length_a 7.416562
_cell_length_b 11.807781
_cell_length_c 21.189757
_cell_angle_alpha 90.000000
_cell_angle_beta 90.000000
_cell_angle_gamma 90.000000
_cell_volume 1855.653554
_symmetry_space_group_name_H-M "A M M 2"
_symmetry_group_IT_number 38
_symmetry_cell_setting 'orthorhombic'
loop_
_space_group_symop_operation_xyz
x,y,z
-x,-y,z
-x,y,z
x,-y,z
x,1/2+y,1/2+z
-x,1/2-y,1/2+z
-x,1/2+y,1/2+z
x,1/2-y,1/2+z
loop_
_atom_site_type_symbol
_atom_site_label
_atom_site_fract_x
_atom_site_fract_y
_atom_site_fract_z
Si Si1 0.221322 0.368742 0.627610
Si Si2 0.211397 0.247728 0.255165
Si Si3 0.285234 0.500000 0.282106
Si Si4 0.792172 0.731006 0.499050
Si Si5 0.717811 0.000000 0.927326
Si Si6 0.220459 0.630643 0.882366
O O1 0.274623 0.500000 0.620812
O O2 0.283299 0.316734 0.693914
O O3 0.284920 0.294705 0.568030
O O4 0.000000 0.367573 0.626349
O O5 0.228499 0.382707 0.250462
O O6 0.284091 0.204461 0.322530
O O7 0.000000 0.219471 0.256710
O O8 0.500000 0.500000 0.284045
O O9 0.220427 0.500000 0.354750
O O10 0.785595 0.611239 0.462621
O O11 0.713520 0.819457 0.448935
O O12 0.000000 0.764801 0.509225
O O13 0.500000 0.000000 0.928949
O O14 0.268598 0.500000 0.873545
O O15 0.000000 0.637709 0.884015
#
# Coordination Sequence:
#
# PCOD9356379 Si02
#       6
#     8   8   4   8   4   8
#     4   9  17  30  52  82 110 132 166 218 266 307
#     4  10  19  33  55  79 103 137 176 214 260 317
#     4  11  23  37  53  75 107 140 175 226 268 304
#     4  10  18  32  55  80 106 136 170 215 268 316
#     4  11  21  33  53  79 105 134 175 224 264 306
#     4   9  17  29  49  78 107 133 167 211 259 312
#
# _framework density 21.555748000000001
#
# number of rings (size 3 to 8) (size 9 to 14) (size 15 to 20)
#    0.000    2.200    3.000    1.200    0.000    3.200 
#    1.800    1.000    0.000    3.600    0.000    0.000 
#    0.000    0.000    0.000    0.000    0.000    0.000 
#
# Total GULP energy -111696.608764 kJ/mol
# GULP energy per Si atom -5584.830438 kJ/mol
# Density = 2.150669 g / cm^3
# Si number density = 21.555748 Si / 1000 Ang^3
#
#
#
# Elastic Constant Matrix: (Units=GPa)
#
#
# Indices 1 2 3 4 5 6 
#
# 1 73.1419 -11.0723 11.2349 0.0000 0.0000 0.0000
# 2 -11.0723 114.4077 65.9297 0.0000 0.0000 0.0000
# 3 11.2349 65.9297 170.6205 0.0000 0.0000 0.0000
# 4 0.0000 0.0000 0.0000 39.0118 0.0000 0.0000
# 5 0.0000 0.0000 0.0000 0.0000 -8.3336 0.0000
# 6 0.0000 0.0000 0.0000 0.0000 0.0000 -68.9878
#
#
#
# Elastic Compliance Matrix: (Units=1/GPa)
#
#
# Indices 1 2 3 4 5 6 
#
# 1 0.014341 0.002486 -0.001905 0.000000 0.000000 0.000000
# 2 0.002486 0.011675 -0.004675 0.000000 0.000000 0.000000
# 3 -0.001905 -0.004675 0.007793 0.000000 0.000000 0.000000
# 4 0.000000 0.000000 0.000000 0.025633 0.000000 0.000000
# 5 0.000000 0.000000 0.000000 0.000000 -0.119996 0.000000
# 6 0.000000 0.000000 0.000000 0.000000 0.000000 -0.014495
#
#
# Mechanical properties :
#
#
# Convention : Reuss Voigt Hill
#
# Bulk Modulus (GPa) = 39.03130 54.48385 46.75758
# Shear Modulus (GPa) = -85.73380 11.80993 -36.96193
#
# Velocity S-wave (km/s) = -6.31343 2.34322 -4.14540
# Velocity P-wave (km/s) = 5.91603 5.71415 1.08348
#
# Compressibility (1/GPa) = 0.02562046
#
# Stress axis : x y z
#
# Youngs Moduli (GPa) = 69.73065 85.65034 128.32166
#
# Poissons Ratio (x) = -0.21289 0.24442
# Poissons Ratio (y) = -0.17332 0.59992
# Poissons Ratio (z) = 0.13282 0.40043
#
# Static dielectric constant tensor:
#      x y z
#    x 1.809540 0.000000 0.000000 
#    y 0.000000 1.738420 0.000000 
#    z 0.000000 0.000000 1.778410 
# 
# From -- ./inp_files/19487.got.cif
#   From: 2010.05.17/outbox.cif.g08.bks.cpg/sg38_10_cif.got.tgz:19487.got - 2010.06.03 18:07:57.
