data_PCOD9356888
_publ_section_title
;
Structure prediction by ZEFSAII (Michael W. Deem and Ramdas Pophale) SiO2 
 PCOD9356888
Probable space group: A M M 2
;
_chemical_formula_sum "Si O2"
_cell_formula_units_Z 56
_cell_length_a 21.157411
_cell_length_b 7.283241
_cell_length_c 15.578353
_cell_angle_alpha 90.000000
_cell_angle_beta 90.000000
_cell_angle_gamma 90.000000
_cell_volume 2400.538879
_symmetry_space_group_name_H-M "A M M 2"
_symmetry_group_IT_number 38
_symmetry_cell_setting 'orthorhombic'
loop_
_space_group_symop_operation_xyz
x,y,z
-x,-y,z
-x,y,z
x,-y,z
x,1/2+y,1/2+z
-x,1/2-y,1/2+z
-x,1/2+y,1/2+z
x,1/2-y,1/2+z
loop_
_atom_site_type_symbol
_atom_site_label
_atom_site_fract_x
_atom_site_fract_y
_atom_site_fract_z
Si Si1 0.295906 0.722673 0.967920
Si Si2 0.567780 0.778925 0.672540
Si Si3 0.927532 0.224697 0.569407
Si Si4 0.567780 0.778925 0.466270
Si Si5 0.704095 0.277327 0.170890
Si Si6 0.840008 0.217824 0.724002
Si Si7 0.840008 0.282180 0.914814
O O1 0.297334 0.500000 0.962506
O O2 0.231714 0.789675 0.924449
O O3 0.364140 0.787866 0.933648
O O4 0.291403 0.766777 0.069405
O O5 0.500000 0.710542 0.706388
O O6 0.568306 0.743962 0.569405
O O7 0.635860 0.712135 0.705162
O O8 0.567247 0.000000 0.682031
O O9 0.887899 0.285844 0.652160
O O10 0.887901 0.285846 0.486653
O O11 0.000000 0.284330 0.569408
O O12 0.928611 0.000000 0.569407
O O13 0.500000 0.710542 0.432422
O O14 0.567247 0.000000 0.456780
O O15 0.702667 0.500000 0.176304
O O16 0.768286 0.210326 0.214362
O O17 0.863608 0.250011 0.819408
O O18 0.835165 0.000000 0.709887
O O19 0.835162 0.500000 0.928938
#
# Coordination Sequence:
#
# PCOD9356888 Si02
#       7
#     8   8   8   8   8   8   8
#     4   8  12  21  39  60  84 118 157 191 226 273
#     4   7   9  13  25  50  81 109 142 188 233 265
#     4   9  18  34  55  75  96 126 162 193 227 281
#     4   7   9  13  25  50  81 109 142 188 233 265
#     4   8  12  21  39  60  84 118 157 191 226 273
#     4  10  19  32  51  74  98 126 159 195 234 278
#     4  10  19  32  51  74  98 126 159 195 234 278
#
# _framework density 23.328094
#
# number of rings (size 3 to 8) (size 9 to 14) (size 15 to 20)
#    0.000    3.571    1.429    2.571    0.000    0.571 
#    0.000    0.714    0.000    1.714    0.000    0.000 
#    0.000    0.000    0.000    7.143    0.000    6.286 
#
# Total GULP energy -156216.514260 kJ/mol
# GULP energy per Si atom -5579.161224 kJ/mol
# Density = 2.327500 g / cm^3
# Si number density = 23.328094 Si / 1000 Ang^3
#
#
#
# Elastic Constant Matrix: (Units=GPa)
#
#
# Indices 1 2 3 4 5 6 
#
# 1 247.6131 14.2186 94.7076 0.0000 0.0000 0.0000
# 2 14.2186 99.6210 -4.7354 0.0000 0.0000 0.0000
# 3 94.7076 -4.7354 112.9432 0.0000 0.0000 0.0000
# 4 0.0000 0.0000 0.0000 -11.1880 0.0000 0.0000
# 5 0.0000 0.0000 0.0000 0.0000 -32.7287 0.0000
# 6 0.0000 0.0000 0.0000 0.0000 0.0000 -23.8686
#
#
#
# Elastic Compliance Matrix: (Units=1/GPa)
#
#
# Indices 1 2 3 4 5 6 
#
# 1 0.006065 -0.001110 -0.005133 0.000000 0.000000 0.000000
# 2 -0.001110 0.010261 0.001361 0.000000 0.000000 0.000000
# 3 -0.005133 0.001361 0.013215 0.000000 0.000000 0.000000
# 4 0.000000 0.000000 0.000000 -0.089382 0.000000 0.000000
# 5 0.000000 0.000000 0.000000 0.000000 -0.030554 0.000000
# 6 0.000000 0.000000 0.000000 0.000000 0.000000 -0.041896
#
#
# Mechanical properties :
#
#
# Convention : Reuss Voigt Hill
#
# Bulk Modulus (GPa) = 50.56036 74.28434 62.42235
# Shear Modulus (GPa) = -43.12778 10.17538 -16.47620
#
# Velocity S-wave (km/s) = -4.30437 2.09077 -2.66048
# Velocity P-wave (km/s) = 1.72709 6.14336 4.16881
#
# Compressibility (1/GPa) = 0.01977834
#
# Stress axis : x y z
#
# Youngs Moduli (GPa) = 164.86909 97.45543 75.67167
#
# Poissons Ratio (x) = 0.10814 0.38839
# Poissons Ratio (y) = 0.18295 -0.10297
# Poissons Ratio (z) = 0.84621 -0.13261
#
# Static dielectric constant tensor:
#      x y z
#    x 1.897710 0.000000 0.000000 
#    y 0.000000 1.901000 0.000000 
#    z 0.000000 0.000000 1.837120 
# 
# From -- ./inp_files/10756.got.cif
#   From: 2010.05.17/outbox.cif.g08.bks.cpg/sg38_6_cif.got.tgz:10756.got - 2010.06.03 18:07:57.
