data_PCOD9356722
_publ_section_title
;
Structure prediction by ZEFSAII (Michael W. Deem and Ramdas Pophale) SiO2 
 PCOD9356722
Probable space group: A M M 2
;
_chemical_formula_sum "Si O2"
_cell_formula_units_Z 64
_cell_length_a 9.005428
_cell_length_b 30.882443
_cell_length_c 14.703452
_cell_angle_alpha 90.000000
_cell_angle_beta 90.000000
_cell_angle_gamma 90.000000
_cell_volume 4089.171403
_symmetry_space_group_name_H-M "A M M 2"
_symmetry_group_IT_number 38
_symmetry_cell_setting 'orthorhombic'
loop_
_space_group_symop_operation_xyz
x,y,z
-x,-y,z
-x,y,z
x,-y,z
x,1/2+y,1/2+z
-x,1/2-y,1/2+z
-x,1/2+y,1/2+z
x,1/2-y,1/2+z
loop_
_atom_site_type_symbol
_atom_site_label
_atom_site_fract_x
_atom_site_fract_y
_atom_site_fract_z
Si Si1 0.178586 0.950813 0.848480
Si Si2 0.672181 0.368601 0.641591
Si Si3 0.174315 0.272334 0.955290
Si Si4 0.332275 0.183814 0.954024
Si Si5 0.673802 0.869656 0.768496
Si Si6 0.321469 0.708961 0.141825
Si Si7 0.821604 0.449765 0.559986
Si Si8 0.177926 0.208763 0.246327
O O1 0.241703 0.914523 0.782065
O O2 0.000000 0.949511 0.846783
O O3 0.225365 0.000000 0.826478
O O4 0.222885 0.942167 0.954030
O O5 0.500000 0.371764 0.668977
O O6 0.677612 0.345371 0.543076
O O7 0.743696 0.415471 0.625360
O O8 0.760453 0.336231 0.707147
O O9 0.212465 0.221443 0.957386
O O10 0.212606 0.287688 0.853604
O O11 0.000000 0.279591 0.970786
O O12 0.267224 0.292000 0.038154
O O13 0.500000 0.203020 0.951401
O O14 0.313071 0.155527 0.864254
O O15 0.500000 0.878575 0.752628
O O16 0.724932 0.835045 0.693429
O O17 0.500000 0.712753 0.147300
O O18 0.251862 0.750924 0.192337
O O19 0.787616 0.500000 0.580653
O O20 0.000000 0.444391 0.564680
O O21 0.000000 0.211409 0.234849
#
# Coordination Sequence:
#
# PCOD9356722 Si02
#       8
#     8   8   8   8   8   8   8   8
#     4   9  18  31  48  72 101 133 167 203 246 295
#     4  11  21  32  50  75 101 136 172 207 252 298
#     4  11  23  36  51  72  99 133 173 214 253 294
#     4  10  19  31  47  70 103 136 169 205 246 295
#     4  10  20  33  49  72 100 134 171 204 244 295
#     4  11  22  35  52  73 100 134 171 210 253 300
#     4   9  18  32  49  71 102 137 169 205 249 297
#     4  11  23  36  51  73 100 133 173 211 251 300
#
# _framework density 15.651090999999999
#
# number of rings (size 3 to 8) (size 9 to 14) (size 15 to 20)
#    0.000    1.750    3.750    2.250    0.000    4.000 
#    0.000    1.250    0.000    0.000    0.000    0.875 
#    0.000    5.000    0.000    0.000    0.000    0.000 
#
# Total GULP energy -178533.447920 kJ/mol
# GULP energy per Si atom -5579.170248 kJ/mol
# Density = 1.561547 g / cm^3
# Si number density = 15.651091 Si / 1000 Ang^3
#
#
#
# Elastic Constant Matrix: (Units=GPa)
#
#
# Indices 1 2 3 4 5 6 
#
# 1 50.1049 45.5123 40.6271 0.0000 0.0000 0.0000
# 2 45.5123 113.9599 43.7005 0.0000 0.0000 0.0000
# 3 40.6271 43.7005 79.6443 0.0000 0.0000 0.0000
# 4 0.0000 0.0000 0.0000 21.0145 0.0000 0.0000
# 5 0.0000 0.0000 0.0000 0.0000 18.6311 0.0000
# 6 0.0000 0.0000 0.0000 0.0000 0.0000 29.6960
#
#
#
# Elastic Compliance Matrix: (Units=1/GPa)
#
#
# Indices 1 2 3 4 5 6 
#
# 1 0.042756 -0.011033 -0.015756 0.000000 0.000000 0.000000
# 2 -0.011033 0.013961 -0.002032 0.000000 0.000000 0.000000
# 3 -0.015756 -0.002032 0.021708 0.000000 0.000000 0.000000
# 4 0.000000 0.000000 0.000000 0.047586 0.000000 0.000000
# 5 0.000000 0.000000 0.000000 0.000000 0.053674 0.000000
# 6 0.000000 0.000000 0.000000 0.000000 0.000000 0.033675
#
#
# Mechanical properties :
#
#
# Convention : Reuss Voigt Hill
#
# Bulk Modulus (GPa) = 48.11930 55.93213 52.02572
# Shear Modulus (GPa) = 17.99020 21.45962 19.72491
#
# Velocity S-wave (km/s) = 3.39404 3.70689 3.55391
# Velocity P-wave (km/s) = 6.79493 7.35771 7.08191
#
# Compressibility (1/GPa) = 0.02078168
#
# Stress axis : x y z
#
# Youngs Moduli (GPa) = 23.38855 71.62990 46.06593
#
# Poissons Ratio (x) = 0.79033 0.72582
# Poissons Ratio (y) = 0.25806 0.09360
# Poissons Ratio (z) = 0.36851 0.14554
#
# Static dielectric constant tensor:
#      x y z
#    x 1.535190 0.000000 0.000000 
#    y 0.000000 1.511620 0.000000 
#    z 0.000000 0.000000 1.516370 
# 
# From -- ./inp_files/13073.got.cif
#   From: 2010.05.17/outbox.cif.g08.bks.cpg/sg38_7_cif.got.tgz:13073.got - 2010.06.03 18:07:57.
