data_PCOD9356402
_publ_section_title
;
Structure prediction by ZEFSAII (Michael W. Deem and Ramdas Pophale) SiO2 
 PCOD9356402
Probable space group: A M M 2
;
_chemical_formula_sum "Si O2"
_cell_formula_units_Z 40
_cell_length_a 9.855938
_cell_length_b 11.673308
_cell_length_c 20.158914
_cell_angle_alpha 90.000000
_cell_angle_beta 90.000000
_cell_angle_gamma 90.000000
_cell_volume 2319.311276
_symmetry_space_group_name_H-M "A M M 2"
_symmetry_group_IT_number 38
_symmetry_cell_setting 'orthorhombic'
loop_
_space_group_symop_operation_xyz
x,y,z
-x,-y,z
-x,y,z
x,-y,z
x,1/2+y,1/2+z
-x,1/2-y,1/2+z
-x,1/2+y,1/2+z
x,1/2-y,1/2+z
loop_
_atom_site_type_symbol
_atom_site_label
_atom_site_fract_x
_atom_site_fract_y
_atom_site_fract_z
Si Si1 0.845973 0.000000 0.136240
Si Si2 0.659732 0.135169 0.654706
Si Si3 0.338251 0.254727 0.297027
Si Si4 0.161248 0.364798 0.411437
Si Si5 0.841651 0.733532 0.553374
Si Si6 0.339397 0.000000 0.264420
O O1 0.830056 0.887812 0.091365
O O2 0.741559 0.000000 0.195977
O O3 0.000000 0.000000 0.162933
O O4 0.500000 0.155303 0.641730
O O5 0.694646 0.202787 0.722396
O O6 0.748085 0.179341 0.593428
O O7 0.679534 0.000000 0.665867
O O8 0.500000 0.273468 0.306774
O O9 0.250658 0.323219 0.350122
O O10 0.309619 0.118873 0.301495
O O11 0.183590 0.500000 0.424338
O O12 0.195103 0.291978 0.477229
O O13 0.000000 0.350602 0.398355
O O14 0.000000 0.768279 0.555969
O O15 0.500000 0.000000 0.249874
#
# Coordination Sequence:
#
# PCOD9356402 Si02
#       6
#     4   8   8   8   8   4
#     4  10  18  32  58  86 110 135 172 225 276 323
#     4  10  21  37  57  82 112 144 181 226 272 322
#     4  10  21  37  57  82 111 144 182 225 272 321
#     4  10  21  38  58  81 110 144 183 226 271 321
#     4  10  20  36  58  83 111 141 178 226 274 323
#     4  10  20  36  58  82 110 141 180 227 270 321
#
# _framework density 17.246499
#
# number of rings (size 3 to 8) (size 9 to 14) (size 15 to 20)
#    0.000    2.000    3.000    0.600    0.000    4.000 
#    1.800    0.000    0.000    0.000    0.000    0.000 
#    0.000    0.000    0.000    0.000    0.000    0.000 
#
# Total GULP energy -111594.922294 kJ/mol
# GULP energy per Si atom -5579.746115 kJ/mol
# Density = 1.720724 g / cm^3
# Si number density = 17.246499 Si / 1000 Ang^3
#
#
#
# Elastic Constant Matrix: (Units=GPa)
#
#
# Indices 1 2 3 4 5 6 
#
# 1 39.7515 37.2420 52.9931 0.0000 0.0000 0.0000
# 2 37.2420 76.8159 35.5238 0.0000 0.0000 0.0000
# 3 52.9931 35.5238 100.9432 0.0000 0.0000 0.0000
# 4 0.0000 0.0000 0.0000 27.3044 0.0000 0.0000
# 5 0.0000 0.0000 0.0000 0.0000 28.7226 0.0000
# 6 0.0000 0.0000 0.0000 0.0000 0.0000 28.4629
#
#
#
# Elastic Compliance Matrix: (Units=1/GPa)
#
#
# Indices 1 2 3 4 5 6 
#
# 1 0.152527 -0.044094 -0.064556 0.000000 0.000000 0.000000
# 2 -0.044094 0.028296 0.013191 0.000000 0.000000 0.000000
# 3 -0.064556 0.013191 0.039155 0.000000 0.000000 0.000000
# 4 0.000000 0.000000 0.000000 0.036624 0.000000 0.000000
# 5 0.000000 0.000000 0.000000 0.000000 0.034816 0.000000
# 6 0.000000 0.000000 0.000000 0.000000 0.000000 0.035133
#
#
# Mechanical properties :
#
#
# Convention : Reuss Voigt Hill
#
# Bulk Modulus (GPa) = 34.41277 52.11426 43.26351
# Shear Modulus (GPa) = 9.48487 23.01477 16.24982
#
# Velocity S-wave (km/s) = 2.34766 3.65699 3.07287
# Velocity P-wave (km/s) = 5.22929 6.93645 6.14247
#
# Compressibility (1/GPa) = 0.02905898
#
# Stress axis : x y z
#
# Youngs Moduli (GPa) = 6.55623 35.34092 25.53954
#
# Poissons Ratio (x) = 1.55833 1.64873
# Poissons Ratio (y) = 0.28909 -0.33688
# Poissons Ratio (z) = 0.42324 -0.46617
#
# Static dielectric constant tensor:
#      x y z
#    x 1.572190 0.000000 0.000000 
#    y 0.000000 1.586780 0.000000 
#    z 0.000000 0.000000 1.547830 
# 
# From -- ./inp_files/19485.got.cif
#   From: 2010.05.17/outbox.cif.g08.bks.cpg/sg38_10_cif.got.tgz:19485.got - 2010.06.03 18:07:57.
