data_PCOD9356842
_publ_section_title
;
Structure prediction by ZEFSAII (Michael W. Deem and Ramdas Pophale) SiO2 
 PCOD9356842
Probable space group: A M M 2
;
_chemical_formula_sum "Si O2"
_cell_formula_units_Z 40
_cell_length_a 9.451510
_cell_length_b 7.534846
_cell_length_c 29.833924
_cell_angle_alpha 90.000000
_cell_angle_beta 90.000000
_cell_angle_gamma 90.000000
_cell_volume 2124.642956
_symmetry_space_group_name_H-M "A M M 2"
_symmetry_group_IT_number 38
_symmetry_cell_setting 'orthorhombic'
loop_
_space_group_symop_operation_xyz
x,y,z
-x,-y,z
-x,y,z
x,-y,z
x,1/2+y,1/2+z
-x,1/2-y,1/2+z
-x,1/2+y,1/2+z
x,1/2-y,1/2+z
loop_
_atom_site_type_symbol
_atom_site_label
_atom_site_fract_x
_atom_site_fract_y
_atom_site_fract_z
Si Si1 0.838811 0.784986 0.811570
Si Si2 0.669430 0.500000 0.472399
Si Si3 0.170440 0.000000 0.066090
Si Si4 0.668578 0.712320 0.123991
Si Si5 0.337018 0.296642 0.899995
Si Si6 0.339050 0.784037 0.726634
O O1 0.757004 0.729968 0.856187
O O2 0.761446 0.722717 0.766401
O O3 0.000000 0.724484 0.812834
O O4 0.837980 0.000000 0.810658
O O5 0.500000 0.500000 0.483164
O O6 0.763855 0.500000 0.516403
O O7 0.700578 0.331771 0.440734
O O8 0.235314 0.829084 0.091683
O O9 0.000000 0.000000 0.066214
O O10 0.500000 0.745380 0.116515
O O11 0.690541 0.500000 0.118942
O O12 0.699793 0.763567 0.175760
O O13 0.500000 0.255245 0.887508
O O14 0.329012 0.500000 0.914528
O O15 0.500000 0.726013 0.735113
O O16 0.339444 0.000000 0.727255
#
# Coordination Sequence:
#
# PCOD9356842 Si02
#       6
#     8   4   4   8   8   8
#     4  10  19  31  52  83 120 159 192 228 285 351
#     4  10  22  42  64  84 112 150 198 254 297 344
#     4  12  26  40  60  92 126 158 194 242 309 378
#     4   9  19  39  65  89 116 155 205 255 296 343
#     4  10  21  38  61  86 110 144 194 245 291 338
#     4   8  15  30  55  84 113 151 198 243 287 334
#
# _framework density 18.826694
#
# number of rings (size 3 to 8) (size 9 to 14) (size 15 to 20)
#    0.000    2.400    1.000    2.700    0.000    4.000 
#    1.800    4.000    0.000    0.000    0.000    0.000 
#    0.000    0.000    0.000    0.000    0.000    0.000 
#
# Total GULP energy -111670.809237 kJ/mol
# GULP energy per Si atom -5583.540462 kJ/mol
# Density = 1.878384 g / cm^3
# Si number density = 18.826694 Si / 1000 Ang^3
#
#
#
# Elastic Constant Matrix: (Units=GPa)
#
#
# Indices 1 2 3 4 5 6 
#
# 1 134.3777 59.6650 128.4685 0.0000 0.0000 0.0000
# 2 59.6650 83.9848 63.5295 0.0000 0.0000 0.0000
# 3 128.4685 63.5295 179.4985 0.0000 0.0000 0.0000
# 4 0.0000 0.0000 0.0000 -580.9634 0.0000 0.0000
# 5 0.0000 0.0000 0.0000 0.0000 -17.8006 0.0000
# 6 0.0000 0.0000 0.0000 0.0000 0.0000 17.7512
#
#
#
# Elastic Compliance Matrix: (Units=1/GPa)
#
#
# Indices 1 2 3 4 5 6 
#
# 1 0.025540 -0.005896 -0.016192 0.000000 0.000000 0.000000
# 2 -0.005896 0.017621 -0.002017 0.000000 0.000000 0.000000
# 3 -0.016192 -0.002017 0.017874 0.000000 0.000000 0.000000
# 4 0.000000 0.000000 0.000000 -0.001721 0.000000 0.000000
# 5 0.000000 0.000000 0.000000 0.000000 -0.056178 0.000000
# 6 0.000000 0.000000 0.000000 0.000000 0.000000 0.056334
#
#
# Mechanical properties :
#
#
# Convention : Reuss Voigt Hill
#
# Bulk Modulus (GPa) = 77.97421 100.13190 89.05305
# Shear Modulus (GPa) = 44.66080 -106.45603 -30.89761
#
# Velocity S-wave (km/s) = 4.87581 -7.52782 -4.05552
# Velocity P-wave (km/s) = 8.55598 4.71760 5.04723
#
# Compressibility (1/GPa) = 0.01282475
#
# Stress axis : x y z
#
# Youngs Moduli (GPa) = 39.15464 56.75024 55.94704
#
# Poissons Ratio (x) = 0.33457 0.90592
# Poissons Ratio (y) = 0.23084 0.11285
# Poissons Ratio (z) = 0.63401 0.11447
#
# Static dielectric constant tensor:
#      x y z
#    x 1.630720 0.000000 0.000000 
#    y 0.000000 1.701740 0.000000 
#    z 0.000000 0.000000 1.615360 
# 
# From -- ./inp_files/23255.got.cif
#   From: 2010.05.17/outbox.cif.g08.bks.cpg/sg38_12_cif.got.tgz:23255.got - 2010.06.03 18:07:57.
