data_PCOD9356170
_publ_section_title
;
Structure prediction by ZEFSAII (Michael W. Deem and Ramdas Pophale) SiO2 
 PCOD9356170
Probable space group: A M M 2
;
_chemical_formula_sum "Si O2"
_cell_formula_units_Z 64
_cell_length_a 8.442486
_cell_length_b 24.108876
_cell_length_c 19.663631
_cell_angle_alpha 90.000000
_cell_angle_beta 90.000000
_cell_angle_gamma 90.000000
_cell_volume 4002.312803
_symmetry_space_group_name_H-M "A M M 2"
_symmetry_group_IT_number 38
_symmetry_cell_setting 'orthorhombic'
loop_
_space_group_symop_operation_xyz
x,y,z
-x,-y,z
-x,y,z
x,-y,z
x,1/2+y,1/2+z
-x,1/2-y,1/2+z
-x,1/2+y,1/2+z
x,1/2-y,1/2+z
loop_
_atom_site_type_symbol
_atom_site_label
_atom_site_fract_x
_atom_site_fract_y
_atom_site_fract_z
Si Si1 0.309051 0.936949 0.129960
Si Si2 0.689082 0.164427 0.501059
Si Si3 0.693522 0.936666 0.410900
Si Si4 0.688982 0.249048 0.272560
Si Si5 0.811071 0.270881 0.127475
Si Si6 0.693173 0.120435 0.269906
Si Si7 0.809480 0.838059 0.044251
Si Si8 0.810929 0.768398 0.917200
O O1 0.500000 0.938087 0.132382
O O2 0.253631 0.910610 0.201612
O O3 0.258356 0.895575 0.070423
O O4 0.252385 0.000000 0.122118
O O5 0.500000 0.163351 0.508336
O O6 0.743190 0.105924 0.469821
O O7 0.763247 0.182981 0.572420
O O8 0.733068 0.212295 0.446670
O O9 0.500000 0.936797 0.410581
O O10 0.743217 0.911375 0.338129
O O11 0.746140 0.000000 0.419185
O O12 0.500000 0.248943 0.279014
O O13 0.737529 0.276681 0.201695
O O14 0.744200 0.184561 0.270388
O O15 0.761549 0.276277 0.339710
O O16 0.757566 0.211859 0.094816
O O17 0.000000 0.269331 0.133103
O O18 0.500000 0.120500 0.269536
O O19 0.000000 0.840690 0.047075
O O20 0.763698 0.817516 0.968952
O O21 0.000000 0.761848 0.922485
#
# Coordination Sequence:
#
# PCOD9356170 Si02
#       8
#     8   8   8   8   8   8   8   8
#     4  10  19  30  47  70  96 128 164 201 238 274
#     4  10  18  30  48  72  95 124 166 206 240 281
#     4   9  16  27  45  69  97 128 163 201 238 276
#     4  11  19  30  50  75  96 126 164 200 239 286
#     4  10  20  33  48  68  96 130 160 197 249 293
#     4   9  16  27  42  67  98 127 160 194 229 271
#     4   9  19  33  47  65  91 127 164 196 237 284
#     4  10  20  33  48  68  97 129 159 198 248 294
#
# _framework density 15.990754000000001
#
# number of rings (size 3 to 8) (size 9 to 14) (size 15 to 20)
#    0.000    2.250    2.500    2.625    0.000    4.250 
#    0.000    0.000    0.000    1.500    0.000    0.875 
#    0.000    5.000    0.000    0.000    0.000    0.000 
#
# Total GULP energy -178489.781179 kJ/mol
# GULP energy per Si atom -5577.805662 kJ/mol
# Density = 1.595436 g / cm^3
# Si number density = 15.990754 Si / 1000 Ang^3
#
#
#
# Elastic Constant Matrix: (Units=GPa)
#
#
# Indices 1 2 3 4 5 6 
#
# 1 11.1469 4.8483 2.7781 0.0000 0.0000 0.0000
# 2 4.8483 90.1515 53.8441 0.0000 0.0000 0.0000
# 3 2.7781 53.8441 110.1869 0.0000 0.0000 0.0000
# 4 0.0000 0.0000 0.0000 20.5496 0.0000 0.0000
# 5 0.0000 0.0000 0.0000 0.0000 19.8264 0.0000
# 6 0.0000 0.0000 0.0000 0.0000 0.0000 8.7467
#
#
#
# Elastic Compliance Matrix: (Units=1/GPa)
#
#
# Indices 1 2 3 4 5 6 
#
# 1 0.091861 -0.005023 0.000138 0.000000 0.000000 0.000000
# 2 -0.005023 0.015939 -0.007662 0.000000 0.000000 0.000000
# 3 0.000138 -0.007662 0.012816 0.000000 0.000000 0.000000
# 4 0.000000 0.000000 0.000000 0.048663 0.000000 0.000000
# 5 0.000000 0.000000 0.000000 0.000000 0.050438 0.000000
# 6 0.000000 0.000000 0.000000 0.000000 0.000000 0.114328
#
#
# Mechanical properties :
#
#
# Convention : Reuss Voigt Hill
#
# Bulk Modulus (GPa) = 10.46865 37.15847 23.81356
# Shear Modulus (GPa) = 12.78839 19.82553 16.30696
#
# Velocity S-wave (km/s) = 2.83103 3.52492 3.19686
# Velocity P-wave (km/s) = 4.15298 6.31305 5.34331
#
# Compressibility (1/GPa) = 0.09552331
#
# Stress axis : x y z
#
# Youngs Moduli (GPa) = 10.88596 62.73990 78.02656
#
# Poissons Ratio (x) = 0.31514 -0.01080
# Poissons Ratio (y) = 0.05468 0.59784
# Poissons Ratio (z) = -0.00151 0.48072
#
# Static dielectric constant tensor:
#      x y z
#    x 1.547200 0.000000 0.000000 
#    y 0.000000 1.522830 0.000000 
#    z 0.000000 0.000000 1.531350 
# 
# From -- ./inp_files/17284.got.cif
#   From: 2010.05.17/outbox.cif.g08.bks.cpg/sg38_9_cif.got.tgz:17284.got - 2010.06.03 18:07:57.
