data_PCOD9356692
_publ_section_title
;
Structure prediction by ZEFSAII (Michael W. Deem and Ramdas Pophale) SiO2 
 PCOD9356692
Probable space group: A M M 2
;
_chemical_formula_sum "Si O2"
_cell_formula_units_Z 48
_cell_length_a 7.858555
_cell_length_b 14.089504
_cell_length_c 19.266680
_cell_angle_alpha 90.000000
_cell_angle_beta 90.000000
_cell_angle_gamma 90.000000
_cell_volume 2133.267348
_symmetry_space_group_name_H-M "A M M 2"
_symmetry_group_IT_number 38
_symmetry_cell_setting 'orthorhombic'
loop_
_space_group_symop_operation_xyz
x,y,z
-x,-y,z
-x,y,z
x,-y,z
x,1/2+y,1/2+z
-x,1/2-y,1/2+z
-x,1/2+y,1/2+z
x,1/2-y,1/2+z
loop_
_atom_site_type_symbol
_atom_site_label
_atom_site_fract_x
_atom_site_fract_y
_atom_site_fract_z
Si Si1 0.799066 0.106264 0.972330
Si Si2 0.692478 0.242697 0.366392
Si Si3 0.697947 0.103921 0.765247
Si Si4 0.293959 0.108896 0.481421
Si Si5 0.194488 0.812867 0.629691
Si Si6 0.299175 0.896447 0.133027
O O1 0.693639 0.178912 0.927323
O O2 0.000000 0.132167 0.973237
O O3 0.784482 0.000000 0.943429
O O4 0.731955 0.102509 0.050392
O O5 0.500000 0.215632 0.344785
O O6 0.775167 0.304333 0.304565
O O7 0.769467 0.154047 0.408571
O O8 0.500000 0.101263 0.787272
O O9 0.702352 0.123461 0.683389
O O10 0.773760 0.000000 0.779631
O O11 0.500000 0.111163 0.478259
O O12 0.243455 0.168829 0.549636
O O13 0.238980 0.000000 0.489996
O O14 0.217587 0.703420 0.652879
O O15 0.000000 0.840389 0.637407
O O16 0.500000 0.890997 0.147594
O O17 0.236368 0.000000 0.159261
#
# Coordination Sequence:
#
# PCOD9356692 Si02
#       6
#     8   8   8   8   8   8
#     4  10  19  30  49  81 118 150 182 229 289 347
#     4  10  20  36  59  85 114 153 200 249 298 351
#     4  10  22  40  61  86 119 160 205 252 301 358
#     4  10  21  38  61  88 118 155 200 251 303 357
#     4  12  24  38  59  88 123 160 200 248 303 361
#     4  10  20  35  57  84 114 151 195 240 289 348
#
# _framework density 22.500696000000001
#
# number of rings (size 3 to 8) (size 9 to 14) (size 15 to 20)
#    0.000    1.667    1.667    3.500    0.000    6.000 
#    0.000    0.833    0.000    3.000    0.000    0.000 
#    0.000    0.000    0.000    0.000    0.000    0.000 
#
# Total GULP energy -133875.586753 kJ/mol
# GULP energy per Si atom -5578.149448 kJ/mol
# Density = 2.244948 g / cm^3
# Si number density = 22.500696 Si / 1000 Ang^3
#
#
#
# Elastic Constant Matrix: (Units=GPa)
#
#
# Indices 1 2 3 4 5 6 
#
# 1 44.6128 2.7084 -7.3497 0.0000 0.0000 0.0000
# 2 2.7084 122.5128 30.5697 0.0000 0.0000 0.0000
# 3 -7.3497 30.5697 72.9369 0.0000 0.0000 0.0000
# 4 0.0000 0.0000 0.0000 22.4699 0.0000 0.0000
# 5 0.0000 0.0000 0.0000 0.0000 -192.9252 0.0000
# 6 0.0000 0.0000 0.0000 0.0000 0.0000 3.4489
#
#
#
# Elastic Compliance Matrix: (Units=1/GPa)
#
#
# Indices 1 2 3 4 5 6 
#
# 1 0.022953 -0.001211 0.002821 0.000000 0.000000 0.000000
# 2 -0.001211 0.009180 -0.003969 0.000000 0.000000 0.000000
# 3 0.002821 -0.003969 0.015658 0.000000 0.000000 0.000000
# 4 0.000000 0.000000 0.000000 0.044504 0.000000 0.000000
# 5 0.000000 0.000000 0.000000 0.000000 -0.005183 0.000000
# 6 0.000000 0.000000 0.000000 0.000000 0.000000 0.289946
#
#
# Mechanical properties :
#
#
# Convention : Reuss Voigt Hill
#
# Bulk Modulus (GPa) = 23.21738 32.43548 27.82643
# Shear Modulus (GPa) = 12.62195 -19.12568 -3.25186
#
# Velocity S-wave (km/s) = 2.37103 -2.91865 -1.20348
# Velocity P-wave (km/s) = 4.22334 1.75745 3.23460
#
# Compressibility (1/GPa) = 0.04307118
#
# Stress axis : x y z
#
# Youngs Moduli (GPa) = 43.56667 108.93639 63.86340
#
# Poissons Ratio (x) = 0.13195 -0.18013
# Poissons Ratio (y) = 0.05277 0.25351
# Poissons Ratio (z) = -0.12288 0.43242
#
# Static dielectric constant tensor:
#      x y z
#    x 1.817150 0.000000 0.000000 
#    y 0.000000 1.887540 0.000000 
#    z 0.000000 0.000000 1.825470 
# 
# From -- ./inp_files/16634.got.cif
#   From: 2010.05.17/outbox.cif.g08.bks.cpg/sg38_9_cif.got.tgz:16634.got - 2010.06.03 18:07:57.
