data_PCOD9356424
_publ_section_title
;
Structure prediction by ZEFSAII (Michael W. Deem and Ramdas Pophale) SiO2 
 PCOD9356424
Probable space group: A M M 2
;
_chemical_formula_sum "Si O2"
_cell_formula_units_Z 64
_cell_length_a 8.257716
_cell_length_b 21.402436
_cell_length_c 20.244388
_cell_angle_alpha 90.000000
_cell_angle_beta 90.000000
_cell_angle_gamma 90.000000
_cell_volume 3577.896735
_symmetry_space_group_name_H-M "A M M 2"
_symmetry_group_IT_number 38
_symmetry_cell_setting 'orthorhombic'
loop_
_space_group_symop_operation_xyz
x,y,z
-x,-y,z
-x,y,z
x,-y,z
x,1/2+y,1/2+z
-x,1/2-y,1/2+z
-x,1/2+y,1/2+z
x,1/2-y,1/2+z
loop_
_atom_site_type_symbol
_atom_site_label
_atom_site_fract_x
_atom_site_fract_y
_atom_site_fract_z
Si Si1 0.308163 0.624852 0.730600
Si Si2 0.305348 0.068718 0.512128
Si Si3 0.307934 0.808283 0.587397
Si Si4 0.194116 0.881116 0.374099
Si Si5 0.194320 0.185926 0.010114
Si Si6 0.807586 0.232761 0.726062
Si Si7 0.196037 0.930640 0.095565
Si Si8 0.802607 0.235352 0.872674
O O1 0.500000 0.633770 0.730250
O O2 0.254612 0.599145 0.801856
O O3 0.226351 0.692909 0.720922
O O4 0.256009 0.582600 0.669469
O O5 0.500000 0.068163 0.518316
O O6 0.244851 0.127400 0.555178
O O7 0.262347 0.081416 0.435884
O O8 0.244239 0.000000 0.531870
O O9 0.500000 0.805054 0.576371
O O10 0.231775 0.748259 0.551480
O O11 0.273133 0.802082 0.665013
O O12 0.243815 0.808078 0.381924
O O13 0.000000 0.884046 0.375165
O O14 0.256429 0.125042 0.048374
O O15 0.000000 0.180124 0.006383
O O16 0.255210 0.196302 0.935502
O O17 0.749999 0.214497 0.799690
O O18 0.000000 0.223383 0.721771
O O19 0.000000 0.928119 0.096467
O O20 0.244954 0.000000 0.073978
O O21 0.000000 0.234430 0.872177
#
# Coordination Sequence:
#
# PCOD9356424 Si02
#       8
#     8   8   8   8   8   8   8   8
#     4  11  21  33  51  76 107 143 180 219 262 312
#     4  10  22  38  53  74 108 145 179 220 270 321
#     4  11  21  33  53  81 106 135 178 222 266 315
#     4  10  19  33  53  77 105 139 178 218 261 316
#     4  10  18  33  56  77 102 136 172 217 266 314
#     4  10  19  33  53  78 108 140 173 217 266 318
#     4  10  21  35  52  76 106 142 180 216 261 318
#     4   8  16  30  51  78 102 130 169 209 260 312
#
# _framework density 17.887605000000001
#
# number of rings (size 3 to 8) (size 9 to 14) (size 15 to 20)
#    0.000    2.000    2.500    3.000    0.000    1.500 
#    0.000    0.625    0.000    0.750    0.000    1.750 
#    0.000    0.000    0.000    0.000    0.000    0.000 
#
# Total GULP energy -178584.043404 kJ/mol
# GULP energy per Si atom -5580.751356 kJ/mol
# Density = 1.784689 g / cm^3
# Si number density = 17.887605 Si / 1000 Ang^3
#
#
#
# Elastic Constant Matrix: (Units=GPa)
#
#
# Indices 1 2 3 4 5 6 
#
# 1 3.8963 0.1289 -7.9997 0.0000 0.0000 0.0000
# 2 0.1289 107.3551 61.6334 0.0000 0.0000 0.0000
# 3 -7.9997 61.6334 113.1690 0.0000 0.0000 0.0000
# 4 0.0000 0.0000 0.0000 20.8588 0.0000 0.0000
# 5 0.0000 0.0000 0.0000 0.0000 17.8743 0.0000
# 6 0.0000 0.0000 0.0000 0.0000 0.0000 13.1621
#
#
#
# Elastic Compliance Matrix: (Units=1/GPa)
#
#
# Indices 1 2 3 4 5 6 
#
# 1 0.326997 -0.019878 0.033941 0.000000 0.000000 0.000000
# 2 -0.019878 0.014761 -0.009444 0.000000 0.000000 0.000000
# 3 0.033941 -0.009444 0.016379 0.000000 0.000000 0.000000
# 4 0.000000 0.000000 0.000000 0.047941 0.000000 0.000000
# 5 0.000000 0.000000 0.000000 0.000000 0.055946 0.000000
# 6 0.000000 0.000000 0.000000 0.000000 0.000000 0.075976
#
#
# Mechanical properties :
#
#
# Convention : Reuss Voigt Hill
#
# Bulk Modulus (GPa) = 2.72203 36.88284 19.80243
# Shear Modulus (GPa) = 7.67789 21.75621 14.71705
#
# Velocity S-wave (km/s) = 2.07403 3.49129 2.87148
# Velocity P-wave (km/s) = 2.69454 6.07587 4.69982
#
# Compressibility (1/GPa) = 0.36737323
#
# Stress axis : x y z
#
# Youngs Moduli (GPa) = 3.05813 67.74791 61.05437
#
# Poissons Ratio (x) = 1.34670 -2.07222
# Poissons Ratio (y) = 0.06079 0.57660
# Poissons Ratio (z) = -0.10379 0.63981
#
# Static dielectric constant tensor:
#      x y z
#    x 1.616130 0.000000 0.000000 
#    y 0.000000 1.614800 0.000000 
#    z 0.000000 0.000000 1.620640 
# 
# From -- ./inp_files/20052.got.cif
#   From: 2010.05.17/outbox.cif.g08.bks.cpg/sg38_11_cif.got.tgz:20052.got - 2010.06.03 18:07:57.
