data_PCOD9356609
_publ_section_title
;
Structure prediction by ZEFSAII (Michael W. Deem and Ramdas Pophale) SiO2 
 PCOD9356609
Probable space group: A M M 2
;
_chemical_formula_sum "Si O2"
_cell_formula_units_Z 64
_cell_length_a 8.702826
_cell_length_b 14.209527
_cell_length_c 30.421305
_cell_angle_alpha 90.000000
_cell_angle_beta 90.000000
_cell_angle_gamma 90.000000
_cell_volume 3761.991088
_symmetry_space_group_name_H-M "A M M 2"
_symmetry_group_IT_number 38
_symmetry_cell_setting 'orthorhombic'
loop_
_space_group_symop_operation_xyz
x,y,z
-x,-y,z
-x,y,z
x,-y,z
x,1/2+y,1/2+z
-x,1/2-y,1/2+z
-x,1/2+y,1/2+z
x,1/2-y,1/2+z
loop_
_atom_site_type_symbol
_atom_site_label
_atom_site_fract_x
_atom_site_fract_y
_atom_site_fract_z
Si Si1 0.681980 0.295041 0.600930
Si Si2 0.185226 0.609185 0.336082
Si Si3 0.314763 0.609190 0.693391
Si Si4 0.177909 0.749486 0.260868
Si Si5 0.674211 0.393920 0.201021
Si Si6 0.324581 0.886020 0.930620
Si Si7 0.181529 0.602066 0.105854
Si Si8 0.826760 0.612119 0.520618
O O1 0.500000 0.279661 0.603785
O O2 0.734205 0.333894 0.648991
O O3 0.764847 0.199368 0.585274
O O4 0.722712 0.367741 0.562756
O O5 0.237152 0.500000 0.326676
O O6 0.241020 0.692109 0.303317
O O7 0.235438 0.633405 0.385528
O O8 0.000000 0.607603 0.332699
O O9 0.500000 0.609577 0.693087
O O10 0.263820 0.500000 0.691171
O O11 0.258605 0.661564 0.737644
O O12 0.200523 0.669215 0.224185
O O13 0.000000 0.772298 0.268385
O O14 0.500000 0.356458 0.206638
O O15 0.677921 0.500000 0.218531
O O16 0.717970 0.398493 0.150226
O O17 0.500000 0.852647 0.928036
O O18 0.328891 0.000000 0.933539
O O19 0.243723 0.850697 0.974966
O O20 0.207524 0.500000 0.083650
O O21 0.000000 0.607131 0.115984
O O22 0.836140 0.500000 0.515744
O O23 0.000000 0.647984 0.527655
#
# Coordination Sequence:
#
# PCOD9356609 Si02
#       8
#     8   8   8   8   8   8   8   8
#     4  11  21  34  53  75 100 133 174 214 254 301
#     4   9  18  32  49  72 104 137 166 200 247 303
#     4  10  22  38  52  68  96 134 173 215 260 300
#     4  11  21  32  49  72  98 131 170 209 250 298
#     4  10  19  30  45  66  94 128 164 200 240 288
#     4   9  17  30  49  74 103 133 166 205 250 300
#     4  10  20  33  49  70  97 129 165 205 249 296
#     4  10  20  33  51  75 104 138 173 210 253 302
#
# _framework density 17.012267000000001
#
# number of rings (size 3 to 8) (size 9 to 14) (size 15 to 20)
#    0.000    2.000    1.250    3.000    0.000    6.500 
#    0.000    1.250    0.000    0.000    0.000    0.875 
#    0.000    3.000    0.000    0.000    0.000    0.000 
#
# Total GULP energy -178182.156852 kJ/mol
# GULP energy per Si atom -5568.192402 kJ/mol
# Density = 1.697355 g / cm^3
# Si number density = 17.012267 Si / 1000 Ang^3
#
#
#
# Elastic Constant Matrix: (Units=GPa)
#
#
# Indices 1 2 3 4 5 6 
#
# 1 35.4161 21.9778 14.4945 0.0000 0.0000 0.0000
# 2 21.9778 74.3238 22.5299 0.0000 0.0000 0.0000
# 3 14.4945 22.5299 78.2797 0.0000 0.0000 0.0000
# 4 0.0000 0.0000 0.0000 14.7429 0.0000 0.0000
# 5 0.0000 0.0000 0.0000 0.0000 19.7665 0.0000
# 6 0.0000 0.0000 0.0000 0.0000 0.0000 20.0948
#
#
#
# Elastic Compliance Matrix: (Units=1/GPa)
#
#
# Indices 1 2 3 4 5 6 
#
# 1 0.035640 -0.009355 -0.003907 0.000000 0.000000 0.000000
# 2 -0.009355 0.017196 -0.003217 0.000000 0.000000 0.000000
# 3 -0.003907 -0.003217 0.014424 0.000000 0.000000 0.000000
# 4 0.000000 0.000000 0.000000 0.067829 0.000000 0.000000
# 5 0.000000 0.000000 0.000000 0.000000 0.050591 0.000000
# 6 0.000000 0.000000 0.000000 0.000000 0.000000 0.049764
#
#
# Mechanical properties :
#
#
# Convention : Reuss Voigt Hill
#
# Bulk Modulus (GPa) = 29.15207 34.00265 31.57736
# Shear Modulus (GPa) = 17.86771 19.52203 18.69487
#
# Velocity S-wave (km/s) = 3.24432 3.39119 3.31857
# Velocity P-wave (km/s) = 5.58635 5.94677 5.76938
#
# Compressibility (1/GPa) = 0.03430288
#
# Stress axis : x y z
#
# Youngs Moduli (GPa) = 28.05863 58.15300 69.32875
#
# Poissons Ratio (x) = 0.54399 0.27085
# Poissons Ratio (y) = 0.26247 0.22304
# Poissons Ratio (z) = 0.10962 0.18709
#
# Static dielectric constant tensor:
#      x y z
#    x 1.605630 0.000000 0.000000 
#    y 0.000000 1.628450 0.000000 
#    z 0.000000 0.000000 1.569260 
# 
# From -- ./inp_files/24725.got.cif
#   From: 2010.05.17/outbox.cif.g08.bks.cpg/sg38_13_cif.got.tgz:24725.got - 2010.06.03 18:07:57.
