data_PCOD9356111
_publ_section_title
;
Structure prediction by ZEFSAII (Michael W. Deem and Ramdas Pophale) SiO2 
 PCOD9356111
Probable space group: A M M 2
;
_chemical_formula_sum "Si O2"
_cell_formula_units_Z 64
_cell_length_a 8.183374
_cell_length_b 15.036543
_cell_length_c 28.949686
_cell_angle_alpha 90.000000
_cell_angle_beta 90.000000
_cell_angle_gamma 90.000000
_cell_volume 3562.248876
_symmetry_space_group_name_H-M "A M M 2"
_symmetry_group_IT_number 38
_symmetry_cell_setting 'orthorhombic'
loop_
_space_group_symop_operation_xyz
x,y,z
-x,-y,z
-x,y,z
x,-y,z
x,1/2+y,1/2+z
-x,1/2-y,1/2+z
-x,1/2+y,1/2+z
x,1/2-y,1/2+z
loop_
_atom_site_type_symbol
_atom_site_label
_atom_site_fract_x
_atom_site_fract_y
_atom_site_fract_z
Si Si1 0.197063 0.600274 0.031930
Si Si2 0.194511 0.601257 0.390258
Si Si3 0.805229 0.775931 0.076120
Si Si4 0.800376 0.100756 0.157786
Si Si5 0.197247 0.100767 0.263840
Si Si6 0.305149 0.726872 0.845239
Si Si7 0.694188 0.897241 0.992736
Si Si8 0.302538 0.898021 0.428160
O O1 0.258237 0.500000 0.040721
O O2 0.260067 0.677413 0.065520
O O3 0.000000 0.598213 0.034967
O O4 0.241652 0.624535 0.979290
O O5 0.250643 0.500000 0.380415
O O6 0.240633 0.673666 0.352156
O O7 0.268117 0.628763 0.439923
O O8 0.000000 0.599749 0.395332
O O9 0.739452 0.828338 0.120577
O O10 0.775731 0.835189 0.030671
O O11 0.000000 0.767861 0.082704
O O12 0.751253 0.117286 0.210787
O O13 0.000000 0.101717 0.157117
O O14 0.750865 0.000000 0.145027
O O15 0.257544 0.174696 0.299116
O O16 0.000000 0.100646 0.264599
O O17 0.251471 0.000000 0.276751
O O18 0.500000 0.730089 0.848104
O O19 0.242703 0.667994 0.888580
O O20 0.500000 0.893629 0.999540
O O21 0.749330 0.000000 0.998109
O O22 0.500000 0.895504 0.428776
O O23 0.252447 0.000000 0.418172
#
# Coordination Sequence:
#
# PCOD9356111 Si02
#       8
#     8   8   8   8   8   8   8   8
#     4   9  18  30  43  64  94 124 156 195 235 273
#     4  10  21  36  52  70  95 129 168 205 238 281
#     4  10  18  29  49  71  92 126 168 205 242 287
#     4   8  15  29  49  72  95 120 156 202 247 289
#     4   9  18  33  52  73  98 128 161 199 244 295
#     4  11  21  32  50  74  99 127 159 199 247 297
#     4  10  20  32  46  69 102 132 157 193 243 294
#     4   9  18  31  45  64  93 127 159 189 226 277
#
# _framework density 17.966179
#
# number of rings (size 3 to 8) (size 9 to 14) (size 15 to 20)
#    0.000    2.500    0.000    3.375    0.000    6.250 
#    0.000    1.875    0.000    1.500    0.000    3.500 
#    0.000    0.000    0.000    0.000    0.000    0.000 
#
# Total GULP energy -178538.645696 kJ/mol
# GULP energy per Si atom -5579.332678 kJ/mol
# Density = 1.792529 g / cm^3
# Si number density = 17.966179 Si / 1000 Ang^3
#
#
#
# Elastic Constant Matrix: (Units=GPa)
#
#
# Indices 1 2 3 4 5 6 
#
# 1 8.5114 4.8930 0.7242 0.0000 0.0000 0.0000
# 2 4.8930 112.2796 82.3894 0.0000 0.0000 0.0000
# 3 0.7242 82.3894 90.5055 0.0000 0.0000 0.0000
# 4 0.0000 0.0000 0.0000 32.0511 0.0000 0.0000
# 5 0.0000 0.0000 0.0000 0.0000 165.5364 0.0000
# 6 0.0000 0.0000 0.0000 0.0000 0.0000 16.8314
#
#
#
# Elastic Compliance Matrix: (Units=1/GPa)
#
#
# Indices 1 2 3 4 5 6 
#
# 1 0.124614 -0.014152 0.011886 0.000000 0.000000 0.000000
# 2 -0.014152 0.028432 -0.025769 0.000000 0.000000 0.000000
# 3 0.011886 -0.025769 0.034412 0.000000 0.000000 0.000000
# 4 0.000000 0.000000 0.000000 0.031200 0.000000 0.000000
# 5 0.000000 0.000000 0.000000 0.000000 0.006041 0.000000
# 6 0.000000 0.000000 0.000000 0.000000 0.000000 0.059413
#
#
# Mechanical properties :
#
#
# Convention : Reuss Voigt Hill
#
# Bulk Modulus (GPa) = 7.61106 43.03441 25.32274
# Shear Modulus (GPa) = 13.02150 51.10312 32.06231
#
# Velocity S-wave (km/s) = 2.69509 5.33908 4.22903
# Velocity P-wave (km/s) = 3.73232 7.87482 6.16210
#
# Compressibility (1/GPa) = 0.13138771
#
# Stress axis : x y z
#
# Youngs Moduli (GPa) = 8.02476 35.17118 29.05924
#
# Poissons Ratio (x) = 0.49776 -0.34540
# Poissons Ratio (y) = 0.11357 0.74884
# Poissons Ratio (z) = -0.09538 0.90634
#
# Static dielectric constant tensor:
#      x y z
#    x 1.620940 0.000000 0.000000 
#    y 0.000000 1.645420 0.000000 
#    z 0.000000 0.000000 1.593170 
# 
# From -- ./inp_files/24724.got.cif
#   From: 2010.05.17/outbox.cif.g08.bks.cpg/sg38_13_cif.got.tgz:24724.got - 2010.06.03 18:07:57.
