data_PCOD9356818
_publ_section_title
;
Structure prediction by ZEFSAII (Michael W. Deem and Ramdas Pophale) SiO2 
 PCOD9356818
Probable space group: A M M 2
;
_chemical_formula_sum "Si O2"
_cell_formula_units_Z 64
_cell_length_a 21.548088
_cell_length_b 8.414833
_cell_length_c 19.181567
_cell_angle_alpha 90.000000
_cell_angle_beta 90.000000
_cell_angle_gamma 90.000000
_cell_volume 3478.070053
_symmetry_space_group_name_H-M "A M M 2"
_symmetry_group_IT_number 38
_symmetry_cell_setting 'orthorhombic'
loop_
_space_group_symop_operation_xyz
x,y,z
-x,-y,z
-x,y,z
x,-y,z
x,1/2+y,1/2+z
-x,1/2-y,1/2+z
-x,1/2+y,1/2+z
x,1/2-y,1/2+z
loop_
_atom_site_type_symbol
_atom_site_label
_atom_site_fract_x
_atom_site_fract_y
_atom_site_fract_z
Si Si1 0.933120 0.691895 0.622810
Si Si2 0.202040 0.806654 0.470236
Si Si3 0.317091 0.310381 0.220775
Si Si4 0.570746 0.691842 0.124277
Si Si5 0.066505 0.690367 0.963633
Si Si6 0.681748 0.689610 0.877438
Si Si7 0.203298 0.190335 0.129742
Si Si8 0.570783 0.810008 0.969925
O O1 0.931959 0.500000 0.615092
O O2 0.933569 0.767720 0.545815
O O3 0.866585 0.736623 0.654620
O O4 0.000000 0.733568 0.656233
O O5 0.134673 0.754474 0.440024
O O6 0.258872 0.754016 0.422227
O O7 0.208920 0.742699 0.548931
O O8 0.202071 0.000000 0.473902
O O9 0.321450 0.500000 0.226308
O O10 0.378410 0.252061 0.179556
O O11 0.313299 0.240114 0.297648
O O12 0.257008 0.266325 0.175539
O O13 0.500000 0.746446 0.138183
O O14 0.570539 0.500000 0.125272
O O15 0.588149 0.745415 0.046383
O O16 0.065702 0.500000 0.955269
O O17 0.000000 0.752063 0.935310
O O18 0.680897 0.500000 0.881687
O O19 0.619475 0.753716 0.912989
O O20 0.208765 0.000000 0.133571
O O21 0.500000 0.756441 0.955409
O O22 0.571063 0.000000 0.972636
#
# Coordination Sequence:
#
# PCOD9356818 Si02
#       8
#     8   8   8   8   8   8   8   8
#     4   8  14  25  42  67  98 128 160 202 251 299
#     4   9  18  32  50  74 103 133 167 209 256 304
#     4  11  23  37  53  74 103 138 173 213 259 304
#     4   9  19  37  59  80 102 130 165 205 250 300
#     4   8  13  23  42  68  96 125 159 201 249 300
#     4  11  23  37  53  74 103 139 176 214 254 299
#     4  10  19  31  51  77 103 133 170 211 254 305
#     4  10  21  37  58  83 108 133 164 204 249 300
#
# _framework density 18.401009999999999
#
# number of rings (size 3 to 8) (size 9 to 14) (size 15 to 20)
#    0.000    2.500    0.000    2.250    0.000    6.750 
#    0.000    1.250    0.000    0.750    0.000    3.500 
#    0.000    0.000    0.000    0.000    0.000    0.000 
#
# Total GULP energy -178339.812666 kJ/mol
# GULP energy per Si atom -5573.119146 kJ/mol
# Density = 1.835913 g / cm^3
# Si number density = 18.401010 Si / 1000 Ang^3
#
#
#
# Elastic Constant Matrix: (Units=GPa)
#
#
# Indices 1 2 3 4 5 6 
#
# 1 116.9678 5.9338 60.2561 0.0000 0.0000 0.0000
# 2 5.9338 9.8517 1.8092 0.0000 0.0000 0.0000
# 3 60.2561 1.8092 70.6811 0.0000 0.0000 0.0000
# 4 0.0000 0.0000 0.0000 32.2296 0.0000 0.0000
# 5 0.0000 0.0000 0.0000 0.0000 -3.8697 0.0000
# 6 0.0000 0.0000 0.0000 0.0000 0.0000 13.4966
#
#
#
# Elastic Compliance Matrix: (Units=1/GPa)
#
#
# Indices 1 2 3 4 5 6 
#
# 1 0.015715 -0.007038 -0.013217 0.000000 0.000000 0.000000
# 2 -0.007038 0.105137 0.003309 0.000000 0.000000 0.000000
# 3 -0.013217 0.003309 0.025331 0.000000 0.000000 0.000000
# 4 0.000000 0.000000 0.000000 0.031027 0.000000 0.000000
# 5 0.000000 0.000000 0.000000 0.000000 -0.258417 0.000000
# 6 0.000000 0.000000 0.000000 0.000000 0.000000 0.074093
#
#
# Mechanical properties :
#
#
# Convention : Reuss Voigt Hill
#
# Bulk Modulus (GPa) = 8.90551 37.05542 22.98046
# Shear Modulus (GPa) = 77.86984 17.00471 47.43727
#
# Velocity S-wave (km/s) = 6.51230 3.04323 5.08288
# Velocity P-wave (km/s) = 7.83562 5.70349 6.85298
#
# Compressibility (1/GPa) = 0.11229009
#
# Stress axis : x y z
#
# Youngs Moduli (GPa) = 63.63222 9.51144 39.47707
#
# Poissons Ratio (x) = 0.06694 0.52178
# Poissons Ratio (y) = 0.44786 -0.13063
# Poissons Ratio (z) = 0.84104 -0.03147
#
# Static dielectric constant tensor:
#      x y z
#    x 1.700910 0.000000 0.000000 
#    y 0.000000 1.629520 0.000000 
#    z 0.000000 0.000000 1.577010 
# 
# From -- ./inp_files/18863.got.cif
#   From: 2010.05.17/outbox.cif.g08.bks.cpg/sg38_10_cif.got.tgz:18863.got - 2010.06.03 18:07:57.
