data_PCOD9356087
_publ_section_title
;
Structure prediction by ZEFSAII (Michael W. Deem and Ramdas Pophale) SiO2 
 PCOD9356087
Probable space group: A M M 2
;
_chemical_formula_sum "Si O2"
_cell_formula_units_Z 64
_cell_length_a 15.402513
_cell_length_b 7.400256
_cell_length_c 25.323118
_cell_angle_alpha 90.000000
_cell_angle_beta 90.000000
_cell_angle_gamma 90.000000
_cell_volume 2886.393291
_symmetry_space_group_name_H-M "A M M 2"
_symmetry_group_IT_number 38
_symmetry_cell_setting 'orthorhombic'
loop_
_space_group_symop_operation_xyz
x,y,z
-x,-y,z
-x,y,z
x,-y,z
x,1/2+y,1/2+z
-x,1/2-y,1/2+z
-x,1/2+y,1/2+z
x,1/2-y,1/2+z
loop_
_atom_site_type_symbol
_atom_site_label
_atom_site_fract_x
_atom_site_fract_y
_atom_site_fract_z
Si Si1 0.838644 0.204188 0.522460
Si Si2 0.595134 0.786708 0.681819
Si Si3 0.779030 0.779202 0.716930
Si Si4 0.221292 0.205845 0.908998
Si Si5 0.651480 0.783278 0.062621
Si Si6 0.906779 0.220413 0.627346
Si Si7 0.899464 0.278918 0.315230
Si Si8 0.405738 0.779690 0.947024
O O1 0.822094 0.296477 0.466845
O O2 0.746441 0.202871 0.552936
O O3 0.899906 0.284278 0.567182
O O4 0.866028 0.000000 0.510267
O O5 0.500000 0.710046 0.694031
O O6 0.679641 0.716018 0.712717
O O7 0.612260 0.768728 0.618834
O O8 0.591933 0.000000 0.693139
O O9 0.828968 0.719352 0.664208
O O10 0.838939 0.725501 0.765951
O O11 0.777400 0.000000 0.716935
O O12 0.153310 0.282663 0.867180
O O13 0.317859 0.285838 0.918233
O O14 0.236593 0.000000 0.891311
O O15 0.659190 0.000000 0.062188
O O16 0.600629 0.731456 0.009207
O O17 0.000000 0.268541 0.650812
O O18 0.902683 0.000000 0.625186
O O19 0.903200 0.500000 0.315383
O O20 0.000000 0.219098 0.312768
O O21 0.500000 0.722726 0.926211
O O22 0.402942 0.000000 0.945252
#
# Coordination Sequence:
#
# PCOD9356087 Si02
#       8
#     8   8   8   8   8   8   8   8
#     4  10  18  30  48  72 103 134 163 202 256 306
#     4  10  19  30  46  72 105 136 166 206 255 303
#     4   9  16  29  47  69  98 130 166 210 254 298
#     4   9  18  31  47  71  98 126 164 208 250 297
#     4  10  18  29  47  70  99 135 174 208 242 291
#     4   9  16  26  44  70  96 123 160 204 249 300
#     4   9  17  30  50  73  96 127 170 216 259 302
#     4   8  14  25  41  62  90 123 156 190 229 278
#
# _framework density 22.173002
#
# number of rings (size 3 to 8) (size 9 to 14) (size 15 to 20)
#    0.000    2.750    1.250    2.250    0.000    2.750 
#    0.000    0.625    0.000    9.000    0.000    0.000 
#    0.000    0.000    0.000    0.000    0.000    0.000 
#
# Total GULP energy -178476.503378 kJ/mol
# GULP energy per Si atom -5577.390731 kJ/mol
# Density = 2.212253 g / cm^3
# Si number density = 22.173002 Si / 1000 Ang^3
#
#
#
# Elastic Constant Matrix: (Units=GPa)
#
#
# Indices 1 2 3 4 5 6 
#
# 1 211.5088 6.9000 95.4113 0.0000 0.0000 0.0000
# 2 6.9000 73.9614 -2.6291 0.0000 0.0000 0.0000
# 3 95.4113 -2.6291 110.7483 0.0000 0.0000 0.0000
# 4 0.0000 0.0000 0.0000 8.4336 0.0000 0.0000
# 5 0.0000 0.0000 0.0000 0.0000 22.1795 0.0000
# 6 0.0000 0.0000 0.0000 0.0000 0.0000 -503.3666
#
#
#
# Elastic Compliance Matrix: (Units=1/GPa)
#
#
# Indices 1 2 3 4 5 6 
#
# 1 0.007802 -0.000968 -0.006744 0.000000 0.000000 0.000000
# 2 -0.000968 0.013652 0.001158 0.000000 0.000000 0.000000
# 3 -0.006744 0.001158 0.014867 0.000000 0.000000 0.000000
# 4 0.000000 0.000000 0.000000 0.118574 0.000000 0.000000
# 5 0.000000 0.000000 0.000000 0.000000 0.045087 0.000000
# 6 0.000000 0.000000 0.000000 0.000000 0.000000 -0.001987
#
#
# Mechanical properties :
#
#
# Convention : Reuss Voigt Hill
#
# Bulk Modulus (GPa) = 43.08004 66.17590 54.62797
# Shear Modulus (GPa) = 22.84764 -74.78161 -25.96699
#
# Velocity S-wave (km/s) = 3.21351 -5.81375 -3.42586
# Velocity P-wave (km/s) = 5.76542 3.89309 3.00699
#
# Compressibility (1/GPa) = 0.02321260
#
# Stress axis : x y z
#
# Youngs Moduli (GPa) = 128.17402 73.24939 67.26139
#
# Poissons Ratio (x) = 0.07088 0.45364
# Poissons Ratio (y) = 0.12402 -0.07787
# Poissons Ratio (z) = 0.86446 -0.08480
#
# Static dielectric constant tensor:
#      x y z
#    x 1.852690 0.000000 0.000000 
#    y 0.000000 1.867680 0.000000 
#    z 0.000000 0.000000 1.779870 
# 
# From -- ./inp_files/25126.got.cif
#   From: 2010.05.17/outbox.cif.g08.bks.cpg/sg38_13_cif.got.tgz:25126.got - 2010.06.03 18:07:57.
