data_PCOD9356824
_publ_section_title
;
Structure prediction by ZEFSAII (Michael W. Deem and Ramdas Pophale) SiO2 
 PCOD9356824
Probable space group: A M M 2
;
_chemical_formula_sum "Si O2"
_cell_formula_units_Z 48
_cell_length_a 17.420284
_cell_length_b 7.989048
_cell_length_c 16.291036
_cell_angle_alpha 90.000000
_cell_angle_beta 90.000000
_cell_angle_gamma 90.000000
_cell_volume 2267.247673
_symmetry_space_group_name_H-M "A M M 2"
_symmetry_group_IT_number 38
_symmetry_cell_setting 'orthorhombic'
loop_
_space_group_symop_operation_xyz
x,y,z
-x,-y,z
-x,y,z
x,-y,z
x,1/2+y,1/2+z
-x,1/2-y,1/2+z
-x,1/2+y,1/2+z
x,1/2-y,1/2+z
loop_
_atom_site_type_symbol
_atom_site_label
_atom_site_fract_x
_atom_site_fract_y
_atom_site_fract_z
Si Si1 0.335688 0.796061 0.320990
Si Si2 0.912607 0.301783 0.235796
Si Si3 0.335092 0.204133 0.133643
Si Si4 0.174747 0.302251 0.572269
Si Si5 0.500000 0.203512 0.387404
Si Si6 0.819023 0.197402 0.395859
Si Si7 0.500000 0.801186 0.075502
O O1 0.318273 0.749727 0.227473
O O2 0.421126 0.741560 0.344653
O O3 0.267075 0.734269 0.378689
O O4 0.335329 0.000000 0.324345
O O5 0.913989 0.500000 0.249533
O O6 0.873542 0.270773 0.147584
O O7 0.866334 0.226493 0.312522
O O8 0.000000 0.237696 0.234526
O O9 0.263004 0.261205 0.079704
O O10 0.419490 0.267249 0.109645
O O11 0.338046 0.000000 0.128663
O O12 0.175969 0.500000 0.586512
O O13 0.146966 0.270048 0.479850
O O14 0.500000 0.271175 0.479029
O O15 0.500000 0.000000 0.388465
O O16 0.813424 0.000000 0.409059
O O17 0.500000 0.000000 0.094119
#
# Coordination Sequence:
#
# PCOD9356824 Si02
#       7
#     8   8   8   8   4   8   4
#     4   9  17  32  55  83 113 154 203 246 291 347
#     4  11  25  45  67  92 121 154 198 251 307 367
#     4   9  17  32  55  83 113 154 203 246 291 347
#     4  11  22  39  64  93 126 162 203 248 300 362
#     4  10  19  31  51  77 113 154 198 246 290 342
#     4  11  22  39  64  93 126 162 203 248 300 362
#     4  10  19  31  51  77 113 154 198 246 290 342
#
# _framework density 21.171043999999998
#
# number of rings (size 3 to 8) (size 9 to 14) (size 15 to 20)
#    0.000    1.833    1.667    3.000    0.000    4.000 
#    0.000    1.667    0.000    1.000    0.000    0.000 
#    0.000    0.000    0.000    0.000    0.000    0.000 
#
# Total GULP energy -134035.611813 kJ/mol
# GULP energy per Si atom -5584.817159 kJ/mol
# Density = 2.112286 g / cm^3
# Si number density = 21.171044 Si / 1000 Ang^3
#
#
#
# Elastic Constant Matrix: (Units=GPa)
#
#
# Indices 1 2 3 4 5 6 
#
# 1 108.3218 -1.4671 27.6623 0.0000 0.0000 0.0000
# 2 -1.4671 18.3588 -19.7392 0.0000 0.0000 0.0000
# 3 27.6623 -19.7392 100.9937 0.0000 0.0000 0.0000
# 4 0.0000 0.0000 0.0000 30.5994 0.0000 0.0000
# 5 0.0000 0.0000 0.0000 0.0000 11.0881 0.0000
# 6 0.0000 0.0000 0.0000 0.0000 0.0000 -27.4544
#
#
#
# Elastic Compliance Matrix: (Units=1/GPa)
#
#
# Indices 1 2 3 4 5 6 
#
# 1 0.010033 -0.002726 -0.003281 0.000000 0.000000 0.000000
# 2 -0.002726 0.069702 0.014370 0.000000 0.000000 0.000000
# 3 -0.003281 0.014370 0.013609 0.000000 0.000000 0.000000
# 4 0.000000 0.000000 0.000000 0.032680 0.000000 0.000000
# 5 0.000000 0.000000 0.000000 0.000000 0.090187 0.000000
# 6 0.000000 0.000000 0.000000 0.000000 0.000000 -0.036424
#
#
# Mechanical properties :
#
#
# Convention : Reuss Voigt Hill
#
# Bulk Modulus (GPa) = 9.08508 26.73183 17.90846
# Shear Modulus (GPa) = 25.03127 17.59449 21.31288
#
# Velocity S-wave (km/s) = 3.44224 2.88595 3.17630
# Velocity P-wave (km/s) = 4.48322 4.87431 4.68285
#
# Compressibility (1/GPa) = 0.11007054
#
# Stress axis : x y z
#
# Youngs Moduli (GPa) = 99.67481 14.34677 73.48208
#
# Poissons Ratio (x) = 0.03910 0.24107
# Poissons Ratio (y) = 0.27167 -1.05592
# Poissons Ratio (z) = 0.32700 -0.20616
#
# Static dielectric constant tensor:
#      x y z
#    x 1.798610 0.000000 0.000000 
#    y 0.000000 1.750610 0.000000 
#    z 0.000000 0.000000 1.732020 
# 
# From -- ./inp_files/6251.got.cif
#   From: 2010.05.17/outbox.cif.g08.bks.cpg/sg38_4_cif.got.tgz:6251.got - 2010.06.03 18:07:57.
