data_PCOD9356188
_publ_section_title
;
Structure prediction by ZEFSAII (Michael W. Deem and Ramdas Pophale) SiO2 
 PCOD9356188
Probable space group: A M M 2
;
_chemical_formula_sum "Si O2"
_cell_formula_units_Z 64
_cell_length_a 20.079467
_cell_length_b 7.458089
_cell_length_c 21.130032
_cell_angle_alpha 90.000000
_cell_angle_beta 90.000000
_cell_angle_gamma 90.000000
_cell_volume 3164.316362
_symmetry_space_group_name_H-M "A M M 2"
_symmetry_group_IT_number 38
_symmetry_cell_setting 'orthorhombic'
loop_
_space_group_symop_operation_xyz
x,y,z
-x,-y,z
-x,y,z
x,-y,z
x,1/2+y,1/2+z
-x,1/2-y,1/2+z
-x,1/2+y,1/2+z
x,1/2-y,1/2+z
loop_
_atom_site_type_symbol
_atom_site_label
_atom_site_fract_x
_atom_site_fract_y
_atom_site_fract_z
Si Si1 0.783819 0.719804 0.788640
Si Si2 0.426093 0.281664 0.606467
Si Si3 0.716928 0.707698 0.918422
Si Si4 0.073640 0.711338 0.824209
Si Si5 0.425977 0.283674 0.459443
Si Si6 0.712548 0.719873 0.660345
Si Si7 0.203633 0.705745 0.541493
Si Si8 0.925455 0.217193 0.972746
O O1 0.783971 0.500000 0.788982
O O2 0.748533 0.778236 0.853678
O O3 0.860583 0.781533 0.789870
O O4 0.743589 0.775916 0.726797
O O5 0.500000 0.223820 0.626900
O O6 0.426188 0.500000 0.606693
O O7 0.416907 0.228299 0.532921
O O8 0.363201 0.222327 0.647229
O O9 0.736095 0.500000 0.923443
O O10 0.637237 0.721502 0.919912
O O11 0.746998 0.795460 0.981298
O O12 0.070515 0.500000 0.810084
O O13 0.085257 0.729663 0.899677
O O14 0.000000 0.787675 0.810553
O O15 0.500000 0.225171 0.439064
O O16 0.425307 0.500000 0.458668
O O17 0.711878 0.500000 0.659228
O O18 0.758300 0.782714 0.601811
O O19 0.188686 0.500000 0.558793
O O20 0.134197 0.785139 0.516640
O O21 0.000000 0.274686 0.991086
O O22 0.923872 0.000000 0.973583
#
# Coordination Sequence:
#
# PCOD9356188 Si02
#       8
#     8   8   8   8   8   8   8   8
#     4   9  18  30  43  67  99 128 157 195 240 282
#     4   8  13  23  43  69  90 112 151 195 229 270
#     4  11  20  30  47  72 102 127 153 196 243 285
#     4   9  16  28  46  66  91 125 162 193 230 287
#     4   9  17  31  51  74  97 123 161 202 236 280
#     4   9  16  28  46  67  94 124 157 198 239 280
#     4  10  18  30  50  71  92 124 163 199 240 286
#     4   9  17  28  44  70  98 120 152 200 246 283
#
# _framework density 20.225539000000001
#
# number of rings (size 3 to 8) (size 9 to 14) (size 15 to 20)
#    0.000    2.750    2.500    1.125    0.000    0.250 
#    0.000    1.250    0.000    8.250    0.000    0.000 
#    0.000    4.000    0.000    0.000    0.000    0.000 
#
# Total GULP energy -178506.778484 kJ/mol
# GULP energy per Si atom -5578.336828 kJ/mol
# Density = 2.017950 g / cm^3
# Si number density = 20.225539 Si / 1000 Ang^3
#
#
#
# Elastic Constant Matrix: (Units=GPa)
#
#
# Indices 1 2 3 4 5 6 
#
# 1 189.6813 -0.9882 66.6962 0.0000 0.0000 0.0000
# 2 -0.9882 59.9582 -1.8335 0.0000 0.0000 0.0000
# 3 66.6962 -1.8335 90.1568 0.0000 0.0000 0.0000
# 4 0.0000 0.0000 0.0000 -1.7251 0.0000 0.0000
# 5 0.0000 0.0000 0.0000 0.0000 33.1521 0.0000
# 6 0.0000 0.0000 0.0000 0.0000 0.0000 6.2305
#
#
#
# Elastic Compliance Matrix: (Units=1/GPa)
#
#
# Indices 1 2 3 4 5 6 
#
# 1 0.007126 -0.000044 -0.005272 0.000000 0.000000 0.000000
# 2 -0.000044 0.016689 0.000372 0.000000 0.000000 0.000000
# 3 -0.005272 0.000372 0.015000 0.000000 0.000000 0.000000
# 4 0.000000 0.000000 0.000000 -0.579688 0.000000 0.000000
# 5 0.000000 0.000000 0.000000 0.000000 0.030164 0.000000
# 6 0.000000 0.000000 0.000000 0.000000 0.000000 0.160501
#
#
# Mechanical properties :
#
#
# Convention : Reuss Voigt Hill
#
# Bulk Modulus (GPa) = 34.57138 51.94948 43.26043
# Shear Modulus (GPa) = -15.12045 25.92629 5.40292
#
# Velocity S-wave (km/s) = -2.73718 3.58419 1.63620
# Velocity P-wave (km/s) = 2.67217 6.54747 5.00050
#
# Compressibility (1/GPa) = 0.02892566
#
# Stress axis : x y z
#
# Youngs Moduli (GPa) = 140.33847 59.92000 66.66810
#
# Poissons Ratio (x) = 0.00262 0.35149
# Poissons Ratio (y) = 0.00614 -0.02479
# Poissons Ratio (z) = 0.73990 -0.02228
#
# Static dielectric constant tensor:
#      x y z
#    x 1.744220 0.000000 0.000000 
#    y 0.000000 1.893250 0.000000 
#    z 0.000000 0.000000 1.660330 
# 
# From -- ./inp_files/21545.got.cif
#   From: 2010.05.17/outbox.cif.g08.bks.cpg/sg38_11_cif.got.tgz:21545.got - 2010.06.03 18:07:57.
