data_PCOD9356530
_publ_section_title
;
Structure prediction by ZEFSAII (Michael W. Deem and Ramdas Pophale) SiO2 
 PCOD9356530
Probable space group: A M M 2
;
_chemical_formula_sum "Si O2"
_cell_formula_units_Z 64
_cell_length_a 9.039399
_cell_length_b 18.764066
_cell_length_c 27.282610
_cell_angle_alpha 90.000000
_cell_angle_beta 90.000000
_cell_angle_gamma 90.000000
_cell_volume 4627.563888
_symmetry_space_group_name_H-M "A M M 2"
_symmetry_group_IT_number 38
_symmetry_cell_setting 'orthorhombic'
loop_
_space_group_symop_operation_xyz
x,y,z
-x,-y,z
-x,y,z
x,-y,z
x,1/2+y,1/2+z
-x,1/2-y,1/2+z
-x,1/2+y,1/2+z
x,1/2-y,1/2+z
loop_
_atom_site_type_symbol
_atom_site_label
_atom_site_fract_x
_atom_site_fract_y
_atom_site_fract_z
Si Si1 0.329978 0.297098 0.835210
Si Si2 0.820008 0.918537 0.580110
Si Si3 0.822388 0.418672 0.889938
Si Si4 0.823288 0.415314 0.191929
Si Si5 0.176152 0.416185 0.376908
Si Si6 0.178579 0.328886 0.986920
Si Si7 0.670750 0.297199 0.435149
Si Si8 0.678169 0.158659 0.783333
O O1 0.500000 0.316540 0.825585
O O2 0.238166 0.367224 0.847533
O O3 0.326455 0.249720 0.885018
O O4 0.278113 0.240916 0.794242
O O5 0.778368 0.899564 0.635763
O O6 0.772745 0.864619 0.537791
O O7 0.000000 0.919689 0.579251
O O8 0.771938 0.000000 0.569874
O O9 0.769110 0.500000 0.886999
O O10 0.782701 0.382652 0.942194
O O11 0.000000 0.419240 0.887729
O O12 0.799019 0.500000 0.199903
O O13 0.736335 0.370467 0.232010
O O14 0.000000 0.403115 0.196759
O O15 0.203594 0.500000 0.383303
O O16 0.243136 0.368714 0.420663
O O17 0.251409 0.388914 0.326687
O O18 0.000000 0.404365 0.373570
O O19 0.251591 0.253120 0.974946
O O20 0.000000 0.321552 0.986946
O O21 0.500000 0.311428 0.447106
O O22 0.500000 0.154812 0.786792
#
# Coordination Sequence:
#
# PCOD9356530 Si02
#       8
#     8   8   8   8   8   8   8   8
#     4   8  16  28  38  51  73 102 132 159 190 230
#     4   8  14  25  41  60  81 106 138 174 205 232
#     4   9  16  24  37  59  81 100 127 161 193 227
#     4   9  17  28  41  58  80 106 138 173 204 235
#     4  10  19  29  42  60  80 103 134 168 199 236
#     4   9  15  25  42  59  78 107 138 165 195 231
#     4   9  17  28  40  56  80 106 132 163 197 234
#     4  10  19  29  41  57  79 107 137 167 201 241
#
# _framework density 13.830171
#
# number of rings (size 3 to 8) (size 9 to 14) (size 15 to 20)
#    0.000    3.000    0.000    3.375    0.000    8.000 
#    0.000    0.625    0.000    1.875    0.000    0.000 
#    0.000    1.000    0.000    9.000    0.000    5.750 
#
# Total GULP energy -178163.809588 kJ/mol
# GULP energy per Si atom -5567.619050 kJ/mol
# Density = 1.379869 g / cm^3
# Si number density = 13.830171 Si / 1000 Ang^3
#
#
#
# Elastic Constant Matrix: (Units=GPa)
#
#
# Indices 1 2 3 4 5 6 
#
# 1 38.5333 46.9185 32.4799 0.0000 0.0000 0.0000
# 2 46.9185 104.2193 60.8958 0.0000 0.0000 0.0000
# 3 32.4799 60.8958 90.0448 0.0000 0.0000 0.0000
# 4 0.0000 0.0000 0.0000 26.6260 0.0000 0.0000
# 5 0.0000 0.0000 0.0000 0.0000 9.8773 0.0000
# 6 0.0000 0.0000 0.0000 0.0000 0.0000 11.2185
#
#
#
# Elastic Compliance Matrix: (Units=1/GPa)
#
#
# Indices 1 2 3 4 5 6 
#
# 1 0.059032 -0.023368 -0.005490 0.000000 0.000000 0.000000
# 2 -0.023368 0.025114 -0.008555 0.000000 0.000000 0.000000
# 3 -0.005490 -0.008555 0.018872 0.000000 0.000000 0.000000
# 4 0.000000 0.000000 0.000000 0.037557 0.000000 0.000000
# 5 0.000000 0.000000 0.000000 0.000000 0.101242 0.000000
# 6 0.000000 0.000000 0.000000 0.000000 0.000000 0.089138
#
#
# Mechanical properties :
#
#
# Convention : Reuss Voigt Hill
#
# Bulk Modulus (GPa) = 35.47171 57.04290 46.25730
# Shear Modulus (GPa) = 12.04300 15.71123 13.87711
#
# Velocity S-wave (km/s) = 2.95410 3.37413 3.17108
# Velocity P-wave (km/s) = 6.11059 7.51761 6.85032
#
# Compressibility (1/GPa) = 0.02819148
#
# Stress axis : x y z
#
# Youngs Moduli (GPa) = 16.93994 39.81851 52.98950
#
# Poissons Ratio (x) = 0.93047 0.29092
# Poissons Ratio (y) = 0.39585 0.45334
# Poissons Ratio (z) = 0.09300 0.34066
#
# Static dielectric constant tensor:
#      x y z
#    x 1.464110 0.000000 0.000000 
#    y 0.000000 1.451170 0.000000 
#    z 0.000000 0.000000 1.444540 
# 
# From -- ./inp_files/23628.got.cif
#   From: 2010.05.17/outbox.cif.g08.bks.cpg/sg38_12_cif.got.tgz:23628.got - 2010.06.03 18:07:57.
