data_PCOD9356470
_publ_section_title
;
Structure prediction by ZEFSAII (Michael W. Deem and Ramdas Pophale) SiO2 
 PCOD9356470
Probable space group: A M M 2
;
_chemical_formula_sum "Si O2"
_cell_formula_units_Z 60
_cell_length_a 22.548119
_cell_length_b 7.370117
_cell_length_c 15.604283
_cell_angle_alpha 90.000000
_cell_angle_beta 90.000000
_cell_angle_gamma 90.000000
_cell_volume 2593.155251
_symmetry_space_group_name_H-M "A M M 2"
_symmetry_group_IT_number 38
_symmetry_cell_setting 'orthorhombic'
loop_
_space_group_symop_operation_xyz
x,y,z
-x,-y,z
-x,y,z
x,-y,z
x,1/2+y,1/2+z
-x,1/2-y,1/2+z
-x,1/2+y,1/2+z
x,1/2-y,1/2+z
loop_
_atom_site_type_symbol
_atom_site_label
_atom_site_fract_x
_atom_site_fract_y
_atom_site_fract_z
Si Si1 0.590671 0.220614 0.065710
Si Si2 0.847704 0.217370 0.069437
Si Si3 0.850033 0.222522 0.258920
Si Si4 0.590327 0.221977 0.257081
Si Si5 0.280441 0.290833 0.804590
Si Si6 0.280241 0.719641 0.505131
Si Si7 0.066738 0.715201 0.911139
Si Si8 0.500000 0.248887 0.411833
O O1 0.570969 0.274302 0.161249
O O2 0.586444 0.000000 0.062248
O O3 0.659238 0.273470 0.052148
O O4 0.551205 0.282074 0.986044
O O5 0.866999 0.278061 0.163395
O O6 0.894583 0.261007 0.996276
O O7 0.843254 0.000000 0.072805
O O8 0.781460 0.283173 0.046350
O O9 0.782778 0.285355 0.276450
O O10 0.894832 0.287105 0.331692
O O11 0.849168 0.000000 0.263385
O O12 0.657970 0.284817 0.269838
O O13 0.550907 0.279894 0.337227
O O14 0.587817 0.000000 0.260765
O O15 0.280302 0.500000 0.774931
O O16 0.282547 0.282681 0.907177
O O17 0.279584 0.500000 0.504676
O O18 0.061726 0.500000 0.897423
O O19 0.000000 0.788199 0.917619
#
# Coordination Sequence:
#
# PCOD9356470 Si02
#       8
#     8   8   8   8   8   8   8   4
#     4  10  21  37  56  78 107 144 184 225 276 338
#     4  10  20  35  59  87 111 141 185 235 279 322
#     4   9  18  34  58  84 109 142 186 227 270 328
#     4  10  21  36  56  80 105 138 185 233 273 325
#     4  10  18  34  60  84 107 142 184 228 279 332
#     4  10  19  34  57  85 113 140 178 231 285 333
#     4  10  21  37  56  80 115 155 188 222 270 328
#     4  12  20  32  54  78 102 138 184 226 268 318
#
# _framework density 23.137834000000002
#
# number of rings (size 3 to 8) (size 9 to 14) (size 15 to 20)
#    0.000    2.000    2.667    1.600    0.000    5.067 
#    0.000    2.667    0.000   12.000    0.000    0.000 
#    0.000    0.000    0.000    0.000    0.000    0.000 
#
# Total GULP energy -167210.677254 kJ/mol
# GULP energy per Si atom -5573.689242 kJ/mol
# Density = 2.308517 g / cm^3
# Si number density = 23.137834 Si / 1000 Ang^3
#
#
#
# Elastic Constant Matrix: (Units=GPa)
#
#
# Indices 1 2 3 4 5 6 
#
# 1 231.0869 8.0025 124.4212 0.0000 0.0000 0.0000
# 2 8.0025 80.1525 -3.6231 0.0000 0.0000 0.0000
# 3 124.4212 -3.6231 236.9328 0.0000 0.0000 0.0000
# 4 0.0000 0.0000 0.0000 0.0766 0.0000 0.0000
# 5 0.0000 0.0000 0.0000 0.0000 -63.1791 0.0000
# 6 0.0000 0.0000 0.0000 0.0000 0.0000 7.8624
#
#
#
# Elastic Compliance Matrix: (Units=1/GPa)
#
#
# Indices 1 2 3 4 5 6 
#
# 1 0.006078 -0.000752 -0.003203 0.000000 0.000000 0.000000
# 2 -0.000752 0.012578 0.000587 0.000000 0.000000 0.000000
# 3 -0.003203 0.000587 0.005912 0.000000 0.000000 0.000000
# 4 0.000000 0.000000 0.000000 13.059891 0.000000 0.000000
# 5 0.000000 0.000000 0.000000 0.000000 -0.015828 0.000000
# 6 0.000000 0.000000 0.000000 0.000000 0.000000 0.127187
#
#
# Mechanical properties :
#
#
# Convention : Reuss Voigt Hill
#
# Bulk Modulus (GPa) = 56.07941 89.53035 72.80488
# Shear Modulus (GPa) = 0.37854 16.91009 8.64432
#
# Velocity S-wave (km/s) = 0.40492 2.70634 1.93497
# Velocity P-wave (km/s) = 4.95059 6.96736 6.04369
#
# Compressibility (1/GPa) = 0.01783186
#
# Stress axis : x y z
#
# Youngs Moduli (GPa) = 164.52437 79.50515 169.15462
#
# Poissons Ratio (x) = 0.05976 0.54186
# Poissons Ratio (y) = 0.12366 -0.09930
# Poissons Ratio (z) = 0.52702 -0.04667
#
# Static dielectric constant tensor:
#      x y z
#    x 1.837530 0.000000 0.000000 
#    y 0.000000 1.998490 0.000000 
#    z 0.000000 0.000000 1.806370 
# 
# From -- ./inp_files/10803.got.cif
#   From: 2010.05.17/outbox.cif.g08.bks.cpg/sg38_6_cif.got.tgz:10803.got - 2010.06.03 18:07:57.
