data_PCOD9356950
_publ_section_title
;
Structure prediction by ZEFSAII (Michael W. Deem and Ramdas Pophale) SiO2 
 PCOD9356950
Probable space group: A M M 2
;
_chemical_formula_sum "Si O2"
_cell_formula_units_Z 56
_cell_length_a 8.792354
_cell_length_b 14.759235
_cell_length_c 23.201204
_cell_angle_alpha 90.000000
_cell_angle_beta 90.000000
_cell_angle_gamma 90.000000
_cell_volume 3010.783559
_symmetry_space_group_name_H-M "A M M 2"
_symmetry_group_IT_number 38
_symmetry_cell_setting 'orthorhombic'
loop_
_space_group_symop_operation_xyz
x,y,z
-x,-y,z
-x,y,z
x,-y,z
x,1/2+y,1/2+z
-x,1/2-y,1/2+z
-x,1/2+y,1/2+z
x,1/2-y,1/2+z
loop_
_atom_site_type_symbol
_atom_site_label
_atom_site_fract_x
_atom_site_fract_y
_atom_site_fract_z
Si Si1 0.179941 0.606308 0.763470
Si Si2 0.318235 0.394151 0.323983
Si Si3 0.818459 0.781804 0.927582
Si Si4 0.683354 0.896906 0.690408
Si Si5 0.318669 0.896888 0.388573
Si Si6 0.185654 0.395712 0.538899
Si Si7 0.816401 0.783127 0.150925
O O1 0.196438 0.500000 0.748160
O O2 0.268354 0.622318 0.822672
O O3 0.231502 0.667096 0.710073
O O4 0.000000 0.622790 0.773785
O O5 0.500000 0.379688 0.327879
O O6 0.288355 0.500000 0.337371
O O7 0.235465 0.330639 0.369191
O O8 0.272695 0.379590 0.257404
O O9 0.753138 0.680623 0.927704
O O10 0.000000 0.777713 0.928375
O O11 0.766176 0.841830 0.981828
O O12 0.500000 0.893163 0.687962
O O13 0.753736 0.818383 0.651982
O O14 0.729225 0.000000 0.675873
O O15 0.500000 0.893001 0.392250
O O16 0.268629 0.000000 0.401807
O O17 0.236839 0.500000 0.538830
O O18 0.233470 0.341747 0.596013
O O19 0.000000 0.397267 0.538981
O O20 0.000000 0.781106 0.150755
#
# Coordination Sequence:
#
# PCOD9356950 Si02
#       7
#     8   8   8   8   8   8   8
#     4   9  17  30  51  80 109 134 164 205 253 305
#     4   9  18  33  53  77 107 141 172 206 254 309
#     4  11  21  33  53  78 103 135 174 215 257 300
#     4   9  19  35  52  72 102 138 170 204 253 306
#     4  10  21  36  53  74 103 138 172 209 257 310
#     4   9  19  36  55  76 104 135 166 203 250 303
#     4  10  19  32  53  78 102 133 171 209 250 296
#
# _framework density 18.599809
#
# number of rings (size 3 to 8) (size 9 to 14) (size 15 to 20)
#    0.000    2.429    0.000    3.429    0.000    7.143 
#    0.000    3.571    0.000    7.286    0.000    0.000 
#    0.000    0.000    0.000    0.000    0.000    0.000 
#
# Total GULP energy -156298.239674 kJ/mol
# GULP energy per Si atom -5582.079988 kJ/mol
# Density = 1.855748 g / cm^3
# Si number density = 18.599809 Si / 1000 Ang^3
#
#
#
# Elastic Constant Matrix: (Units=GPa)
#
#
# Indices 1 2 3 4 5 6 
#
# 1 16.8097 36.4269 17.1898 0.0000 0.0000 0.0000
# 2 36.4269 168.1574 91.5160 0.0000 0.0000 0.0000
# 3 17.1898 91.5160 60.6570 0.0000 0.0000 0.0000
# 4 0.0000 0.0000 0.0000 34.5660 0.0000 0.0000
# 5 0.0000 0.0000 0.0000 0.0000 -22.6487 0.0000
# 6 0.0000 0.0000 0.0000 0.0000 0.0000 31.1663
#
#
#
# Elastic Compliance Matrix: (Units=1/GPa)
#
#
# Indices 1 2 3 4 5 6 
#
# 1 0.120787 -0.042127 0.029328 0.000000 0.000000 0.000000
# 2 -0.042127 0.047934 -0.060382 0.000000 0.000000 0.000000
# 3 0.029328 -0.060382 0.099275 0.000000 0.000000 0.000000
# 4 0.000000 0.000000 0.000000 0.028930 0.000000 0.000000
# 5 0.000000 0.000000 0.000000 0.000000 -0.044153 0.000000
# 6 0.000000 0.000000 0.000000 0.000000 0.000000 0.032086
#
#
# Mechanical properties :
#
#
# Convention : Reuss Voigt Hill
#
# Bulk Modulus (GPa) = 8.22125 59.54330 33.88227
# Shear Modulus (GPa) = 10.59848 15.31615 12.95732
#
# Velocity S-wave (km/s) = 2.38967 2.87271 2.64225
# Velocity P-wave (km/s) = 3.47041 6.56396 5.25021
#
# Compressibility (1/GPa) = 0.12163602
#
# Stress axis : x y z
#
# Youngs Moduli (GPa) = 8.27902 20.86209 10.07299
#
# Poissons Ratio (x) = 0.87885 -0.29542
# Poissons Ratio (y) = 0.34877 0.60822
# Poissons Ratio (z) = -0.24281 1.25969
#
# Static dielectric constant tensor:
#      x y z
#    x 1.627650 0.000000 0.000000 
#    y 0.000000 1.651520 0.000000 
#    z 0.000000 0.000000 1.622890 
# 
# From -- ./inp_files/19784.got.cif
#   From: 2010.05.17/outbox.cif.g08.bks.cpg/sg38_10_cif.got.tgz:19784.got - 2010.06.03 18:07:57.
