data_PCOD9356928
_publ_section_title
;
Structure prediction by ZEFSAII (Michael W. Deem and Ramdas Pophale) SiO2 
 PCOD9356928
Probable space group: A M M 2
;
_chemical_formula_sum "Si O2"
_cell_formula_units_Z 58
_cell_length_a 15.738929
_cell_length_b 7.714103
_cell_length_c 25.405112
_cell_angle_alpha 90.000000
_cell_angle_beta 90.000000
_cell_angle_gamma 90.000000
_cell_volume 3084.478330
_symmetry_space_group_name_H-M "A M M 2"
_symmetry_group_IT_number 38
_symmetry_cell_setting 'orthorhombic'
loop_
_space_group_symop_operation_xyz
x,y,z
-x,-y,z
-x,y,z
x,-y,z
x,1/2+y,1/2+z
-x,1/2-y,1/2+z
-x,1/2+y,1/2+z
x,1/2-y,1/2+z
loop_
_atom_site_type_symbol
_atom_site_label
_atom_site_fract_x
_atom_site_fract_y
_atom_site_fract_z
Si Si1 0.274665 0.206726 0.127950
Si Si2 0.596358 0.290484 0.916163
Si Si3 0.403997 0.209200 0.536626
Si Si4 0.000000 0.000000 0.819546
Si Si5 0.877056 0.301770 0.784560
Si Si6 0.093993 0.790801 0.160391
Si Si7 0.406626 0.292992 0.713330
Si Si8 0.691410 0.299366 0.313129
O O1 0.330199 0.234823 0.075928
O O2 0.178044 0.274675 0.130295
O O3 0.332222 0.277181 0.175891
O O4 0.266899 0.000000 0.135919
O O5 0.500000 0.235719 0.902591
O O6 0.598078 0.500000 0.915461
O O7 0.661538 0.226518 0.872737
O O8 0.612411 0.235232 0.976387
O O9 0.500000 0.268536 0.551837
O O10 0.405980 0.000000 0.537009
O O11 0.073234 0.154327 0.815943
O O12 0.906023 0.500000 0.792899
O O13 0.891232 0.259960 0.722619
O O14 0.777867 0.296393 0.798433
O O15 0.000000 0.723032 0.145972
O O16 0.090594 0.000000 0.153810
O O17 0.500000 0.222204 0.700721
O O18 0.409487 0.500000 0.704955
O O19 0.382069 0.262064 0.773569
O O20 0.706402 0.500000 0.302818
#
# Coordination Sequence:
#
# PCOD9356928 Si02
#       8
#     8   8   8   2   8   8   8   8
#     4  10  19  32  52  78 107 139 184 231 276 337
#     4   9  19  37  58  76 102 145 191 233 284 346
#     4   9  19  36  55  77 105 140 185 232 283 343
#     4  12  22  36  56  90 110 144 202 240 280 350
#     4  11  21  37  57  79 117 154 184 236 290 339
#     4   9  17  32  54  77 104 147 187 222 278 341
#     4  10  20  33  49  72 110 156 189 218 275 353
#     4  12  23  34  51  82 114 143 189 238 279 340
#
# _framework density 18.803827999999999
#
# number of rings (size 3 to 8) (size 9 to 14) (size 15 to 20)
#    0.000    1.931    2.759    3.103    0.000    4.138 
#    1.241    1.379    0.000    0.000    1.793    0.000 
#    0.000    0.000    0.000    0.000    0.000    0.000 
#
# Total GULP energy -161563.859220 kJ/mol
# GULP energy per Si atom -5571.167559 kJ/mol
# Density = 1.876103 g / cm^3
# Si number density = 18.803828 Si / 1000 Ang^3
#
#
#
# Elastic Constant Matrix: (Units=GPa)
#
#
# Indices 1 2 3 4 5 6 
#
# 1 173.5619 18.1646 62.0527 0.0000 0.0000 0.0000
# 2 18.1646 56.1417 -2.7714 0.0000 0.0000 0.0000
# 3 62.0527 -2.7714 64.4423 0.0000 0.0000 0.0000
# 4 0.0000 0.0000 0.0000 16.5631 0.0000 0.0000
# 5 0.0000 0.0000 0.0000 0.0000 12.8048 0.0000
# 6 0.0000 0.0000 0.0000 0.0000 0.0000 17.8939
#
#
#
# Elastic Compliance Matrix: (Units=1/GPa)
#
#
# Indices 1 2 3 4 5 6 
#
# 1 0.009428 -0.003506 -0.009230 0.000000 0.000000 0.000000
# 2 -0.003506 0.019154 0.004200 0.000000 0.000000 0.000000
# 3 -0.009230 0.004200 0.024586 0.000000 0.000000 0.000000
# 4 0.000000 0.000000 0.000000 0.060375 0.000000 0.000000
# 5 0.000000 0.000000 0.000000 0.000000 0.078096 0.000000
# 6 0.000000 0.000000 0.000000 0.000000 0.000000 0.055885
#
#
# Mechanical properties :
#
#
# Convention : Reuss Voigt Hill
#
# Bulk Modulus (GPa) = 27.70378 49.89309 38.79844
# Shear Modulus (GPa) = 18.07486 23.89904 20.98695
#
# Velocity S-wave (km/s) = 3.10374 3.56893 3.34443
# Velocity P-wave (km/s) = 5.25446 6.60107 5.96588
#
# Compressibility (1/GPa) = 0.03609616
#
# Stress axis : x y z
#
# Youngs Moduli (GPa) = 106.06300 52.20899 40.67416
#
# Poissons Ratio (x) = 0.18305 0.37540
# Poissons Ratio (y) = 0.37187 -0.17083
# Poissons Ratio (z) = 0.97891 -0.21927
#
# Static dielectric constant tensor:
#      x y z
#    x 1.658820 0.000000 0.000000 
#    y 0.000000 1.691750 0.000000 
#    z 0.000000 0.000000 1.625440 
# 
# From -- ./inp_files/22823.got.cif
#   From: 2010.05.17/outbox.cif.g08.bks.cpg/sg38_12_cif.got.tgz:22823.got - 2010.06.03 18:07:57.
