data_PCOD9356509
_publ_section_title
;
Structure prediction by ZEFSAII (Michael W. Deem and Ramdas Pophale) SiO2 
 PCOD9356509
Probable space group: A M M 2
;
_chemical_formula_sum "Si O2"
_cell_formula_units_Z 64
_cell_length_a 9.105170
_cell_length_b 13.927576
_cell_length_c 34.905967
_cell_angle_alpha 90.000000
_cell_angle_beta 90.000000
_cell_angle_gamma 90.000000
_cell_volume 4426.528549
_symmetry_space_group_name_H-M "A M M 2"
_symmetry_group_IT_number 38
_symmetry_cell_setting 'orthorhombic'
loop_
_space_group_symop_operation_xyz
x,y,z
-x,-y,z
-x,y,z
x,-y,z
x,1/2+y,1/2+z
-x,1/2-y,1/2+z
-x,1/2+y,1/2+z
x,1/2-y,1/2+z
loop_
_atom_site_type_symbol
_atom_site_label
_atom_site_fract_x
_atom_site_fract_y
_atom_site_fract_z
Si Si1 0.175437 0.209166 0.226010
Si Si2 0.674331 0.884979 0.299090
Si Si3 0.674072 0.204504 0.607238
Si Si4 0.669464 0.616861 0.955570
Si Si5 0.324552 0.611262 0.189124
Si Si6 0.825407 0.386198 0.034415
Si Si7 0.169010 0.116722 0.378208
Si Si8 0.325397 0.610272 0.654357
O O1 0.243967 0.170289 0.265246
O O2 0.236364 0.314632 0.215364
O O3 0.234938 0.141735 0.191614
O O4 0.000000 0.208053 0.227311
O O5 0.500000 0.867588 0.297791
O O6 0.740409 0.856925 0.340339
O O7 0.697248 0.000000 0.294235
O O8 0.500000 0.196261 0.599164
O O9 0.705610 0.139813 0.644850
O O10 0.763721 0.170081 0.570809
O O11 0.706110 0.313068 0.620999
O O12 0.500000 0.647162 0.954910
O O13 0.671370 0.500000 0.954917
O O14 0.754537 0.649298 0.917496
O O15 0.748317 0.645235 0.994944
O O16 0.500000 0.625634 0.194783
O O17 0.289846 0.500000 0.195761
O O18 0.793553 0.500000 0.039792
O O19 0.000000 0.375426 0.030997
O O20 0.000000 0.148271 0.375846
O O21 0.168269 0.000000 0.379267
O O22 0.500000 0.620393 0.663343
O O23 0.297230 0.500000 0.644201
#
# Coordination Sequence:
#
# PCOD9356509 Si02
#       8
#     8   8   8   8   8   8   8   8
#     4  11  21  30  43  65  90 113 141 179 220 259
#     4  10  19  30  44  61  84 116 151 182 211 249
#     4   9  17  29  45  64  83 106 140 178 214 253
#     4   9  16  26  40  57  79 110 145 175 205 246
#     4   9  18  33  50  64  82 112 147 180 215 257
#     4  10  19  28  39  58  85 115 144 175 211 249
#     4   9  16  26  40  59  84 111 139 173 213 254
#     4   9  18  33  49  62  81 112 147 181 217 258
#
# _framework density 14.458282000000001
#
# number of rings (size 3 to 8) (size 9 to 14) (size 15 to 20)
#    0.000    2.500    0.000    4.125    0.000    9.000 
#    0.000    0.000    0.000    0.000    0.000    0.000 
#    0.000    1.000    0.000    6.000    0.000    4.625 
#
# Total GULP energy -178413.436305 kJ/mol
# GULP energy per Si atom -5575.419885 kJ/mol
# Density = 1.442537 g / cm^3
# Si number density = 14.458282 Si / 1000 Ang^3
#
#
#
# Elastic Constant Matrix: (Units=GPa)
#
#
# Indices 1 2 3 4 5 6 
#
# 1 101.0057 50.0014 83.5979 0.0000 0.0000 0.0000
# 2 50.0014 69.9001 50.3263 0.0000 0.0000 0.0000
# 3 83.5979 50.3263 135.7018 0.0000 0.0000 0.0000
# 4 0.0000 0.0000 0.0000 18.7196 0.0000 0.0000
# 5 0.0000 0.0000 0.0000 0.0000 -14.2966 0.0000
# 6 0.0000 0.0000 0.0000 0.0000 0.0000 13.9052
#
#
#
# Elastic Compliance Matrix: (Units=1/GPa)
#
#
# Indices 1 2 3 4 5 6 
#
# 1 0.023551 -0.008733 -0.011270 0.000000 0.000000 0.000000
# 2 -0.008733 0.022756 -0.003059 0.000000 0.000000 0.000000
# 3 -0.011270 -0.003059 0.015446 0.000000 0.000000 0.000000
# 4 0.000000 0.000000 0.000000 0.053420 0.000000 0.000000
# 5 0.000000 0.000000 0.000000 0.000000 -0.069947 0.000000
# 6 0.000000 0.000000 0.000000 0.000000 0.000000 0.071916
#
#
# Mechanical properties :
#
#
# Convention : Reuss Voigt Hill
#
# Bulk Modulus (GPa) = 63.98309 74.93988 69.46148
# Shear Modulus (GPa) = 29.67801 11.84443 20.76122
#
# Velocity S-wave (km/s) = 4.53555 2.86530 3.79349
# Velocity P-wave (km/s) = 8.47219 7.93038 8.20576
#
# Compressibility (1/GPa) = 0.01562913
#
# Stress axis : x y z
#
# Youngs Moduli (GPa) = 42.46136 43.94527 64.74031
#
# Poissons Ratio (x) = 0.38376 0.72960
# Poissons Ratio (y) = 0.37080 0.19807
# Poissons Ratio (z) = 0.47853 0.13445
#
# Static dielectric constant tensor:
#      x y z
#    x 1.483900 0.000000 0.000000 
#    y 0.000000 1.461320 0.000000 
#    z 0.000000 0.000000 1.459370 
# 
# From -- ./inp_files/24740.got.cif
#   From: 2010.05.17/outbox.cif.g08.bks.cpg/sg38_13_cif.got.tgz:24740.got - 2010.06.03 18:07:57.
