data_PCOD9356951
_publ_section_title
;
Structure prediction by ZEFSAII (Michael W. Deem and Ramdas Pophale) SiO2 
 PCOD9356951
Probable space group: A M M 2
;
_chemical_formula_sum "Si O2"
_cell_formula_units_Z 40
_cell_length_a 14.141679
_cell_length_b 7.488419
_cell_length_c 16.334262
_cell_angle_alpha 90.000000
_cell_angle_beta 90.000000
_cell_angle_gamma 90.000000
_cell_volume 1729.779034
_symmetry_space_group_name_H-M "A M M 2"
_symmetry_group_IT_number 38
_symmetry_cell_setting 'orthorhombic'
loop_
_space_group_symop_operation_xyz
x,y,z
-x,-y,z
-x,y,z
x,-y,z
x,1/2+y,1/2+z
-x,1/2-y,1/2+z
-x,1/2+y,1/2+z
x,1/2-y,1/2+z
loop_
_atom_site_type_symbol
_atom_site_label
_atom_site_fract_x
_atom_site_fract_y
_atom_site_fract_z
Si Si1 0.302388 0.714412 0.199080
Si Si2 0.898197 0.282719 0.533251
Si Si3 0.897682 0.292217 0.227649
Si Si4 0.300866 0.202877 0.010868
Si Si5 0.500000 0.706702 0.785441
Si Si6 0.500000 0.799749 0.965223
O O1 0.294218 0.500000 0.189704
O O2 0.207866 0.776472 0.247903
O O3 0.300238 0.799337 0.109279
O O4 0.403443 0.754573 0.237727
O O5 0.893925 0.500000 0.535363
O O6 0.897976 0.219354 0.627859
O O7 0.802185 0.219701 0.489825
O O8 0.000000 0.231429 0.497308
O O9 0.899447 0.500000 0.252370
O O10 0.000000 0.213985 0.253571
O O11 0.303673 0.000000 0.977200
O O12 0.400504 0.288962 0.987943
O O13 0.500000 0.500000 0.807848
O O14 0.500000 0.814536 0.868561
O O15 0.500000 0.000000 0.004515
#
# Coordination Sequence:
#
# PCOD9356951 Si02
#       6
#     8   8   8   8   4   4
#     4  10  19  32  53  78 103 130 162 200 240 288
#     4   8  13  22  39  66  98 127 154 186 227 276
#     4   8  14  25  43  70 101 128 154 188 232 280
#     4   9  17  30  50  75 101 128 159 197 239 284
#     4  12  25  38  51  67  93 129 169 212 253 294
#     4  10  21  36  51  67  91 125 163 204 249 292
#
# _framework density 23.124341000000001
#
# number of rings (size 3 to 8) (size 9 to 14) (size 15 to 20)
#    0.000    2.800    0.000    2.100    0.000    2.400 
#    0.000    0.000    0.000    1.200    0.000    5.600 
#    0.000    0.000    0.000    0.000    0.000    0.000 
#
# Total GULP energy -111401.017448 kJ/mol
# GULP energy per Si atom -5570.050872 kJ/mol
# Density = 2.307171 g / cm^3
# Si number density = 23.124341 Si / 1000 Ang^3
#
#
#
# Elastic Constant Matrix: (Units=GPa)
#
#
# Indices 1 2 3 4 5 6 
#
# 1 314.1931 4.4916 28.1008 0.0000 0.0000 0.0000
# 2 4.4916 91.6133 -7.8145 0.0000 0.0000 0.0000
# 3 28.1008 -7.8145 11.4210 0.0000 0.0000 0.0000
# 4 0.0000 0.0000 0.0000 -13.0903 0.0000 0.0000
# 5 0.0000 0.0000 0.0000 0.0000 -22.7747 0.0000
# 6 0.0000 0.0000 0.0000 0.0000 0.0000 32.5509
#
#
#
# Elastic Compliance Matrix: (Units=1/GPa)
#
#
# Indices 1 2 3 4 5 6 
#
# 1 0.004192 -0.001153 -0.011104 0.000000 0.000000 0.000000
# 2 -0.001153 0.011909 0.010984 0.000000 0.000000 0.000000
# 3 -0.011104 0.010984 0.122394 0.000000 0.000000 0.000000
# 4 0.000000 0.000000 0.000000 -0.076393 0.000000 0.000000
# 5 0.000000 0.000000 0.000000 0.000000 -0.043908 0.000000
# 6 0.000000 0.000000 0.000000 0.000000 0.000000 0.030721
#
#
# Mechanical properties :
#
#
# Convention : Reuss Voigt Hill
#
# Bulk Modulus (GPa) = 7.35555 51.86479 29.61017
# Shear Modulus (GPa) = 51.66524 25.50048 38.58286
#
# Velocity S-wave (km/s) = 4.73190 3.32438 4.08915
# Velocity P-wave (km/s) = 5.74824 6.10022 5.92684
#
# Compressibility (1/GPa) = 0.13595179
#
# Stress axis : x y z
#
# Youngs Moduli (GPa) = 238.53084 83.97064 8.17031
#
# Poissons Ratio (x) = 0.09679 0.09072
# Poissons Ratio (y) = 0.27495 -0.08975
# Poissons Ratio (z) = 2.64858 -0.92237
#
# Static dielectric constant tensor:
#      x y z
#    x 2.008450 0.000000 0.000000 
#    y 0.000000 1.885310 0.000000 
#    z 0.000000 0.000000 1.787500 
# 
# From -- ./inp_files/14303.got.cif
#   From: 2010.05.17/outbox.cif.g08.bks.cpg/sg38_8_cif.got.tgz:14303.got - 2010.06.03 18:07:57.
