data_PCOD9356337
_publ_section_title
;
Structure prediction by ZEFSAII (Michael W. Deem and Ramdas Pophale) SiO2 
 PCOD9356337
Probable space group: A M M 2
;
_chemical_formula_sum "Si O2"
_cell_formula_units_Z 64
_cell_length_a 24.755652
_cell_length_b 7.569208
_cell_length_c 15.720850
_cell_angle_alpha 90.000000
_cell_angle_beta 90.000000
_cell_angle_gamma 90.000000
_cell_volume 2945.783550
_symmetry_space_group_name_H-M "A M M 2"
_symmetry_group_IT_number 38
_symmetry_cell_setting 'orthorhombic'
loop_
_space_group_symop_operation_xyz
x,y,z
-x,-y,z
-x,y,z
x,-y,z
x,1/2+y,1/2+z
-x,1/2-y,1/2+z
-x,1/2+y,1/2+z
x,1/2-y,1/2+z
loop_
_atom_site_type_symbol
_atom_site_label
_atom_site_fract_x
_atom_site_fract_y
_atom_site_fract_z
Si Si1 0.374247 0.795872 0.508830
Si Si2 0.237986 0.714760 0.839379
Si Si3 0.745489 0.795808 0.035968
Si Si4 0.877070 0.287100 0.769327
Si Si5 0.861074 0.716624 0.584201
Si Si6 0.939752 0.709286 0.437151
Si Si7 0.356627 0.287904 0.818840
Si Si8 0.560851 0.712282 0.168037
O O1 0.312914 0.791250 0.544182
O O2 0.372267 0.718592 0.413291
O O3 0.413073 0.717058 0.580417
O O4 0.390383 0.000000 0.498251
O O5 0.236872 0.500000 0.841977
O O6 0.239652 0.781880 0.936111
O O7 0.183133 0.774037 0.795135
O O8 0.295177 0.770293 0.798628
O O9 0.798640 0.724037 0.082203
O O10 0.738243 0.000000 0.060916
O O11 0.876316 0.500000 0.769810
O O12 0.888161 0.231523 0.672949
O O13 0.918533 0.231500 0.841623
O O14 0.858426 0.500000 0.580455
O O15 0.895344 0.779817 0.503479
O O16 0.942726 0.500000 0.453909
O O17 0.000000 0.782830 0.447909
O O18 0.353782 0.500000 0.826070
O O19 0.399611 0.247102 0.746750
O O20 0.500000 0.777942 0.181857
O O21 0.558381 0.500000 0.160224
#
# Coordination Sequence:
#
# PCOD9356337 Si02
#       8
#     8   8   8   8   8   8   8   8
#     4   9  20  38  56  78 110 147 182 219 273 330
#     4   9  18  33  54  80 114 146 175 219 277 329
#     4  10  18  31  56  83 111 141 180 224 268 325
#     4  10  20  35  57  83 110 142 184 227 268 323
#     4   9  19  34  54  82 110 143 180 218 271 327
#     4  10  21  39  58  77 110 150 186 227 273 323
#     4   9  19  35  56  81 110 143 182 224 270 324
#     4  10  22  39  57  79 110 147 186 226 271 326
#
# _framework density 21.725968999999999
#
# number of rings (size 3 to 8) (size 9 to 14) (size 15 to 20)
#    0.000    2.500    1.250    1.125    1.750    4.000 
#    0.000    4.375    0.000    0.000    0.000    0.000 
#    0.000    0.000    0.000    0.000    0.000    0.000 
#
# Total GULP energy -178618.108385 kJ/mol
# GULP energy per Si atom -5581.815887 kJ/mol
# Density = 2.167652 g / cm^3
# Si number density = 21.725969 Si / 1000 Ang^3
#
#
#
# Elastic Constant Matrix: (Units=GPa)
#
#
# Indices 1 2 3 4 5 6 
#
# 1 78.8659 -3.4380 13.2621 0.0000 0.0000 0.0000
# 2 -3.4380 46.3306 -7.3711 0.0000 0.0000 0.0000
# 3 13.2621 -7.3711 47.4184 0.0000 0.0000 0.0000
# 4 0.0000 0.0000 0.0000 14.6857 0.0000 0.0000
# 5 0.0000 0.0000 0.0000 0.0000 10.4096 0.0000
# 6 0.0000 0.0000 0.0000 0.0000 0.0000 16.4950
#
#
#
# Elastic Compliance Matrix: (Units=1/GPa)
#
#
# Indices 1 2 3 4 5 6 
#
# 1 0.013313 0.000406 -0.003660 0.000000 0.000000 0.000000
# 2 0.000406 0.022144 0.003329 0.000000 0.000000 0.000000
# 3 -0.003660 0.003329 0.022630 0.000000 0.000000 0.000000
# 4 0.000000 0.000000 0.000000 0.068094 0.000000 0.000000
# 5 0.000000 0.000000 0.000000 0.000000 0.096065 0.000000
# 6 0.000000 0.000000 0.000000 0.000000 0.000000 0.060624
#
#
# Mechanical properties :
#
#
# Convention : Reuss Voigt Hill
#
# Bulk Modulus (GPa) = 17.17190 19.72453 18.44821
# Shear Modulus (GPa) = 16.54897 19.66217 18.10557
#
# Velocity S-wave (km/s) = 2.76291 3.01160 2.88993
# Velocity P-wave (km/s) = 4.25432 4.60342 4.43231
#
# Compressibility (1/GPa) = 0.05823467
#
# Stress axis : x y z
#
# Youngs Moduli (GPa) = 75.11477 45.15953 44.18905
#
# Poissons Ratio (x) = -0.01831 0.16175
# Poissons Ratio (y) = -0.03046 -0.14710
# Poissons Ratio (z) = 0.27495 -0.15033
#
# Static dielectric constant tensor:
#      x y z
#    x 1.779390 0.000000 0.000000 
#    y 0.000000 1.865870 0.000000 
#    z 0.000000 0.000000 1.781400 
# 
# From -- ./inp_files/15783.got.cif
#   From: 2010.05.17/outbox.cif.g08.bks.cpg/sg38_8_cif.got.tgz:15783.got - 2010.06.03 18:07:57.
