data_PCOD9356726
_publ_section_title
;
Structure prediction by ZEFSAII (Michael W. Deem and Ramdas Pophale) SiO2 
 PCOD9356726
Probable space group: A M M 2
;
_chemical_formula_sum "Si O2"
_cell_formula_units_Z 56
_cell_length_a 7.466494
_cell_length_b 13.174401
_cell_length_c 27.930637
_cell_angle_alpha 90.000000
_cell_angle_beta 90.000000
_cell_angle_gamma 90.000000
_cell_volume 2747.441407
_symmetry_space_group_name_H-M "A M M 2"
_symmetry_group_IT_number 38
_symmetry_cell_setting 'orthorhombic'
loop_
_space_group_symop_operation_xyz
x,y,z
-x,-y,z
-x,y,z
x,-y,z
x,1/2+y,1/2+z
-x,1/2-y,1/2+z
-x,1/2+y,1/2+z
x,1/2-y,1/2+z
loop_
_atom_site_type_symbol
_atom_site_label
_atom_site_fract_x
_atom_site_fract_y
_atom_site_fract_z
Si Si1 0.719346 0.381834 0.555090
Si Si2 0.297953 0.878827 0.160041
Si Si3 0.217172 0.500000 0.833313
Si Si4 0.206842 0.821918 0.265270
Si Si5 0.283439 0.611484 0.395968
Si Si6 0.711914 0.500000 0.946842
Si Si7 0.792392 0.391914 0.284712
Si Si8 0.281092 0.225030 0.472220
O O1 0.500000 0.384037 0.555639
O O2 0.773327 0.500000 0.545181
O O3 0.779604 0.349281 0.608458
O O4 0.772891 0.296411 0.516854
O O5 0.500000 0.837542 0.163410
O O6 0.208278 0.857479 0.210571
O O7 0.308501 0.000000 0.156257
O O8 0.283057 0.402820 0.802827
O O9 0.266138 0.500000 0.889046
O O10 0.000000 0.500000 0.831021
O O11 0.292478 0.711336 0.266797
O O12 0.000000 0.810001 0.280297
O O13 0.500000 0.614117 0.393987
O O14 0.234987 0.500000 0.416816
O O15 0.213140 0.614639 0.342218
O O16 0.224853 0.707969 0.426376
O O17 0.500000 0.500000 0.956717
O O18 0.780925 0.391903 0.967591
O O19 0.710441 0.500000 0.271031
O O20 0.000000 0.394618 0.269016
O O21 0.500000 0.222412 0.472506
#
# Coordination Sequence:
#
# PCOD9356726 Si02
#       8
#     8   8   4   8   8   4   8   8
#     4   8  14  26  46  69  91 115 146 185 230 276
#     4   9  17  29  47  72  94 114 145 190 239 279
#     4  10  20  32  46  68  94 126 158 186 229 282
#     4  10  19  31  48  67  91 122 154 187 230 280
#     4   9  16  26  43  66  88 113 148 188 226 259
#     4  10  20  30  44  68  96 126 158 188 221 262
#     4   9  18  31  45  62  87 121 155 184 219 267
#     4   9  16  27  43  65  93 121 149 183 222 268
#
# _framework density 20.382601000000001
#
# number of rings (size 3 to 8) (size 9 to 14) (size 15 to 20)
#    0.000    2.857    0.714    2.143    0.000    2.857 
#    0.000    0.000    1.571    1.714    0.000    2.000 
#    0.000    0.000    0.000    0.000    0.000    0.000 
#
# Total GULP energy -155999.760831 kJ/mol
# GULP energy per Si atom -5571.420030 kJ/mol
# Density = 2.033621 g / cm^3
# Si number density = 20.382601 Si / 1000 Ang^3
#
#
#
# Elastic Constant Matrix: (Units=GPa)
#
#
# Indices 1 2 3 4 5 6 
#
# 1 57.6020 7.7341 -9.2871 0.0000 0.0000 0.0000
# 2 7.7341 149.7368 51.9218 0.0000 0.0000 0.0000
# 3 -9.2871 51.9218 82.7506 0.0000 0.0000 0.0000
# 4 0.0000 0.0000 0.0000 3.9060 0.0000 0.0000
# 5 0.0000 0.0000 0.0000 0.0000 5.6413 0.0000
# 6 0.0000 0.0000 0.0000 0.0000 0.0000 -28.0226
#
#
#
# Elastic Compliance Matrix: (Units=1/GPa)
#
#
# Indices 1 2 3 4 5 6 
#
# 1 0.018185 -0.002105 0.003362 0.000000 0.000000 0.000000
# 2 -0.002105 0.008779 -0.005745 0.000000 0.000000 0.000000
# 3 0.003362 -0.005745 0.016066 0.000000 0.000000 0.000000
# 4 0.000000 0.000000 0.000000 0.256015 0.000000 0.000000
# 5 0.000000 0.000000 0.000000 0.000000 0.177265 0.000000
# 6 0.000000 0.000000 0.000000 0.000000 0.000000 -0.035685
#
#
# Mechanical properties :
#
#
# Convention : Reuss Voigt Hill
#
# Bulk Modulus (GPa) = 29.36461 43.42522 36.39491
# Shear Modulus (GPa) = 10.84710 12.28630 11.56670
#
# Velocity S-wave (km/s) = 2.30939 2.45783 2.38477
# Velocity P-wave (km/s) = 4.64210 5.42272 5.04752
#
# Compressibility (1/GPa) = 0.03405459
#
# Stress axis : x y z
#
# Youngs Moduli (GPa) = 54.98994 113.90689 62.24215
#
# Poissons Ratio (x) = 0.23977 -0.20924
# Poissons Ratio (y) = 0.11575 0.35756
# Poissons Ratio (z) = -0.18486 0.65436
#
# Static dielectric constant tensor:
#      x y z
#    x 1.766650 0.000000 0.000000 
#    y 0.000000 1.767170 0.000000 
#    z 0.000000 0.000000 1.702510 
# 
# From -- ./inp_files/22568.got.cif
#   From: 2010.05.17/outbox.cif.g08.bks.cpg/sg38_12_cif.got.tgz:22568.got - 2010.06.03 18:07:57.
