data_PCOD9356913
_publ_section_title
;
Structure prediction by ZEFSAII (Michael W. Deem and Ramdas Pophale) SiO2 
 PCOD9356913
Probable space group: A M M 2
;
_chemical_formula_sum "Si O2"
_cell_formula_units_Z 64
_cell_length_a 7.400764
_cell_length_b 18.559910
_cell_length_c 21.219237
_cell_angle_alpha 90.000000
_cell_angle_beta 90.000000
_cell_angle_gamma 90.000000
_cell_volume 2914.621638
_symmetry_space_group_name_H-M "A M M 2"
_symmetry_group_IT_number 38
_symmetry_cell_setting 'orthorhombic'
loop_
_space_group_symop_operation_xyz
x,y,z
-x,-y,z
-x,y,z
x,-y,z
x,1/2+y,1/2+z
-x,1/2-y,1/2+z
-x,1/2+y,1/2+z
x,1/2-y,1/2+z
loop_
_atom_site_type_symbol
_atom_site_label
_atom_site_fract_x
_atom_site_fract_y
_atom_site_fract_z
Si Si1 0.215440 0.166068 0.413410
Si Si2 0.221049 0.167357 0.663257
Si Si3 0.779365 0.082974 0.788260
Si Si4 0.778974 0.582892 0.537052
Si Si5 0.714556 0.418098 0.784111
Si Si6 0.220779 0.917012 0.537592
Si Si7 0.779212 0.330703 0.412373
Si Si8 0.210816 0.669277 0.658372
O O1 0.246118 0.123274 0.348871
O O2 0.283103 0.122131 0.473895
O O3 0.283110 0.248014 0.410768
O O4 0.000000 0.171533 0.421524
O O5 0.278598 0.124130 0.725232
O O6 0.275736 0.126852 0.599534
O O7 0.284765 0.249966 0.664011
O O8 0.000000 0.167474 0.664492
O O9 0.722045 0.125740 0.850516
O O10 0.000000 0.082686 0.788301
O O11 0.721544 0.000000 0.788976
O O12 0.720343 0.500000 0.534026
O O13 0.724369 0.628255 0.475841
O O14 0.715591 0.621936 0.600812
O O15 0.000000 0.581555 0.537479
O O16 0.500000 0.422317 0.778115
O O17 0.786334 0.500000 0.785057
O O18 0.778874 0.373294 0.723839
O O19 0.000000 0.917353 0.537062
O O20 0.278395 0.000000 0.539883
O O21 0.000000 0.330060 0.411858
O O22 0.000000 0.679272 0.643048
#
# Coordination Sequence:
#
# PCOD9356913 Si02
#       8
#     8   8   8   8   8   8   8   8
#     4  10  19  32  52  76 100 128 165 207 248 291
#     4   9  16  26  42  68 101 132 162 200 245 289
#     4   9  15  22  34  56  92 135 168 196 240 295
#     4   9  16  26  43  70 103 135 165 200 244 292
#     4  11  24  39  53  71  98 131 164 202 250 299
#     4   9  16  26  43  70 103 135 165 200 244 292
#     4   9  16  26  42  68 101 132 162 200 245 289
#     4  10  19  32  52  76 100 128 165 207 248 291
#
# _framework density 21.958254
#
# number of rings (size 3 to 8) (size 9 to 14) (size 15 to 20)
#    0.000    2.500    0.000    3.375    0.000   10.000 
#    0.000    0.000    0.000    3.000    0.000    0.000 
#    0.000   17.000    0.000    0.000    0.000    0.000 
#
# Total GULP energy -178892.998345 kJ/mol
# GULP energy per Si atom -5590.406198 kJ/mol
# Density = 2.190828 g / cm^3
# Si number density = 21.958254 Si / 1000 Ang^3
#
#
#
# Elastic Constant Matrix: (Units=GPa)
#
#
# Indices 1 2 3 4 5 6 
#
# 1 71.3450 -0.2864 -11.4147 0.0000 0.0000 0.0000
# 2 -0.2864 252.1036 126.9577 0.0000 0.0000 0.0000
# 3 -11.4147 126.9577 205.3773 0.0000 0.0000 0.0000
# 4 0.0000 0.0000 0.0000 48.4780 0.0000 0.0000
# 5 0.0000 0.0000 0.0000 0.0000 -44.1984 0.0000
# 6 0.0000 0.0000 0.0000 0.0000 0.0000 -25.1013
#
#
#
# Elastic Compliance Matrix: (Units=1/GPa)
#
#
# Indices 1 2 3 4 5 6 
#
# 1 0.014195 -0.000553 0.001131 0.000000 0.000000 0.000000
# 2 -0.000553 0.005781 -0.003605 0.000000 0.000000 0.000000
# 3 0.001131 -0.003605 0.007160 0.000000 0.000000 0.000000
# 4 0.000000 0.000000 0.000000 0.020628 0.000000 0.000000
# 5 0.000000 0.000000 0.000000 0.000000 -0.022625 0.000000
# 6 0.000000 0.000000 0.000000 0.000000 0.000000 -0.039839
#
#
# Mechanical properties :
#
#
# Convention : Reuss Voigt Hill
#
# Bulk Modulus (GPa) = 47.43228 84.37102 65.90165
# Shear Modulus (GPa) = -3090.03744 23.40696 -1533.31524
#
# Velocity S-wave (km/s) = -37.55380 3.26847 -26.45378
# Velocity P-wave (km/s) = 43.11306 7.26296 30.04983
#
# Compressibility (1/GPa) = 0.02108269
#
# Stress axis : x y z
#
# Youngs Moduli (GPa) = 70.44663 172.97426 139.66185
#
# Poissons Ratio (x) = 0.09574 -0.15797
# Poissons Ratio (y) = 0.03899 0.50341
# Poissons Ratio (z) = -0.07968 0.62349
#
# Static dielectric constant tensor:
#      x y z
#    x 1.838080 0.000000 0.000000 
#    y 0.000000 1.757220 0.000000 
#    z 0.000000 0.000000 1.756210 
# 
# From -- ./inp_files/20091.got.cif
#   From: 2010.05.17/outbox.cif.g08.bks.cpg/sg38_11_cif.got.tgz:20091.got - 2010.06.03 18:07:57.
