data_PCOD9356131
_publ_section_title
;
Structure prediction by ZEFSAII (Michael W. Deem and Ramdas Pophale) SiO2 
 PCOD9356131
Probable space group: A M M 2
;
_chemical_formula_sum "Si O2"
_cell_formula_units_Z 64
_cell_length_a 8.707461
_cell_length_b 14.875928
_cell_length_c 29.002166
_cell_angle_alpha 90.000000
_cell_angle_beta 90.000000
_cell_angle_gamma 90.000000
_cell_volume 3756.695889
_symmetry_space_group_name_H-M "A M M 2"
_symmetry_group_IT_number 38
_symmetry_cell_setting 'orthorhombic'
loop_
_space_group_symop_operation_xyz
x,y,z
-x,-y,z
-x,y,z
x,-y,z
x,1/2+y,1/2+z
-x,1/2-y,1/2+z
-x,1/2+y,1/2+z
x,1/2-y,1/2+z
loop_
_atom_site_type_symbol
_atom_site_label
_atom_site_fract_x
_atom_site_fract_y
_atom_site_fract_z
Si Si1 0.314697 0.603399 0.372560
Si Si2 0.685913 0.773610 0.787333
Si Si3 0.183617 0.603402 0.745295
Si Si4 0.686736 0.397293 0.202791
Si Si5 0.814800 0.103515 0.973058
Si Si6 0.682286 0.106187 0.144371
Si Si7 0.816122 0.279755 0.560151
Si Si8 0.685239 0.603739 0.097434
O O1 0.500000 0.604681 0.374043
O O2 0.268334 0.500000 0.361864
O O3 0.265446 0.671939 0.332744
O O4 0.251066 0.626438 0.422930
O O5 0.500000 0.770536 0.786848
O O6 0.750625 0.674077 0.781583
O O7 0.738141 0.829819 0.742285
O O8 0.228879 0.500000 0.754822
O O9 0.248632 0.626747 0.694565
O O10 0.000000 0.608233 0.744047
O O11 0.500000 0.396076 0.202941
O O12 0.733054 0.500000 0.213062
O O13 0.733614 0.375683 0.150448
O O14 0.000000 0.106100 0.970834
O O15 0.769689 0.000000 0.983586
O O16 0.763845 0.169560 0.013734
O O17 0.500000 0.122031 0.145981
O O18 0.754404 0.165091 0.104064
O O19 0.709892 0.000000 0.135455
O O20 0.756485 0.178339 0.564703
O O21 0.000000 0.280757 0.561068
O O22 0.500000 0.609609 0.095815
O O23 0.727130 0.500000 0.087711
#
# Coordination Sequence:
#
# PCOD9356131 Si02
#       8
#     8   8   8   8   8   8   8   8
#     4   9  18  32  51  77 105 129 156 195 244 295
#     4  10  18  29  50  76  99 126 161 199 239 288
#     4  10  21  35  49  68  98 134 169 206 246 287
#     4   8  14  26  45  69  97 127 156 186 225 277
#     4   9  19  35  52  71  98 131 163 197 244 300
#     4  10  20  33  50  73 101 133 168 205 247 297
#     4  11  21  32  50  74 100 131 167 208 252 299
#     4   9  18  32  49  70  98 133 170 204 239 285
#
# _framework density 17.036246999999999
#
# number of rings (size 3 to 8) (size 9 to 14) (size 15 to 20)
#    0.000    2.500    0.000    3.375    0.000    6.250 
#    0.000    1.250    0.000    2.625    0.000    0.000 
#    0.000    0.000    0.000    0.000    0.000    0.000 
#
# Total GULP energy -178545.208921 kJ/mol
# GULP energy per Si atom -5579.537779 kJ/mol
# Density = 1.699747 g / cm^3
# Si number density = 17.036247 Si / 1000 Ang^3
#
#
#
# Elastic Constant Matrix: (Units=GPa)
#
#
# Indices 1 2 3 4 5 6 
#
# 1 18.7063 35.5718 28.4022 0.0000 0.0000 0.0000
# 2 35.5718 124.8496 102.3152 0.0000 0.0000 0.0000
# 3 28.4022 102.3152 114.8717 0.0000 0.0000 0.0000
# 4 0.0000 0.0000 0.0000 32.6401 0.0000 0.0000
# 5 0.0000 0.0000 0.0000 0.0000 24.1561 0.0000
# 6 0.0000 0.0000 0.0000 0.0000 0.0000 23.9943
#
#
#
# Elastic Compliance Matrix: (Units=1/GPa)
#
#
# Indices 1 2 3 4 5 6 
#
# 1 0.116915 -0.035625 0.002823 0.000000 0.000000 0.000000
# 2 -0.035625 0.040513 -0.027276 0.000000 0.000000 0.000000
# 3 0.002823 -0.027276 0.032302 0.000000 0.000000 0.000000
# 4 0.000000 0.000000 0.000000 0.030637 0.000000 0.000000
# 5 0.000000 0.000000 0.000000 0.000000 0.041397 0.000000
# 6 0.000000 0.000000 0.000000 0.000000 0.000000 0.041677
#
#
# Mechanical properties :
#
#
# Convention : Reuss Voigt Hill
#
# Bulk Modulus (GPa) = 14.37305 65.66734 40.02019
# Shear Modulus (GPa) = 11.19100 22.30066 16.74583
#
# Velocity S-wave (km/s) = 2.56577 3.62195 3.13861
# Velocity P-wave (km/s) = 4.15122 7.49138 6.05613
#
# Compressibility (1/GPa) = 0.06957468
#
# Stress axis : x y z
#
# Youngs Moduli (GPa) = 8.55319 24.68365 30.95810
#
# Poissons Ratio (x) = 0.87935 -0.08740
# Poissons Ratio (y) = 0.30471 0.84441
# Poissons Ratio (z) = -0.02415 0.67327
#
# Static dielectric constant tensor:
#      x y z
#    x 1.576850 0.000000 0.000000 
#    y 0.000000 1.587990 0.000000 
#    z 0.000000 0.000000 1.552590 
# 
# From -- ./inp_files/22200.got.cif
#   From: 2010.05.17/outbox.cif.g08.bks.cpg/sg38_12_cif.got.tgz:22200.got - 2010.06.03 18:07:57.
