data_PCOD9356737
_publ_section_title
;
Structure prediction by ZEFSAII (Michael W. Deem and Ramdas Pophale) SiO2 
 PCOD9356737
Probable space group: A M M 2
;
_chemical_formula_sum "Si O2"
_cell_formula_units_Z 48
_cell_length_a 20.056896
_cell_length_b 26.178121
_cell_length_c 5.237747
_cell_angle_alpha 90.000000
_cell_angle_beta 90.000000
_cell_angle_gamma 90.000000
_cell_volume 2750.088754
_symmetry_space_group_name_H-M "A M M 2"
_symmetry_group_IT_number 38
_symmetry_cell_setting 'orthorhombic'
loop_
_space_group_symop_operation_xyz
x,y,z
-x,-y,z
-x,y,z
x,-y,z
x,1/2+y,1/2+z
-x,1/2-y,1/2+z
-x,1/2+y,1/2+z
x,1/2-y,1/2+z
loop_
_atom_site_type_symbol
_atom_site_label
_atom_site_fract_x
_atom_site_fract_y
_atom_site_fract_z
Si Si1 0.400716 0.441459 0.086850
Si Si2 0.000000 0.216780 0.105176
Si Si3 0.760714 0.620987 0.593325
Si Si4 0.500000 0.714737 0.585516
Si Si5 0.855145 0.215461 0.012423
Si Si6 0.600055 0.622558 0.588280
Si Si7 0.760865 0.441893 0.091532
O O1 0.424051 0.500000 0.088040
O O2 0.418922 0.410085 0.338896
O O3 0.319930 0.443806 0.083478
O O4 0.420085 0.410003 0.836499
O O5 0.929092 0.191036 0.048102
O O6 0.000000 0.236604 0.397225
O O7 0.798460 0.673857 0.552863
O O8 0.680438 0.628558 0.591772
O O9 0.778268 0.583337 0.360580
O O10 0.780820 0.594168 0.857634
O O11 0.500000 0.749795 0.334813
O O12 0.563274 0.676650 0.586457
O O13 0.850427 0.258070 0.235738
O O14 0.785032 0.500000 0.065929
#
# Coordination Sequence:
#
# PCOD9356737 Si02
#       7
#     8   4   8   4   8   8   8
#     4   9  17  33  56  78 101 123 147 196 257 299
#     4   8  16  30  46  66  95 128 157 192 242 294
#     4  10  19  31  51  76  98 125 162 202 239 277
#     4  12  26  42  55  66  93 138 174 200 236 280
#     4  10  19  31  48  72 101 128 158 198 243 289
#     4  10  21  36  52  74  99 125 166 202 232 289
#     4   9  17  30  49  74 102 129 158 194 239 289
#
# _framework density 17.453982
#
# number of rings (size 3 to 8) (size 9 to 14) (size 15 to 20)
#    0.000    2.333    0.000    3.000    0.000    5.333 
#    0.000    2.500    0.000    0.000    0.000    3.500 
#    0.000    0.000    0.000    0.000    0.000    0.000 
#
# Total GULP energy -133894.123802 kJ/mol
# GULP energy per Si atom -5578.921825 kJ/mol
# Density = 1.741426 g / cm^3
# Si number density = 17.453982 Si / 1000 Ang^3
#
#
#
# Elastic Constant Matrix: (Units=GPa)
#
#
# Indices 1 2 3 4 5 6 
#
# 1 66.4471 28.9276 8.0176 0.0000 0.0000 0.0000
# 2 28.9276 100.8046 38.8162 0.0000 0.0000 0.0000
# 3 8.0176 38.8162 120.3662 0.0000 0.0000 0.0000
# 4 0.0000 0.0000 0.0000 31.1626 0.0000 0.0000
# 5 0.0000 0.0000 0.0000 0.0000 27.6892 0.0000
# 6 0.0000 0.0000 0.0000 0.0000 0.0000 -19.3561
#
#
#
# Elastic Compliance Matrix: (Units=1/GPa)
#
#
# Indices 1 2 3 4 5 6 
#
# 1 0.017226 -0.005140 0.000510 0.000000 0.000000 0.000000
# 2 -0.005140 0.012860 -0.003805 0.000000 0.000000 0.000000
# 3 0.000510 -0.003805 0.009501 0.000000 0.000000 0.000000
# 4 0.000000 0.000000 0.000000 0.032090 0.000000 0.000000
# 5 0.000000 0.000000 0.000000 0.000000 0.036115 0.000000
# 6 0.000000 0.000000 0.000000 0.000000 0.000000 -0.051663
#
#
# Mechanical properties :
#
#
# Convention : Reuss Voigt Hill
#
# Bulk Modulus (GPa) = 44.01804 48.79341 46.40572
# Shear Modulus (GPa) = 62.05818 22.02293 42.04056
#
# Velocity S-wave (km/s) = 5.96930 3.55600 4.91313
# Velocity P-wave (km/s) = 8.53137 6.69898 7.67009
#
# Compressibility (1/GPa) = 0.02271796
#
# Stress axis : x y z
#
# Youngs Moduli (GPa) = 58.05343 77.75945 105.25191
#
# Poissons Ratio (x) = 0.39965 -0.05368
# Poissons Ratio (y) = 0.29837 0.40047
# Poissons Ratio (z) = -0.02961 0.29586
#
# Static dielectric constant tensor:
#      x y z
#    x 1.616600 0.000000 0.000000 
#    y 0.000000 1.554700 0.000000 
#    z 0.000000 0.000000 1.590680 
# 
# From -- ./inp_files/1885.got.cif
#   From: 2010.05.17/outbox.cif.g08.bks.cpg/sg38_1_cif.got.tgz:1885.got - 2010.06.03 18:07:57.
