data_PCOD9356622
_publ_section_title
;
Structure prediction by ZEFSAII (Michael W. Deem and Ramdas Pophale) SiO2 
 PCOD9356622
Probable space group: A M M 2
;
_chemical_formula_sum "Si O2"
_cell_formula_units_Z 48
_cell_length_a 8.761296
_cell_length_b 24.680194
_cell_length_c 14.015133
_cell_angle_alpha 90.000000
_cell_angle_beta 90.000000
_cell_angle_gamma 90.000000
_cell_volume 3030.499006
_symmetry_space_group_name_H-M "A M M 2"
_symmetry_group_IT_number 38
_symmetry_cell_setting 'orthorhombic'
loop_
_space_group_symop_operation_xyz
x,y,z
-x,-y,z
-x,y,z
x,-y,z
x,1/2+y,1/2+z
-x,1/2-y,1/2+z
-x,1/2+y,1/2+z
x,1/2-y,1/2+z
loop_
_atom_site_type_symbol
_atom_site_label
_atom_site_fract_x
_atom_site_fract_y
_atom_site_fract_z
Si Si1 0.685633 0.439553 0.605570
Si Si2 0.182447 0.272996 0.099270
Si Si3 0.315559 0.169725 0.202469
Si Si4 0.316102 0.438070 0.383497
Si Si5 0.182494 0.167268 0.792119
Si Si6 0.682586 0.229149 0.394945
O O1 0.500000 0.440332 0.608146
O O2 0.737934 0.500000 0.632991
O O3 0.736025 0.389933 0.671238
O O4 0.727184 0.429832 0.494855
O O5 0.246122 0.214753 0.132524
O O6 0.224645 0.314227 0.184704
O O7 0.000000 0.270651 0.093410
O O8 0.250660 0.286865 0.996798
O O9 0.500000 0.172224 0.194545
O O10 0.274949 0.187843 0.309705
O O11 0.500000 0.433691 0.377935
O O12 0.274687 0.500000 0.357778
O O13 0.241635 0.391720 0.320178
O O14 0.254265 0.212333 0.862246
O O15 0.000000 0.169715 0.800569
O O16 0.500000 0.232115 0.400522
#
# Coordination Sequence:
#
# PCOD9356622 Si02
#       6
#     8   8   8   8   8   8
#     4   8  14  26  45  68  92 116 143 178 221 268
#     4  10  20  32  46  66  92 122 154 189 230 274
#     4   9  17  29  47  70  92 118 151 185 225 272
#     4   9  17  29  47  71  96 122 152 187 229 277
#     4  10  20  32  47  68  93 122 155 191 232 278
#     4  10  19  30  46  68  93 121 153 190 231 276
#
# _framework density 15.838976000000001
#
# number of rings (size 3 to 8) (size 9 to 14) (size 15 to 20)
#    0.000    2.667    0.000    3.500    0.000    4.333 
#    0.000    0.000    0.000    2.500    0.000    2.333 
#    0.000    0.000    0.000    0.000    0.000    0.000 
#
# Total GULP energy -133800.308238 kJ/mol
# GULP energy per Si atom -5575.012843 kJ/mol
# Density = 1.580293 g / cm^3
# Si number density = 15.838976 Si / 1000 Ang^3
#
#
#
# Elastic Constant Matrix: (Units=GPa)
#
#
# Indices 1 2 3 4 5 6 
#
# 1 22.6460 30.6230 30.1267 0.0000 0.0000 0.0000
# 2 30.6230 143.0688 72.6075 0.0000 0.0000 0.0000
# 3 30.1267 72.6075 99.0425 0.0000 0.0000 0.0000
# 4 0.0000 0.0000 0.0000 19.2426 0.0000 0.0000
# 5 0.0000 0.0000 0.0000 0.0000 24.0789 0.0000
# 6 0.0000 0.0000 0.0000 0.0000 0.0000 9.0082
#
#
#
# Elastic Compliance Matrix: (Units=1/GPa)
#
#
# Indices 1 2 3 4 5 6 
#
# 1 0.078921 -0.007500 -0.018508 0.000000 0.000000 0.000000
# 2 -0.007500 0.011844 -0.006401 0.000000 0.000000 0.000000
# 3 -0.018508 -0.006401 0.020419 0.000000 0.000000 0.000000
# 4 0.000000 0.000000 0.000000 0.051968 0.000000 0.000000
# 5 0.000000 0.000000 0.000000 0.000000 0.041530 0.000000
# 6 0.000000 0.000000 0.000000 0.000000 0.000000 0.111010
#
#
# Mechanical properties :
#
#
# Convention : Reuss Voigt Hill
#
# Bulk Modulus (GPa) = 21.56763 59.05242 40.31002
# Shear Modulus (GPa) = 12.62734 19.22593 15.92664
#
# Velocity S-wave (km/s) = 2.82659 3.48780 3.17446
# Velocity P-wave (km/s) = 4.92942 7.32008 6.24030
#
# Compressibility (1/GPa) = 0.04636579
#
# Stress axis : x y z
#
# Youngs Moduli (GPa) = 12.67084 84.43448 48.97352
#
# Poissons Ratio (x) = 0.63323 0.90642
# Poissons Ratio (y) = 0.09503 0.31349
# Poissons Ratio (z) = 0.23452 0.54048
#
# Static dielectric constant tensor:
#      x y z
#    x 1.528350 0.000000 0.000000 
#    y 0.000000 1.520810 0.000000 
#    z 0.000000 0.000000 1.522230 
# 
# From -- ./inp_files/8381.got.cif
#   From: 2010.05.17/outbox.cif.g08.bks.cpg/sg38_5_cif.got.tgz:8381.got - 2010.06.03 18:07:57.
