data_PCOD9356652
_publ_section_title
;
Structure prediction by ZEFSAII (Michael W. Deem and Ramdas Pophale) SiO2 
 PCOD9356652
Probable space group: A M M 2
;
_chemical_formula_sum "Si O2"
_cell_formula_units_Z 56
_cell_length_a 8.915723
_cell_length_b 19.539974
_cell_length_c 18.461710
_cell_angle_alpha 90.000000
_cell_angle_beta 90.000000
_cell_angle_gamma 90.000000
_cell_volume 3216.269803
_symmetry_space_group_name_H-M "A M M 2"
_symmetry_group_IT_number 38
_symmetry_cell_setting 'orthorhombic'
loop_
_space_group_symop_operation_xyz
x,y,z
-x,-y,z
-x,y,z
x,-y,z
x,1/2+y,1/2+z
-x,1/2-y,1/2+z
-x,1/2+y,1/2+z
x,1/2-y,1/2+z
loop_
_atom_site_type_symbol
_atom_site_label
_atom_site_fract_x
_atom_site_fract_y
_atom_site_fract_z
Si Si1 0.320888 0.074859 0.623480
Si Si2 0.679517 0.204016 0.995479
Si Si3 0.170165 0.292165 0.118335
Si Si4 0.170382 0.662169 0.722440
Si Si5 0.181604 0.579604 0.583713
Si Si6 0.679158 0.196823 0.372791
Si Si7 0.821165 0.924987 0.463418
O O1 0.500000 0.081718 0.622466
O O2 0.244519 0.142021 0.655448
O O3 0.256190 0.075331 0.541948
O O4 0.283622 0.000000 0.655248
O O5 0.500000 0.197762 0.999558
O O6 0.734685 0.263362 0.050858
O O7 0.751703 0.133641 0.025639
O O8 0.721011 0.232615 0.915391
O O9 0.163364 0.229726 0.173397
O O10 0.000000 0.307892 0.094858
O O11 0.225862 0.604721 0.665101
O O12 0.266853 0.683257 0.791422
O O13 0.000000 0.643792 0.745689
O O14 0.221704 0.500000 0.571672
O O15 0.000000 0.585702 0.580991
O O16 0.500000 0.192337 0.376535
O O17 0.753289 0.135458 0.417380
O O18 0.000000 0.918254 0.470751
O O19 0.790797 0.000000 0.430313
#
# Coordination Sequence:
#
# PCOD9356652 Si02
#       7
#     8   8   8   8   8   8   8
#     4  10  19  30  47  73 103 132 163 204 253 302
#     4  10  20  33  52  78 106 137 175 220 267 315
#     4  10  19  33  53  75  99 132 175 218 259 308
#     4   9  20  35  52  76 105 138 175 216 264 318
#     4   9  19  37  59  82 107 137 178 226 273 324
#     4  11  22  34  50  76 108 142 177 216 264 317
#     4  10  20  32  48  71 100 136 173 207 245 294
#
# _framework density 17.411473999999998
#
# number of rings (size 3 to 8) (size 9 to 14) (size 15 to 20)
#    0.000    2.143    1.429    3.000    0.000    7.143 
#    0.000    1.429    0.000    0.857    0.000    0.000 
#    0.000    0.000    0.000    0.000    0.000    0.000 
#
# Total GULP energy -155973.317832 kJ/mol
# GULP energy per Si atom -5570.475637 kJ/mol
# Density = 1.737185 g / cm^3
# Si number density = 17.411474 Si / 1000 Ang^3
#
#
#
# Elastic Constant Matrix: (Units=GPa)
#
#
# Indices 1 2 3 4 5 6 
#
# 1 48.7203 37.3837 15.5250 0.0000 0.0000 0.0000
# 2 37.3837 130.9926 31.7100 0.0000 0.0000 0.0000
# 3 15.5250 31.7100 50.1195 0.0000 0.0000 0.0000
# 4 0.0000 0.0000 0.0000 14.2306 0.0000 0.0000
# 5 0.0000 0.0000 0.0000 0.0000 27.2857 0.0000
# 6 0.0000 0.0000 0.0000 0.0000 0.0000 28.7182
#
#
#
# Elastic Compliance Matrix: (Units=1/GPa)
#
#
# Indices 1 2 3 4 5 6 
#
# 1 0.026981 -0.006704 -0.004116 0.000000 0.000000 0.000000
# 2 -0.006704 0.010680 -0.004681 0.000000 0.000000 0.000000
# 3 -0.004116 -0.004681 0.024189 0.000000 0.000000 0.000000
# 4 0.000000 0.000000 0.000000 0.070271 0.000000 0.000000
# 5 0.000000 0.000000 0.000000 0.000000 0.036649 0.000000
# 6 0.000000 0.000000 0.000000 0.000000 0.000000 0.034821
#
#
# Mechanical properties :
#
#
# Convention : Reuss Voigt Hill
#
# Bulk Modulus (GPa) = 32.41640 44.34108 38.37874
# Shear Modulus (GPa) = 20.41859 23.72784 22.07322
#
# Velocity S-wave (km/s) = 3.42820 3.69558 3.56440
# Velocity P-wave (km/s) = 5.85904 6.61299 6.24740
#
# Compressibility (1/GPa) = 0.03084859
#
# Stress axis : x y z
#
# Youngs Moduli (GPa) = 37.06357 93.63108 41.34140
#
# Poissons Ratio (x) = 0.62766 0.17017
# Poissons Ratio (y) = 0.24846 0.19351
# Poissons Ratio (z) = 0.15256 0.43826
#
# Static dielectric constant tensor:
#      x y z
#    x 1.592760 0.000000 0.000000 
#    y 0.000000 1.633370 0.000000 
#    z 0.000000 0.000000 1.593070 
# 
# From -- ./inp_files/17081.got.cif
#   From: 2010.05.17/outbox.cif.g08.bks.cpg/sg38_9_cif.got.tgz:17081.got - 2010.06.03 18:07:57.
