data_PCOD9356167
_publ_section_title
;
Structure prediction by ZEFSAII (Michael W. Deem and Ramdas Pophale) SiO2 
 PCOD9356167
Probable space group: A M M 2
;
_chemical_formula_sum "Si O2"
_cell_formula_units_Z 64
_cell_length_a 7.788773
_cell_length_b 19.260272
_cell_length_c 22.343387
_cell_angle_alpha 90.000000
_cell_angle_beta 90.000000
_cell_angle_gamma 90.000000
_cell_volume 3351.818322
_symmetry_space_group_name_H-M "A M M 2"
_symmetry_group_IT_number 38
_symmetry_cell_setting 'orthorhombic'
loop_
_space_group_symop_operation_xyz
x,y,z
-x,-y,z
-x,y,z
x,-y,z
x,1/2+y,1/2+z
-x,1/2-y,1/2+z
-x,1/2+y,1/2+z
x,1/2-y,1/2+z
loop_
_atom_site_type_symbol
_atom_site_label
_atom_site_fract_x
_atom_site_fract_y
_atom_site_fract_z
Si Si1 0.298696 0.077642 0.053860
Si Si2 0.306857 0.813336 0.145321
Si Si3 0.704401 0.721661 0.245417
Si Si4 0.296595 0.729211 0.875571
Si Si5 0.207723 0.423367 0.295541
Si Si6 0.799399 0.126201 0.925205
Si Si7 0.795886 0.077667 0.237473
Si Si8 0.793498 0.924051 0.377436
O O1 0.500000 0.074670 0.070957
O O2 0.222503 0.141721 0.092260
O O3 0.225936 0.000000 0.063602
O O4 0.287444 0.097315 0.984359
O O5 0.500000 0.793071 0.125775
O O6 0.224053 0.749833 0.182269
O O7 0.309920 0.869261 0.198942
O O8 0.500000 0.734643 0.243266
O O9 0.770589 0.759028 0.306800
O O10 0.733437 0.640464 0.255377
O O11 0.500000 0.740609 0.873251
O O12 0.220718 0.791106 0.915474
O O13 0.264549 0.651528 0.899469
O O14 0.263787 0.500000 0.276983
O O15 0.266607 0.407521 0.363490
O O16 0.000000 0.421802 0.296610
O O17 0.000000 0.109125 0.930615
O O18 0.747016 0.077693 0.307014
O O19 0.000000 0.093421 0.233667
O O20 0.770270 0.000000 0.214158
O O21 0.000000 0.924903 0.381212
O O22 0.732917 0.000000 0.400949
#
# Coordination Sequence:
#
# PCOD9356167 Si02
#       8
#     8   8   8   8   8   8   8   8
#     4  10  21  35  50  70  98 133 170 207 245 284
#     4  10  19  32  47  66  95 130 166 201 239 285
#     4   9  18  30  45  69  97 125 158 196 239 290
#     4  10  18  30  48  71  97 126 164 206 248 296
#     4   9  18  32  50  72  96 123 155 195 245 295
#     4  10  20  34  52  71  95 128 166 208 250 294
#     4   9  17  27  40  61  90 125 163 198 231 271
#     4   9  17  28  42  64  96 130 162 197 239 287
#
# _framework density 19.094114000000001
#
# number of rings (size 3 to 8) (size 9 to 14) (size 15 to 20)
#    0.000    2.500    1.250    2.250    0.000    4.000 
#    0.000    1.250    0.000    0.000    0.000    0.875 
#    0.000    5.000    0.000    0.000    0.000    0.000 
#
# Total GULP energy -178289.536910 kJ/mol
# GULP energy per Si atom -5571.548028 kJ/mol
# Density = 1.905066 g / cm^3
# Si number density = 19.094114 Si / 1000 Ang^3
#
#
#
# Elastic Constant Matrix: (Units=GPa)
#
#
# Indices 1 2 3 4 5 6 
#
# 1 25.1045 -0.2970 -0.3175 0.0000 0.0000 0.0000
# 2 -0.2970 134.5815 37.5645 0.0000 0.0000 0.0000
# 3 -0.3175 37.5645 63.4031 0.0000 0.0000 0.0000
# 4 0.0000 0.0000 0.0000 20.8220 0.0000 0.0000
# 5 0.0000 0.0000 0.0000 0.0000 6.0741 0.0000
# 6 0.0000 0.0000 0.0000 0.0000 0.0000 21.2523
#
#
#
# Elastic Compliance Matrix: (Units=1/GPa)
#
#
# Indices 1 2 3 4 5 6 
#
# 1 0.039836 0.000039 0.000177 0.000000 0.000000 0.000000
# 2 0.000039 0.008903 -0.005274 0.000000 0.000000 0.000000
# 3 0.000177 -0.005274 0.018898 0.000000 0.000000 0.000000
# 4 0.000000 0.000000 0.000000 0.048026 0.000000 0.000000
# 5 0.000000 0.000000 0.000000 0.000000 0.164635 0.000000
# 6 0.000000 0.000000 0.000000 0.000000 0.000000 0.047054
#
#
# Mechanical properties :
#
#
# Convention : Reuss Voigt Hill
#
# Bulk Modulus (GPa) = 17.38572 32.99878 25.19225
# Shear Modulus (GPa) = 14.01965 22.03896 18.02930
#
# Velocity S-wave (km/s) = 2.71262 3.40108 3.07617
# Velocity P-wave (km/s) = 4.35157 5.72213 5.08326
#
# Compressibility (1/GPa) = 0.05751846
#
# Stress axis : x y z
#
# Youngs Moduli (GPa) = 25.10281 112.32514 52.91587
#
# Poissons Ratio (x) = -0.00434 -0.00935
# Poissons Ratio (y) = -0.00097 0.27910
# Poissons Ratio (z) = -0.00443 0.59245
#
# Static dielectric constant tensor:
#      x y z
#    x 1.716920 0.000000 0.000000 
#    y 0.000000 1.734470 0.000000 
#    z 0.000000 0.000000 1.663460 
# 
# From -- ./inp_files/20029.got.cif
#   From: 2010.05.17/outbox.cif.g08.bks.cpg/sg38_11_cif.got.tgz:20029.got - 2010.06.03 18:07:57.
