data_PCOD9356769
_publ_section_title
;
Structure prediction by ZEFSAII (Michael W. Deem and Ramdas Pophale) SiO2 
 PCOD9356769
Probable space group: A M M 2
;
_chemical_formula_sum "Si O2"
_cell_formula_units_Z 56
_cell_length_a 18.382728
_cell_length_b 8.605671
_cell_length_c 19.669516
_cell_angle_alpha 90.000000
_cell_angle_beta 90.000000
_cell_angle_gamma 90.000000
_cell_volume 3111.633034
_symmetry_space_group_name_H-M "A M M 2"
_symmetry_group_IT_number 38
_symmetry_cell_setting 'orthorhombic'
loop_
_space_group_symop_operation_xyz
x,y,z
-x,-y,z
-x,y,z
x,-y,z
x,1/2+y,1/2+z
-x,1/2-y,1/2+z
-x,1/2+y,1/2+z
x,1/2-y,1/2+z
loop_
_atom_site_type_symbol
_atom_site_label
_atom_site_fract_x
_atom_site_fract_y
_atom_site_fract_z
Si Si1 0.914638 0.825064 0.077670
Si Si2 0.198043 0.820213 0.659589
Si Si3 0.237640 0.685009 0.393426
Si Si4 0.083863 0.813693 0.427209
Si Si5 0.304424 0.317416 0.761106
Si Si6 0.417310 0.188833 0.145339
Si Si7 0.296949 0.687983 0.541411
O O1 0.882612 0.723489 0.138206
O O2 0.000000 0.836431 0.086352
O O3 0.882972 0.000000 0.078392
O O4 0.903476 0.750227 0.003599
O O5 0.231607 0.714293 0.717833
O O6 0.241413 0.774232 0.591284
O O7 0.207507 0.000000 0.676777
O O8 0.229087 0.500000 0.393754
O O9 0.155895 0.755587 0.387614
O O10 0.290219 0.734638 0.332165
O O11 0.276289 0.730815 0.464669
O O12 0.000000 0.765578 0.407360
O O13 0.084585 0.000000 0.427573
O O14 0.314953 0.500000 0.772326
O O15 0.368802 0.260330 0.710428
O O16 0.500000 0.245227 0.147406
O O17 0.374928 0.228038 0.075388
O O18 0.418590 0.000000 0.148535
O O19 0.289778 0.500000 0.547464
#
# Coordination Sequence:
#
# PCOD9356769 Si02
#       7
#     8   8   8   8   8   8   8
#     4  10  19  31  49  74 104 138 177 223 273 319
#     4  11  20  32  52  76 103 135 176 223 268 319
#     4  11  21  34  53  79 112 146 184 227 272 322
#     4  10  20  33  51  77 107 142 184 228 275 321
#     4  10  21  36  55  77 107 144 182 222 271 325
#     4   8  15  32  58  83 105 137 181 222 266 325
#     4   9  18  32  53  79 106 137 174 218 266 317
#
# _framework density 17.996980000000001
#
# number of rings (size 3 to 8) (size 9 to 14) (size 15 to 20)
#    0.000    2.143    1.429    3.857    0.000    2.286 
#    0.000    1.429    0.000   15.857    0.000    0.000 
#    0.000    0.000    0.000    0.000    0.000    0.000 
#
# Total GULP energy -155992.997307 kJ/mol
# GULP energy per Si atom -5571.178475 kJ/mol
# Density = 1.795602 g / cm^3
# Si number density = 17.996980 Si / 1000 Ang^3
#
#
#
# Elastic Constant Matrix: (Units=GPa)
#
#
# Indices 1 2 3 4 5 6 
#
# 1 104.1094 12.4319 40.2640 0.0000 0.0000 0.0000
# 2 12.4319 32.4035 8.6049 0.0000 0.0000 0.0000
# 3 40.2640 8.6049 85.1466 0.0000 0.0000 0.0000
# 4 0.0000 0.0000 0.0000 26.1371 0.0000 0.0000
# 5 0.0000 0.0000 0.0000 0.0000 18.6227 0.0000
# 6 0.0000 0.0000 0.0000 0.0000 0.0000 14.1495
#
#
#
# Elastic Compliance Matrix: (Units=1/GPa)
#
#
# Indices 1 2 3 4 5 6 
#
# 1 0.012070 -0.003201 -0.005384 0.000000 0.000000 0.000000
# 2 -0.003201 0.032561 -0.001777 0.000000 0.000000 0.000000
# 3 -0.005384 -0.001777 0.014470 0.000000 0.000000 0.000000
# 4 0.000000 0.000000 0.000000 0.038260 0.000000 0.000000
# 5 0.000000 0.000000 0.000000 0.000000 0.053698 0.000000
# 6 0.000000 0.000000 0.000000 0.000000 0.000000 0.070674
#
#
# Mechanical properties :
#
#
# Convention : Reuss Voigt Hill
#
# Bulk Modulus (GPa) = 26.05746 38.25125 32.15435
# Shear Modulus (GPa) = 19.58875 22.47242 21.03059
#
# Velocity S-wave (km/s) = 3.30274 3.53750 3.42213
# Velocity P-wave (km/s) = 5.39021 6.16324 5.78964
#
# Compressibility (1/GPa) = 0.03837673
#
# Stress axis : x y z
#
# Youngs Moduli (GPa) = 82.85157 30.71182 69.10832
#
# Poissons Ratio (x) = 0.09831 0.37208
# Poissons Ratio (y) = 0.26520 0.12280
# Poissons Ratio (z) = 0.44608 0.05457
#
# Static dielectric constant tensor:
#      x y z
#    x 1.670170 0.000000 0.000000 
#    y 0.000000 1.617810 0.000000 
#    z 0.000000 0.000000 1.611140 
# 
# From -- ./inp_files/21292.got.cif
#   From: 2010.05.17/outbox.cif.g08.bks.cpg/sg38_11_cif.got.tgz:21292.got - 2010.06.03 18:07:57.
