data_PCOD9356972
_publ_section_title
;
Structure prediction by ZEFSAII (Michael W. Deem and Ramdas Pophale) SiO2 
 PCOD9356972
Probable space group: A M M 2
;
_chemical_formula_sum "Si O2"
_cell_formula_units_Z 64
_cell_length_a 16.542229
_cell_length_b 9.311447
_cell_length_c 23.447927
_cell_angle_alpha 90.000000
_cell_angle_beta 90.000000
_cell_angle_gamma 90.000000
_cell_volume 3611.733169
_symmetry_space_group_name_H-M "A M M 2"
_symmetry_group_IT_number 38
_symmetry_cell_setting 'orthorhombic'
loop_
_space_group_symop_operation_xyz
x,y,z
-x,-y,z
-x,y,z
x,-y,z
x,1/2+y,1/2+z
-x,1/2-y,1/2+z
-x,1/2+y,1/2+z
x,1/2-y,1/2+z
loop_
_atom_site_type_symbol
_atom_site_label
_atom_site_fract_x
_atom_site_fract_y
_atom_site_fract_z
Si Si1 0.595608 0.660815 0.079210
Si Si2 0.225404 0.830918 0.884400
Si Si3 0.905825 0.672934 0.681396
Si Si4 0.908424 0.340972 0.942030
Si Si5 0.297361 0.670916 0.504810
Si Si6 0.755932 0.828358 0.265673
Si Si7 0.405299 0.171297 0.194446
Si Si8 0.150521 0.330520 0.066894
O O1 0.500000 0.648460 0.079768
O O2 0.630607 0.500000 0.075527
O O3 0.621067 0.760684 0.027252
O O4 0.616526 0.740554 0.137861
O O5 0.139827 0.780437 0.909579
O O6 0.240947 0.747721 0.826472
O O7 0.228307 0.000000 0.874308
O O8 0.282938 0.796339 0.938355
O O9 0.900494 0.500000 0.673061
O O10 0.834003 0.712226 0.726246
O O11 0.886006 0.753442 0.622128
O O12 0.000000 0.704025 0.698368
O O13 0.871814 0.500000 0.930820
O O14 0.000000 0.342390 0.922894
O O15 0.904704 0.320564 0.010187
O O16 0.292116 0.500000 0.512551
O O17 0.230712 0.749125 0.544693
O O18 0.668093 0.797186 0.237658
O O19 0.761107 0.000000 0.272811
O O20 0.500000 0.203962 0.210721
O O21 0.402881 0.000000 0.182781
O O22 0.163820 0.500000 0.078221
#
# Coordination Sequence:
#
# PCOD9356972 Si02
#       8
#     8   8   8   8   8   8   8   8
#     4  10  20  33  53  84 115 139 168 210 260 313
#     4  10  22  37  53  75 101 133 177 223 264 309
#     4  10  21  35  51  75 108 145 182 218 262 321
#     4   9  18  33  53  76 103 136 172 212 262 318
#     4  10  20  35  54  76 105 141 177 213 262 322
#     4  10  21  37  55  74 102 142 183 222 265 314
#     4   9  18  34  57  83 109 140 178 217 262 320
#     4  10  19  32  53  80 107 135 172 219 269 318
#
# _framework density 17.720023999999999
#
# number of rings (size 3 to 8) (size 9 to 14) (size 15 to 20)
#    0.000    2.250    0.000    2.625    0.000    6.250 
#    0.000    1.875    0.000    2.250    0.000    0.000 
#    0.000    0.000    0.000    0.000    0.000    0.000 
#
# Total GULP energy -178306.036452 kJ/mol
# GULP energy per Si atom -5572.063639 kJ/mol
# Density = 1.767969 g / cm^3
# Si number density = 17.720024 Si / 1000 Ang^3
#
#
#
# Elastic Constant Matrix: (Units=GPa)
#
#
# Indices 1 2 3 4 5 6 
#
# 1 63.9537 39.2590 69.2294 0.0000 0.0000 0.0000
# 2 39.2590 51.4620 67.2659 0.0000 0.0000 0.0000
# 3 69.2294 67.2659 123.9893 0.0000 0.0000 0.0000
# 4 0.0000 0.0000 0.0000 33.9550 0.0000 0.0000
# 5 0.0000 0.0000 0.0000 0.0000 2.1195 0.0000
# 6 0.0000 0.0000 0.0000 0.0000 0.0000 20.9382
#
#
#
# Elastic Compliance Matrix: (Units=1/GPa)
#
#
# Indices 1 2 3 4 5 6 
#
# 1 0.039831 -0.004526 -0.019784 0.000000 0.000000 0.000000
# 2 -0.004526 0.067318 -0.033994 0.000000 0.000000 0.000000
# 3 -0.019784 -0.033994 0.037554 0.000000 0.000000 0.000000
# 4 0.000000 0.000000 0.000000 0.029451 0.000000 0.000000
# 5 0.000000 0.000000 0.000000 0.000000 0.471810 0.000000
# 6 0.000000 0.000000 0.000000 0.000000 0.000000 0.047760
#
#
# Mechanical properties :
#
#
# Convention : Reuss Voigt Hill
#
# Bulk Modulus (GPa) = 35.59405 65.65706 50.62555
# Shear Modulus (GPa) = 6.09982 15.64590 10.87286
#
# Velocity S-wave (km/s) = 1.85737 2.97467 2.47977
# Velocity P-wave (km/s) = 4.97295 6.99508 6.06883
#
# Compressibility (1/GPa) = 0.02809459
#
# Stress axis : x y z
#
# Youngs Moduli (GPa) = 25.10617 14.85485 26.62853
#
# Poissons Ratio (x) = 0.06724 0.52682
# Poissons Ratio (y) = 0.11364 0.90520
# Poissons Ratio (z) = 0.49670 0.50497
#
# Static dielectric constant tensor:
#      x y z
#    x 1.649780 0.000000 0.000000 
#    y 0.000000 1.618680 0.000000 
#    z 0.000000 0.000000 1.578910 
# 
# From -- ./inp_files/21385.got.cif
#   From: 2010.05.17/outbox.cif.g08.bks.cpg/sg38_11_cif.got.tgz:21385.got - 2010.06.03 18:07:57.
