data_PCOD9356007
_publ_section_title
;
Structure prediction by ZEFSAII (Michael W. Deem and Ramdas Pophale) SiO2 
 PCOD9356007
Probable space group: A M M 2
;
_chemical_formula_sum "Si O2"
_cell_formula_units_Z 56
_cell_length_a 9.211171
_cell_length_b 29.603624
_cell_length_c 13.977325
_cell_angle_alpha 90.000000
_cell_angle_beta 90.000000
_cell_angle_gamma 90.000000
_cell_volume 3811.393490
_symmetry_space_group_name_H-M "A M M 2"
_symmetry_group_IT_number 38
_symmetry_cell_setting 'orthorhombic'
loop_
_space_group_symop_operation_xyz
x,y,z
-x,-y,z
-x,y,z
x,-y,z
x,1/2+y,1/2+z
-x,1/2-y,1/2+z
-x,1/2+y,1/2+z
x,1/2-y,1/2+z
loop_
_atom_site_type_symbol
_atom_site_label
_atom_site_fract_x
_atom_site_fract_y
_atom_site_fract_z
Si Si1 0.674133 0.185099 0.698420
Si Si2 0.673091 0.408865 0.296647
Si Si3 0.171856 0.677075 0.614247
Si Si4 0.172898 0.726244 0.020317
Si Si5 0.833504 0.000000 0.792541
Si Si6 0.173545 0.267873 0.800845
Si Si7 0.326877 0.907815 0.023136
Si Si8 0.832204 0.000000 0.025073
O O1 0.500000 0.188945 0.697653
O O2 0.713645 0.135760 0.738055
O O3 0.739148 0.195524 0.594085
O O4 0.741672 0.223400 0.767145
O O5 0.500000 0.415658 0.288706
O O6 0.753454 0.454084 0.263284
O O7 0.704693 0.401506 0.409560
O O8 0.201081 0.721542 0.549678
O O9 0.203232 0.693430 0.722425
O O10 0.263580 0.634770 0.579464
O O11 0.000000 0.666884 0.606471
O O12 0.000000 0.718915 0.034053
O O13 0.209182 0.719417 0.909394
O O14 0.830256 0.000000 0.908839
O O15 0.000000 0.000000 0.761604
O O16 0.000000 0.258518 0.796080
O O17 0.500000 0.911276 0.033968
O O18 0.250258 0.954381 0.054396
O O19 0.000000 0.000000 0.055717
#
# Coordination Sequence:
#
# PCOD9356007 Si02
#       8
#     8   8   8   8   4   8   8   4
#     4  10  19  29  44  67  91 117 149 181 219 264
#     4   9  18  30  42  60  90 121 143 171 215 262
#     4   9  17  28  43  64  87 113 146 180 217 257
#     4   9  18  32  47  63  87 119 152 186 220 255
#     4   9  17  27  43  65  84 109 146 181 211 250
#     4   9  18  32  47  63  87 119 152 185 220 257
#     4  10  18  28  43  63  88 117 146 175 211 257
#     4   9  17  29  43  61  86 113 142 177 215 254
#
# _framework density 14.692788999999999
#
# number of rings (size 3 to 8) (size 9 to 14) (size 15 to 20)
#    0.000    2.714    0.000    3.000    0.000    6.286 
#    0.000    0.000    0.000    0.000    0.000    1.000 
#    0.000    5.714    0.000    0.000    0.000    0.000 
#
# Total GULP energy -156063.983656 kJ/mol
# GULP energy per Si atom -5573.713702 kJ/mol
# Density = 1.465935 g / cm^3
# Si number density = 14.692789 Si / 1000 Ang^3
#
#
#
# Elastic Constant Matrix: (Units=GPa)
#
#
# Indices 1 2 3 4 5 6 
#
# 1 62.8124 75.0758 46.7636 0.0000 0.0000 0.0000
# 2 75.0758 139.7005 61.8173 0.0000 0.0000 0.0000
# 3 46.7636 61.8173 88.6628 0.0000 0.0000 0.0000
# 4 0.0000 0.0000 0.0000 21.5272 0.0000 0.0000
# 5 0.0000 0.0000 0.0000 0.0000 20.0310 0.0000
# 6 0.0000 0.0000 0.0000 0.0000 0.0000 29.0421
#
#
#
# Elastic Compliance Matrix: (Units=1/GPa)
#
#
# Indices 1 2 3 4 5 6 
#
# 1 0.051349 -0.022576 -0.011343 0.000000 0.000000 0.000000
# 2 -0.022576 0.020278 -0.002231 0.000000 0.000000 0.000000
# 3 -0.011343 -0.002231 0.018816 0.000000 0.000000 0.000000
# 4 0.000000 0.000000 0.000000 0.046453 0.000000 0.000000
# 5 0.000000 0.000000 0.000000 0.000000 0.049923 0.000000
# 6 0.000000 0.000000 0.000000 0.000000 0.000000 0.034433
#
#
# Mechanical properties :
#
#
# Convention : Reuss Voigt Hill
#
# Bulk Modulus (GPa) = 55.11373 73.16549 64.13961
# Shear Modulus (GPa) = 16.68906 21.28797 18.98852
#
# Velocity S-wave (km/s) = 3.37392 3.81053 3.59885
# Velocity P-wave (km/s) = 7.26429 8.32257 7.81137
#
# Compressibility (1/GPa) = 0.01814430
#
# Stress axis : x y z
#
# Youngs Moduli (GPa) = 19.47473 49.31526 53.14519
#
# Poissons Ratio (x) = 1.11334 0.60280
# Poissons Ratio (y) = 0.43966 0.11855
# Poissons Ratio (z) = 0.22089 0.11001
#
# Static dielectric constant tensor:
#      x y z
#    x 1.490380 0.000000 0.000000 
#    y 0.000000 1.463530 0.000000 
#    z 0.000000 0.000000 1.476040 
# 
# From -- ./inp_files/13014.got.cif
#   From: 2010.05.17/outbox.cif.g08.bks.cpg/sg38_7_cif.got.tgz:13014.got - 2010.06.03 18:07:57.
