data_PCOD9356404
_publ_section_title
;
Structure prediction by ZEFSAII (Michael W. Deem and Ramdas Pophale) SiO2 
 PCOD9356404
Probable space group: A M M 2
;
_chemical_formula_sum "Si O2"
_cell_formula_units_Z 44
_cell_length_a 14.819861
_cell_length_b 8.537577
_cell_length_c 13.037106
_cell_angle_alpha 90.000000
_cell_angle_beta 90.000000
_cell_angle_gamma 90.000000
_cell_volume 1649.529020
_symmetry_space_group_name_H-M "A M M 2"
_symmetry_group_IT_number 38
_symmetry_cell_setting 'orthorhombic'
loop_
_space_group_symop_operation_xyz
x,y,z
-x,-y,z
-x,y,z
x,-y,z
x,1/2+y,1/2+z
-x,1/2-y,1/2+z
-x,1/2+y,1/2+z
x,1/2-y,1/2+z
loop_
_atom_site_type_symbol
_atom_site_label
_atom_site_fract_x
_atom_site_fract_y
_atom_site_fract_z
Si Si1 0.597826 0.174049 0.606550
Si Si2 0.215455 0.000000 0.160423
Si Si3 0.098468 0.500000 0.863433
Si Si4 0.365469 0.677239 0.397387
Si Si5 0.801145 0.331150 0.154510
Si Si6 0.399920 0.000000 0.272896
Si Si7 0.149773 0.669497 0.387647
O O1 0.500000 0.184596 0.659537
O O2 0.601889 0.294288 0.513398
O O3 0.691469 0.174130 0.669797
O O4 0.599489 0.000000 0.558379
O O5 0.183214 0.840093 0.107588
O O6 0.174450 0.000000 0.275531
O O7 0.321990 0.000000 0.186367
O O8 0.107955 0.334374 0.921131
O O9 0.000000 0.500000 0.813506
O O10 0.392640 0.500000 0.362390
O O11 0.257150 0.676019 0.404182
O O12 0.390768 0.838046 0.337699
O O13 0.817870 0.500000 0.104504
O O14 0.853435 0.330707 0.262063
O O15 0.500000 0.000000 0.228414
O O16 0.112991 0.500000 0.419357
#
# Coordination Sequence:
#
# PCOD9356404 Si02
#       7
#     8   4   4   8   8   4   8
#     4  10  21  34  48  72 106 139 185 233 265 304
#     4  10  20  36  54  78 108 133 180 212 263 328
#     4  10  18  32  58  88 110 130 162 220 280 324
#     4  11  21  36  53  71 104 145 182 225 267 312
#     4   9  18  34  51  69 100 137 171 217 261 306
#     4  12  22  34  52  74 104 141 180 226 263 308
#     4   9  18  35  56  77 107 137 177 215 264 331
#
# _framework density 26.67428
#
# number of rings (size 3 to 8) (size 9 to 14) (size 15 to 20)
#    0.000    2.000    4.545    0.545    1.273    2.545 
#    0.000    0.000    0.000    0.000    0.000    5.091 
#    0.000    0.000    0.000    0.000    0.000    0.000 
#
# Total GULP energy -122819.812672 kJ/mol
# GULP energy per Si atom -5582.718758 kJ/mol
# Density = 2.661357 g / cm^3
# Si number density = 26.674280 Si / 1000 Ang^3
#
#
#
# Elastic Constant Matrix: (Units=GPa)
#
#
# Indices 1 2 3 4 5 6 
#
# 1 60.5556 24.1636 -1.1372 0.0000 0.0000 0.0000
# 2 24.1636 344.4387 56.8306 0.0000 0.0000 0.0000
# 3 -1.1372 56.8306 65.4037 0.0000 0.0000 0.0000
# 4 0.0000 0.0000 0.0000 57.0839 0.0000 0.0000
# 5 0.0000 0.0000 0.0000 0.0000 -6.3407 0.0000
# 6 0.0000 0.0000 0.0000 0.0000 0.0000 -4.3493
#
#
#
# Elastic Compliance Matrix: (Units=1/GPa)
#
#
# Indices 1 2 3 4 5 6 
#
# 1 0.017126 -0.001460 0.001566 0.000000 0.000000 0.000000
# 2 -0.001460 0.003514 -0.003078 0.000000 0.000000 0.000000
# 3 0.001566 -0.003078 0.017992 0.000000 0.000000 0.000000
# 4 0.000000 0.000000 0.000000 0.017518 0.000000 0.000000
# 5 0.000000 0.000000 0.000000 0.000000 -0.157710 0.000000
# 6 0.000000 0.000000 0.000000 0.000000 0.000000 -0.229922
#
#
# Mechanical properties :
#
#
# Convention : Reuss Voigt Hill
#
# Bulk Modulus (GPa) = 30.59315 70.01245 50.30280
# Shear Modulus (GPa) = -15.89101 35.31484 9.71192
#
# Velocity S-wave (km/s) = -2.44343 3.64253 1.91019
# Velocity P-wave (km/s) = 1.87978 6.63286 4.87486
#
# Compressibility (1/GPa) = 0.03268706
#
# Stress axis : x y z
#
# Youngs Moduli (GPa) = 58.39184 284.60726 55.58085
#
# Poissons Ratio (x) = 0.41549 -0.08705
# Poissons Ratio (y) = 0.08524 0.17110
# Poissons Ratio (z) = -0.09146 0.87614
#
# Static dielectric constant tensor:
#      x y z
#    x 2.026940 0.000000 0.000000 
#    y 0.000000 2.166650 0.000000 
#    z 0.000000 0.000000 2.098900 
# 
# From -- ./inp_files/18101.got.cif
#   From: 2010.05.17/outbox.cif.g08.bks.cpg/sg38_10_cif.got.tgz:18101.got - 2010.06.03 18:07:57.
