data_PCOD9356501
_publ_section_title
;
Structure prediction by ZEFSAII (Michael W. Deem and Ramdas Pophale) SiO2 
 PCOD9356501
Probable space group: A M M 2
;
_chemical_formula_sum "Si O2"
_cell_formula_units_Z 64
_cell_length_a 9.381932
_cell_length_b 13.928082
_cell_length_c 35.148500
_cell_angle_alpha 90.000000
_cell_angle_beta 90.000000
_cell_angle_gamma 90.000000
_cell_volume 4592.935977
_symmetry_space_group_name_H-M "A M M 2"
_symmetry_group_IT_number 38
_symmetry_cell_setting 'orthorhombic'
loop_
_space_group_symop_operation_xyz
x,y,z
-x,-y,z
-x,y,z
x,-y,z
x,1/2+y,1/2+z
-x,1/2-y,1/2+z
-x,1/2+y,1/2+z
x,1/2-y,1/2+z
loop_
_atom_site_type_symbol
_atom_site_label
_atom_site_fract_x
_atom_site_fract_y
_atom_site_fract_z
Si Si1 0.830825 0.389393 0.389600
Si Si2 0.830673 0.888492 0.424216
Si Si3 0.831867 0.795394 0.342406
Si Si4 0.328777 0.712043 0.457914
Si Si5 0.834159 0.616579 0.696577
Si Si6 0.833256 0.383671 0.612190
Si Si7 0.329598 0.112608 0.037194
Si Si8 0.330926 0.614698 0.772039
O O1 0.804275 0.500000 0.379751
O O2 0.800883 0.313221 0.356143
O O3 0.739555 0.357240 0.425987
O O4 0.000000 0.378530 0.398588
O O5 0.805216 0.859664 0.380102
O O6 0.738976 0.815852 0.449454
O O7 0.000000 0.873142 0.430967
O O8 0.797856 0.000000 0.430351
O O9 0.740132 0.831113 0.307268
O O10 0.000000 0.803174 0.333252
O O11 0.500000 0.713930 0.454162
O O12 0.291955 0.672050 0.499602
O O13 0.830570 0.500000 0.695975
O O14 0.786398 0.648875 0.654388
O O15 0.739529 0.646711 0.732210
O O16 0.000000 0.643835 0.701815
O O17 0.822927 0.500000 0.612411
O O18 0.745120 0.351335 0.575645
O O19 0.000000 0.359742 0.607973
O O20 0.500000 0.116625 0.042034
O O21 0.291243 0.000000 0.031312
O O22 0.500000 0.628850 0.771229
O O23 0.303674 0.500000 0.776328
#
# Coordination Sequence:
#
# PCOD9356501 Si02
#       8
#     8   8   8   8   8   8   8   8
#     4   9  18  32  47  61  79 106 140 175 209 244
#     4   9  18  32  47  61  79 106 140 175 210 246
#     4   9  17  29  44  60  78 103 134 167 204 243
#     4  10  19  29  42  62  86 110 138 170 205 247
#     4   8  14  25  39  54  75 104 135 165 198 235
#     4   8  14  24  38  56  76 101 135 169 198 231
#     4   9  17  27  38  55  82 113 139 164 197 237
#     4  10  19  27  37  57  83 109 137 167 197 233
#
# _framework density 13.934442000000001
#
# number of rings (size 3 to 8) (size 9 to 14) (size 15 to 20)
#    0.000    3.000    0.000    3.000    0.000    5.750 
#    0.000    3.750    0.000    0.000    0.000    0.000 
#    0.000    1.000    0.000    9.000    0.000    5.750 
#
# Total GULP energy -178176.184496 kJ/mol
# GULP energy per Si atom -5568.005766 kJ/mol
# Density = 1.390273 g / cm^3
# Si number density = 13.934442 Si / 1000 Ang^3
#
#
#
# Elastic Constant Matrix: (Units=GPa)
#
#
# Indices 1 2 3 4 5 6 
#
# 1 53.7848 39.3937 73.2530 0.0000 0.0000 0.0000
# 2 39.3937 70.5809 52.9875 0.0000 0.0000 0.0000
# 3 73.2530 52.9875 142.2981 0.0000 0.0000 0.0000
# 4 0.0000 0.0000 0.0000 18.1918 0.0000 0.0000
# 5 0.0000 0.0000 0.0000 0.0000 -105.5823 0.0000
# 6 0.0000 0.0000 0.0000 0.0000 0.0000 16.7812
#
#
#
# Elastic Compliance Matrix: (Units=1/GPa)
#
#
# Indices 1 2 3 4 5 6 
#
# 1 0.075826 -0.018068 -0.032306 0.000000 0.000000 0.000000
# 2 -0.018068 0.023971 0.000375 0.000000 0.000000 0.000000
# 3 -0.032306 0.000375 0.023519 0.000000 0.000000 0.000000
# 4 0.000000 0.000000 0.000000 0.054970 0.000000 0.000000
# 5 0.000000 0.000000 0.000000 0.000000 -0.009471 0.000000
# 6 0.000000 0.000000 0.000000 0.000000 0.000000 0.059590
#
#
# Mechanical properties :
#
#
# Convention : Reuss Voigt Hill
#
# Bulk Modulus (GPa) = 42.88635 66.43692 54.66163
# Shear Modulus (GPa) = 14.87325 -7.38654 3.74336
#
# Velocity S-wave (km/s) = 3.27061 -2.30487 1.64080
# Velocity P-wave (km/s) = 6.71614 6.37954 6.55000
#
# Compressibility (1/GPa) = 0.02331744
#
# Stress axis : x y z
#
# Youngs Moduli (GPa) = 13.18816 41.71730 42.51968
#
# Poissons Ratio (x) = 0.75374 1.37364
# Poissons Ratio (y) = 0.23828 -0.01594
# Poissons Ratio (z) = 0.42606 -0.01564
#
# Static dielectric constant tensor:
#      x y z
#    x 1.466250 0.000000 0.000000 
#    y 0.000000 1.445520 0.000000 
#    z 0.000000 0.000000 1.453530 
# 
# From -- ./inp_files/24759.got.cif
#   From: 2010.05.17/outbox.cif.g08.bks.cpg/sg38_13_cif.got.tgz:24759.got - 2010.06.03 18:07:57.
