data_PCOD9356547
_publ_section_title
;
Structure prediction by ZEFSAII (Michael W. Deem and Ramdas Pophale) SiO2 
 PCOD9356547
Probable space group: A M M 2
;
_chemical_formula_sum "Si O2"
_cell_formula_units_Z 56
_cell_length_a 7.820515
_cell_length_b 14.037617
_cell_length_c 33.372367
_cell_angle_alpha 90.000000
_cell_angle_beta 90.000000
_cell_angle_gamma 90.000000
_cell_volume 3663.664981
_symmetry_space_group_name_H-M "A M M 2"
_symmetry_group_IT_number 38
_symmetry_cell_setting 'orthorhombic'
loop_
_space_group_symop_operation_xyz
x,y,z
-x,-y,z
-x,y,z
x,-y,z
x,1/2+y,1/2+z
-x,1/2-y,1/2+z
-x,1/2+y,1/2+z
x,1/2-y,1/2+z
loop_
_atom_site_type_symbol
_atom_site_label
_atom_site_fract_x
_atom_site_fract_y
_atom_site_fract_z
Si Si1 0.306368 0.113677 0.454400
Si Si2 0.299192 0.114682 0.663885
Si Si3 0.000000 0.615607 0.103792
Si Si4 0.701211 0.802507 0.749061
Si Si5 0.792057 0.201850 0.370166
Si Si6 0.798536 0.105217 0.831652
Si Si7 0.000000 0.384131 0.012280
Si Si8 0.206806 0.106720 0.286928
O O1 0.500000 0.129763 0.468291
O O2 0.276338 0.164298 0.412015
O O3 0.166749 0.144526 0.486981
O O4 0.283798 0.000000 0.447983
O O5 0.500000 0.137306 0.656198
O O6 0.169990 0.142765 0.628495
O O7 0.242120 0.163648 0.705364
O O8 0.288551 0.000000 0.668993
O O9 0.000000 0.500000 0.102463
O O10 0.000000 0.649989 0.058026
O O11 0.500000 0.822275 0.751164
O O12 0.782987 0.860895 0.785629
O O13 0.732007 0.691300 0.758178
O O14 0.730635 0.307999 0.358531
O O15 0.742918 0.135799 0.332304
O O16 0.000000 0.201233 0.372026
O O17 0.000000 0.099806 0.840604
O O18 0.723360 0.000000 0.837067
O O19 0.000000 0.500000 0.013641
O O20 0.000000 0.107902 0.285881
O O21 0.265475 0.000000 0.277298
#
# Coordination Sequence:
#
# PCOD9356547 Si02
#       8
#     8   8   4   8   8   8   4   8
#     4  10  19  29  45  67  90 119 150 181 219 263
#     4   9  18  30  44  66  93 118 149 185 217 260
#     4   9  18  30  48  67  85 119 149 173 222 270
#     4  10  19  29  42  62  89 120 151 186 225 260
#     4   9  16  28  44  61  87 120 152 189 224 256
#     4   9  18  30  44  62  86 120 157 189 221 256
#     4   9  18  32  46  65  91 115 145 181 218 266
#     4   9  18  30  44  62  86 119 155 190 223 254
#
# _framework density 15.285240999999999
#
# number of rings (size 3 to 8) (size 9 to 14) (size 15 to 20)
#    0.000    2.714    0.714    2.143    2.000    4.571 
#    0.000    2.857    0.000    0.000    0.000    0.000 
#    0.000    2.286    0.000    3.143    0.000    0.286 
#
# Total GULP energy -156027.664374 kJ/mol
# GULP energy per Si atom -5572.416585 kJ/mol
# Density = 1.525045 g / cm^3
# Si number density = 15.285241 Si / 1000 Ang^3
#
#
#
# Elastic Constant Matrix: (Units=GPa)
#
#
# Indices 1 2 3 4 5 6 
#
# 1 59.3863 21.6137 50.4568 0.0000 0.0000 0.0000
# 2 21.6137 58.8361 30.9356 0.0000 0.0000 0.0000
# 3 50.4568 30.9356 121.8552 0.0000 0.0000 0.0000
# 4 0.0000 0.0000 0.0000 17.9000 0.0000 0.0000
# 5 0.0000 0.0000 0.0000 0.0000 -18.3701 0.0000
# 6 0.0000 0.0000 0.0000 0.0000 0.0000 11.4277
#
#
#
# Elastic Compliance Matrix: (Units=1/GPa)
#
#
# Indices 1 2 3 4 5 6 
#
# 1 0.027047 -0.004671 -0.010013 0.000000 0.000000 0.000000
# 2 -0.004671 0.020421 -0.003250 0.000000 0.000000 0.000000
# 3 -0.010013 -0.003250 0.013178 0.000000 0.000000 0.000000
# 4 0.000000 0.000000 0.000000 0.055866 0.000000 0.000000
# 5 0.000000 0.000000 0.000000 0.000000 -0.054436 0.000000
# 6 0.000000 0.000000 0.000000 0.000000 0.000000 0.087506
#
#
# Mechanical properties :
#
#
# Convention : Reuss Voigt Hill
#
# Bulk Modulus (GPa) = 40.36052 49.56553 44.96303
# Shear Modulus (GPa) = 25.81183 11.32963 18.57073
#
# Velocity S-wave (km/s) = 4.11381 2.72548 3.48939
# Velocity P-wave (km/s) = 7.00191 6.51166 6.76123
#
# Compressibility (1/GPa) = 0.02477669
#
# Stress axis : x y z
#
# Youngs Moduli (GPa) = 36.97320 48.96876 75.88446
#
# Poissons Ratio (x) = 0.22872 0.75987
# Poissons Ratio (y) = 0.17269 0.24665
# Poissons Ratio (z) = 0.37023 0.15917
#
# Static dielectric constant tensor:
#      x y z
#    x 1.551010 0.000000 0.000000 
#    y 0.000000 1.510730 0.000000 
#    z 0.000000 0.000000 1.483090 
# 
# From -- ./inp_files/24673.got.cif
#   From: 2010.05.17/outbox.cif.g08.bks.cpg/sg38_13_cif.got.tgz:24673.got - 2010.06.03 18:07:57.
