data_PCOD9356994
_publ_section_title
;
Structure prediction by ZEFSAII (Michael W. Deem and Ramdas Pophale) SiO2 
 PCOD9356994
Probable space group: A M M 2
;
_chemical_formula_sum "Si O2"
_cell_formula_units_Z 56
_cell_length_a 24.502974
_cell_length_b 8.445439
_cell_length_c 14.769484
_cell_angle_alpha 90.000000
_cell_angle_beta 90.000000
_cell_angle_gamma 90.000000
_cell_volume 3056.372978
_symmetry_space_group_name_H-M "A M M 2"
_symmetry_group_IT_number 38
_symmetry_cell_setting 'orthorhombic'
loop_
_space_group_symop_operation_xyz
x,y,z
-x,-y,z
-x,y,z
x,-y,z
x,1/2+y,1/2+z
-x,1/2-y,1/2+z
-x,1/2+y,1/2+z
x,1/2-y,1/2+z
loop_
_atom_site_type_symbol
_atom_site_label
_atom_site_fract_x
_atom_site_fract_y
_atom_site_fract_z
Si Si1 0.062509 0.808404 0.877880
Si Si2 0.359740 0.812761 0.889427
Si Si3 0.437820 0.313393 0.741001
Si Si4 0.765216 0.808440 0.877674
Si Si5 0.851037 0.689944 0.734795
Si Si6 0.438216 0.313791 0.042332
Si Si7 0.148332 0.307361 0.527343
O O1 0.097014 0.749984 0.791890
O O2 0.000000 0.754284 0.877451
O O3 0.062924 0.000000 0.876401
O O4 0.095736 0.758557 0.967988
O O5 0.393509 0.729765 0.968806
O O6 0.358709 0.000000 0.907435
O O7 0.393230 0.778495 0.798403
O O8 0.297385 0.756297 0.881631
O O9 0.500000 0.262787 0.763534
O O10 0.433372 0.500000 0.760819
O O11 0.430408 0.282349 0.634673
O O12 0.798215 0.746135 0.790974
O O13 0.766397 0.000000 0.873792
O O14 0.799335 0.759802 0.967090
O O15 0.851869 0.500000 0.734075
O O16 0.851175 0.747715 0.630887
O O17 0.500000 0.280782 0.008117
O O18 0.435527 0.500000 0.063676
O O19 0.148217 0.500000 0.529881
#
# Coordination Sequence:
#
# PCOD9356994 Si02
#       7
#     8   8   8   8   8   8   8
#     4   9  18  34  54  75 104 142 176 206 250 312
#     4  11  22  35  55  81 107 139 178 222 272 322
#     4  10  21  37  56  78 106 141 179 219 265 321
#     4   9  20  38  54  72 102 138 175 212 253 310
#     4  10  19  32  54  80 103 132 171 218 264 299
#     4  10  21  37  56  79 108 140 175 219 271 326
#     4   8  16  33  54  73  98 135 174 207 247 303
#
# _framework density 18.322371
#
# number of rings (size 3 to 8) (size 9 to 14) (size 15 to 20)
#    0.000    2.429    0.000    3.000    0.000    6.571 
#    0.000    8.571    0.000    0.000    0.000    0.000 
#    0.000    0.000    0.000    0.000    0.000    0.000 
#
# Total GULP energy -156237.822881 kJ/mol
# GULP energy per Si atom -5579.922246 kJ/mol
# Density = 1.828067 g / cm^3
# Si number density = 18.322371 Si / 1000 Ang^3
#
#
#
# Elastic Constant Matrix: (Units=GPa)
#
#
# Indices 1 2 3 4 5 6 
#
# 1 165.0553 17.7164 77.9196 0.0000 0.0000 0.0000
# 2 17.7164 18.8483 7.3395 0.0000 0.0000 0.0000
# 3 77.9196 7.3395 137.8687 0.0000 0.0000 0.0000
# 4 0.0000 0.0000 0.0000 30.4567 0.0000 0.0000
# 5 0.0000 0.0000 0.0000 0.0000 17.7031 0.0000
# 6 0.0000 0.0000 0.0000 0.0000 0.0000 24.8920
#
#
#
# Elastic Compliance Matrix: (Units=1/GPa)
#
#
# Indices 1 2 3 4 5 6 
#
# 1 0.009006 -0.006620 -0.004737 0.000000 0.000000 0.000000
# 2 -0.006620 0.059045 0.000598 0.000000 0.000000 0.000000
# 3 -0.004737 0.000598 0.009899 0.000000 0.000000 0.000000
# 4 0.000000 0.000000 0.000000 0.032833 0.000000 0.000000
# 5 0.000000 0.000000 0.000000 0.000000 0.056487 0.000000
# 6 0.000000 0.000000 0.000000 0.000000 0.000000 0.040174
#
#
# Mechanical properties :
#
#
# Convention : Reuss Voigt Hill
#
# Bulk Modulus (GPa) = 17.72080 58.63592 38.17836
# Shear Modulus (GPa) = 20.17984 29.19680 24.68832
#
# Velocity S-wave (km/s) = 3.32230 3.99620 3.67473
# Velocity P-wave (km/s) = 4.94060 7.30512 6.23596
#
# Compressibility (1/GPa) = 0.05643088
#
# Stress axis : x y z
#
# Youngs Moduli (GPa) = 111.04298 16.93631 101.02241
#
# Poissons Ratio (x) = 0.11212 0.47857
# Poissons Ratio (y) = 0.73511 -0.06043
# Poissons Ratio (z) = 0.52604 -0.01013
#
# Static dielectric constant tensor:
#      x y z
#    x 1.617300 0.000000 0.000000 
#    y 0.000000 1.629330 0.000000 
#    z 0.000000 0.000000 1.611120 
# 
# From -- ./inp_files/15442.got.cif
#   From: 2010.05.17/outbox.cif.g08.bks.cpg/sg38_8_cif.got.tgz:15442.got - 2010.06.03 18:07:57.
