data_PCOD9356899
_publ_section_title
;
Structure prediction by ZEFSAII (Michael W. Deem and Ramdas Pophale) SiO2 
 PCOD9356899
Probable space group: A M M 2
;
_chemical_formula_sum "Si O2"
_cell_formula_units_Z 64
_cell_length_a 7.499699
_cell_length_b 25.715500
_cell_length_c 15.455078
_cell_angle_alpha 90.000000
_cell_angle_beta 90.000000
_cell_angle_gamma 90.000000
_cell_volume 2980.643309
_symmetry_space_group_name_H-M "A M M 2"
_symmetry_group_IT_number 38
_symmetry_cell_setting 'orthorhombic'
loop_
_space_group_symop_operation_xyz
x,y,z
-x,-y,z
-x,y,z
x,-y,z
x,1/2+y,1/2+z
-x,1/2-y,1/2+z
-x,1/2+y,1/2+z
x,1/2-y,1/2+z
loop_
_atom_site_type_symbol
_atom_site_label
_atom_site_fract_x
_atom_site_fract_y
_atom_site_fract_z
Si Si1 0.281595 0.849157 0.516720
Si Si2 0.794062 0.728728 0.327218
Si Si3 0.786181 0.440938 0.483892
Si Si4 0.716427 0.733345 0.528886
Si Si5 0.286549 0.441913 0.138180
Si Si6 0.296736 0.345222 0.821434
Si Si7 0.713963 0.635259 0.638138
Si Si8 0.786260 0.116274 0.812572
O O1 0.500000 0.849187 0.515802
O O2 0.229609 0.792217 0.551992
O O3 0.219037 0.897084 0.574161
O O4 0.218491 0.852835 0.417018
O O5 0.782238 0.723041 0.431462
O O6 0.701483 0.782925 0.305198
O O7 0.718227 0.674403 0.292021
O O8 0.000000 0.734716 0.301533
O O9 0.718597 0.500000 0.481596
O O10 0.749077 0.411867 0.573384
O O11 0.717773 0.406751 0.403188
O O12 0.000000 0.443290 0.474078
O O13 0.500000 0.731827 0.525708
O O14 0.779557 0.688188 0.592408
O O15 0.500000 0.443708 0.126901
O O16 0.216752 0.500000 0.123097
O O17 0.251060 0.423196 0.235508
O O18 0.500000 0.364127 0.828445
O O19 0.214875 0.370044 0.735540
O O20 0.500000 0.640658 0.645790
O O21 0.000000 0.122173 0.820733
#
# Coordination Sequence:
#
# PCOD9356899 Si02
#       8
#     8   8   8   8   8   8   8   8
#     4   8  16  33  53  74 105 139 173 213 263 317
#     4  10  19  32  51  78 108 139 176 214 258 313
#     4  10  21  38  57  75 105 149 183 215 269 326
#     4   9  17  31  51  75 104 140 173 209 263 319
#     4  10  21  35  54  79 103 135 182 227 264 307
#     4   9  19  35  55  78 109 146 178 214 269 325
#     4  10  20  33  54  83 109 139 181 223 267 315
#     4  10  21  36  53  76 107 143 176 211 266 325
#
# _framework density 21.471872999999999
#
# number of rings (size 3 to 8) (size 9 to 14) (size 15 to 20)
#    0.000    2.500    1.250    1.500    1.750    3.000 
#    0.000    3.125    0.000    2.250    0.000    0.000 
#    0.000    0.000    0.000    0.000    0.000    0.000 
#
# Total GULP energy -178671.365237 kJ/mol
# GULP energy per Si atom -5583.480164 kJ/mol
# Density = 2.142300 g / cm^3
# Si number density = 21.471873 Si / 1000 Ang^3
#
#
#
# Elastic Constant Matrix: (Units=GPa)
#
#
# Indices 1 2 3 4 5 6 
#
# 1 61.5609 -4.7174 -6.1440 0.0000 0.0000 0.0000
# 2 -4.7174 109.2020 34.6689 0.0000 0.0000 0.0000
# 3 -6.1440 34.6689 67.1919 0.0000 0.0000 0.0000
# 4 0.0000 0.0000 0.0000 31.5313 0.0000 0.0000
# 5 0.0000 0.0000 0.0000 0.0000 24.1493 0.0000
# 6 0.0000 0.0000 0.0000 0.0000 0.0000 -222.1728
#
#
#
# Elastic Compliance Matrix: (Units=1/GPa)
#
#
# Indices 1 2 3 4 5 6 
#
# 1 0.016401 0.000278 0.001356 0.000000 0.000000 0.000000
# 2 0.000278 0.010956 -0.005628 0.000000 0.000000 0.000000
# 3 0.001356 -0.005628 0.017910 0.000000 0.000000 0.000000
# 4 0.000000 0.000000 0.000000 0.031715 0.000000 0.000000
# 5 0.000000 0.000000 0.000000 0.000000 0.041409 0.000000
# 6 0.000000 0.000000 0.000000 0.000000 0.000000 -0.004501
#
#
# Mechanical properties :
#
#
# Convention : Reuss Voigt Hill
#
# Bulk Modulus (GPa) = 26.82373 31.72997 29.27685
# Shear Modulus (GPa) = 37.22925 -19.02194 9.10365
#
# Velocity S-wave (km/s) = 4.16848 -2.97964 2.06131
# Velocity P-wave (km/s) = 5.97394 1.72392 4.39658
#
# Compressibility (1/GPa) = 0.03728042
#
# Stress axis : x y z
#
# Youngs Moduli (GPa) = 60.97286 91.27467 55.83358
#
# Poissons Ratio (x) = -0.02537 -0.07573
# Poissons Ratio (y) = -0.01695 0.31420
# Poissons Ratio (z) = -0.08270 0.51365
#
# Static dielectric constant tensor:
#      x y z
#    x 1.831760 0.000000 0.000000 
#    y 0.000000 1.763150 0.000000 
#    z 0.000000 0.000000 1.774230 
# 
# From -- ./inp_files/12810.got.cif
#   From: 2010.05.17/outbox.cif.g08.bks.cpg/sg38_7_cif.got.tgz:12810.got - 2010.06.03 18:07:57.
