data_PCOD9356835
_publ_section_title
;
Structure prediction by ZEFSAII (Michael W. Deem and Ramdas Pophale) SiO2 
 PCOD9356835
Probable space group: A M M 2
;
_chemical_formula_sum "Si O2"
_cell_formula_units_Z 64
_cell_length_a 18.388196
_cell_length_b 28.690282
_cell_length_c 5.310002
_cell_angle_alpha 90.000000
_cell_angle_beta 90.000000
_cell_angle_gamma 90.000000
_cell_volume 2801.358083
_symmetry_space_group_name_H-M "A M M 2"
_symmetry_group_IT_number 38
_symmetry_cell_setting 'orthorhombic'
loop_
_space_group_symop_operation_xyz
x,y,z
-x,-y,z
-x,y,z
x,-y,z
x,1/2+y,1/2+z
-x,1/2-y,1/2+z
-x,1/2+y,1/2+z
x,1/2-y,1/2+z
loop_
_atom_site_type_symbol
_atom_site_label
_atom_site_fract_x
_atom_site_fract_y
_atom_site_fract_z
Si Si1 0.196174 0.443078 0.840560
Si Si2 0.778497 0.767714 0.416513
Si Si3 0.920702 0.800309 0.919568
Si Si4 0.270707 0.948034 0.842001
Si Si5 0.584644 0.086596 0.994672
Si Si6 0.123613 0.851318 0.421682
Si Si7 0.414185 0.640237 0.003353
Si Si8 0.411485 0.772599 0.199406
O O1 0.182965 0.500000 0.835647
O O2 0.226512 0.425351 0.571188
O O3 0.132209 0.406919 0.908598
O O4 0.255032 0.431938 0.059942
O O5 0.740425 0.748148 0.662724
O O6 0.854733 0.736957 0.412598
O O7 0.800033 0.821726 0.426136
O O8 0.913309 0.833337 0.676670
O O9 0.000000 0.777323 0.916595
O O10 0.912990 0.831102 0.170362
O O11 0.353933 0.949894 0.925114
O O12 0.240723 0.000000 0.838517
O O13 0.500000 0.074722 0.947209
O O14 0.607296 0.125647 0.784893
O O15 0.590814 0.100552 0.286865
O O16 0.500000 0.650285 0.033265
O O17 0.380157 0.683648 0.855969
O O18 0.500000 0.777761 0.199206
O O19 0.396977 0.731711 0.402850
#
# Coordination Sequence:
#
# PCOD9356835 Si02
#       8
#     8   8   8   8   8   8   8   8
#     4  10  21  38  58  78 102 135 185 239 268 300
#     4   8  16  27  44  74 108 140 176 212 258 311
#     4  10  19  31  51  83 119 148 179 220 266 320
#     4  10  21  37  57  80 101 126 168 219 267 315
#     4  10  19  32  51  76 106 132 154 194 264 344
#     4  10  19  32  52  77 106 146 188 221 267 313
#     4   9  17  28  43  68 100 130 158 189 235 303
#     4   9  15  23  37  59  85 117 157 195 224 255
#
# _framework density 22.846060999999999
#
# number of rings (size 3 to 8) (size 9 to 14) (size 15 to 20)
#    0.000    2.500    0.000    2.625    0.000    7.750 
#    0.000    0.000    0.000    6.750    0.000   52.500 
#    0.000    0.000    0.000    0.000    0.000    0.000 
#
# Total GULP energy -178282.411956 kJ/mol
# GULP energy per Si atom -5571.325374 kJ/mol
# Density = 2.279406 g / cm^3
# Si number density = 22.846061 Si / 1000 Ang^3
#
#
#
# Elastic Constant Matrix: (Units=GPa)
#
#
# Indices 1 2 3 4 5 6 
#
# 1 46.9694 12.1248 7.9382 0.0000 0.0000 0.0000
# 2 12.1248 78.7065 14.0245 0.0000 0.0000 0.0000
# 3 7.9382 14.0245 132.1368 0.0000 0.0000 0.0000
# 4 0.0000 0.0000 0.0000 17.4234 0.0000 0.0000
# 5 0.0000 0.0000 0.0000 0.0000-2386.5004 0.0000
# 6 0.0000 0.0000 0.0000 0.0000 0.0000 14.7522
#
#
#
# Elastic Compliance Matrix: (Units=1/GPa)
#
#
# Indices 1 2 3 4 5 6 
#
# 1 0.022299 -0.003258 -0.000994 0.000000 0.000000 0.000000
# 2 -0.003258 0.013426 -0.001229 0.000000 0.000000 0.000000
# 3 -0.000994 -0.001229 0.007758 0.000000 0.000000 0.000000
# 4 0.000000 0.000000 0.000000 0.057394 0.000000 0.000000
# 5 0.000000 0.000000 0.000000 0.000000 -0.000419 0.000000
# 6 0.000000 0.000000 0.000000 0.000000 0.000000 0.067787
#
#
# Mechanical properties :
#
#
# Convention : Reuss Voigt Hill
#
# Bulk Modulus (GPa) = 30.74898 36.22084 33.48491
# Shear Modulus (GPa) = 26.30905 -455.94994 -214.82045
#
# Velocity S-wave (km/s) = 3.39717 -14.14242 -9.70740
# Velocity P-wave (km/s) = 5.37365 15.83631 10.53358
#
# Compressibility (1/GPa) = 0.03252140
#
# Stress axis : x y z
#
# Youngs Moduli (GPa) = 44.84406 74.48016 128.89771
#
# Poissons Ratio (x) = 0.24267 0.12810
# Poissons Ratio (y) = 0.14611 0.15845
# Poissons Ratio (z) = 0.04457 0.09156
#
# Static dielectric constant tensor:
#      x y z
#    x 2.127080 0.000000 0.000000 
#    y 0.000000 1.955760 0.000000 
#    z 0.000000 0.000000 1.921550 
# 
# From -- ./inp_files/1746.got.cif
#   From: 2010.05.17/outbox.cif.g08.bks.cpg/sg38_1_cif.got.tgz:1746.got - 2010.06.03 18:07:57.
