data_PCOD9356526
_publ_section_title
;
Structure prediction by ZEFSAII (Michael W. Deem and Ramdas Pophale) SiO2 
 PCOD9356526
Probable space group: A M M 2
;
_chemical_formula_sum "Si O2"
_cell_formula_units_Z 48
_cell_length_a 16.299109
_cell_length_b 9.613430
_cell_length_c 14.783436
_cell_angle_alpha 90.000000
_cell_angle_beta 90.000000
_cell_angle_gamma 90.000000
_cell_volume 2316.421664
_symmetry_space_group_name_H-M "A M M 2"
_symmetry_group_IT_number 38
_symmetry_cell_setting 'orthorhombic'
loop_
_space_group_symop_operation_xyz
x,y,z
-x,-y,z
-x,y,z
x,-y,z
x,1/2+y,1/2+z
-x,1/2-y,1/2+z
-x,1/2+y,1/2+z
x,1/2-y,1/2+z
loop_
_atom_site_type_symbol
_atom_site_label
_atom_site_fract_x
_atom_site_fract_y
_atom_site_fract_z
Si Si1 0.907852 0.340454 0.335950
Si Si2 0.253613 0.343231 0.862262
Si Si3 0.409566 0.659842 0.575119
Si Si4 0.087176 0.660978 0.118585
Si Si5 0.592695 0.339108 0.354155
Si Si6 0.261677 0.343827 0.076807
O O1 0.892348 0.500000 0.366718
O O2 0.832203 0.239631 0.356325
O O3 0.912564 0.344588 0.226909
O O4 0.000000 0.298233 0.367250
O O5 0.247322 0.500000 0.824623
O O6 0.331124 0.256372 0.824880
O O7 0.270646 0.356149 0.969248
O O8 0.500000 0.710232 0.601272
O O9 0.400118 0.500000 0.603360
O O10 0.406793 0.660202 0.464813
O O11 0.337141 0.754733 0.610738
O O12 0.088878 0.500000 0.084910
O O13 0.173168 0.726168 0.091517
O O14 0.000000 0.723580 0.089237
O O15 0.500000 0.293980 0.327853
O O16 0.604221 0.500000 0.326098
O O17 0.261037 0.500000 0.116616
#
# Coordination Sequence:
#
# PCOD9356526 Si02
#       6
#     8   8   8   8   8   8
#     4   9  18  33  51  66  83 116 159 194 222 260
#     4  10  19  28  43  71 101 122 141 178 233 279
#     4   8  14  25  41  62  90 122 150 177 215 262
#     4   8  15  30  50  67  84 113 154 191 220 257
#     4   8  14  26  44  64  88 121 157 187 215 255
#     4   9  17  28  45  70  94 116 145 183 225 264
#
# _framework density 20.721615
#
# number of rings (size 3 to 8) (size 9 to 14) (size 15 to 20)
#    0.000    3.333    0.000    2.500    0.000    2.333 
#    0.000    5.833    0.000    2.500    0.000    2.333 
#    0.000    0.000    0.000    0.000    0.000    0.000 
#
# Total GULP energy -133681.189306 kJ/mol
# GULP energy per Si atom -5570.049554 kJ/mol
# Density = 2.067445 g / cm^3
# Si number density = 20.721615 Si / 1000 Ang^3
#
#
#
# Elastic Constant Matrix: (Units=GPa)
#
#
# Indices 1 2 3 4 5 6 
#
# 1 248.5356 116.3568 0.0743 0.0000 0.0000 0.0000
# 2 116.3568 95.7400 1.6768 0.0000 0.0000 0.0000
# 3 0.0743 1.6768 30.2678 0.0000 0.0000 0.0000
# 4 0.0000 0.0000 0.0000 0.0254 0.0000 0.0000
# 5 0.0000 0.0000 0.0000 0.0000 41.1358 0.0000
# 6 0.0000 0.0000 0.0000 0.0000 0.0000 21.9706
#
#
#
# Elastic Compliance Matrix: (Units=1/GPa)
#
#
# Indices 1 2 3 4 5 6 
#
# 1 0.009346 -0.011369 0.000607 0.000000 0.000000 0.000000
# 2 -0.011369 0.024286 -0.001317 0.000000 0.000000 0.000000
# 3 0.000607 -0.001317 0.033110 0.000000 0.000000 0.000000
# 4 0.000000 0.000000 0.000000 39.374418 0.000000 0.000000
# 5 0.000000 0.000000 0.000000 0.000000 0.024310 0.000000
# 6 0.000000 0.000000 0.000000 0.000000 0.000000 0.045515
#
#
# Mechanical properties :
#
#
# Convention : Reuss Voigt Hill
#
# Bulk Modulus (GPa) = 23.48419 67.86213 45.67316
# Shear Modulus (GPa) = 0.12642 29.72205 14.92424
#
# Velocity S-wave (km/s) = 0.24727 3.79139 2.68661
# Velocity P-wave (km/s) = 3.38221 7.21018 5.63143
#
# Compressibility (1/GPa) = 0.04258183
#
# Stress axis : x y z
#
# Youngs Moduli (GPa) = 106.99494 41.17627 30.20246
#
# Poissons Ratio (x) = 0.46815 -0.01833
# Poissons Ratio (y) = 1.21648 0.03979
# Poissons Ratio (z) = -0.06493 0.05425
#
# Static dielectric constant tensor:
#      x y z
#    x 1.771590 0.000000 0.000000 
#    y 0.000000 1.736290 0.000000 
#    z 0.000000 0.000000 1.778710 
# 
# From -- ./inp_files/18162.got.cif
#   From: 2010.05.17/outbox.cif.g08.bks.cpg/sg38_10_cif.got.tgz:18162.got - 2010.06.03 18:07:57.
